MODEL 1
REMARK VINA RESULT:    -4.532      0.000      0.000
REMARK INTER + INTRA:         -10.434
REMARK INTER:                  -8.771
REMARK INTRA:                  -1.663
REMARK UNBOUND:                -1.663
REMARK SMILES CCCCCCCCCCCCCCCCCC(=O)[O-]
REMARK SMILES IDX 10 1 11 2 12 3 13 4 14 5 15 6 16 7 17 8 18 9 19 10 20 11
REMARK SMILES IDX 9 12 8 13 7 14 6 15 5 16 4 17 3 18 2 19 1 20
REMARK H PARENT
REMARK Flexibility Score: inf
ROOT
ATOM      1  C   UNL     1       4.205  79.885  67.560  1.00  0.00     0.000 C 
ENDROOT
BRANCH   1   2
ATOM      2  C   UNL     1       4.183  78.838  68.691  1.00  0.00     0.000 C 
BRANCH   2   3
ATOM      3  C   UNL     1       3.631  77.457  68.288  1.00  0.00     0.000 C 
BRANCH   3   4
ATOM      4  C   UNL     1       4.675  76.321  68.268  1.00  0.00     0.000 C 
BRANCH   4   5
ATOM      5  C   UNL     1       5.588  76.295  67.026  1.00  0.00     0.000 C 
BRANCH   5   6
ATOM      6  C   UNL     1       6.947  77.001  67.200  1.00  0.00     0.000 C 
BRANCH   6   7
ATOM      7  C   UNL     1       7.296  78.025  66.101  1.00  0.00     0.006 C 
BRANCH   7   8
ATOM      8  C   UNL     1       6.583  77.787  64.761  1.00  0.00     0.053 C 
BRANCH   8   9
ATOM      9  C   UNL     1       7.129  78.661  63.673  1.00  0.00     0.041 C 
ATOM     10  O   UNL     1       8.366  78.687  63.444  1.00  0.00    -0.550 OA
ATOM     11  O   UNL     1       6.267  79.428  62.897  1.00  0.00    -0.550 OA
ENDBRANCH   8   9
ENDBRANCH   7   8
ENDBRANCH   6   7
ENDBRANCH   5   6
ENDBRANCH   4   5
ENDBRANCH   3   4
ENDBRANCH   2   3
ENDBRANCH   1   2
BRANCH   1  12
ATOM     12  C   UNL     1       3.466  79.434  66.281  1.00  0.00     0.000 C 
BRANCH  12  13
ATOM     13  C   UNL     1       3.599  80.447  65.134  1.00  0.00    -0.000 C 
BRANCH  13  14
ATOM     14  C   UNL     1       2.506  81.518  65.220  1.00  0.00    -0.000 C 
BRANCH  14  15
ATOM     15  C   UNL     1       2.805  82.688  64.269  1.00  0.00    -0.000 C 
BRANCH  15  16
ATOM     16  C   UNL     1       3.088  84.002  65.016  1.00  0.00    -0.000 C 
BRANCH  16  17
ATOM     17  C   UNL     1       4.165  84.860  64.324  1.00  0.00    -0.000 C 
BRANCH  17  18
ATOM     18  C   UNL     1       4.210  84.622  62.800  1.00  0.00    -0.000 C 
BRANCH  18  19
ATOM     19  C   UNL     1       4.854  85.775  62.011  1.00  0.00    -0.003 C 
ATOM     20  C   UNL     1       4.020  87.054  62.027  1.00  0.00     0.004 C 
ENDBRANCH  18  19
ENDBRANCH  17  18
ENDBRANCH  16  17
ENDBRANCH  15  16
ENDBRANCH  14  15
ENDBRANCH  13  14
ENDBRANCH  12  13
ENDBRANCH   1  12
TORSDOF 16
ENDMDL
MODEL 2
REMARK VINA RESULT:    -4.420      2.627      4.565
REMARK INTER + INTRA:         -10.217
REMARK INTER:                  -9.342
REMARK INTRA:                  -0.875
REMARK UNBOUND:                -1.663
REMARK SMILES CCCCCCCCCCCCCCCCCC(=O)[O-]
REMARK SMILES IDX 10 1 11 2 12 3 13 4 14 5 15 6 16 7 17 8 18 9 19 10 20 11
REMARK SMILES IDX 9 12 8 13 7 14 6 15 5 16 4 17 3 18 2 19 1 20
REMARK H PARENT
REMARK Flexibility Score: inf
ROOT
ATOM      1  C   UNL     1       3.383  81.907  64.524  1.00  0.00     0.000 C 
ENDROOT
BRANCH   1   2
ATOM      2  C   UNL     1       3.621  81.293  63.130  1.00  0.00     0.000 C 
BRANCH   2   3
ATOM      3  C   UNL     1       4.825  80.337  63.038  1.00  0.00     0.000 C 
BRANCH   3   4
ATOM      4  C   UNL     1       4.577  78.922  63.602  1.00  0.00     0.000 C 
BRANCH   4   5
ATOM      5  C   UNL     1       5.118  78.683  65.025  1.00  0.00     0.000 C 
BRANCH   5   6
ATOM      6  C   UNL     1       6.069  77.478  65.168  1.00  0.00     0.000 C 
BRANCH   6   7
ATOM      7  C   UNL     1       7.074  77.575  66.333  1.00  0.00     0.006 C 
BRANCH   7   8
ATOM      8  C   UNL     1       6.796  76.610  67.496  1.00  0.00     0.053 C 
BRANCH   8   9
ATOM      9  C   UNL     1       5.458  76.860  68.123  1.00  0.00     0.041 C 
ATOM     10  O   UNL     1       4.585  75.953  68.131  1.00  0.00    -0.550 OA
ATOM     11  O   UNL     1       5.184  78.085  68.719  1.00  0.00    -0.550 OA
ENDBRANCH   8   9
ENDBRANCH   7   8
ENDBRANCH   6   7
ENDBRANCH   5   6
ENDBRANCH   4   5
ENDBRANCH   3   4
ENDBRANCH   2   3
ENDBRANCH   1   2
BRANCH   1  12
ATOM     12  C   UNL     1       3.024  83.410  64.488  1.00  0.00     0.000 C 
BRANCH  12  13
ATOM     13  C   UNL     1       4.262  84.307  64.337  1.00  0.00    -0.000 C 
BRANCH  13  14
ATOM     14  C   UNL     1       3.943  85.539  63.480  1.00  0.00    -0.000 C 
BRANCH  14  15
ATOM     15  C   UNL     1       4.721  85.504  62.155  1.00  0.00    -0.000 C 
BRANCH  15  16
ATOM     16  C   UNL     1       4.561  86.798  61.339  1.00  0.00    -0.000 C 
BRANCH  16  17
ATOM     17  C   UNL     1       3.691  87.849  62.053  1.00  0.00    -0.000 C 
BRANCH  17  18
ATOM     18  C   UNL     1       3.542  89.144  61.225  1.00  0.00    -0.000 C 
BRANCH  18  19
ATOM     19  C   UNL     1       4.574  89.276  60.091  1.00  0.00    -0.003 C 
ATOM     20  C   UNL     1       4.978  90.721  59.811  1.00  0.00     0.004 C 
ENDBRANCH  18  19
ENDBRANCH  17  18
ENDBRANCH  16  17
ENDBRANCH  15  16
ENDBRANCH  14  15
ENDBRANCH  13  14
ENDBRANCH  12  13
ENDBRANCH   1  12
TORSDOF 16
ENDMDL
MODEL 3
REMARK VINA RESULT:    -4.361      3.505      8.391
REMARK INTER + INTRA:         -10.103
REMARK INTER:                  -8.785
REMARK INTRA:                  -1.318
REMARK UNBOUND:                -1.663
REMARK SMILES CCCCCCCCCCCCCCCCCC(=O)[O-]
REMARK SMILES IDX 10 1 11 2 12 3 13 4 14 5 15 6 16 7 17 8 18 9 19 10 20 11
REMARK SMILES IDX 9 12 8 13 7 14 6 15 5 16 4 17 3 18 2 19 1 20
REMARK H PARENT
REMARK Flexibility Score: inf
ROOT
ATOM      1  C   UNL     1       3.750  80.369  65.031  1.00  0.00     0.000 C 
ENDROOT
BRANCH   1   2
ATOM      2  C   UNL     1       2.988  81.256  64.026  1.00  0.00     0.000 C 
BRANCH   2   3
ATOM      3  C   UNL     1       3.743  82.520  63.572  1.00  0.00     0.000 C 
BRANCH   3   4
ATOM      4  C   UNL     1       3.793  83.657  64.613  1.00  0.00     0.000 C 
BRANCH   4   5
ATOM      5  C   UNL     1       4.330  85.002  64.085  1.00  0.00     0.000 C 
BRANCH   5   6
ATOM      6  C   UNL     1       3.459  85.675  63.005  1.00  0.00     0.000 C 
BRANCH   6   7
ATOM      7  C   UNL     1       4.168  86.771  62.184  1.00  0.00     0.006 C 
BRANCH   7   8
ATOM      8  C   UNL     1       3.221  87.696  61.405  1.00  0.00     0.053 C 
BRANCH   8   9
ATOM      9  C   UNL     1       3.910  88.944  60.944  1.00  0.00     0.041 C 
ATOM     10  O   UNL     1       4.807  88.882  60.064  1.00  0.00    -0.550 OA
ATOM     11  O   UNL     1       3.543  90.178  61.469  1.00  0.00    -0.550 OA
ENDBRANCH   8   9
ENDBRANCH   7   8
ENDBRANCH   6   7
ENDBRANCH   5   6
ENDBRANCH   4   5
ENDBRANCH   3   4
ENDBRANCH   2   3
ENDBRANCH   1   2
BRANCH   1  12
ATOM     12  C   UNL     1       3.044  80.233  66.398  1.00  0.00     0.000 C 
BRANCH  12  13
ATOM     13  C   UNL     1       3.576  79.050  67.222  1.00  0.00    -0.000 C 
BRANCH  13  14
ATOM     14  C   UNL     1       4.524  79.534  68.325  1.00  0.00    -0.000 C 
BRANCH  14  15
ATOM     15  C   UNL     1       5.601  78.481  68.627  1.00  0.00    -0.000 C 
BRANCH  15  16
ATOM     16  C   UNL     1       5.230  77.084  68.101  1.00  0.00    -0.000 C 
BRANCH  16  17
ATOM     17  C   UNL     1       6.269  76.524  67.111  1.00  0.00    -0.000 C 
BRANCH  17  18
ATOM     18  C   UNL     1       7.261  77.607  66.633  1.00  0.00    -0.000 C 
BRANCH  18  19
ATOM     19  C   UNL     1       7.091  77.990  65.152  1.00  0.00    -0.003 C 
ATOM     20  C   UNL     1       5.909  77.293  64.482  1.00  0.00     0.004 C 
ENDBRANCH  18  19
ENDBRANCH  17  18
ENDBRANCH  16  17
ENDBRANCH  15  16
ENDBRANCH  14  15
ENDBRANCH  13  14
ENDBRANCH  12  13
ENDBRANCH   1  12
TORSDOF 16
ENDMDL
MODEL 4
REMARK VINA RESULT:    -4.356      1.217      2.002
REMARK INTER + INTRA:         -10.094
REMARK INTER:                  -8.694
REMARK INTRA:                  -1.399
REMARK UNBOUND:                -1.663
REMARK SMILES CCCCCCCCCCCCCCCCCC(=O)[O-]
REMARK SMILES IDX 10 1 11 2 12 3 13 4 14 5 15 6 16 7 17 8 18 9 19 10 20 11
REMARK SMILES IDX 9 12 8 13 7 14 6 15 5 16 4 17 3 18 2 19 1 20
REMARK H PARENT
REMARK Flexibility Score: inf
ROOT
ATOM      1  C   UNL     1       3.472  79.882  65.671  1.00  0.00     0.000 C 
ENDROOT
BRANCH   1   2
ATOM      2  C   UNL     1       2.413  80.291  66.714  1.00  0.00     0.000 C 
BRANCH   2   3
ATOM      3  C   UNL     1       2.893  80.252  68.177  1.00  0.00     0.000 C 
BRANCH   3   4
ATOM      4  C   UNL     1       4.309  79.676  68.383  1.00  0.00     0.000 C 
BRANCH   4   5
ATOM      5  C   UNL     1       4.361  78.166  68.686  1.00  0.00     0.000 C 
BRANCH   5   6
ATOM      6  C   UNL     1       5.660  77.456  68.253  1.00  0.00     0.000 C 
BRANCH   6   7
ATOM      7  C   UNL     1       6.681  78.352  67.525  1.00  0.00     0.006 C 
BRANCH   7   8
ATOM      8  C   UNL     1       7.546  77.619  66.488  1.00  0.00     0.053 C 
BRANCH   8   9
ATOM      9  C   UNL     1       7.060  77.850  65.089  1.00  0.00     0.041 C 
ATOM     10  O   UNL     1       7.741  78.544  64.290  1.00  0.00    -0.550 OA
ATOM     11  O   UNL     1       5.868  77.276  64.662  1.00  0.00    -0.550 OA
ENDBRANCH   8   9
ENDBRANCH   7   8
ENDBRANCH   6   7
ENDBRANCH   5   6
ENDBRANCH   4   5
ENDBRANCH   3   4
ENDBRANCH   2   3
ENDBRANCH   1   2
BRANCH   1  12
ATOM     12  C   UNL     1       3.014  80.085  64.209  1.00  0.00     0.000 C 
BRANCH  12  13
ATOM     13  C   UNL     1       3.662  81.313  63.553  1.00  0.00    -0.000 C 
BRANCH  13  14
ATOM     14  C   UNL     1       2.600  82.345  63.154  1.00  0.00    -0.000 C 
BRANCH  14  15
ATOM     15  C   UNL     1       2.534  83.491  64.176  1.00  0.00    -0.000 C 
BRANCH  15  16
ATOM     16  C   UNL     1       3.907  84.130  64.442  1.00  0.00    -0.000 C 
BRANCH  16  17
ATOM     17  C   UNL     1       4.075  85.493  63.745  1.00  0.00    -0.000 C 
BRANCH  17  18
ATOM     18  C   UNL     1       4.708  85.358  62.343  1.00  0.00    -0.000 C 
BRANCH  18  19
ATOM     19  C   UNL     1       4.531  86.606  61.461  1.00  0.00    -0.003 C 
ATOM     20  C   UNL     1       3.647  87.675  62.101  1.00  0.00     0.004 C 
ENDBRANCH  18  19
ENDBRANCH  17  18
ENDBRANCH  16  17
ENDBRANCH  15  16
ENDBRANCH  14  15
ENDBRANCH  13  14
ENDBRANCH  12  13
ENDBRANCH   1  12
TORSDOF 16
ENDMDL
MODEL 5
REMARK VINA RESULT:    -4.355      2.814      7.282
REMARK INTER + INTRA:         -10.092
REMARK INTER:                  -8.099
REMARK INTRA:                  -1.993
REMARK UNBOUND:                -1.663
REMARK SMILES CCCCCCCCCCCCCCCCCC(=O)[O-]
REMARK SMILES IDX 10 1 11 2 12 3 13 4 14 5 15 6 16 7 17 8 18 9 19 10 20 11
REMARK SMILES IDX 9 12 8 13 7 14 6 15 5 16 4 17 3 18 2 19 1 20
REMARK H PARENT
REMARK Flexibility Score: inf
ROOT
ATOM      1  C   UNL     1       6.225  78.593  63.469  1.00  0.00     0.000 C 
ENDROOT
BRANCH   1   2
ATOM      2  C   UNL     1       4.773  78.945  63.091  1.00  0.00     0.000 C 
BRANCH   2   3
ATOM      3  C   UNL     1       4.443  80.450  63.109  1.00  0.00     0.000 C 
BRANCH   3   4
ATOM      4  C   UNL     1       2.950  80.790  62.920  1.00  0.00     0.000 C 
BRANCH   4   5
ATOM      5  C   UNL     1       2.471  82.056  63.658  1.00  0.00     0.000 C 
BRANCH   5   6
ATOM      6  C   UNL     1       3.552  82.775  64.490  1.00  0.00     0.000 C 
BRANCH   6   7
ATOM      7  C   UNL     1       3.341  84.293  64.660  1.00  0.00     0.006 C 
BRANCH   7   8
ATOM      8  C   UNL     1       4.339  85.165  63.882  1.00  0.00     0.053 C 
BRANCH   8   9
ATOM      9  C   UNL     1       3.657  86.017  62.855  1.00  0.00     0.041 C 
ATOM     10  O   UNL     1       4.312  86.881  62.215  1.00  0.00    -0.550 OA
ATOM     11  O   UNL     1       2.305  85.839  62.589  1.00  0.00    -0.550 OA
ENDBRANCH   8   9
ENDBRANCH   7   8
ENDBRANCH   6   7
ENDBRANCH   5   6
ENDBRANCH   4   5
ENDBRANCH   3   4
ENDBRANCH   2   3
ENDBRANCH   1   2
BRANCH   1  12
ATOM     12  C   UNL     1       6.340  77.663  64.697  1.00  0.00     0.000 C 
BRANCH  12  13
ATOM     13  C   UNL     1       7.427  78.117  65.682  1.00  0.00    -0.000 C 
BRANCH  13  14
ATOM     14  C   UNL     1       7.387  77.281  66.966  1.00  0.00    -0.000 C 
BRANCH  14  15
ATOM     15  C   UNL     1       6.093  76.457  67.047  1.00  0.00    -0.000 C 
BRANCH  15  16
ATOM     16  C   UNL     1       5.407  76.561  68.420  1.00  0.00    -0.000 C 
BRANCH  16  17
ATOM     17  C   UNL     1       4.093  77.364  68.370  1.00  0.00    -0.000 C 
BRANCH  17  18
ATOM     18  C   UNL     1       4.339  78.888  68.421  1.00  0.00    -0.000 C 
BRANCH  18  19
ATOM     19  C   UNL     1       4.228  79.579  67.052  1.00  0.00    -0.003 C 
ATOM     20  C   UNL     1       2.787  79.731  66.570  1.00  0.00     0.004 C 
ENDBRANCH  18  19
ENDBRANCH  17  18
ENDBRANCH  16  17
ENDBRANCH  15  16
ENDBRANCH  14  15
ENDBRANCH  13  14
ENDBRANCH  12  13
ENDBRANCH   1  12
TORSDOF 16
ENDMDL
MODEL 6
REMARK VINA RESULT:    -4.334      2.424      3.730
REMARK INTER + INTRA:         -10.051
REMARK INTER:                  -8.160
REMARK INTRA:                  -1.891
REMARK UNBOUND:                -1.663
REMARK SMILES CCCCCCCCCCCCCCCCCC(=O)[O-]
REMARK SMILES IDX 10 1 11 2 12 3 13 4 14 5 15 6 16 7 17 8 18 9 19 10 20 11
REMARK SMILES IDX 9 12 8 13 7 14 6 15 5 16 4 17 3 18 2 19 1 20
REMARK H PARENT
REMARK Flexibility Score: inf
ROOT
ATOM      1  C   UNL     1       5.283  79.503  63.574  1.00  0.00     0.000 C 
ENDROOT
BRANCH   1   2
ATOM      2  C   UNL     1       6.288  78.376  63.886  1.00  0.00     0.000 C 
BRANCH   2   3
ATOM      3  C   UNL     1       5.661  77.082  64.437  1.00  0.00     0.000 C 
BRANCH   3   4
ATOM      4  C   UNL     1       6.044  76.742  65.893  1.00  0.00     0.000 C 
BRANCH   4   5
ATOM      5  C   UNL     1       7.129  77.646  66.510  1.00  0.00     0.000 C 
BRANCH   5   6
ATOM      6  C   UNL     1       6.693  78.425  67.767  1.00  0.00     0.000 C 
BRANCH   6   7
ATOM      7  C   UNL     1       5.191  78.337  68.101  1.00  0.00     0.006 C 
BRANCH   7   8
ATOM      8  C   UNL     1       4.508  79.695  68.326  1.00  0.00     0.053 C 
BRANCH   8   9
ATOM      9  C   UNL     1       3.015  79.571  68.368  1.00  0.00     0.041 C 
ATOM     10  O   UNL     1       2.337  80.342  69.097  1.00  0.00    -0.550 OA
ATOM     11  O   UNL     1       2.372  78.622  67.583  1.00  0.00    -0.550 OA
ENDBRANCH   8   9
ENDBRANCH   7   8
ENDBRANCH   6   7
ENDBRANCH   5   6
ENDBRANCH   4   5
ENDBRANCH   3   4
ENDBRANCH   2   3
ENDBRANCH   1   2
BRANCH   1  12
ATOM     12  C   UNL     1       4.052  79.514  64.507  1.00  0.00     0.000 C 
BRANCH  12  13
ATOM     13  C   UNL     1       2.758  79.892  63.771  1.00  0.00    -0.000 C 
BRANCH  13  14
ATOM     14  C   UNL     1       1.809  80.666  64.694  1.00  0.00    -0.000 C 
BRANCH  14  15
ATOM     15  C   UNL     1       2.556  81.778  65.446  1.00  0.00    -0.000 C 
BRANCH  15  16
ATOM     16  C   UNL     1       2.567  83.110  64.678  1.00  0.00    -0.000 C 
BRANCH  16  17
ATOM     17  C   UNL     1       3.990  83.575  64.312  1.00  0.00    -0.000 C 
BRANCH  17  18
ATOM     18  C   UNL     1       4.147  85.108  64.412  1.00  0.00    -0.000 C 
BRANCH  18  19
ATOM     19  C   UNL     1       4.063  85.829  63.056  1.00  0.00    -0.003 C 
ATOM     20  C   UNL     1       4.948  85.197  61.983  1.00  0.00     0.004 C 
ENDBRANCH  18  19
ENDBRANCH  17  18
ENDBRANCH  16  17
ENDBRANCH  15  16
ENDBRANCH  14  15
ENDBRANCH  13  14
ENDBRANCH  12  13
ENDBRANCH   1  12
TORSDOF 16
ENDMDL
MODEL 7
REMARK VINA RESULT:    -4.310      2.226      3.548
REMARK INTER + INTRA:         -10.005
REMARK INTER:                  -8.758
REMARK INTRA:                  -1.247
REMARK UNBOUND:                -1.663
REMARK SMILES CCCCCCCCCCCCCCCCCC(=O)[O-]
REMARK SMILES IDX 10 1 11 2 12 3 13 4 14 5 15 6 16 7 17 8 18 9 19 10 20 11
REMARK SMILES IDX 9 12 8 13 7 14 6 15 5 16 4 17 3 18 2 19 1 20
REMARK H PARENT
REMARK Flexibility Score: inf
ROOT
ATOM      1  C   UNL     1       3.609  79.895  63.760  1.00  0.00     0.000 C 
ENDROOT
BRANCH   1   2
ATOM      2  C   UNL     1       5.047  79.474  63.401  1.00  0.00     0.000 C 
BRANCH   2   3
ATOM      3  C   UNL     1       5.283  77.953  63.341  1.00  0.00     0.000 C 
BRANCH   3   4
ATOM      4  C   UNL     1       5.853  77.331  64.633  1.00  0.00     0.000 C 
BRANCH   4   5
ATOM      5  C   UNL     1       7.090  78.046  65.210  1.00  0.00     0.000 C 
BRANCH   5   6
ATOM      6  C   UNL     1       7.553  77.538  66.591  1.00  0.00     0.000 C 
BRANCH   6   7
ATOM      7  C   UNL     1       6.437  77.410  67.647  1.00  0.00     0.006 C 
BRANCH   7   8
ATOM      8  C   UNL     1       5.922  78.751  68.193  1.00  0.00     0.053 C 
BRANCH   8   9
ATOM      9  C   UNL     1       4.438  78.737  68.404  1.00  0.00     0.041 C 
ATOM     10  O   UNL     1       3.758  77.742  68.041  1.00  0.00    -0.550 OA
ATOM     11  O   UNL     1       3.812  79.812  69.023  1.00  0.00    -0.550 OA
ENDBRANCH   8   9
ENDBRANCH   7   8
ENDBRANCH   6   7
ENDBRANCH   5   6
ENDBRANCH   4   5
ENDBRANCH   3   4
ENDBRANCH   2   3
ENDBRANCH   1   2
BRANCH   1  12
ATOM     12  C   UNL     1       3.412  80.220  65.258  1.00  0.00     0.000 C 
BRANCH  12  13
ATOM     13  C   UNL     1       2.876  81.641  65.488  1.00  0.00    -0.000 C 
BRANCH  13  14
ATOM     14  C   UNL     1       3.190  82.545  64.290  1.00  0.00    -0.000 C 
BRANCH  14  15
ATOM     15  C   UNL     1       3.345  84.009  64.730  1.00  0.00    -0.000 C 
BRANCH  15  16
ATOM     16  C   UNL     1       4.463  84.743  63.971  1.00  0.00    -0.000 C 
BRANCH  16  17
ATOM     17  C   UNL     1       4.268  84.707  62.443  1.00  0.00    -0.000 C 
BRANCH  17  18
ATOM     18  C   UNL     1       5.150  85.746  61.718  1.00  0.00    -0.000 C 
BRANCH  18  19
ATOM     19  C   UNL     1       4.353  86.899  61.084  1.00  0.00    -0.003 C 
ATOM     20  C   UNL     1       3.648  87.779  62.113  1.00  0.00     0.004 C 
ENDBRANCH  18  19
ENDBRANCH  17  18
ENDBRANCH  16  17
ENDBRANCH  15  16
ENDBRANCH  14  15
ENDBRANCH  13  14
ENDBRANCH  12  13
ENDBRANCH   1  12
TORSDOF 16
ENDMDL
MODEL 8
REMARK VINA RESULT:    -4.299      4.361      8.001
REMARK INTER + INTRA:          -9.983
REMARK INTER:                  -7.840
REMARK INTRA:                  -2.143
REMARK UNBOUND:                -1.663
REMARK SMILES CCCCCCCCCCCCCCCCCC(=O)[O-]
REMARK SMILES IDX 10 1 11 2 12 3 13 4 14 5 15 6 16 7 17 8 18 9 19 10 20 11
REMARK SMILES IDX 9 12 8 13 7 14 6 15 5 16 4 17 3 18 2 19 1 20
REMARK H PARENT
REMARK Flexibility Score: inf
ROOT
ATOM      1  C   UNL     1       5.726  78.643  63.759  1.00  0.00     0.000 C 
ENDROOT
BRANCH   1   2
ATOM      2  C   UNL     1       4.355  79.181  63.307  1.00  0.00     0.000 C 
BRANCH   2   3
ATOM      3  C   UNL     1       3.811  80.357  64.142  1.00  0.00     0.000 C 
BRANCH   3   4
ATOM      4  C   UNL     1       2.877  79.954  65.302  1.00  0.00     0.000 C 
BRANCH   4   5
ATOM      5  C   UNL     1       3.543  79.913  66.691  1.00  0.00     0.000 C 
BRANCH   5   6
ATOM      6  C   UNL     1       2.589  80.148  67.880  1.00  0.00     0.000 C 
BRANCH   6   7
ATOM      7  C   UNL     1       3.042  79.519  69.214  1.00  0.00     0.006 C 
BRANCH   7   8
ATOM      8  C   UNL     1       1.917  78.844  70.013  1.00  0.00     0.053 C 
BRANCH   8   9
ATOM      9  C   UNL     1       1.385  79.735  71.094  1.00  0.00     0.041 C 
ATOM     10  O   UNL     1       1.746  79.565  72.288  1.00  0.00    -0.550 OA
ATOM     11  O   UNL     1       0.511  80.768  70.778  1.00  0.00    -0.550 OA
ENDBRANCH   8   9
ENDBRANCH   7   8
ENDBRANCH   6   7
ENDBRANCH   5   6
ENDBRANCH   4   5
ENDBRANCH   3   4
ENDBRANCH   2   3
ENDBRANCH   1   2
BRANCH   1  12
ATOM     12  C   UNL     1       5.637  77.380  64.645  1.00  0.00     0.000 C 
BRANCH  12  13
ATOM     13  C   UNL     1       6.848  77.227  65.577  1.00  0.00    -0.000 C 
BRANCH  13  14
ATOM     14  C   UNL     1       6.849  78.317  66.656  1.00  0.00    -0.000 C 
BRANCH  14  15
ATOM     15  C   UNL     1       6.271  77.785  67.977  1.00  0.00    -0.000 C 
BRANCH  15  16
ATOM     16  C   UNL     1       6.634  76.313  68.234  1.00  0.00    -0.000 C 
BRANCH  16  17
ATOM     17  C   UNL     1       5.440  75.487  68.751  1.00  0.00    -0.000 C 
BRANCH  17  18
ATOM     18  C   UNL     1       4.087  76.050  68.266  1.00  0.00    -0.000 C 
BRANCH  18  19
ATOM     19  C   UNL     1       3.019  74.970  68.020  1.00  0.00    -0.003 C 
ATOM     20  C   UNL     1       1.608  75.427  68.381  1.00  0.00     0.004 C 
ENDBRANCH  18  19
ENDBRANCH  17  18
ENDBRANCH  16  17
ENDBRANCH  15  16
ENDBRANCH  14  15
ENDBRANCH  13  14
ENDBRANCH  12  13
ENDBRANCH   1  12
TORSDOF 16
ENDMDL
MODEL 9
REMARK VINA RESULT:    -4.228      3.773      7.233
REMARK INTER + INTRA:          -9.846
REMARK INTER:                  -7.345
REMARK INTRA:                  -2.501
REMARK UNBOUND:                -1.663
REMARK SMILES CCCCCCCCCCCCCCCCCC(=O)[O-]
REMARK SMILES IDX 10 1 11 2 12 3 13 4 14 5 15 6 16 7 17 8 18 9 19 10 20 11
REMARK SMILES IDX 9 12 8 13 7 14 6 15 5 16 4 17 3 18 2 19 1 20
REMARK H PARENT
REMARK Flexibility Score: inf
ROOT
ATOM      1  C   UNL     1       3.354  80.387  62.940  1.00  0.00     0.000 C 
ENDROOT
BRANCH   1   2
ATOM      2  C   UNL     1       2.625  80.106  64.268  1.00  0.00     0.000 C 
BRANCH   2   3
ATOM      3  C   UNL     1       3.415  80.484  65.536  1.00  0.00     0.000 C 
BRANCH   3   4
ATOM      4  C   UNL     1       3.628  79.331  66.538  1.00  0.00     0.000 C 
BRANCH   4   5
ATOM      5  C   UNL     1       4.466  79.692  67.780  1.00  0.00     0.000 C 
BRANCH   5   6
ATOM      6  C   UNL     1       3.701  79.653  69.118  1.00  0.00     0.000 C 
BRANCH   6   7
ATOM      7  C   UNL     1       2.174  79.487  68.992  1.00  0.00     0.006 C 
BRANCH   7   8
ATOM      8  C   UNL     1       1.358  80.667  69.541  1.00  0.00     0.053 C 
BRANCH   8   9
ATOM      9  C   UNL     1       1.163  81.740  68.514  1.00  0.00     0.041 C 
ATOM     10  O   UNL     1       0.704  81.451  67.378  1.00  0.00    -0.550 OA
ATOM     11  O   UNL     1       1.465  83.061  68.820  1.00  0.00    -0.550 OA
ENDBRANCH   8   9
ENDBRANCH   7   8
ENDBRANCH   6   7
ENDBRANCH   5   6
ENDBRANCH   4   5
ENDBRANCH   3   4
ENDBRANCH   2   3
ENDBRANCH   1   2
BRANCH   1  12
ATOM     12  C   UNL     1       4.876  80.132  63.000  1.00  0.00     0.000 C 
BRANCH  12  13
ATOM     13  C   UNL     1       5.250  78.697  62.599  1.00  0.00    -0.000 C 
BRANCH  13  14
ATOM     14  C   UNL     1       5.585  77.853  63.835  1.00  0.00    -0.000 C 
BRANCH  14  15
ATOM     15  C   UNL     1       7.010  78.141  64.330  1.00  0.00    -0.000 C 
BRANCH  15  16
ATOM     16  C   UNL     1       7.160  77.960  65.850  1.00  0.00    -0.000 C 
BRANCH  16  17
ATOM     17  C   UNL     1       6.330  76.782  66.394  1.00  0.00    -0.000 C 
BRANCH  17  18
ATOM     18  C   UNL     1       6.704  76.428  67.849  1.00  0.00    -0.000 C 
BRANCH  18  19
ATOM     19  C   UNL     1       5.529  75.875  68.674  1.00  0.00    -0.003 C 
ATOM     20  C   UNL     1       4.220  75.817  67.890  1.00  0.00     0.004 C 
ENDBRANCH  18  19
ENDBRANCH  17  18
ENDBRANCH  16  17
ENDBRANCH  15  16
ENDBRANCH  14  15
ENDBRANCH  13  14
ENDBRANCH  12  13
ENDBRANCH   1  12
TORSDOF 16
ENDMDL
