MODEL 1
REMARK VINA RESULT:    -2.763      0.000      0.000
REMARK INTER + INTRA:         -11.183
REMARK INTER:                  -6.963
REMARK INTRA:                  -4.220
REMARK UNBOUND:                -4.220
REMARK SMILES CCCCCCCCCCCCCCCCCCCCCCCCCCCC(=O)[O-]
REMARK SMILES IDX 15 1 16 2 17 3 18 4 19 5 20 6 21 7 22 8 23 9 24 10 25 11
REMARK SMILES IDX 26 12 27 13 28 14 29 15 30 16 14 17 13 18 12 19 11 20 10 21
REMARK SMILES IDX 9 22 8 23 7 24 6 25 5 26 4 27 3 28 2 29 1 30
REMARK H PARENT
REMARK Flexibility Score: inf
ROOT
ATOM      1  C   UNL     1       0.759   1.561   9.923  1.00  0.00     0.000 C 
ENDROOT
BRANCH   1   2
ATOM      2  C   UNL     1       0.939   0.164  10.559  1.00  0.00     0.000 C 
BRANCH   2   3
ATOM      3  C   UNL     1       1.261   0.251  12.060  1.00  0.00     0.000 C 
BRANCH   3   4
ATOM      4  C   UNL     1       0.221  -0.506  12.900  1.00  0.00     0.000 C 
BRANCH   4   5
ATOM      5  C   UNL     1      -0.977  -0.991  12.061  1.00  0.00     0.000 C 
BRANCH   5   6
ATOM      6  C   UNL     1      -2.363  -0.748  12.704  1.00  0.00     0.000 C 
BRANCH   6   7
ATOM      7  C   UNL     1      -3.535  -1.296  11.862  1.00  0.00     0.000 C 
BRANCH   7   8
ATOM      8  C   UNL     1      -4.816  -0.455  12.005  1.00  0.00     0.000 C 
BRANCH   8   9
ATOM      9  C   UNL     1      -6.071  -1.297  11.737  1.00  0.00     0.000 C 
BRANCH   9  10
ATOM     10  C   UNL     1      -5.947  -2.073  10.421  1.00  0.00     0.000 C 
BRANCH  10  11
ATOM     11  C   UNL     1      -7.134  -1.775   9.496  1.00  0.00     0.000 C 
BRANCH  11  12
ATOM     12  C   UNL     1      -8.033  -0.643  10.016  1.00  0.00     0.006 C 
BRANCH  12  13
ATOM     13  C   UNL     1      -8.238   0.503   9.007  1.00  0.00     0.053 C 
BRANCH  13  14
ATOM     14  C   UNL     1      -7.706   1.811   9.514  1.00  0.00     0.041 C 
ATOM     15  O   UNL     1      -7.460   1.962  10.740  1.00  0.00    -0.550 OA
ATOM     16  O   UNL     1      -7.495   2.866   8.637  1.00  0.00    -0.550 OA
ENDBRANCH  13  14
ENDBRANCH  12  13
ENDBRANCH  11  12
ENDBRANCH  10  11
ENDBRANCH   9  10
ENDBRANCH   8   9
ENDBRANCH   7   8
ENDBRANCH   6   7
ENDBRANCH   5   6
ENDBRANCH   4   5
ENDBRANCH   3   4
ENDBRANCH   2   3
ENDBRANCH   1   2
BRANCH   1  17
ATOM     17  C   UNL     1       2.074   2.179   9.407  1.00  0.00     0.000 C 
BRANCH  17  18
ATOM     18  C   UNL     1       2.180   3.709   9.560  1.00  0.00     0.000 C 
BRANCH  18  19
ATOM     19  C   UNL     1       2.219   4.166  11.027  1.00  0.00     0.000 C 
BRANCH  19  20
ATOM     20  C   UNL     1       1.227   5.310  11.307  1.00  0.00     0.000 C 
BRANCH  20  21
ATOM     21  C   UNL     1       0.382   5.115  12.579  1.00  0.00     0.000 C 
BRANCH  21  22
ATOM     22  C   UNL     1       0.466   3.682  13.128  1.00  0.00    -0.000 C 
BRANCH  22  23
ATOM     23  C   UNL     1      -0.927   3.150  13.486  1.00  0.00    -0.000 C 
BRANCH  23  24
ATOM     24  C   UNL     1      -1.695   2.707  12.230  1.00  0.00    -0.000 C 
BRANCH  24  25
ATOM     25  C   UNL     1      -3.088   3.354  12.146  1.00  0.00    -0.000 C 
BRANCH  25  26
ATOM     26  C   UNL     1      -3.224   4.280  10.923  1.00  0.00    -0.000 C 
BRANCH  26  27
ATOM     27  C   UNL     1      -2.013   4.170   9.970  1.00  0.00    -0.000 C 
BRANCH  27  28
ATOM     28  C   UNL     1      -2.286   4.731   8.565  1.00  0.00    -0.000 C 
BRANCH  28  29
ATOM     29  C   UNL     1      -2.239   6.264   8.505  1.00  0.00    -0.003 C 
ATOM     30  C   UNL     1      -0.805   6.770   8.588  1.00  0.00     0.004 C 
ENDBRANCH  28  29
ENDBRANCH  27  28
ENDBRANCH  26  27
ENDBRANCH  25  26
ENDBRANCH  24  25
ENDBRANCH  23  24
ENDBRANCH  22  23
ENDBRANCH  21  22
ENDBRANCH  20  21
ENDBRANCH  19  20
ENDBRANCH  18  19
ENDBRANCH  17  18
ENDBRANCH   1  17
TORSDOF 26
ENDMDL
MODEL 2
REMARK VINA RESULT:    -2.755      4.197      7.307
REMARK INTER + INTRA:         -11.163
REMARK INTER:                  -6.159
REMARK INTRA:                  -5.004
REMARK UNBOUND:                -4.220
REMARK SMILES CCCCCCCCCCCCCCCCCCCCCCCCCCCC(=O)[O-]
REMARK SMILES IDX 15 1 16 2 17 3 18 4 19 5 20 6 21 7 22 8 23 9 24 10 25 11
REMARK SMILES IDX 26 12 27 13 28 14 29 15 30 16 14 17 13 18 12 19 11 20 10 21
REMARK SMILES IDX 9 22 8 23 7 24 6 25 5 26 4 27 3 28 2 29 1 30
REMARK H PARENT
REMARK Flexibility Score: inf
ROOT
ATOM      1  C   UNL     1      -0.499   8.155   8.162  1.00  0.00     0.000 C 
ENDROOT
BRANCH   1   2
ATOM      2  C   UNL     1       0.949   8.683   8.289  1.00  0.00     0.000 C 
BRANCH   2   3
ATOM      3  C   UNL     1       1.721   7.983   9.419  1.00  0.00     0.000 C 
BRANCH   3   4
ATOM      4  C   UNL     1       2.962   7.256   8.880  1.00  0.00     0.000 C 
BRANCH   4   5
ATOM      5  C   UNL     1       2.944   5.747   9.192  1.00  0.00     0.000 C 
BRANCH   5   6
ATOM      6  C   UNL     1       4.240   4.989   8.818  1.00  0.00     0.000 C 
BRANCH   6   7
ATOM      7  C   UNL     1       4.120   3.457   8.967  1.00  0.00     0.000 C 
BRANCH   7   8
ATOM      8  C   UNL     1       2.660   2.969   8.964  1.00  0.00     0.000 C 
BRANCH   8   9
ATOM      9  C   UNL     1       2.333   2.176  10.236  1.00  0.00     0.000 C 
BRANCH   9  10
ATOM     10  C   UNL     1       1.302   1.078   9.955  1.00  0.00     0.000 C 
BRANCH  10  11
ATOM     11  C   UNL     1       0.827   0.424  11.258  1.00  0.00     0.000 C 
BRANCH  11  12
ATOM     12  C   UNL     1       0.850  -1.111  11.205  1.00  0.00     0.006 C 
BRANCH  12  13
ATOM     13  C   UNL     1       0.933  -1.684   9.777  1.00  0.00     0.053 C 
BRANCH  13  14
ATOM     14  C   UNL     1       2.245  -2.361   9.510  1.00  0.00     0.041 C 
ATOM     15  O   UNL     1       3.200  -2.232  10.321  1.00  0.00    -0.550 OA
ATOM     16  O   UNL     1       2.417  -3.122   8.362  1.00  0.00    -0.550 OA
ENDBRANCH  13  14
ENDBRANCH  12  13
ENDBRANCH  11  12
ENDBRANCH  10  11
ENDBRANCH   9  10
ENDBRANCH   8   9
ENDBRANCH   7   8
ENDBRANCH   6   7
ENDBRANCH   5   6
ENDBRANCH   4   5
ENDBRANCH   3   4
ENDBRANCH   2   3
ENDBRANCH   1   2
BRANCH   1  17
ATOM     17  C   UNL     1      -0.724   6.797   8.859  1.00  0.00     0.000 C 
BRANCH  17  18
ATOM     18  C   UNL     1      -2.038   6.083   8.486  1.00  0.00     0.000 C 
BRANCH  18  19
ATOM     19  C   UNL     1      -2.039   4.592   8.857  1.00  0.00     0.000 C 
BRANCH  19  20
ATOM     20  C   UNL     1      -0.842   4.212   9.748  1.00  0.00     0.000 C 
BRANCH  20  21
ATOM     21  C   UNL     1      -1.231   3.514  11.064  1.00  0.00     0.000 C 
BRANCH  21  22
ATOM     22  C   UNL     1      -0.426   4.032  12.266  1.00  0.00    -0.000 C 
BRANCH  22  23
ATOM     23  C   UNL     1       0.635   5.045  11.820  1.00  0.00    -0.000 C 
BRANCH  23  24
ATOM     24  C   UNL     1       0.385   6.427  12.447  1.00  0.00    -0.000 C 
BRANCH  24  25
ATOM     25  C   UNL     1      -1.007   6.524  13.096  1.00  0.00    -0.000 C 
BRANCH  25  26
ATOM     26  C   UNL     1      -2.023   7.236  12.184  1.00  0.00    -0.000 C 
BRANCH  26  27
ATOM     27  C   UNL     1      -3.483   6.889  12.555  1.00  0.00    -0.000 C 
BRANCH  27  28
ATOM     28  C   UNL     1      -4.270   6.239  11.405  1.00  0.00    -0.000 C 
BRANCH  28  29
ATOM     29  C   UNL     1      -4.570   4.753  11.640  1.00  0.00    -0.003 C 
ATOM     30  C   UNL     1      -5.336   4.157  10.465  1.00  0.00     0.004 C 
ENDBRANCH  28  29
ENDBRANCH  27  28
ENDBRANCH  26  27
ENDBRANCH  25  26
ENDBRANCH  24  25
ENDBRANCH  23  24
ENDBRANCH  22  23
ENDBRANCH  21  22
ENDBRANCH  20  21
ENDBRANCH  19  20
ENDBRANCH  18  19
ENDBRANCH  17  18
ENDBRANCH   1  17
TORSDOF 26
ENDMDL
MODEL 3
REMARK VINA RESULT:    -2.733      1.476      5.433
REMARK INTER + INTRA:         -11.106
REMARK INTER:                  -6.919
REMARK INTRA:                  -4.187
REMARK UNBOUND:                -4.220
REMARK SMILES CCCCCCCCCCCCCCCCCCCCCCCCCCCC(=O)[O-]
REMARK SMILES IDX 15 1 16 2 17 3 18 4 19 5 20 6 21 7 22 8 23 9 24 10 25 11
REMARK SMILES IDX 26 12 27 13 28 14 29 15 30 16 14 17 13 18 12 19 11 20 10 21
REMARK SMILES IDX 9 22 8 23 7 24 6 25 5 26 4 27 3 28 2 29 1 30
REMARK H PARENT
REMARK Flexibility Score: inf
ROOT
ATOM      1  C   UNL     1       0.902   2.048   9.889  1.00  0.00     0.000 C 
ENDROOT
BRANCH   1   2
ATOM      2  C   UNL     1       1.387   3.516   9.864  1.00  0.00     0.000 C 
BRANCH   2   3
ATOM      3  C   UNL     1       0.219   4.511   9.951  1.00  0.00     0.000 C 
BRANCH   3   4
ATOM      4  C   UNL     1      -1.133   3.804   9.767  1.00  0.00     0.000 C 
BRANCH   4   5
ATOM      5  C   UNL     1      -2.126   4.635   8.933  1.00  0.00     0.000 C 
BRANCH   5   6
ATOM      6  C   UNL     1      -3.123   5.481   9.760  1.00  0.00     0.000 C 
BRANCH   6   7
ATOM      7  C   UNL     1      -3.533   4.819  11.092  1.00  0.00     0.000 C 
BRANCH   7   8
ATOM      8  C   UNL     1      -4.721   3.853  10.938  1.00  0.00     0.000 C 
BRANCH   8   9
ATOM      9  C   UNL     1      -5.319   3.480  12.301  1.00  0.00     0.000 C 
BRANCH   9  10
ATOM     10  C   UNL     1      -6.659   2.753  12.139  1.00  0.00     0.000 C 
BRANCH  10  11
ATOM     11  C   UNL     1      -6.451   1.237  12.041  1.00  0.00     0.000 C 
BRANCH  11  12
ATOM     12  C   UNL     1      -7.086   0.622  10.784  1.00  0.00     0.006 C 
BRANCH  12  13
ATOM     13  C   UNL     1      -8.242   1.456  10.199  1.00  0.00     0.053 C 
BRANCH  13  14
ATOM     14  C   UNL     1      -7.931   1.978   8.828  1.00  0.00     0.041 C 
ATOM     15  O   UNL     1      -7.210   3.001   8.689  1.00  0.00    -0.550 OA
ATOM     16  O   UNL     1      -8.448   1.345   7.706  1.00  0.00    -0.550 OA
ENDBRANCH  13  14
ENDBRANCH  12  13
ENDBRANCH  11  12
ENDBRANCH  10  11
ENDBRANCH   9  10
ENDBRANCH   8   9
ENDBRANCH   7   8
ENDBRANCH   6   7
ENDBRANCH   5   6
ENDBRANCH   4   5
ENDBRANCH   3   4
ENDBRANCH   2   3
ENDBRANCH   1   2
BRANCH   1  17
ATOM     17  C   UNL     1       1.560   1.200  10.996  1.00  0.00     0.000 C 
BRANCH  17  18
ATOM     18  C   UNL     1       0.662   0.907  12.214  1.00  0.00     0.000 C 
BRANCH  18  19
ATOM     19  C   UNL     1       0.476   2.125  13.132  1.00  0.00     0.000 C 
BRANCH  19  20
ATOM     20  C   UNL     1      -1.006   2.505  13.304  1.00  0.00     0.000 C 
BRANCH  20  21
ATOM     21  C   UNL     1      -1.989   1.528  12.636  1.00  0.00     0.000 C 
BRANCH  21  22
ATOM     22  C   UNL     1      -3.032   0.976  13.620  1.00  0.00    -0.000 C 
BRANCH  22  23
ATOM     23  C   UNL     1      -3.411  -0.467  13.265  1.00  0.00    -0.000 C 
BRANCH  23  24
ATOM     24  C   UNL     1      -2.437  -1.063  12.236  1.00  0.00    -0.000 C 
BRANCH  24  25
ATOM     25  C   UNL     1      -3.094  -2.168  11.390  1.00  0.00    -0.000 C 
BRANCH  25  26
ATOM     26  C   UNL     1      -4.583  -1.882  11.119  1.00  0.00    -0.000 C 
BRANCH  26  27
ATOM     27  C   UNL     1      -5.152  -2.773   9.992  1.00  0.00    -0.000 C 
BRANCH  27  28
ATOM     28  C   UNL     1      -6.524  -3.383  10.327  1.00  0.00    -0.000 C 
BRANCH  28  29
ATOM     29  C   UNL     1      -7.410  -3.594   9.092  1.00  0.00    -0.003 C 
ATOM     30  C   UNL     1      -7.070  -2.591   7.998  1.00  0.00     0.004 C 
ENDBRANCH  28  29
ENDBRANCH  27  28
ENDBRANCH  26  27
ENDBRANCH  25  26
ENDBRANCH  24  25
ENDBRANCH  23  24
ENDBRANCH  22  23
ENDBRANCH  21  22
ENDBRANCH  20  21
ENDBRANCH  19  20
ENDBRANCH  18  19
ENDBRANCH  17  18
ENDBRANCH   1  17
TORSDOF 26
ENDMDL
MODEL 4
REMARK VINA RESULT:    -2.732      1.316      2.097
REMARK INTER + INTRA:         -11.104
REMARK INTER:                  -7.151
REMARK INTRA:                  -3.953
REMARK UNBOUND:                -4.220
REMARK SMILES CCCCCCCCCCCCCCCCCCCCCCCCCCCC(=O)[O-]
REMARK SMILES IDX 15 1 16 2 17 3 18 4 19 5 20 6 21 7 22 8 23 9 24 10 25 11
REMARK SMILES IDX 26 12 27 13 28 14 29 15 30 16 14 17 13 18 12 19 11 20 10 21
REMARK SMILES IDX 9 22 8 23 7 24 6 25 5 26 4 27 3 28 2 29 1 30
REMARK H PARENT
REMARK Flexibility Score: inf
ROOT
ATOM      1  C   UNL     1       0.688   2.300   9.992  1.00  0.00     0.000 C 
ENDROOT
BRANCH   1   2
ATOM      2  C   UNL     1       1.362   0.908  10.002  1.00  0.00     0.000 C 
BRANCH   2   3
ATOM      3  C   UNL     1       0.799   0.003  11.109  1.00  0.00     0.000 C 
BRANCH   3   4
ATOM      4  C   UNL     1       0.657   0.765  12.436  1.00  0.00     0.000 C 
BRANCH   4   5
ATOM      5  C   UNL     1      -0.691   0.495  13.131  1.00  0.00     0.000 C 
BRANCH   5   6
ATOM      6  C   UNL     1      -1.637  -0.463  12.369  1.00  0.00     0.000 C 
BRANCH   6   7
ATOM      7  C   UNL     1      -3.133  -0.174  12.615  1.00  0.00     0.000 C 
BRANCH   7   8
ATOM      8  C   UNL     1      -4.042  -1.346  12.203  1.00  0.00     0.000 C 
BRANCH   8   9
ATOM      9  C   UNL     1      -3.338  -2.278  11.208  1.00  0.00     0.000 C 
BRANCH   9  10
ATOM     10  C   UNL     1      -4.351  -3.123  10.428  1.00  0.00     0.000 C 
BRANCH  10  11
ATOM     11  C   UNL     1      -5.604  -2.305  10.092  1.00  0.00     0.000 C 
BRANCH  11  12
ATOM     12  C   UNL     1      -6.502  -2.982   9.046  1.00  0.00     0.006 C 
BRANCH  12  13
ATOM     13  C   UNL     1      -7.490  -2.020   8.358  1.00  0.00     0.053 C 
BRANCH  13  14
ATOM     14  C   UNL     1      -8.207  -1.141   9.340  1.00  0.00     0.041 C 
ATOM     15  O   UNL     1      -9.076  -1.629  10.110  1.00  0.00    -0.550 OA
ATOM     16  O   UNL     1      -7.927   0.218   9.394  1.00  0.00    -0.550 OA
ENDBRANCH  13  14
ENDBRANCH  12  13
ENDBRANCH  11  12
ENDBRANCH  10  11
ENDBRANCH   9  10
ENDBRANCH   8   9
ENDBRANCH   7   8
ENDBRANCH   6   7
ENDBRANCH   5   6
ENDBRANCH   4   5
ENDBRANCH   3   4
ENDBRANCH   2   3
ENDBRANCH   1   2
BRANCH   1  17
ATOM     17  C   UNL     1       1.656   3.453   9.656  1.00  0.00     0.000 C 
BRANCH  17  18
ATOM     18  C   UNL     1       1.637   4.631  10.649  1.00  0.00     0.000 C 
BRANCH  18  19
ATOM     19  C   UNL     1       2.052   4.225  12.073  1.00  0.00     0.000 C 
BRANCH  19  20
ATOM     20  C   UNL     1       0.912   4.419  13.090  1.00  0.00     0.000 C 
BRANCH  20  21
ATOM     21  C   UNL     1      -0.407   4.916  12.471  1.00  0.00     0.000 C 
BRANCH  21  22
ATOM     22  C   UNL     1      -1.605   4.031  12.847  1.00  0.00    -0.000 C 
BRANCH  22  23
ATOM     23  C   UNL     1      -2.292   3.476  11.594  1.00  0.00    -0.000 C 
BRANCH  23  24
ATOM     24  C   UNL     1      -3.543   4.295  11.234  1.00  0.00    -0.000 C 
BRANCH  24  25
ATOM     25  C   UNL     1      -3.516   4.781   9.775  1.00  0.00    -0.000 C 
BRANCH  25  26
ATOM     26  C   UNL     1      -2.181   4.458   9.081  1.00  0.00    -0.000 C 
BRANCH  26  27
ATOM     27  C   UNL     1      -1.289   5.710   8.920  1.00  0.00    -0.000 C 
BRANCH  27  28
ATOM     28  C   UNL     1      -1.978   6.861   8.170  1.00  0.00    -0.000 C 
BRANCH  28  29
ATOM     29  C   UNL     1      -1.132   8.140   8.113  1.00  0.00    -0.003 C 
ATOM     30  C   UNL     1       0.257   7.902   8.692  1.00  0.00     0.004 C 
ENDBRANCH  28  29
ENDBRANCH  27  28
ENDBRANCH  26  27
ENDBRANCH  25  26
ENDBRANCH  24  25
ENDBRANCH  23  24
ENDBRANCH  22  23
ENDBRANCH  21  22
ENDBRANCH  20  21
ENDBRANCH  19  20
ENDBRANCH  18  19
ENDBRANCH  17  18
ENDBRANCH   1  17
TORSDOF 26
ENDMDL
MODEL 5
REMARK VINA RESULT:    -2.703      3.603      7.139
REMARK INTER + INTRA:         -11.031
REMARK INTER:                  -6.893
REMARK INTRA:                  -4.138
REMARK UNBOUND:                -4.220
REMARK SMILES CCCCCCCCCCCCCCCCCCCCCCCCCCCC(=O)[O-]
REMARK SMILES IDX 15 1 16 2 17 3 18 4 19 5 20 6 21 7 22 8 23 9 24 10 25 11
REMARK SMILES IDX 26 12 27 13 28 14 29 15 30 16 14 17 13 18 12 19 11 20 10 21
REMARK SMILES IDX 9 22 8 23 7 24 6 25 5 26 4 27 3 28 2 29 1 30
REMARK H PARENT
REMARK Flexibility Score: inf
ROOT
ATOM      1  C   UNL     1      -4.524  -2.093  10.784  1.00  0.00     0.000 C 
ENDROOT
BRANCH   1   2
ATOM      2  C   UNL     1      -3.577  -3.220  10.309  1.00  0.00     0.000 C 
BRANCH   2   3
ATOM      3  C   UNL     1      -2.280  -3.268  11.132  1.00  0.00     0.000 C 
BRANCH   3   4
ATOM      4  C   UNL     1      -1.062  -3.548  10.239  1.00  0.00     0.000 C 
BRANCH   4   5
ATOM      5  C   UNL     1       0.016  -2.452  10.349  1.00  0.00     0.000 C 
BRANCH   5   6
ATOM      6  C   UNL     1       0.003  -1.656  11.675  1.00  0.00     0.000 C 
BRANCH   6   7
ATOM      7  C   UNL     1       0.508  -0.205  11.526  1.00  0.00     0.000 C 
BRANCH   7   8
ATOM      8  C   UNL     1       1.224   0.043  10.187  1.00  0.00     0.000 C 
BRANCH   8   9
ATOM      9  C   UNL     1       1.029   1.487   9.707  1.00  0.00     0.000 C 
BRANCH   9  10
ATOM     10  C   UNL     1       2.079   2.421  10.319  1.00  0.00     0.000 C 
BRANCH  10  11
ATOM     11  C   UNL     1       2.100   3.772   9.594  1.00  0.00     0.000 C 
BRANCH  11  12
ATOM     12  C   UNL     1       1.925   4.967  10.542  1.00  0.00     0.006 C 
BRANCH  12  13
ATOM     13  C   UNL     1       2.870   6.146  10.240  1.00  0.00     0.053 C 
BRANCH  13  14
ATOM     14  C   UNL     1       3.645   6.580  11.449  1.00  0.00     0.041 C 
ATOM     15  O   UNL     1       4.783   7.103  11.318  1.00  0.00    -0.550 OA
ATOM     16  O   UNL     1       3.118   6.393  12.720  1.00  0.00    -0.550 OA
ENDBRANCH  13  14
ENDBRANCH  12  13
ENDBRANCH  11  12
ENDBRANCH  10  11
ENDBRANCH   9  10
ENDBRANCH   8   9
ENDBRANCH   7   8
ENDBRANCH   6   7
ENDBRANCH   5   6
ENDBRANCH   4   5
ENDBRANCH   3   4
ENDBRANCH   2   3
ENDBRANCH   1   2
BRANCH   1  17
ATOM     17  C   UNL     1      -4.165  -1.530  12.174  1.00  0.00     0.000 C 
BRANCH  17  18
ATOM     18  C   UNL     1      -4.020   0.003  12.239  1.00  0.00     0.000 C 
BRANCH  18  19
ATOM     19  C   UNL     1      -2.762   0.457  12.997  1.00  0.00     0.000 C 
BRANCH  19  20
ATOM     20  C   UNL     1      -2.401   1.924  12.701  1.00  0.00     0.000 C 
BRANCH  20  21
ATOM     21  C   UNL     1      -3.583   2.776  12.203  1.00  0.00     0.000 C 
BRANCH  21  22
ATOM     22  C   UNL     1      -3.126   4.016  11.419  1.00  0.00    -0.000 C 
BRANCH  22  23
ATOM     23  C   UNL     1      -1.678   3.859  10.939  1.00  0.00    -0.000 C 
BRANCH  23  24
ATOM     24  C   UNL     1      -1.544   4.203   9.447  1.00  0.00    -0.000 C 
BRANCH  24  25
ATOM     25  C   UNL     1      -2.690   5.104   8.956  1.00  0.00    -0.000 C 
BRANCH  25  26
ATOM     26  C   UNL     1      -2.171   6.374   8.256  1.00  0.00    -0.000 C 
BRANCH  26  27
ATOM     27  C   UNL     1      -0.718   6.710   8.661  1.00  0.00    -0.000 C 
BRANCH  27  28
ATOM     28  C   UNL     1      -0.612   7.898   9.632  1.00  0.00    -0.000 C 
BRANCH  28  29
ATOM     29  C   UNL     1      -1.232   7.614  11.007  1.00  0.00    -0.003 C 
ATOM     30  C   UNL     1      -0.161   7.566  12.090  1.00  0.00     0.004 C 
ENDBRANCH  28  29
ENDBRANCH  27  28
ENDBRANCH  26  27
ENDBRANCH  25  26
ENDBRANCH  24  25
ENDBRANCH  23  24
ENDBRANCH  22  23
ENDBRANCH  21  22
ENDBRANCH  20  21
ENDBRANCH  19  20
ENDBRANCH  18  19
ENDBRANCH  17  18
ENDBRANCH   1  17
TORSDOF 26
ENDMDL
MODEL 6
REMARK VINA RESULT:    -2.690      1.785      6.779
REMARK INTER + INTRA:         -10.997
REMARK INTER:                  -6.815
REMARK INTRA:                  -4.182
REMARK UNBOUND:                -4.220
REMARK SMILES CCCCCCCCCCCCCCCCCCCCCCCCCCCC(=O)[O-]
REMARK SMILES IDX 15 1 16 2 17 3 18 4 19 5 20 6 21 7 22 8 23 9 24 10 25 11
REMARK SMILES IDX 26 12 27 13 28 14 29 15 30 16 14 17 13 18 12 19 11 20 10 21
REMARK SMILES IDX 9 22 8 23 7 24 6 25 5 26 4 27 3 28 2 29 1 30
REMARK H PARENT
REMARK Flexibility Score: inf
ROOT
ATOM      1  C   UNL     1      -7.136  -2.711   8.493  1.00  0.00     0.000 C 
ENDROOT
BRANCH   1   2
ATOM      2  C   UNL     1      -8.376  -2.189   7.731  1.00  0.00     0.000 C 
BRANCH   2   3
ATOM      3  C   UNL     1      -8.263  -0.692   7.403  1.00  0.00     0.000 C 
BRANCH   3   4
ATOM      4  C   UNL     1      -9.508   0.078   7.869  1.00  0.00     0.000 C 
BRANCH   4   5
ATOM      5  C   UNL     1      -9.238   0.932   9.123  1.00  0.00     0.000 C 
BRANCH   5   6
ATOM      6  C   UNL     1      -7.754   1.304   9.352  1.00  0.00     0.000 C 
BRANCH   6   7
ATOM      7  C   UNL     1      -7.534   2.239  10.560  1.00  0.00     0.000 C 
BRANCH   7   8
ATOM      8  C   UNL     1      -6.576   1.644  11.608  1.00  0.00     0.000 C 
BRANCH   8   9
ATOM      9  C   UNL     1      -6.234   2.667  12.698  1.00  0.00     0.000 C 
BRANCH   9  10
ATOM     10  C   UNL     1      -4.981   2.251  13.476  1.00  0.00     0.000 C 
BRANCH  10  11
ATOM     11  C   UNL     1      -3.850   3.267  13.278  1.00  0.00     0.000 C 
BRANCH  11  12
ATOM     12  C   UNL     1      -3.212   3.192  11.882  1.00  0.00     0.006 C 
BRANCH  12  13
ATOM     13  C   UNL     1      -3.053   4.562  11.195  1.00  0.00     0.053 C 
BRANCH  13  14
ATOM     14  C   UNL     1      -3.818   4.646   9.907  1.00  0.00     0.041 C 
ATOM     15  O   UNL     1      -5.075   4.703   9.920  1.00  0.00    -0.550 OA
ATOM     16  O   UNL     1      -3.143   4.645   8.694  1.00  0.00    -0.550 OA
ENDBRANCH  13  14
ENDBRANCH  12  13
ENDBRANCH  11  12
ENDBRANCH  10  11
ENDBRANCH   9  10
ENDBRANCH   8   9
ENDBRANCH   7   8
ENDBRANCH   6   7
ENDBRANCH   5   6
ENDBRANCH   4   5
ENDBRANCH   3   4
ENDBRANCH   2   3
ENDBRANCH   1   2
BRANCH   1  17
ATOM     17  C   UNL     1      -7.143  -2.364   9.996  1.00  0.00     0.000 C 
BRANCH  17  18
ATOM     18  C   UNL     1      -5.841  -1.733  10.526  1.00  0.00     0.000 C 
BRANCH  18  19
ATOM     19  C   UNL     1      -4.614  -2.640  10.342  1.00  0.00     0.000 C 
BRANCH  19  20
ATOM     20  C   UNL     1      -3.477  -2.287  11.319  1.00  0.00     0.000 C 
BRANCH  20  21
ATOM     21  C   UNL     1      -3.743  -1.031  12.169  1.00  0.00     0.000 C 
BRANCH  21  22
ATOM     22  C   UNL     1      -2.446  -0.341  12.620  1.00  0.00    -0.000 C 
BRANCH  22  23
ATOM     23  C   UNL     1      -1.215  -1.091  12.098  1.00  0.00    -0.000 C 
BRANCH  23  24
ATOM     24  C   UNL     1       0.043  -0.209  12.159  1.00  0.00    -0.000 C 
BRANCH  24  25
ATOM     25  C   UNL     1      -0.186   1.070  12.985  1.00  0.00    -0.000 C 
BRANCH  25  26
ATOM     26  C   UNL     1       0.167   2.342  12.193  1.00  0.00    -0.000 C 
BRANCH  26  27
ATOM     27  C   UNL     1       0.411   2.049  10.696  1.00  0.00    -0.000 C 
BRANCH  27  28
ATOM     28  C   UNL     1       0.117   3.249   9.781  1.00  0.00    -0.000 C 
BRANCH  28  29
ATOM     29  C   UNL     1       0.567   4.590  10.376  1.00  0.00    -0.003 C 
ATOM     30  C   UNL     1       0.073   5.757   9.530  1.00  0.00     0.004 C 
ENDBRANCH  28  29
ENDBRANCH  27  28
ENDBRANCH  26  27
ENDBRANCH  25  26
ENDBRANCH  24  25
ENDBRANCH  23  24
ENDBRANCH  22  23
ENDBRANCH  21  22
ENDBRANCH  20  21
ENDBRANCH  19  20
ENDBRANCH  18  19
ENDBRANCH  17  18
ENDBRANCH   1  17
TORSDOF 26
ENDMDL
MODEL 7
REMARK VINA RESULT:    -2.677      2.728      6.065
REMARK INTER + INTRA:         -10.966
REMARK INTER:                  -5.961
REMARK INTRA:                  -5.005
REMARK UNBOUND:                -4.220
REMARK SMILES CCCCCCCCCCCCCCCCCCCCCCCCCCCC(=O)[O-]
REMARK SMILES IDX 15 1 16 2 17 3 18 4 19 5 20 6 21 7 22 8 23 9 24 10 25 11
REMARK SMILES IDX 26 12 27 13 28 14 29 15 30 16 14 17 13 18 12 19 11 20 10 21
REMARK SMILES IDX 9 22 8 23 7 24 6 25 5 26 4 27 3 28 2 29 1 30
REMARK H PARENT
REMARK Flexibility Score: inf
ROOT
ATOM      1  C   UNL     1       2.409   0.735  10.251  1.00  0.00     0.000 C 
ENDROOT
BRANCH   1   2
ATOM      2  C   UNL     1       3.623   1.416   9.576  1.00  0.00     0.000 C 
BRANCH   2   3
ATOM      3  C   UNL     1       3.195   2.383   8.461  1.00  0.00     0.000 C 
BRANCH   3   4
ATOM      4  C   UNL     1       3.715   3.805   8.724  1.00  0.00     0.000 C 
BRANCH   4   5
ATOM      5  C   UNL     1       3.352   4.315  10.132  1.00  0.00     0.000 C 
BRANCH   5   6
ATOM      6  C   UNL     1       2.356   5.499  10.159  1.00  0.00     0.000 C 
BRANCH   6   7
ATOM      7  C   UNL     1       0.976   5.155   9.560  1.00  0.00     0.000 C 
BRANCH   7   8
ATOM      8  C   UNL     1       0.009   6.352   9.564  1.00  0.00     0.000 C 
BRANCH   8   9
ATOM      9  C   UNL     1      -1.295   6.021   8.825  1.00  0.00     0.000 C 
BRANCH   9  10
ATOM     10  C   UNL     1      -1.718   4.568   9.071  1.00  0.00     0.000 C 
BRANCH  10  11
ATOM     11  C   UNL     1      -3.098   4.504   9.734  1.00  0.00     0.000 C 
BRANCH  11  12
ATOM     12  C   UNL     1      -3.419   5.747  10.579  1.00  0.00     0.006 C 
BRANCH  12  13
ATOM     13  C   UNL     1      -4.899   6.170  10.528  1.00  0.00     0.053 C 
BRANCH  13  14
ATOM     14  C   UNL     1      -5.181   7.122   9.403  1.00  0.00     0.041 C 
ATOM     15  O   UNL     1      -4.288   7.917   9.007  1.00  0.00    -0.550 OA
ATOM     16  O   UNL     1      -6.433   7.142   8.803  1.00  0.00    -0.550 OA
ENDBRANCH  13  14
ENDBRANCH  12  13
ENDBRANCH  11  12
ENDBRANCH  10  11
ENDBRANCH   9  10
ENDBRANCH   8   9
ENDBRANCH   7   8
ENDBRANCH   6   7
ENDBRANCH   5   6
ENDBRANCH   4   5
ENDBRANCH   3   4
ENDBRANCH   2   3
ENDBRANCH   1   2
BRANCH   1  17
ATOM     17  C   UNL     1       1.059   1.397   9.906  1.00  0.00     0.000 C 
BRANCH  17  18
ATOM     18  C   UNL     1       0.233   1.864  11.121  1.00  0.00     0.000 C 
BRANCH  18  19
ATOM     19  C   UNL     1       1.101   2.226  12.336  1.00  0.00     0.000 C 
BRANCH  19  20
ATOM     20  C   UNL     1       0.594   3.487  13.060  1.00  0.00     0.000 C 
BRANCH  20  21
ATOM     21  C   UNL     1      -0.743   4.028  12.523  1.00  0.00     0.000 C 
BRANCH  21  22
ATOM     22  C   UNL     1      -1.820   4.125  13.615  1.00  0.00    -0.000 C 
BRANCH  22  23
ATOM     23  C   UNL     1      -2.978   3.161  13.331  1.00  0.00    -0.000 C 
BRANCH  23  24
ATOM     24  C   UNL     1      -2.587   1.709  13.653  1.00  0.00    -0.000 C 
BRANCH  24  25
ATOM     25  C   UNL     1      -2.926   0.749  12.500  1.00  0.00    -0.000 C 
BRANCH  25  26
ATOM     26  C   UNL     1      -2.823  -0.727  12.925  1.00  0.00    -0.000 C 
BRANCH  26  27
ATOM     27  C   UNL     1      -3.169  -1.693  11.769  1.00  0.00    -0.000 C 
BRANCH  27  28
ATOM     28  C   UNL     1      -2.005  -2.616  11.372  1.00  0.00    -0.000 C 
BRANCH  28  29
ATOM     29  C   UNL     1      -0.626  -1.979  11.588  1.00  0.00    -0.003 C 
ATOM     30  C   UNL     1       0.302  -2.274  10.417  1.00  0.00     0.004 C 
ENDBRANCH  28  29
ENDBRANCH  27  28
ENDBRANCH  26  27
ENDBRANCH  25  26
ENDBRANCH  24  25
ENDBRANCH  23  24
ENDBRANCH  22  23
ENDBRANCH  21  22
ENDBRANCH  20  21
ENDBRANCH  19  20
ENDBRANCH  18  19
ENDBRANCH  17  18
ENDBRANCH   1  17
TORSDOF 26
ENDMDL
MODEL 8
REMARK VINA RESULT:    -2.627      4.517      8.255
REMARK INTER + INTRA:         -10.840
REMARK INTER:                  -5.215
REMARK INTRA:                  -5.625
REMARK UNBOUND:                -4.220
REMARK SMILES CCCCCCCCCCCCCCCCCCCCCCCCCCCC(=O)[O-]
REMARK SMILES IDX 15 1 16 2 17 3 18 4 19 5 20 6 21 7 22 8 23 9 24 10 25 11
REMARK SMILES IDX 26 12 27 13 28 14 29 15 30 16 14 17 13 18 12 19 11 20 10 21
REMARK SMILES IDX 9 22 8 23 7 24 6 25 5 26 4 27 3 28 2 29 1 30
REMARK H PARENT
REMARK Flexibility Score: inf
ROOT
ATOM      1  C   UNL     1      -1.530   4.237  12.913  1.00  0.00     0.000 C 
ENDROOT
BRANCH   1   2
ATOM      2  C   UNL     1      -0.904   5.606  12.558  1.00  0.00     0.000 C 
BRANCH   2   3
ATOM      3  C   UNL     1      -1.972   6.665  12.244  1.00  0.00     0.000 C 
BRANCH   3   4
ATOM      4  C   UNL     1      -3.366   6.031  12.115  1.00  0.00     0.000 C 
BRANCH   4   5
ATOM      5  C   UNL     1      -3.873   6.009  10.661  1.00  0.00     0.000 C 
BRANCH   5   6
ATOM      6  C   UNL     1      -3.735   4.647   9.942  1.00  0.00     0.000 C 
BRANCH   6   7
ATOM      7  C   UNL     1      -2.654   4.640   8.840  1.00  0.00     0.000 C 
BRANCH   7   8
ATOM      8  C   UNL     1      -2.136   6.051   8.504  1.00  0.00     0.000 C 
BRANCH   8   9
ATOM      9  C   UNL     1      -0.653   6.203   8.869  1.00  0.00     0.000 C 
BRANCH   9  10
ATOM     10  C   UNL     1      -0.178   7.646   8.663  1.00  0.00     0.000 C 
BRANCH  10  11
ATOM     11  C   UNL     1       1.306   7.789   9.022  1.00  0.00     0.000 C 
BRANCH  11  12
ATOM     12  C   UNL     1       1.741   6.864  10.168  1.00  0.00     0.006 C 
BRANCH  12  13
ATOM     13  C   UNL     1       2.859   7.451  11.052  1.00  0.00     0.053 C 
BRANCH  13  14
ATOM     14  C   UNL     1       2.322   8.092  12.297  1.00  0.00     0.041 C 
ATOM     15  O   UNL     1       1.121   8.468  12.349  1.00  0.00    -0.550 OA
ATOM     16  O   UNL     1       3.151   8.289  13.394  1.00  0.00    -0.550 OA
ENDBRANCH  13  14
ENDBRANCH  12  13
ENDBRANCH  11  12
ENDBRANCH  10  11
ENDBRANCH   9  10
ENDBRANCH   8   9
ENDBRANCH   7   8
ENDBRANCH   6   7
ENDBRANCH   5   6
ENDBRANCH   4   5
ENDBRANCH   3   4
ENDBRANCH   2   3
ENDBRANCH   1   2
BRANCH   1  17
ATOM     17  C   UNL     1      -0.981   3.070  12.068  1.00  0.00     0.000 C 
BRANCH  17  18
ATOM     18  C   UNL     1       0.035   3.472  10.981  1.00  0.00     0.000 C 
BRANCH  18  19
ATOM     19  C   UNL     1       0.441   2.300  10.073  1.00  0.00     0.000 C 
BRANCH  19  20
ATOM     20  C   UNL     1       1.155   1.180  10.852  1.00  0.00     0.000 C 
BRANCH  20  21
ATOM     21  C   UNL     1       1.258  -0.153  10.088  1.00  0.00     0.000 C 
BRANCH  21  22
ATOM     22  C   UNL     1       2.681  -0.733  10.104  1.00  0.00    -0.000 C 
BRANCH  22  23
ATOM     23  C   UNL     1       3.575   0.034  11.086  1.00  0.00    -0.000 C 
BRANCH  23  24
ATOM     24  C   UNL     1       4.915   0.420  10.437  1.00  0.00    -0.000 C 
BRANCH  24  25
ATOM     25  C   UNL     1       4.842   0.390   8.900  1.00  0.00    -0.000 C 
BRANCH  25  26
ATOM     26  C   UNL     1       4.935   1.800   8.288  1.00  0.00    -0.000 C 
BRANCH  26  27
ATOM     27  C   UNL     1       3.549   2.467   8.147  1.00  0.00    -0.000 C 
BRANCH  27  28
ATOM     28  C   UNL     1       3.451   3.831   8.851  1.00  0.00    -0.000 C 
BRANCH  28  29
ATOM     29  C   UNL     1       4.441   3.985  10.013  1.00  0.00    -0.003 C 
ATOM     30  C   UNL     1       3.737   3.831  11.355  1.00  0.00     0.004 C 
ENDBRANCH  28  29
ENDBRANCH  27  28
ENDBRANCH  26  27
ENDBRANCH  25  26
ENDBRANCH  24  25
ENDBRANCH  23  24
ENDBRANCH  22  23
ENDBRANCH  21  22
ENDBRANCH  20  21
ENDBRANCH  19  20
ENDBRANCH  18  19
ENDBRANCH  17  18
ENDBRANCH   1  17
TORSDOF 26
ENDMDL
MODEL 9
REMARK VINA RESULT:    -2.600      3.647      4.943
REMARK INTER + INTRA:         -10.772
REMARK INTER:                  -6.118
REMARK INTRA:                  -4.654
REMARK UNBOUND:                -4.220
REMARK SMILES CCCCCCCCCCCCCCCCCCCCCCCCCCCC(=O)[O-]
REMARK SMILES IDX 15 1 16 2 17 3 18 4 19 5 20 6 21 7 22 8 23 9 24 10 25 11
REMARK SMILES IDX 26 12 27 13 28 14 29 15 30 16 14 17 13 18 12 19 11 20 10 21
REMARK SMILES IDX 9 22 8 23 7 24 6 25 5 26 4 27 3 28 2 29 1 30
REMARK H PARENT
REMARK Flexibility Score: inf
ROOT
ATOM      1  C   UNL     1      -0.723  -3.993   9.623  1.00  0.00     0.000 C 
ENDROOT
BRANCH   1   2
ATOM      2  C   UNL     1      -1.285  -5.249  10.328  1.00  0.00     0.000 C 
BRANCH   2   3
ATOM      3  C   UNL     1      -0.965  -5.258  11.831  1.00  0.00     0.000 C 
BRANCH   3   4
ATOM      4  C   UNL     1      -2.157  -4.756  12.660  1.00  0.00     0.000 C 
BRANCH   4   5
ATOM      5  C   UNL     1      -1.884  -3.393  13.322  1.00  0.00     0.000 C 
BRANCH   5   6
ATOM      6  C   UNL     1      -2.983  -2.328  13.099  1.00  0.00     0.000 C 
BRANCH   6   7
ATOM      7  C   UNL     1      -3.232  -2.004  11.610  1.00  0.00     0.000 C 
BRANCH   7   8
ATOM      8  C   UNL     1      -4.668  -1.522  11.336  1.00  0.00     0.000 C 
BRANCH   8   9
ATOM      9  C   UNL     1      -5.366  -2.408  10.295  1.00  0.00     0.000 C 
BRANCH   9  10
ATOM     10  C   UNL     1      -4.503  -3.620   9.930  1.00  0.00     0.000 C 
BRANCH  10  11
ATOM     11  C   UNL     1      -5.098  -4.378   8.737  1.00  0.00     0.000 C 
BRANCH  11  12
ATOM     12  C   UNL     1      -4.087  -4.606   7.603  1.00  0.00     0.006 C 
BRANCH  12  13
ATOM     13  C   UNL     1      -4.616  -5.501   6.467  1.00  0.00     0.053 C 
BRANCH  13  14
ATOM     14  C   UNL     1      -4.167  -5.032   5.115  1.00  0.00     0.041 C 
ATOM     15  O   UNL     1      -4.047  -3.801   4.880  1.00  0.00    -0.550 OA
ATOM     16  O   UNL     1      -3.895  -5.952   4.112  1.00  0.00    -0.550 OA
ENDBRANCH  13  14
ENDBRANCH  12  13
ENDBRANCH  11  12
ENDBRANCH  10  11
ENDBRANCH   9  10
ENDBRANCH   8   9
ENDBRANCH   7   8
ENDBRANCH   6   7
ENDBRANCH   5   6
ENDBRANCH   4   5
ENDBRANCH   3   4
ENDBRANCH   2   3
ENDBRANCH   1   2
BRANCH   1  17
ATOM     17  C   UNL     1       0.495  -3.376  10.339  1.00  0.00     0.000 C 
BRANCH  17  18
ATOM     18  C   UNL     1       0.571  -1.837  10.289  1.00  0.00     0.000 C 
BRANCH  18  19
ATOM     19  C   UNL     1       0.637  -1.192  11.682  1.00  0.00     0.000 C 
BRANCH  19  20
ATOM     20  C   UNL     1      -0.298   0.025  11.806  1.00  0.00     0.000 C 
BRANCH  20  21
ATOM     21  C   UNL     1      -0.520   0.506  13.251  1.00  0.00     0.000 C 
BRANCH  21  22
ATOM     22  C   UNL     1      -1.435   1.738  13.328  1.00  0.00    -0.000 C 
BRANCH  22  23
ATOM     23  C   UNL     1      -2.850   1.403  12.843  1.00  0.00    -0.000 C 
BRANCH  23  24
ATOM     24  C   UNL     1      -3.538   2.636  12.235  1.00  0.00    -0.000 C 
BRANCH  24  25
ATOM     25  C   UNL     1      -2.738   3.926  12.483  1.00  0.00    -0.000 C 
BRANCH  25  26
ATOM     26  C   UNL     1      -2.883   4.930  11.324  1.00  0.00    -0.000 C 
BRANCH  26  27
ATOM     27  C   UNL     1      -1.542   5.179  10.597  1.00  0.00    -0.000 C 
BRANCH  27  28
ATOM     28  C   UNL     1      -1.150   4.048   9.631  1.00  0.00    -0.000 C 
BRANCH  28  29
ATOM     29  C   UNL     1       0.102   3.280  10.075  1.00  0.00    -0.003 C 
ATOM     30  C   UNL     1       0.750   3.943  11.284  1.00  0.00     0.004 C 
ENDBRANCH  28  29
ENDBRANCH  27  28
ENDBRANCH  26  27
ENDBRANCH  25  26
ENDBRANCH  24  25
ENDBRANCH  23  24
ENDBRANCH  22  23
ENDBRANCH  21  22
ENDBRANCH  20  21
ENDBRANCH  19  20
ENDBRANCH  18  19
ENDBRANCH  17  18
ENDBRANCH   1  17
TORSDOF 26
ENDMDL
