MODEL 1
REMARK VINA RESULT:    -5.944      0.000      0.000
REMARK INTER + INTRA:          -7.053
REMARK INTER:                  -6.813
REMARK INTRA:                  -0.240
REMARK UNBOUND:                -0.240
REMARK SMILES O=C([O-])C=Cc1ccc(O)cc1
REMARK SMILES IDX 6 1 7 2 12 3 8 4 11 5 9 6 5 7 4 8 2 9 1 10 3 11 10 12
REMARK H PARENT 10 13
REMARK Flexibility Score: inf
ROOT
ATOM      1  C   UNL     1      16.791  25.836   1.433  1.00  0.00    -0.025 A 
ATOM      2  C   UNL     1      18.111  25.618   1.011  1.00  0.00     0.012 A 
ATOM      3  C   UNL     1      15.890  24.758   1.459  1.00  0.00     0.012 A 
ATOM      4  C   UNL     1      18.511  24.352   0.571  1.00  0.00     0.047 A 
ATOM      5  C   UNL     1      16.292  23.493   1.018  1.00  0.00     0.047 A 
ATOM      6  C   UNL     1      17.603  23.288   0.570  1.00  0.00     0.115 A 
ENDROOT
BRANCH   1   7
ATOM      7  C   UNL     1      16.407  27.168   1.944  1.00  0.00     0.010 C 
ATOM      8  C   UNL     1      15.699  28.084   1.266  1.00  0.00     0.025 C 
BRANCH   8   9
ATOM      9  C   UNL     1      15.345  28.007  -0.164  1.00  0.00     0.064 C 
ATOM     10  O   UNL     1      15.986  28.701  -0.996  1.00  0.00    -0.545 OA
ATOM     11  O   UNL     1      14.368  27.131  -0.624  1.00  0.00    -0.545 OA
ENDBRANCH   8   9
ENDBRANCH   1   7
BRANCH   6  12
ATOM     12  O   UNL     1      18.015  22.033   0.127  1.00  0.00    -0.508 OA
ATOM     13  H   UNL     1      18.441  21.362   0.757  1.00  0.00     0.293 HD
ENDBRANCH   6  12
TORSDOF 3
ENDMDL
MODEL 2
REMARK VINA RESULT:    -5.929      1.312      1.951
REMARK INTER + INTRA:          -7.036
REMARK INTER:                  -6.831
REMARK INTRA:                  -0.205
REMARK UNBOUND:                -0.240
REMARK SMILES O=C([O-])C=Cc1ccc(O)cc1
REMARK SMILES IDX 6 1 7 2 12 3 8 4 11 5 9 6 5 7 4 8 2 9 1 10 3 11 10 12
REMARK H PARENT 10 13
REMARK Flexibility Score: inf
ROOT
ATOM      1  C   UNL     1      17.269  26.028   1.214  1.00  0.00    -0.025 A 
ATOM      2  C   UNL     1      16.656  24.802   0.918  1.00  0.00     0.012 A 
ATOM      3  C   UNL     1      18.364  26.454   0.444  1.00  0.00     0.012 A 
ATOM      4  C   UNL     1      17.163  23.987  -0.100  1.00  0.00     0.047 A 
ATOM      5  C   UNL     1      18.870  25.638  -0.574  1.00  0.00     0.047 A 
ATOM      6  C   UNL     1      18.272  24.401  -0.845  1.00  0.00     0.115 A 
ENDROOT
BRANCH   1   7
ATOM      7  C   UNL     1      16.683  26.895   2.258  1.00  0.00     0.010 C 
ATOM      8  C   UNL     1      15.892  27.955   2.033  1.00  0.00     0.025 C 
BRANCH   8   9
ATOM      9  C   UNL     1      15.622  28.557   0.713  1.00  0.00     0.064 C 
ATOM     10  O   UNL     1      16.240  29.600   0.374  1.00  0.00    -0.545 OA
ATOM     11  O   UNL     1      14.754  27.959  -0.194  1.00  0.00    -0.545 OA
ENDBRANCH   8   9
ENDBRANCH   1   7
BRANCH   6  12
ATOM     12  O   UNL     1      18.767  23.579  -1.855  1.00  0.00    -0.508 OA
ATOM     13  H   UNL     1      18.189  23.293  -2.637  1.00  0.00     0.293 HD
ENDBRANCH   6  12
TORSDOF 3
ENDMDL
MODEL 3
REMARK VINA RESULT:    -5.927      1.623      4.818
REMARK INTER + INTRA:          -7.033
REMARK INTER:                  -6.821
REMARK INTRA:                  -0.212
REMARK UNBOUND:                -0.240
REMARK SMILES O=C([O-])C=Cc1ccc(O)cc1
REMARK SMILES IDX 6 1 7 2 12 3 8 4 11 5 9 6 5 7 4 8 2 9 1 10 3 11 10 12
REMARK H PARENT 10 13
REMARK Flexibility Score: inf
ROOT
ATOM      1  C   UNL     1      15.685  25.823   0.774  1.00  0.00    -0.025 A 
ATOM      2  C   UNL     1      15.024  26.616  -0.175  1.00  0.00     0.012 A 
ATOM      3  C   UNL     1      16.376  26.444   1.828  1.00  0.00     0.012 A 
ATOM      4  C   UNL     1      15.094  28.011  -0.102  1.00  0.00     0.047 A 
ATOM      5  C   UNL     1      16.446  27.839   1.900  1.00  0.00     0.047 A 
ATOM      6  C   UNL     1      15.808  28.626   0.932  1.00  0.00     0.115 A 
ENDROOT
BRANCH   1   7
ATOM      7  C   UNL     1      15.552  24.353   0.707  1.00  0.00     0.010 C 
ATOM      8  C   UNL     1      16.551  23.493   0.456  1.00  0.00     0.025 C 
BRANCH   8   9
ATOM      9  C   UNL     1      17.910  23.865   0.017  1.00  0.00     0.064 C 
ATOM     10  O   UNL     1      18.873  23.732   0.816  1.00  0.00    -0.545 OA
ATOM     11  O   UNL     1      18.162  24.289  -1.283  1.00  0.00    -0.545 OA
ENDBRANCH   8   9
ENDBRANCH   1   7
BRANCH   6  12
ATOM     12  O   UNL     1      15.871  30.016   0.992  1.00  0.00    -0.508 OA
ATOM     13  H   UNL     1      16.398  30.492   1.716  1.00  0.00     0.293 HD
ENDBRANCH   6  12
TORSDOF 3
ENDMDL
MODEL 4
REMARK VINA RESULT:    -5.917      2.307      3.980
REMARK INTER + INTRA:          -7.021
REMARK INTER:                  -6.834
REMARK INTRA:                  -0.188
REMARK UNBOUND:                -0.240
REMARK SMILES O=C([O-])C=Cc1ccc(O)cc1
REMARK SMILES IDX 6 1 7 2 12 3 8 4 11 5 9 6 5 7 4 8 2 9 1 10 3 11 10 12
REMARK H PARENT 10 13
REMARK Flexibility Score: inf
ROOT
ATOM      1  C   UNL     1      17.757  26.678   1.187  1.00  0.00    -0.025 A 
ATOM      2  C   UNL     1      17.833  28.048   1.475  1.00  0.00     0.012 A 
ATOM      3  C   UNL     1      18.603  26.133   0.206  1.00  0.00     0.012 A 
ATOM      4  C   UNL     1      18.705  28.874   0.756  1.00  0.00     0.047 A 
ATOM      5  C   UNL     1      19.473  26.959  -0.511  1.00  0.00     0.047 A 
ATOM      6  C   UNL     1      19.523  28.332  -0.240  1.00  0.00     0.115 A 
ENDROOT
BRANCH   1   7
ATOM      7  C   UNL     1      16.868  25.818   1.996  1.00  0.00     0.010 C 
ATOM      8  C   UNL     1      15.807  25.141   1.529  1.00  0.00     0.025 C 
BRANCH   8   9
ATOM      9  C   UNL     1      15.228  25.282   0.179  1.00  0.00     0.064 C 
ATOM     10  O   UNL     1      15.277  24.308  -0.617  1.00  0.00    -0.545 OA
ATOM     11  O   UNL     1      14.566  26.441  -0.209  1.00  0.00    -0.545 OA
ENDBRANCH   8   9
ENDBRANCH   1   7
BRANCH   6  12
ATOM     12  O   UNL     1      20.386  29.166  -0.949  1.00  0.00    -0.508 OA
ATOM     13  H   UNL     1      20.035  29.893  -1.563  1.00  0.00     0.293 HD
ENDBRANCH   6  12
TORSDOF 3
ENDMDL
MODEL 5
REMARK VINA RESULT:    -5.905      2.595      3.358
REMARK INTER + INTRA:          -7.008
REMARK INTER:                  -6.788
REMARK INTRA:                  -0.221
REMARK UNBOUND:                -0.240
REMARK SMILES O=C([O-])C=Cc1ccc(O)cc1
REMARK SMILES IDX 6 1 7 2 12 3 8 4 11 5 9 6 5 7 4 8 2 9 1 10 3 11 10 12
REMARK H PARENT 10 13
REMARK Flexibility Score: inf
ROOT
ATOM      1  C   UNL     1      17.360  27.394   0.981  1.00  0.00    -0.025 A 
ATOM      2  C   UNL     1      17.057  26.467   1.988  1.00  0.00     0.012 A 
ATOM      3  C   UNL     1      18.082  26.971  -0.148  1.00  0.00     0.012 A 
ATOM      4  C   UNL     1      17.513  25.148   1.895  1.00  0.00     0.047 A 
ATOM      5  C   UNL     1      18.538  25.652  -0.240  1.00  0.00     0.047 A 
ATOM      6  C   UNL     1      18.257  24.738   0.784  1.00  0.00     0.115 A 
ENDROOT
BRANCH   1   7
ATOM      7  C   UNL     1      16.822  28.767   1.076  1.00  0.00     0.010 C 
ATOM      8  C   UNL     1      17.556  29.879   1.232  1.00  0.00     0.025 C 
BRANCH   8   9
ATOM      9  C   UNL     1      19.001  29.917   1.526  1.00  0.00     0.064 C 
ATOM     10  O   UNL     1      19.390  29.806   2.718  1.00  0.00    -0.545 OA
ATOM     11  O   UNL     1      19.948  30.000   0.510  1.00  0.00    -0.545 OA
ENDBRANCH   8   9
ENDBRANCH   1   7
BRANCH   6  12
ATOM     12  O   UNL     1      18.707  23.422   0.704  1.00  0.00    -0.508 OA
ATOM     13  H   UNL     1      19.658  23.171   0.948  1.00  0.00     0.293 HD
ENDBRANCH   6  12
TORSDOF 3
ENDMDL
MODEL 6
REMARK VINA RESULT:    -5.888      2.033      4.940
REMARK INTER + INTRA:          -6.989
REMARK INTER:                  -6.778
REMARK INTRA:                  -0.211
REMARK UNBOUND:                -0.240
REMARK SMILES O=C([O-])C=Cc1ccc(O)cc1
REMARK SMILES IDX 6 1 7 2 12 3 8 4 11 5 9 6 5 7 4 8 2 9 1 10 3 11 10 12
REMARK H PARENT 10 13
REMARK Flexibility Score: inf
ROOT
ATOM      1  C   UNL     1      17.089  27.145   1.637  1.00  0.00    -0.025 A 
ATOM      2  C   UNL     1      15.773  27.539   1.358  1.00  0.00     0.012 A 
ATOM      3  C   UNL     1      18.108  28.113   1.656  1.00  0.00     0.012 A 
ATOM      4  C   UNL     1      15.484  28.873   1.051  1.00  0.00     0.047 A 
ATOM      5  C   UNL     1      17.818  29.446   1.348  1.00  0.00     0.047 A 
ATOM      6  C   UNL     1      16.506  29.828   1.042  1.00  0.00     0.115 A 
ENDROOT
BRANCH   1   7
ATOM      7  C   UNL     1      17.360  25.742   2.011  1.00  0.00     0.010 C 
ATOM      8  C   UNL     1      17.462  24.715   1.152  1.00  0.00     0.025 C 
BRANCH   8   9
ATOM      9  C   UNL     1      17.136  24.766  -0.286  1.00  0.00     0.064 C 
ATOM     10  O   UNL     1      15.948  24.575  -0.655  1.00  0.00    -0.545 OA
ATOM     11  O   UNL     1      18.096  25.092  -1.237  1.00  0.00    -0.545 OA
ENDBRANCH   8   9
ENDBRANCH   1   7
BRANCH   6  12
ATOM     12  O   UNL     1      16.205  31.153   0.732  1.00  0.00    -0.508 OA
ATOM     13  H   UNL     1      15.519  31.679   1.262  1.00  0.00     0.293 HD
ENDBRANCH   6  12
TORSDOF 3
ENDMDL
MODEL 7
REMARK VINA RESULT:    -5.851      2.054      4.721
REMARK INTER + INTRA:          -6.946
REMARK INTER:                  -6.741
REMARK INTRA:                  -0.205
REMARK UNBOUND:                -0.240
REMARK SMILES O=C([O-])C=Cc1ccc(O)cc1
REMARK SMILES IDX 6 1 7 2 12 3 8 4 11 5 9 6 5 7 4 8 2 9 1 10 3 11 10 12
REMARK H PARENT 10 13
REMARK Flexibility Score: inf
ROOT
ATOM      1  C   UNL     1      17.052  27.148   1.695  1.00  0.00    -0.025 A 
ATOM      2  C   UNL     1      18.077  28.102   1.627  1.00  0.00     0.012 A 
ATOM      3  C   UNL     1      15.736  27.529   1.383  1.00  0.00     0.012 A 
ATOM      4  C   UNL     1      17.785  29.431   1.304  1.00  0.00     0.047 A 
ATOM      5  C   UNL     1      15.445  28.858   1.060  1.00  0.00     0.047 A 
ATOM      6  C   UNL     1      16.469  29.813   1.023  1.00  0.00     0.115 A 
ENDROOT
BRANCH   1   7
ATOM      7  C   UNL     1      17.394  25.740   1.987  1.00  0.00     0.010 C 
ATOM      8  C   UNL     1      17.502  24.762   1.074  1.00  0.00     0.025 C 
BRANCH   8   9
ATOM      9  C   UNL     1      17.117  24.870  -0.346  1.00  0.00     0.064 C 
ATOM     10  O   UNL     1      15.937  24.597  -0.686  1.00  0.00    -0.545 OA
ATOM     11  O   UNL     1      18.008  25.335  -1.307  1.00  0.00    -0.545 OA
ENDBRANCH   8   9
ENDBRANCH   1   7
BRANCH   6  12
ATOM     12  O   UNL     1      16.191  31.140   0.704  1.00  0.00    -0.508 OA
ATOM     13  H   UNL     1      16.887  31.739   0.275  1.00  0.00     0.293 HD
ENDBRANCH   6  12
TORSDOF 3
ENDMDL
MODEL 8
REMARK VINA RESULT:    -5.751      2.359      3.059
REMARK INTER + INTRA:          -6.831
REMARK INTER:                  -6.664
REMARK INTRA:                  -0.167
REMARK UNBOUND:                -0.240
REMARK SMILES O=C([O-])C=Cc1ccc(O)cc1
REMARK SMILES IDX 6 1 7 2 12 3 8 4 11 5 9 6 5 7 4 8 2 9 1 10 3 11 10 12
REMARK H PARENT 10 13
REMARK Flexibility Score: inf
ROOT
ATOM      1  C   UNL     1      15.966  25.742   1.249  1.00  0.00    -0.025 A 
ATOM      2  C   UNL     1      15.983  24.357   1.473  1.00  0.00     0.012 A 
ATOM      3  C   UNL     1      15.120  26.268   0.259  1.00  0.00     0.012 A 
ATOM      4  C   UNL     1      15.204  23.505   0.683  1.00  0.00     0.047 A 
ATOM      5  C   UNL     1      14.342  25.415  -0.530  1.00  0.00     0.047 A 
ATOM      6  C   UNL     1      14.385  24.030  -0.321  1.00  0.00     0.115 A 
ENDROOT
BRANCH   1   7
ATOM      7  C   UNL     1      16.756  26.625   2.131  1.00  0.00     0.010 C 
ATOM      8  C   UNL     1      17.779  27.401   1.738  1.00  0.00     0.025 C 
BRANCH   8   9
ATOM      9  C   UNL     1      18.417  27.368   0.408  1.00  0.00     0.064 C 
ATOM     10  O   UNL     1      18.411  28.406  -0.304  1.00  0.00    -0.545 OA
ATOM     11  O   UNL     1      19.087  26.238  -0.048  1.00  0.00    -0.545 OA
ENDBRANCH   8   9
ENDBRANCH   1   7
BRANCH   6  12
ATOM     12  O   UNL     1      13.616  23.170  -1.102  1.00  0.00    -0.508 OA
ATOM     13  H   UNL     1      13.854  22.974  -2.068  1.00  0.00     0.293 HD
ENDBRANCH   6  12
TORSDOF 3
ENDMDL
MODEL 9
REMARK VINA RESULT:    -5.747      1.516      1.874
REMARK INTER + INTRA:          -6.827
REMARK INTER:                  -6.616
REMARK INTRA:                  -0.211
REMARK UNBOUND:                -0.240
REMARK SMILES O=C([O-])C=Cc1ccc(O)cc1
REMARK SMILES IDX 6 1 7 2 12 3 8 4 11 5 9 6 5 7 4 8 2 9 1 10 3 11 10 12
REMARK H PARENT 10 13
REMARK Flexibility Score: inf
ROOT
ATOM      1  C   UNL     1      18.389  26.821   0.673  1.00  0.00    -0.025 A 
ATOM      2  C   UNL     1      19.031  26.147  -0.376  1.00  0.00     0.012 A 
ATOM      3  C   UNL     1      17.689  26.080   1.640  1.00  0.00     0.012 A 
ATOM      4  C   UNL     1      18.931  24.756  -0.488  1.00  0.00     0.047 A 
ATOM      5  C   UNL     1      17.589  24.689   1.527  1.00  0.00     0.047 A 
ATOM      6  C   UNL     1      18.208  24.025   0.460  1.00  0.00     0.115 A 
ENDROOT
BRANCH   1   7
ATOM      7  C   UNL     1      18.554  28.283   0.800  1.00  0.00     0.010 C 
ATOM      8  C   UNL     1      17.572  29.189   0.673  1.00  0.00     0.025 C 
BRANCH   8   9
ATOM      9  C   UNL     1      16.203  28.907   0.200  1.00  0.00     0.064 C 
ATOM     10  O   UNL     1      15.253  28.910   1.026  1.00  0.00    -0.545 OA
ATOM     11  O   UNL     1      15.927  28.710  -1.148  1.00  0.00    -0.545 OA
ENDBRANCH   8   9
ENDBRANCH   1   7
BRANCH   6  12
ATOM     12  O   UNL     1      18.115  22.640   0.336  1.00  0.00    -0.508 OA
ATOM     13  H   UNL     1      18.625  22.017   0.953  1.00  0.00     0.293 HD
ENDBRANCH   6  12
TORSDOF 3
ENDMDL
