MODEL 1
REMARK VINA RESULT:    -5.307      0.000      0.000
REMARK INTER + INTRA:         -15.968
REMARK INTER:                 -13.374
REMARK INTRA:                  -2.593
REMARK UNBOUND:                -2.593
REMARK SMILES CCCCCCCCCCCCCCCCCCCCCCCCCCCC(=O)[O-]
REMARK SMILES IDX 15 1 16 2 17 3 18 4 19 5 20 6 21 7 22 8 23 9 24 10 25 11
REMARK SMILES IDX 26 12 27 13 28 14 29 15 30 16 14 17 13 18 12 19 11 20 10 21
REMARK SMILES IDX 9 22 8 23 7 24 6 25 5 26 4 27 3 28 2 29 1 30
REMARK H PARENT
REMARK Flexibility Score: inf
ROOT
ATOM      1  C   UNL     1      47.947  21.742  52.283  1.00  0.00     0.000 C 
ENDROOT
BRANCH   1   2
ATOM      2  C   UNL     1      47.800  21.277  50.825  1.00  0.00     0.000 C 
BRANCH   2   3
ATOM      3  C   UNL     1      47.147  19.889  50.709  1.00  0.00     0.000 C 
BRANCH   3   4
ATOM      4  C   UNL     1      46.347  19.510  51.966  1.00  0.00     0.000 C 
BRANCH   4   5
ATOM      5  C   UNL     1      45.537  18.215  51.782  1.00  0.00     0.000 C 
BRANCH   5   6
ATOM      6  C   UNL     1      44.126  18.313  52.387  1.00  0.00     0.000 C 
BRANCH   6   7
ATOM      7  C   UNL     1      44.098  17.932  53.874  1.00  0.00     0.000 C 
BRANCH   7   8
ATOM      8  C   UNL     1      43.601  19.105  54.732  1.00  0.00     0.000 C 
BRANCH   8   9
ATOM      9  C   UNL     1      42.205  18.844  55.336  1.00  0.00     0.000 C 
BRANCH   9  10
ATOM     10  C   UNL     1      41.041  19.326  54.449  1.00  0.00     0.000 C 
BRANCH  10  11
ATOM     11  C   UNL     1      41.349  20.557  53.576  1.00  0.00     0.000 C 
BRANCH  11  12
ATOM     12  C   UNL     1      40.734  21.882  54.068  1.00  0.00     0.006 C 
BRANCH  12  13
ATOM     13  C   UNL     1      41.588  22.619  55.118  1.00  0.00     0.053 C 
BRANCH  13  14
ATOM     14  C   UNL     1      41.303  24.090  55.164  1.00  0.00     0.041 C 
ATOM     15  O   UNL     1      40.155  24.507  55.470  1.00  0.00    -0.550 OA
ATOM     16  O   UNL     1      42.319  25.003  54.908  1.00  0.00    -0.550 OA
ENDBRANCH  13  14
ENDBRANCH  12  13
ENDBRANCH  11  12
ENDBRANCH  10  11
ENDBRANCH   9  10
ENDBRANCH   8   9
ENDBRANCH   7   8
ENDBRANCH   6   7
ENDBRANCH   5   6
ENDBRANCH   4   5
ENDBRANCH   3   4
ENDBRANCH   2   3
ENDBRANCH   1   2
BRANCH   1  17
ATOM     17  C   UNL     1      47.797  23.266  52.441  1.00  0.00     0.000 C 
BRANCH  17  18
ATOM     18  C   UNL     1      47.357  23.666  53.866  1.00  0.00     0.000 C 
BRANCH  18  19
ATOM     19  C   UNL     1      47.885  22.725  54.963  1.00  0.00     0.000 C 
BRANCH  19  20
ATOM     20  C   UNL     1      49.025  23.346  55.786  1.00  0.00     0.000 C 
BRANCH  20  21
ATOM     21  C   UNL     1      50.307  23.550  54.964  1.00  0.00     0.000 C 
BRANCH  21  22
ATOM     22  C   UNL     1      51.473  22.679  55.455  1.00  0.00    -0.000 C 
BRANCH  22  23
ATOM     23  C   UNL     1      52.353  22.230  54.283  1.00  0.00    -0.000 C 
BRANCH  23  24
ATOM     24  C   UNL     1      51.502  21.658  53.140  1.00  0.00    -0.000 C 
BRANCH  24  25
ATOM     25  C   UNL     1      52.222  21.717  51.783  1.00  0.00    -0.000 C 
BRANCH  25  26
ATOM     26  C   UNL     1      51.516  20.874  50.707  1.00  0.00    -0.000 C 
BRANCH  26  27
ATOM     27  C   UNL     1      52.472  20.409  49.596  1.00  0.00    -0.000 C 
BRANCH  27  28
ATOM     28  C   UNL     1      53.953  20.576  49.981  1.00  0.00    -0.000 C 
BRANCH  28  29
ATOM     29  C   UNL     1      54.904  20.197  48.835  1.00  0.00    -0.003 C 
ATOM     30  C   UNL     1      55.249  21.385  47.936  1.00  0.00     0.004 C 
ENDBRANCH  28  29
ENDBRANCH  27  28
ENDBRANCH  26  27
ENDBRANCH  25  26
ENDBRANCH  24  25
ENDBRANCH  23  24
ENDBRANCH  22  23
ENDBRANCH  21  22
ENDBRANCH  20  21
ENDBRANCH  19  20
ENDBRANCH  18  19
ENDBRANCH  17  18
ENDBRANCH   1  17
TORSDOF 26
ENDMDL
MODEL 2
REMARK VINA RESULT:    -5.238      2.575      5.272
REMARK INTER + INTRA:         -15.793
REMARK INTER:                 -12.832
REMARK INTRA:                  -2.961
REMARK UNBOUND:                -2.593
REMARK SMILES CCCCCCCCCCCCCCCCCCCCCCCCCCCC(=O)[O-]
REMARK SMILES IDX 15 1 16 2 17 3 18 4 19 5 20 6 21 7 22 8 23 9 24 10 25 11
REMARK SMILES IDX 26 12 27 13 28 14 29 15 30 16 14 17 13 18 12 19 11 20 10 21
REMARK SMILES IDX 9 22 8 23 7 24 6 25 5 26 4 27 3 28 2 29 1 30
REMARK H PARENT
REMARK Flexibility Score: inf
ROOT
ATOM      1  C   UNL     1      46.130  24.344  55.086  1.00  0.00     0.000 C 
ENDROOT
BRANCH   1   2
ATOM      2  C   UNL     1      44.867  25.008  55.658  1.00  0.00     0.000 C 
BRANCH   2   3
ATOM      3  C   UNL     1      43.603  24.672  54.850  1.00  0.00     0.000 C 
BRANCH   3   4
ATOM      4  C   UNL     1      42.316  24.857  55.671  1.00  0.00     0.000 C 
BRANCH   4   5
ATOM      5  C   UNL     1      41.194  23.901  55.232  1.00  0.00     0.000 C 
BRANCH   5   6
ATOM      6  C   UNL     1      41.679  22.447  55.100  1.00  0.00     0.000 C 
BRANCH   6   7
ATOM      7  C   UNL     1      40.879  21.653  54.056  1.00  0.00     0.000 C 
BRANCH   7   8
ATOM      8  C   UNL     1      41.594  20.343  53.696  1.00  0.00     0.000 C 
BRANCH   8   9
ATOM      9  C   UNL     1      41.268  19.202  54.684  1.00  0.00     0.000 C 
BRANCH   9  10
ATOM     10  C   UNL     1      42.505  18.613  55.387  1.00  0.00     0.000 C 
BRANCH  10  11
ATOM     11  C   UNL     1      43.858  18.981  54.751  1.00  0.00     0.000 C 
BRANCH  11  12
ATOM     12  C   UNL     1      44.429  17.935  53.772  1.00  0.00     0.006 C 
BRANCH  12  13
ATOM     13  C   UNL     1      45.050  18.540  52.499  1.00  0.00     0.053 C 
BRANCH  13  14
ATOM     14  C   UNL     1      44.276  18.199  51.262  1.00  0.00     0.041 C 
ATOM     15  O   UNL     1      43.713  17.078  51.151  1.00  0.00    -0.550 OA
ATOM     16  O   UNL     1      44.143  19.137  50.245  1.00  0.00    -0.550 OA
ENDBRANCH  13  14
ENDBRANCH  12  13
ENDBRANCH  11  12
ENDBRANCH  10  11
ENDBRANCH   9  10
ENDBRANCH   8   9
ENDBRANCH   7   8
ENDBRANCH   6   7
ENDBRANCH   5   6
ENDBRANCH   4   5
ENDBRANCH   3   4
ENDBRANCH   2   3
ENDBRANCH   1   2
BRANCH   1  17
ATOM     17  C   UNL     1      46.634  25.025  53.801  1.00  0.00     0.000 C 
BRANCH  17  18
ATOM     18  C   UNL     1      47.451  24.064  52.911  1.00  0.00     0.000 C 
BRANCH  18  19
ATOM     19  C   UNL     1      47.991  22.835  53.662  1.00  0.00     0.000 C 
BRANCH  19  20
ATOM     20  C   UNL     1      47.845  21.531  52.861  1.00  0.00     0.000 C 
BRANCH  20  21
ATOM     21  C   UNL     1      47.897  21.760  51.343  1.00  0.00     0.000 C 
BRANCH  21  22
ATOM     22  C   UNL     1      47.681  20.468  50.540  1.00  0.00    -0.000 C 
BRANCH  22  23
ATOM     23  C   UNL     1      49.020  19.880  50.079  1.00  0.00    -0.000 C 
BRANCH  23  24
ATOM     24  C   UNL     1      50.076  20.981  49.905  1.00  0.00    -0.000 C 
BRANCH  24  25
ATOM     25  C   UNL     1      51.512  20.432  49.949  1.00  0.00    -0.000 C 
BRANCH  25  26
ATOM     26  C   UNL     1      52.367  21.109  51.034  1.00  0.00    -0.000 C 
BRANCH  26  27
ATOM     27  C   UNL     1      51.658  22.308  51.685  1.00  0.00    -0.000 C 
BRANCH  27  28
ATOM     28  C   UNL     1      51.867  22.365  53.209  1.00  0.00    -0.000 C 
BRANCH  28  29
ATOM     29  C   UNL     1      53.140  21.627  53.654  1.00  0.00    -0.003 C 
ATOM     30  C   UNL     1      52.887  20.655  54.806  1.00  0.00     0.004 C 
ENDBRANCH  28  29
ENDBRANCH  27  28
ENDBRANCH  26  27
ENDBRANCH  25  26
ENDBRANCH  24  25
ENDBRANCH  23  24
ENDBRANCH  22  23
ENDBRANCH  21  22
ENDBRANCH  20  21
ENDBRANCH  19  20
ENDBRANCH  18  19
ENDBRANCH  17  18
ENDBRANCH   1  17
TORSDOF 26
ENDMDL
MODEL 3
REMARK VINA RESULT:    -5.121      3.738      8.569
REMARK INTER + INTRA:         -15.497
REMARK INTER:                 -11.255
REMARK INTRA:                  -4.242
REMARK UNBOUND:                -2.593
REMARK SMILES CCCCCCCCCCCCCCCCCCCCCCCCCCCC(=O)[O-]
REMARK SMILES IDX 15 1 16 2 17 3 18 4 19 5 20 6 21 7 22 8 23 9 24 10 25 11
REMARK SMILES IDX 26 12 27 13 28 14 29 15 30 16 14 17 13 18 12 19 11 20 10 21
REMARK SMILES IDX 9 22 8 23 7 24 6 25 5 26 4 27 3 28 2 29 1 30
REMARK H PARENT
REMARK Flexibility Score: inf
ROOT
ATOM      1  C   UNL     1      48.518  19.458  50.237  1.00  0.00     0.000 C 
ENDROOT
BRANCH   1   2
ATOM      2  C   UNL     1      50.046  19.301  50.279  1.00  0.00     0.000 C 
BRANCH   2   3
ATOM      3  C   UNL     1      50.784  20.633  50.063  1.00  0.00     0.000 C 
BRANCH   3   4
ATOM      4  C   UNL     1      52.244  20.430  49.625  1.00  0.00     0.000 C 
BRANCH   4   5
ATOM      5  C   UNL     1      53.248  21.050  50.613  1.00  0.00     0.000 C 
BRANCH   5   6
ATOM      6  C   UNL     1      52.642  22.218  51.409  1.00  0.00     0.000 C 
BRANCH   6   7
ATOM      7  C   UNL     1      53.715  23.108  52.053  1.00  0.00     0.000 C 
BRANCH   7   8
ATOM      8  C   UNL     1      53.147  24.494  52.395  1.00  0.00     0.000 C 
BRANCH   8   9
ATOM      9  C   UNL     1      51.603  24.505  52.430  1.00  0.00     0.000 C 
BRANCH   9  10
ATOM     10  C   UNL     1      51.013  24.689  53.841  1.00  0.00     0.000 C 
BRANCH  10  11
ATOM     11  C   UNL     1      51.691  23.862  54.948  1.00  0.00     0.000 C 
BRANCH  11  12
ATOM     12  C   UNL     1      50.930  22.594  55.383  1.00  0.00     0.006 C 
BRANCH  12  13
ATOM     13  C   UNL     1      51.009  21.436  54.370  1.00  0.00     0.053 C 
BRANCH  13  14
ATOM     14  C   UNL     1      52.102  20.462  54.691  1.00  0.00     0.041 C 
ATOM     15  O   UNL     1      51.826  19.270  54.987  1.00  0.00    -0.550 OA
ATOM     16  O   UNL     1      53.432  20.862  54.624  1.00  0.00    -0.550 OA
ENDBRANCH  13  14
ENDBRANCH  12  13
ENDBRANCH  11  12
ENDBRANCH  10  11
ENDBRANCH   9  10
ENDBRANCH   8   9
ENDBRANCH   7   8
ENDBRANCH   6   7
ENDBRANCH   5   6
ENDBRANCH   4   5
ENDBRANCH   3   4
ENDBRANCH   2   3
ENDBRANCH   1   2
BRANCH   1  17
ATOM     17  C   UNL     1      48.068  20.930  50.221  1.00  0.00     0.000 C 
BRANCH  17  18
ATOM     18  C   UNL     1      47.620  21.420  51.615  1.00  0.00     0.000 C 
BRANCH  18  19
ATOM     19  C   UNL     1      48.427  22.622  52.136  1.00  0.00     0.000 C 
BRANCH  19  20
ATOM     20  C   UNL     1      47.538  23.742  52.700  1.00  0.00     0.000 C 
BRANCH  20  21
ATOM     21  C   UNL     1      47.673  23.896  54.222  1.00  0.00     0.000 C 
BRANCH  21  22
ATOM     22  C   UNL     1      46.663  23.037  54.998  1.00  0.00    -0.000 C 
BRANCH  22  23
ATOM     23  C   UNL     1      47.276  21.687  55.387  1.00  0.00    -0.000 C 
BRANCH  23  24
ATOM     24  C   UNL     1      46.191  20.689  55.814  1.00  0.00    -0.000 C 
BRANCH  24  25
ATOM     25  C   UNL     1      45.087  20.530  54.755  1.00  0.00    -0.000 C 
BRANCH  25  26
ATOM     26  C   UNL     1      44.218  19.283  54.995  1.00  0.00    -0.000 C 
BRANCH  26  27
ATOM     27  C   UNL     1      44.237  18.309  53.806  1.00  0.00    -0.000 C 
BRANCH  27  28
ATOM     28  C   UNL     1      45.323  18.657  52.771  1.00  0.00    -0.000 C 
BRANCH  28  29
ATOM     29  C   UNL     1      45.063  18.003  51.405  1.00  0.00    -0.003 C 
ATOM     30  C   UNL     1      43.997  16.909  51.468  1.00  0.00     0.004 C 
ENDBRANCH  28  29
ENDBRANCH  27  28
ENDBRANCH  26  27
ENDBRANCH  25  26
ENDBRANCH  24  25
ENDBRANCH  23  24
ENDBRANCH  22  23
ENDBRANCH  21  22
ENDBRANCH  20  21
ENDBRANCH  19  20
ENDBRANCH  18  19
ENDBRANCH  17  18
ENDBRANCH   1  17
TORSDOF 26
ENDMDL
MODEL 4
REMARK VINA RESULT:    -5.044      3.020      9.208
REMARK INTER + INTRA:         -15.303
REMARK INTER:                 -12.574
REMARK INTRA:                  -2.729
REMARK UNBOUND:                -2.593
REMARK SMILES CCCCCCCCCCCCCCCCCCCCCCCCCCCC(=O)[O-]
REMARK SMILES IDX 15 1 16 2 17 3 18 4 19 5 20 6 21 7 22 8 23 9 24 10 25 11
REMARK SMILES IDX 26 12 27 13 28 14 29 15 30 16 14 17 13 18 12 19 11 20 10 21
REMARK SMILES IDX 9 22 8 23 7 24 6 25 5 26 4 27 3 28 2 29 1 30
REMARK H PARENT
REMARK Flexibility Score: inf
ROOT
ATOM      1  C   UNL     1      46.277  24.300  54.464  1.00  0.00     0.000 C 
ENDROOT
BRANCH   1   2
ATOM      2  C   UNL     1      46.984  24.781  53.187  1.00  0.00     0.000 C 
BRANCH   2   3
ATOM      3  C   UNL     1      48.030  23.776  52.675  1.00  0.00     0.000 C 
BRANCH   3   4
ATOM      4  C   UNL     1      48.082  22.498  53.529  1.00  0.00     0.000 C 
BRANCH   4   5
ATOM      5  C   UNL     1      49.515  21.961  53.700  1.00  0.00     0.000 C 
BRANCH   5   6
ATOM      6  C   UNL     1      50.286  22.689  54.814  1.00  0.00     0.000 C 
BRANCH   6   7
ATOM      7  C   UNL     1      51.637  22.027  55.122  1.00  0.00     0.000 C 
BRANCH   7   8
ATOM      8  C   UNL     1      52.170  21.271  53.896  1.00  0.00     0.000 C 
BRANCH   8   9
ATOM      9  C   UNL     1      53.323  22.021  53.196  1.00  0.00     0.000 C 
BRANCH   9  10
ATOM     10  C   UNL     1      53.093  22.251  51.690  1.00  0.00     0.000 C 
BRANCH  10  11
ATOM     11  C   UNL     1      53.167  20.986  50.815  1.00  0.00     0.000 C 
BRANCH  11  12
ATOM     12  C   UNL     1      51.998  20.799  49.828  1.00  0.00     0.006 C 
BRANCH  12  13
ATOM     13  C   UNL     1      50.607  21.013  50.454  1.00  0.00     0.053 C 
BRANCH  13  14
ATOM     14  C   UNL     1      49.643  19.920  50.103  1.00  0.00     0.041 C 
ATOM     15  O   UNL     1      49.909  18.722  50.381  1.00  0.00    -0.550 OA
ATOM     16  O   UNL     1      48.429  20.231  49.502  1.00  0.00    -0.550 OA
ENDBRANCH  13  14
ENDBRANCH  12  13
ENDBRANCH  11  12
ENDBRANCH  10  11
ENDBRANCH   9  10
ENDBRANCH   8   9
ENDBRANCH   7   8
ENDBRANCH   6   7
ENDBRANCH   5   6
ENDBRANCH   4   5
ENDBRANCH   3   4
ENDBRANCH   2   3
ENDBRANCH   1   2
BRANCH   1  17
ATOM     17  C   UNL     1      44.910  24.976  54.680  1.00  0.00     0.000 C 
BRANCH  17  18
ATOM     18  C   UNL     1      43.850  23.991  55.218  1.00  0.00     0.000 C 
BRANCH  18  19
ATOM     19  C   UNL     1      42.480  24.640  55.479  1.00  0.00     0.000 C 
BRANCH  19  20
ATOM     20  C   UNL     1      41.305  23.682  55.229  1.00  0.00     0.000 C 
BRANCH  20  21
ATOM     21  C   UNL     1      41.762  22.239  54.967  1.00  0.00     0.000 C 
BRANCH  21  22
ATOM     22  C   UNL     1      40.904  21.526  53.911  1.00  0.00    -0.000 C 
BRANCH  22  23
ATOM     23  C   UNL     1      41.382  20.086  53.698  1.00  0.00    -0.000 C 
BRANCH  23  24
ATOM     24  C   UNL     1      41.858  19.460  55.016  1.00  0.00    -0.000 C 
BRANCH  24  25
ATOM     25  C   UNL     1      43.005  18.457  54.813  1.00  0.00    -0.000 C 
BRANCH  25  26
ATOM     26  C   UNL     1      44.353  19.152  54.550  1.00  0.00    -0.000 C 
BRANCH  26  27
ATOM     27  C   UNL     1      44.947  18.791  53.178  1.00  0.00    -0.000 C 
BRANCH  27  28
ATOM     28  C   UNL     1      44.414  17.454  52.634  1.00  0.00    -0.000 C 
BRANCH  28  29
ATOM     29  C   UNL     1      43.694  17.615  51.285  1.00  0.00    -0.003 C 
ATOM     30  C   UNL     1      44.030  18.934  50.590  1.00  0.00     0.004 C 
ENDBRANCH  28  29
ENDBRANCH  27  28
ENDBRANCH  26  27
ENDBRANCH  25  26
ENDBRANCH  24  25
ENDBRANCH  23  24
ENDBRANCH  22  23
ENDBRANCH  21  22
ENDBRANCH  20  21
ENDBRANCH  19  20
ENDBRANCH  18  19
ENDBRANCH  17  18
ENDBRANCH   1  17
TORSDOF 26
ENDMDL
MODEL 5
REMARK VINA RESULT:    -5.012      2.272      3.200
REMARK INTER + INTRA:         -15.223
REMARK INTER:                 -11.100
REMARK INTRA:                  -4.123
REMARK UNBOUND:                -2.593
REMARK SMILES CCCCCCCCCCCCCCCCCCCCCCCCCCCC(=O)[O-]
REMARK SMILES IDX 15 1 16 2 17 3 18 4 19 5 20 6 21 7 22 8 23 9 24 10 25 11
REMARK SMILES IDX 26 12 27 13 28 14 29 15 30 16 14 17 13 18 12 19 11 20 10 21
REMARK SMILES IDX 9 22 8 23 7 24 6 25 5 26 4 27 3 28 2 29 1 30
REMARK H PARENT
REMARK Flexibility Score: inf
ROOT
ATOM      1  C   UNL     1      48.863  20.606  49.841  1.00  0.00     0.000 C 
ENDROOT
BRANCH   1   2
ATOM      2  C   UNL     1      47.392  20.798  50.245  1.00  0.00     0.000 C 
BRANCH   2   3
ATOM      3  C   UNL     1      46.971  19.879  51.404  1.00  0.00     0.000 C 
BRANCH   3   4
ATOM      4  C   UNL     1      45.653  19.141  51.117  1.00  0.00     0.000 C 
BRANCH   4   5
ATOM      5  C   UNL     1      45.517  17.841  51.930  1.00  0.00     0.000 C 
BRANCH   5   6
ATOM      6  C   UNL     1      44.055  17.522  52.288  1.00  0.00     0.000 C 
BRANCH   6   7
ATOM      7  C   UNL     1      43.130  18.736  52.113  1.00  0.00     0.000 C 
BRANCH   7   8
ATOM      8  C   UNL     1      42.490  19.136  53.450  1.00  0.00     0.000 C 
BRANCH   8   9
ATOM      9  C   UNL     1      43.307  18.644  54.665  1.00  0.00     0.000 C 
BRANCH   9  10
ATOM     10  C   UNL     1      44.048  19.768  55.414  1.00  0.00     0.000 C 
BRANCH  10  11
ATOM     11  C   UNL     1      45.353  20.246  54.754  1.00  0.00     0.000 C 
BRANCH  11  12
ATOM     12  C   UNL     1      46.320  21.007  55.683  1.00  0.00     0.006 C 
BRANCH  12  13
ATOM     13  C   UNL     1      46.653  22.434  55.210  1.00  0.00     0.053 C 
BRANCH  13  14
ATOM     14  C   UNL     1      46.963  23.362  56.346  1.00  0.00     0.041 C 
ATOM     15  O   UNL     1      46.566  24.556  56.318  1.00  0.00    -0.550 OA
ATOM     16  O   UNL     1      47.657  22.895  57.456  1.00  0.00    -0.550 OA
ENDBRANCH  13  14
ENDBRANCH  12  13
ENDBRANCH  11  12
ENDBRANCH  10  11
ENDBRANCH   9  10
ENDBRANCH   8   9
ENDBRANCH   7   8
ENDBRANCH   6   7
ENDBRANCH   5   6
ENDBRANCH   4   5
ENDBRANCH   3   4
ENDBRANCH   2   3
ENDBRANCH   1   2
BRANCH   1  17
ATOM     17  C   UNL     1      49.844  20.977  50.968  1.00  0.00     0.000 C 
BRANCH  17  18
ATOM     18  C   UNL     1      49.778  22.476  51.332  1.00  0.00     0.000 C 
BRANCH  18  19
ATOM     19  C   UNL     1      49.068  22.757  52.667  1.00  0.00     0.000 C 
BRANCH  19  20
ATOM     20  C   UNL     1      49.896  23.642  53.612  1.00  0.00     0.000 C 
BRANCH  20  21
ATOM     21  C   UNL     1      50.383  22.887  54.857  1.00  0.00     0.000 C 
BRANCH  21  22
ATOM     22  C   UNL     1      50.199  21.366  54.739  1.00  0.00    -0.000 C 
BRANCH  22  23
ATOM     23  C   UNL     1      51.540  20.670  54.478  1.00  0.00    -0.000 C 
BRANCH  23  24
ATOM     24  C   UNL     1      52.717  21.576  54.867  1.00  0.00    -0.000 C 
BRANCH  24  25
ATOM     25  C   UNL     1      53.732  21.745  53.724  1.00  0.00    -0.000 C 
BRANCH  25  26
ATOM     26  C   UNL     1      53.338  22.870  52.751  1.00  0.00    -0.000 C 
BRANCH  26  27
ATOM     27  C   UNL     1      53.534  22.474  51.278  1.00  0.00    -0.000 C 
BRANCH  27  28
ATOM     28  C   UNL     1      53.217  20.991  51.015  1.00  0.00    -0.000 C 
BRANCH  28  29
ATOM     29  C   UNL     1      53.318  20.624  49.526  1.00  0.00    -0.003 C 
ATOM     30  C   UNL     1      54.720  20.166  49.125  1.00  0.00     0.004 C 
ENDBRANCH  28  29
ENDBRANCH  27  28
ENDBRANCH  26  27
ENDBRANCH  25  26
ENDBRANCH  24  25
ENDBRANCH  23  24
ENDBRANCH  22  23
ENDBRANCH  21  22
ENDBRANCH  20  21
ENDBRANCH  19  20
ENDBRANCH  18  19
ENDBRANCH  17  18
ENDBRANCH   1  17
TORSDOF 26
ENDMDL
MODEL 6
REMARK VINA RESULT:    -4.988      2.996      5.348
REMARK INTER + INTRA:         -15.162
REMARK INTER:                 -10.938
REMARK INTRA:                  -4.224
REMARK UNBOUND:                -2.593
REMARK SMILES CCCCCCCCCCCCCCCCCCCCCCCCCCCC(=O)[O-]
REMARK SMILES IDX 15 1 16 2 17 3 18 4 19 5 20 6 21 7 22 8 23 9 24 10 25 11
REMARK SMILES IDX 26 12 27 13 28 14 29 15 30 16 14 17 13 18 12 19 11 20 10 21
REMARK SMILES IDX 9 22 8 23 7 24 6 25 5 26 4 27 3 28 2 29 1 30
REMARK H PARENT
REMARK Flexibility Score: inf
ROOT
ATOM      1  C   UNL     1      49.261  19.280  50.038  1.00  0.00     0.000 C 
ENDROOT
BRANCH   1   2
ATOM      2  C   UNL     1      48.598  20.623  49.693  1.00  0.00     0.000 C 
BRANCH   2   3
ATOM      3  C   UNL     1      47.498  21.016  50.694  1.00  0.00     0.000 C 
BRANCH   3   4
ATOM      4  C   UNL     1      48.073  21.543  52.019  1.00  0.00     0.000 C 
BRANCH   4   5
ATOM      5  C   UNL     1      47.841  23.054  52.202  1.00  0.00     0.000 C 
BRANCH   5   6
ATOM      6  C   UNL     1      47.435  23.415  53.641  1.00  0.00     0.000 C 
BRANCH   6   7
ATOM      7  C   UNL     1      47.929  22.384  54.667  1.00  0.00     0.000 C 
BRANCH   7   8
ATOM      8  C   UNL     1      46.951  22.270  55.845  1.00  0.00     0.000 C 
BRANCH   8   9
ATOM      9  C   UNL     1      46.393  20.840  56.012  1.00  0.00     0.000 C 
BRANCH   9  10
ATOM     10  C   UNL     1      45.658  20.309  54.766  1.00  0.00     0.000 C 
BRANCH  10  11
ATOM     11  C   UNL     1      44.266  19.706  55.034  1.00  0.00     0.000 C 
BRANCH  11  12
ATOM     12  C   UNL     1      43.978  18.373  54.316  1.00  0.00     0.006 C 
BRANCH  12  13
ATOM     13  C   UNL     1      43.315  18.535  52.934  1.00  0.00     0.053 C 
BRANCH  13  14
ATOM     14  C   UNL     1      44.265  18.272  51.805  1.00  0.00     0.041 C 
ATOM     15  O   UNL     1      43.974  18.629  50.633  1.00  0.00    -0.550 OA
ATOM     16  O   UNL     1      45.491  17.667  52.053  1.00  0.00    -0.550 OA
ENDBRANCH  13  14
ENDBRANCH  12  13
ENDBRANCH  11  12
ENDBRANCH  10  11
ENDBRANCH   9  10
ENDBRANCH   8   9
ENDBRANCH   7   8
ENDBRANCH   6   7
ENDBRANCH   5   6
ENDBRANCH   4   5
ENDBRANCH   3   4
ENDBRANCH   2   3
ENDBRANCH   1   2
BRANCH   1  17
ATOM     17  C   UNL     1      50.722  19.436  50.498  1.00  0.00     0.000 C 
BRANCH  17  18
ATOM     18  C   UNL     1      51.321  20.799  50.091  1.00  0.00     0.000 C 
BRANCH  18  19
ATOM     19  C   UNL     1      52.748  21.031  50.619  1.00  0.00     0.000 C 
BRANCH  19  20
ATOM     20  C   UNL     1      52.887  22.338  51.415  1.00  0.00     0.000 C 
BRANCH  20  21
ATOM     21  C   UNL     1      51.529  22.968  51.762  1.00  0.00     0.000 C 
BRANCH  21  22
ATOM     22  C   UNL     1      51.667  24.276  52.556  1.00  0.00    -0.000 C 
BRANCH  22  23
ATOM     23  C   UNL     1      51.010  24.151  53.936  1.00  0.00    -0.000 C 
BRANCH  23  24
ATOM     24  C   UNL     1      51.802  24.927  54.997  1.00  0.00    -0.000 C 
BRANCH  24  25
ATOM     25  C   UNL     1      53.248  24.425  55.138  1.00  0.00    -0.000 C 
BRANCH  25  26
ATOM     26  C   UNL     1      53.363  23.224  56.093  1.00  0.00    -0.000 C 
BRANCH  26  27
ATOM     27  C   UNL     1      54.297  22.128  55.556  1.00  0.00    -0.000 C 
BRANCH  27  28
ATOM     28  C   UNL     1      53.671  21.329  54.398  1.00  0.00    -0.000 C 
BRANCH  28  29
ATOM     29  C   UNL     1      52.637  20.302  54.886  1.00  0.00    -0.003 C 
ATOM     30  C   UNL     1      51.231  20.581  54.354  1.00  0.00     0.004 C 
ENDBRANCH  28  29
ENDBRANCH  27  28
ENDBRANCH  26  27
ENDBRANCH  25  26
ENDBRANCH  24  25
ENDBRANCH  23  24
ENDBRANCH  22  23
ENDBRANCH  21  22
ENDBRANCH  20  21
ENDBRANCH  19  20
ENDBRANCH  18  19
ENDBRANCH  17  18
ENDBRANCH   1  17
TORSDOF 26
ENDMDL
MODEL 7
REMARK VINA RESULT:    -4.966      2.555      4.466
REMARK INTER + INTRA:         -15.106
REMARK INTER:                 -12.621
REMARK INTRA:                  -2.485
REMARK UNBOUND:                -2.593
REMARK SMILES CCCCCCCCCCCCCCCCCCCCCCCCCCCC(=O)[O-]
REMARK SMILES IDX 15 1 16 2 17 3 18 4 19 5 20 6 21 7 22 8 23 9 24 10 25 11
REMARK SMILES IDX 26 12 27 13 28 14 29 15 30 16 14 17 13 18 12 19 11 20 10 21
REMARK SMILES IDX 9 22 8 23 7 24 6 25 5 26 4 27 3 28 2 29 1 30
REMARK H PARENT
REMARK Flexibility Score: inf
ROOT
ATOM      1  C   UNL     1      47.256  21.852  54.717  1.00  0.00     0.000 C 
ENDROOT
BRANCH   1   2
ATOM      2  C   UNL     1      46.439  22.872  55.524  1.00  0.00     0.000 C 
BRANCH   2   3
ATOM      3  C   UNL     1      46.304  24.226  54.806  1.00  0.00     0.000 C 
BRANCH   3   4
ATOM      4  C   UNL     1      44.971  24.925  55.120  1.00  0.00     0.000 C 
BRANCH   4   5
ATOM      5  C   UNL     1      43.782  23.948  55.134  1.00  0.00     0.000 C 
BRANCH   5   6
ATOM      6  C   UNL     1      42.435  24.666  55.324  1.00  0.00     0.000 C 
BRANCH   6   7
ATOM      7  C   UNL     1      41.255  23.686  55.411  1.00  0.00     0.000 C 
BRANCH   7   8
ATOM      8  C   UNL     1      41.718  22.244  55.156  1.00  0.00     0.000 C 
BRANCH   8   9
ATOM      9  C   UNL     1      40.964  21.581  53.984  1.00  0.00     0.000 C 
BRANCH   9  10
ATOM     10  C   UNL     1      41.141  20.053  53.913  1.00  0.00     0.000 C 
BRANCH  10  11
ATOM     11  C   UNL     1      42.217  19.474  54.850  1.00  0.00     0.000 C 
BRANCH  11  12
ATOM     12  C   UNL     1      43.595  19.234  54.201  1.00  0.00     0.006 C 
BRANCH  12  13
ATOM     13  C   UNL     1      43.678  17.946  53.361  1.00  0.00     0.053 C 
BRANCH  13  14
ATOM     14  C   UNL     1      44.525  18.109  52.136  1.00  0.00     0.041 C 
ATOM     15  O   UNL     1      45.699  17.653  52.108  1.00  0.00    -0.550 OA
ATOM     16  O   UNL     1      44.004  18.731  51.007  1.00  0.00    -0.550 OA
ENDBRANCH  13  14
ENDBRANCH  12  13
ENDBRANCH  11  12
ENDBRANCH  10  11
ENDBRANCH   9  10
ENDBRANCH   8   9
ENDBRANCH   7   8
ENDBRANCH   6   7
ENDBRANCH   5   6
ENDBRANCH   4   5
ENDBRANCH   3   4
ENDBRANCH   2   3
ENDBRANCH   1   2
BRANCH   1  17
ATOM     17  C   UNL     1      48.690  22.332  54.425  1.00  0.00     0.000 C 
BRANCH  17  18
ATOM     18  C   UNL     1      48.855  22.834  52.975  1.00  0.00     0.000 C 
BRANCH  18  19
ATOM     19  C   UNL     1      49.316  24.298  52.875  1.00  0.00     0.000 C 
BRANCH  19  20
ATOM     20  C   UNL     1      50.310  24.537  51.727  1.00  0.00     0.000 C 
BRANCH  20  21
ATOM     21  C   UNL     1      51.707  24.934  52.226  1.00  0.00     0.000 C 
BRANCH  21  22
ATOM     22  C   UNL     1      51.896  24.678  53.729  1.00  0.00    -0.000 C 
BRANCH  22  23
ATOM     23  C   UNL     1      52.482  23.283  53.977  1.00  0.00    -0.000 C 
BRANCH  23  24
ATOM     24  C   UNL     1      53.347  22.829  52.794  1.00  0.00    -0.000 C 
BRANCH  24  25
ATOM     25  C   UNL     1      53.089  21.364  52.402  1.00  0.00    -0.000 C 
BRANCH  25  26
ATOM     26  C   UNL     1      51.800  21.195  51.578  1.00  0.00    -0.000 C 
BRANCH  26  27
ATOM     27  C   UNL     1      52.064  20.621  50.177  1.00  0.00    -0.000 C 
BRANCH  27  28
ATOM     28  C   UNL     1      53.463  20.977  49.644  1.00  0.00    -0.000 C 
BRANCH  28  29
ATOM     29  C   UNL     1      54.074  19.848  48.799  1.00  0.00    -0.003 C 
ATOM     30  C   UNL     1      55.589  19.732  48.974  1.00  0.00     0.004 C 
ENDBRANCH  28  29
ENDBRANCH  27  28
ENDBRANCH  26  27
ENDBRANCH  25  26
ENDBRANCH  24  25
ENDBRANCH  23  24
ENDBRANCH  22  23
ENDBRANCH  21  22
ENDBRANCH  20  21
ENDBRANCH  19  20
ENDBRANCH  18  19
ENDBRANCH  17  18
ENDBRANCH   1  17
TORSDOF 26
ENDMDL
MODEL 8
REMARK VINA RESULT:    -4.904      2.558      5.753
REMARK INTER + INTRA:         -14.952
REMARK INTER:                 -10.284
REMARK INTRA:                  -4.667
REMARK UNBOUND:                -2.593
REMARK SMILES CCCCCCCCCCCCCCCCCCCCCCCCCCCC(=O)[O-]
REMARK SMILES IDX 15 1 16 2 17 3 18 4 19 5 20 6 21 7 22 8 23 9 24 10 25 11
REMARK SMILES IDX 26 12 27 13 28 14 29 15 30 16 14 17 13 18 12 19 11 20 10 21
REMARK SMILES IDX 9 22 8 23 7 24 6 25 5 26 4 27 3 28 2 29 1 30
REMARK H PARENT
REMARK Flexibility Score: inf
ROOT
ATOM      1  C   UNL     1      49.529  22.929  52.771  1.00  0.00     0.000 C 
ENDROOT
BRANCH   1   2
ATOM      2  C   UNL     1      49.801  21.878  53.859  1.00  0.00     0.000 C 
BRANCH   2   3
ATOM      3  C   UNL     1      50.359  22.495  55.152  1.00  0.00     0.000 C 
BRANCH   3   4
ATOM      4  C   UNL     1      50.291  24.031  55.146  1.00  0.00     0.000 C 
BRANCH   4   5
ATOM      5  C   UNL     1      49.343  24.584  56.225  1.00  0.00     0.000 C 
BRANCH   5   6
ATOM      6  C   UNL     1      49.015  23.542  57.308  1.00  0.00     0.000 C 
BRANCH   6   7
ATOM      7  C   UNL     1      47.521  23.189  57.350  1.00  0.00     0.000 C 
BRANCH   7   8
ATOM      8  C   UNL     1      46.768  23.847  56.184  1.00  0.00     0.000 C 
BRANCH   8   9
ATOM      9  C   UNL     1      46.239  22.814  55.167  1.00  0.00     0.000 C 
BRANCH   9  10
ATOM     10  C   UNL     1      46.568  21.354  55.532  1.00  0.00     0.000 C 
BRANCH  10  11
ATOM     11  C   UNL     1      45.749  20.290  54.779  1.00  0.00     0.000 C 
BRANCH  11  12
ATOM     12  C   UNL     1      44.374  19.962  55.393  1.00  0.00     0.006 C 
BRANCH  12  13
ATOM     13  C   UNL     1      43.602  18.855  54.651  1.00  0.00     0.053 C 
BRANCH  13  14
ATOM     14  C   UNL     1      42.144  18.836  54.998  1.00  0.00     0.041 C 
ATOM     15  O   UNL     1      41.318  19.498  54.316  1.00  0.00    -0.550 OA
ATOM     16  O   UNL     1      41.690  18.052  56.052  1.00  0.00    -0.550 OA
ENDBRANCH  13  14
ENDBRANCH  12  13
ENDBRANCH  11  12
ENDBRANCH  10  11
ENDBRANCH   9  10
ENDBRANCH   8   9
ENDBRANCH   7   8
ENDBRANCH   6   7
ENDBRANCH   5   6
ENDBRANCH   4   5
ENDBRANCH   3   4
ENDBRANCH   2   3
ENDBRANCH   1   2
BRANCH   1  17
ATOM     17  C   UNL     1      48.155  22.751  52.099  1.00  0.00     0.000 C 
BRANCH  17  18
ATOM     18  C   UNL     1      47.861  21.277  51.749  1.00  0.00     0.000 C 
BRANCH  18  19
ATOM     19  C   UNL     1      47.931  20.973  50.243  1.00  0.00     0.000 C 
BRANCH  19  20
ATOM     20  C   UNL     1      48.770  19.726  49.921  1.00  0.00     0.000 C 
BRANCH  20  21
ATOM     21  C   UNL     1      50.136  19.734  50.623  1.00  0.00     0.000 C 
BRANCH  21  22
ATOM     22  C   UNL     1      51.207  20.498  49.831  1.00  0.00    -0.000 C 
BRANCH  22  23
ATOM     23  C   UNL     1      51.813  21.625  50.676  1.00  0.00    -0.000 C 
BRANCH  23  24
ATOM     24  C   UNL     1      53.182  21.218  51.238  1.00  0.00    -0.000 C 
BRANCH  24  25
ATOM     25  C   UNL     1      53.307  21.496  52.745  1.00  0.00    -0.000 C 
BRANCH  25  26
ATOM     26  C   UNL     1      53.397  22.999  53.060  1.00  0.00    -0.000 C 
BRANCH  26  27
ATOM     27  C   UNL     1      54.366  23.306  54.214  1.00  0.00    -0.000 C 
BRANCH  27  28
ATOM     28  C   UNL     1      54.233  22.310  55.380  1.00  0.00    -0.000 C 
BRANCH  28  29
ATOM     29  C   UNL     1      54.476  22.971  56.746  1.00  0.00    -0.003 C 
ATOM     30  C   UNL     1      53.191  23.500  57.383  1.00  0.00     0.004 C 
ENDBRANCH  28  29
ENDBRANCH  27  28
ENDBRANCH  26  27
ENDBRANCH  25  26
ENDBRANCH  24  25
ENDBRANCH  23  24
ENDBRANCH  22  23
ENDBRANCH  21  22
ENDBRANCH  20  21
ENDBRANCH  19  20
ENDBRANCH  18  19
ENDBRANCH  17  18
ENDBRANCH   1  17
TORSDOF 26
ENDMDL
MODEL 9
REMARK VINA RESULT:    -4.891      2.674      4.989
REMARK INTER + INTRA:         -14.919
REMARK INTER:                 -11.481
REMARK INTRA:                  -3.438
REMARK UNBOUND:                -2.593
REMARK SMILES CCCCCCCCCCCCCCCCCCCCCCCCCCCC(=O)[O-]
REMARK SMILES IDX 15 1 16 2 17 3 18 4 19 5 20 6 21 7 22 8 23 9 24 10 25 11
REMARK SMILES IDX 26 12 27 13 28 14 29 15 30 16 14 17 13 18 12 19 11 20 10 21
REMARK SMILES IDX 9 22 8 23 7 24 6 25 5 26 4 27 3 28 2 29 1 30
REMARK H PARENT
REMARK Flexibility Score: inf
ROOT
ATOM      1  C   UNL     1      47.067  21.907  54.180  1.00  0.00     0.000 C 
ENDROOT
BRANCH   1   2
ATOM      2  C   UNL     1      46.626  22.481  55.536  1.00  0.00     0.000 C 
BRANCH   2   3
ATOM      3  C   UNL     1      46.400  24.001  55.490  1.00  0.00     0.000 C 
BRANCH   3   4
ATOM      4  C   UNL     1      45.120  24.381  54.728  1.00  0.00     0.000 C 
BRANCH   4   5
ATOM      5  C   UNL     1      44.013  24.906  55.659  1.00  0.00     0.000 C 
BRANCH   5   6
ATOM      6  C   UNL     1      42.605  24.689  55.079  1.00  0.00     0.000 C 
BRANCH   6   7
ATOM      7  C   UNL     1      42.033  23.307  55.428  1.00  0.00     0.000 C 
BRANCH   7   8
ATOM      8  C   UNL     1      40.779  23.004  54.595  1.00  0.00     0.000 C 
BRANCH   8   9
ATOM      9  C   UNL     1      40.746  21.547  54.088  1.00  0.00     0.000 C 
BRANCH   9  10
ATOM     10  C   UNL     1      42.034  20.755  54.381  1.00  0.00     0.000 C 
BRANCH  10  11
ATOM     11  C   UNL     1      42.190  19.442  53.592  1.00  0.00     0.000 C 
BRANCH  11  12
ATOM     12  C   UNL     1      43.323  18.515  54.076  1.00  0.00     0.006 C 
BRANCH  12  13
ATOM     13  C   UNL     1      44.515  18.421  53.105  1.00  0.00     0.053 C 
BRANCH  13  14
ATOM     14  C   UNL     1      44.116  17.932  51.746  1.00  0.00     0.041 C 
ATOM     15  O   UNL     1      43.782  16.730  51.574  1.00  0.00    -0.550 OA
ATOM     16  O   UNL     1      44.073  18.815  50.674  1.00  0.00    -0.550 OA
ENDBRANCH  13  14
ENDBRANCH  12  13
ENDBRANCH  11  12
ENDBRANCH  10  11
ENDBRANCH   9  10
ENDBRANCH   8   9
ENDBRANCH   7   8
ENDBRANCH   6   7
ENDBRANCH   5   6
ENDBRANCH   4   5
ENDBRANCH   3   4
ENDBRANCH   2   3
ENDBRANCH   1   2
BRANCH   1  17
ATOM     17  C   UNL     1      48.477  22.367  53.767  1.00  0.00     0.000 C 
BRANCH  17  18
ATOM     18  C   UNL     1      48.473  23.139  52.430  1.00  0.00     0.000 C 
BRANCH  18  19
ATOM     19  C   UNL     1      48.990  24.583  52.548  1.00  0.00     0.000 C 
BRANCH  19  20
ATOM     20  C   UNL     1      50.360  24.785  51.880  1.00  0.00     0.000 C 
BRANCH  20  21
ATOM     21  C   UNL     1      51.525  24.678  52.875  1.00  0.00     0.000 C 
BRANCH  21  22
ATOM     22  C   UNL     1      52.884  24.497  52.181  1.00  0.00    -0.000 C 
BRANCH  22  23
ATOM     23  C   UNL     1      53.364  23.045  52.288  1.00  0.00    -0.000 C 
BRANCH  23  24
ATOM     24  C   UNL     1      52.425  22.216  53.175  1.00  0.00    -0.000 C 
BRANCH  24  25
ATOM     25  C   UNL     1      51.755  21.064  52.409  1.00  0.00    -0.000 C 
BRANCH  25  26
ATOM     26  C   UNL     1      52.182  21.013  50.931  1.00  0.00    -0.000 C 
BRANCH  26  27
ATOM     27  C   UNL     1      50.986  21.056  49.966  1.00  0.00    -0.000 C 
BRANCH  27  28
ATOM     28  C   UNL     1      49.860  20.089  50.374  1.00  0.00    -0.000 C 
BRANCH  28  29
ATOM     29  C   UNL     1      48.471  20.594  49.952  1.00  0.00    -0.003 C 
ATOM     30  C   UNL     1      47.353  20.075  50.856  1.00  0.00     0.004 C 
ENDBRANCH  28  29
ENDBRANCH  27  28
ENDBRANCH  26  27
ENDBRANCH  25  26
ENDBRANCH  24  25
ENDBRANCH  23  24
ENDBRANCH  22  23
ENDBRANCH  21  22
ENDBRANCH  20  21
ENDBRANCH  19  20
ENDBRANCH  18  19
ENDBRANCH  17  18
ENDBRANCH   1  17
TORSDOF 26
ENDMDL
