MODEL 1
REMARK VINA RESULT:    -0.836      0.000      0.000
REMARK INTER + INTRA:          -2.420
REMARK INTER:                  -1.423
REMARK INTRA:                  -0.997
REMARK UNBOUND:                -0.997
REMARK SMILES CCCCCCCCCCCCCC(=O)[O-]
REMARK SMILES IDX 8 1 9 2 10 3 11 4 12 5 13 6 14 7 15 8 16 9 7 10 6 11 5 12
REMARK SMILES IDX 4 13 3 14 2 15 1 16
REMARK H PARENT
REMARK Flexibility Score: inf
ROOT
ATOM      1  C   UNL     1      -6.124  35.614  24.138  1.00  0.00     0.000 C 
ENDROOT
BRANCH   1   2
ATOM      2  C   UNL     1      -5.930  34.116  23.859  1.00  0.00     0.000 C 
BRANCH   2   3
ATOM      3  C   UNL     1      -5.036  33.853  22.636  1.00  0.00     0.000 C 
BRANCH   3   4
ATOM      4  C   UNL     1      -4.713  35.137  21.852  1.00  0.00     0.000 C 
BRANCH   4   5
ATOM      5  C   UNL     1      -5.801  35.492  20.827  1.00  0.00     0.006 C 
BRANCH   5   6
ATOM      6  C   UNL     1      -5.219  35.967  19.489  1.00  0.00     0.053 C 
BRANCH   6   7
ATOM      7  C   UNL     1      -5.101  34.821  18.534  1.00  0.00     0.041 C 
ATOM      8  O   UNL     1      -4.098  34.727  17.779  1.00  0.00    -0.550 OA
ATOM      9  O   UNL     1      -6.122  33.884  18.443  1.00  0.00    -0.550 OA
ENDBRANCH   6   7
ENDBRANCH   5   6
ENDBRANCH   4   5
ENDBRANCH   3   4
ENDBRANCH   2   3
ENDBRANCH   1   2
BRANCH   1  10
ATOM     10  C   UNL     1      -5.370  36.038  25.408  1.00  0.00     0.000 C 
BRANCH  10  11
ATOM     11  C   UNL     1      -4.977  37.523  25.398  1.00  0.00    -0.000 C 
BRANCH  11  12
ATOM     12  C   UNL     1      -5.777  38.341  24.369  1.00  0.00    -0.000 C 
BRANCH  12  13
ATOM     13  C   UNL     1      -4.932  39.437  23.700  1.00  0.00    -0.000 C 
BRANCH  13  14
ATOM     14  C   UNL     1      -5.616  40.043  22.465  1.00  0.00    -0.000 C 
BRANCH  14  15
ATOM     15  C   UNL     1      -6.105  38.943  21.516  1.00  0.00    -0.003 C 
ATOM     16  C   UNL     1      -5.849  39.317  20.058  1.00  0.00     0.004 C 
ENDBRANCH  14  15
ENDBRANCH  13  14
ENDBRANCH  12  13
ENDBRANCH  11  12
ENDBRANCH  10  11
ENDBRANCH   1  10
TORSDOF 12
ENDMDL
MODEL 2
REMARK VINA RESULT:    -0.713      3.872      6.668
REMARK INTER + INTRA:          -2.210
REMARK INTER:                  -1.600
REMARK INTRA:                  -0.610
REMARK UNBOUND:                -0.997
REMARK SMILES CCCCCCCCCCCCCC(=O)[O-]
REMARK SMILES IDX 8 1 9 2 10 3 11 4 12 5 13 6 14 7 15 8 16 9 7 10 6 11 5 12
REMARK SMILES IDX 4 13 3 14 2 15 1 16
REMARK H PARENT
REMARK Flexibility Score: inf
ROOT
ATOM      1  C   UNL     1      -5.066  36.066  19.917  1.00  0.00     0.000 C 
ENDROOT
BRANCH   1   2
ATOM      2  C   UNL     1      -6.120  35.815  21.006  1.00  0.00     0.000 C 
BRANCH   2   3
ATOM      3  C   UNL     1      -5.922  34.470  21.723  1.00  0.00     0.000 C 
BRANCH   3   4
ATOM      4  C   UNL     1      -5.669  34.634  23.232  1.00  0.00     0.000 C 
BRANCH   4   5
ATOM      5  C   UNL     1      -6.125  36.003  23.761  1.00  0.00     0.006 C 
BRANCH   5   6
ATOM      6  C   UNL     1      -5.778  36.207  25.242  1.00  0.00     0.053 C 
BRANCH   6   7
ATOM      7  C   UNL     1      -5.032  37.490  25.431  1.00  0.00     0.041 C 
ATOM      8  O   UNL     1      -5.257  38.471  24.675  1.00  0.00    -0.550 OA
ATOM      9  O   UNL     1      -4.051  37.585  26.410  1.00  0.00    -0.550 OA
ENDBRANCH   6   7
ENDBRANCH   5   6
ENDBRANCH   4   5
ENDBRANCH   3   4
ENDBRANCH   2   3
ENDBRANCH   1   2
BRANCH   1  10
ATOM     10  C   UNL     1      -4.389  34.752  19.497  1.00  0.00     0.000 C 
BRANCH  10  11
ATOM     11  C   UNL     1      -4.516  34.473  17.992  1.00  0.00    -0.000 C 
BRANCH  11  12
ATOM     12  C   UNL     1      -3.953  35.615  17.127  1.00  0.00    -0.000 C 
BRANCH  12  13
ATOM     13  C   UNL     1      -3.279  35.106  15.843  1.00  0.00    -0.000 C 
BRANCH  13  14
ATOM     14  C   UNL     1      -2.759  36.245  14.953  1.00  0.00    -0.000 C 
BRANCH  14  15
ATOM     15  C   UNL     1      -3.816  36.660  13.924  1.00  0.00    -0.003 C 
ATOM     16  C   UNL     1      -4.252  38.108  14.133  1.00  0.00     0.004 C 
ENDBRANCH  14  15
ENDBRANCH  13  14
ENDBRANCH  12  13
ENDBRANCH  11  12
ENDBRANCH  10  11
ENDBRANCH   1  10
TORSDOF 12
ENDMDL
MODEL 3
REMARK VINA RESULT:    -0.629      2.419      5.034
REMARK INTER + INTRA:          -2.068
REMARK INTER:                  -1.310
REMARK INTRA:                  -0.758
REMARK UNBOUND:                -0.997
REMARK SMILES CCCCCCCCCCCCCC(=O)[O-]
REMARK SMILES IDX 8 1 9 2 10 3 11 4 12 5 13 6 14 7 15 8 16 9 7 10 6 11 5 12
REMARK SMILES IDX 4 13 3 14 2 15 1 16
REMARK H PARENT
REMARK Flexibility Score: inf
ROOT
ATOM      1  C   UNL     1      -6.063  34.624  24.037  1.00  0.00     0.000 C 
ENDROOT
BRANCH   1   2
ATOM      2  C   UNL     1      -6.125  35.749  25.082  1.00  0.00     0.000 C 
BRANCH   2   3
ATOM      3  C   UNL     1      -4.774  36.459  25.267  1.00  0.00     0.000 C 
BRANCH   3   4
ATOM      4  C   UNL     1      -4.920  37.986  25.400  1.00  0.00     0.000 C 
BRANCH   4   5
ATOM      5  C   UNL     1      -5.809  38.591  24.302  1.00  0.00     0.006 C 
BRANCH   5   6
ATOM      6  C   UNL     1      -5.039  39.546  23.381  1.00  0.00     0.053 C 
BRANCH   6   7
ATOM      7  C   UNL     1      -5.651  39.563  22.016  1.00  0.00     0.041 C 
ATOM      8  O   UNL     1      -6.017  40.651  21.498  1.00  0.00    -0.550 OA
ATOM      9  O   UNL     1      -5.865  38.371  21.336  1.00  0.00    -0.550 OA
ENDBRANCH   6   7
ENDBRANCH   5   6
ENDBRANCH   4   5
ENDBRANCH   3   4
ENDBRANCH   2   3
ENDBRANCH   1   2
BRANCH   1  10
ATOM     10  C   UNL     1      -6.001  35.201  22.614  1.00  0.00     0.000 C 
BRANCH  10  11
ATOM     11  C   UNL     1      -4.696  34.846  21.885  1.00  0.00    -0.000 C 
BRANCH  11  12
ATOM     12  C   UNL     1      -4.623  35.451  20.472  1.00  0.00    -0.000 C 
BRANCH  12  13
ATOM     13  C   UNL     1      -5.943  35.307  19.698  1.00  0.00    -0.000 C 
BRANCH  13  14
ATOM     14  C   UNL     1      -5.886  34.207  18.627  1.00  0.00    -0.000 C 
BRANCH  14  15
ATOM     15  C   UNL     1      -4.514  34.180  17.944  1.00  0.00    -0.003 C 
ATOM     16  C   UNL     1      -4.258  35.468  17.167  1.00  0.00     0.004 C 
ENDBRANCH  14  15
ENDBRANCH  13  14
ENDBRANCH  12  13
ENDBRANCH  11  12
ENDBRANCH  10  11
ENDBRANCH   1  10
TORSDOF 12
ENDMDL
MODEL 4
REMARK VINA RESULT:    -0.470      3.671      6.692
REMARK INTER + INTRA:          -1.796
REMARK INTER:                  -1.175
REMARK INTRA:                  -0.621
REMARK UNBOUND:                -0.997
REMARK SMILES CCCCCCCCCCCCCC(=O)[O-]
REMARK SMILES IDX 8 1 9 2 10 3 11 4 12 5 13 6 14 7 15 8 16 9 7 10 6 11 5 12
REMARK SMILES IDX 4 13 3 14 2 15 1 16
REMARK H PARENT
REMARK Flexibility Score: inf
ROOT
ATOM      1  C   UNL     1      -4.655  35.621  20.356  1.00  0.00     0.000 C 
ENDROOT
BRANCH   1   2
ATOM      2  C   UNL     1      -5.481  36.670  21.116  1.00  0.00     0.000 C 
BRANCH   2   3
ATOM      3  C   UNL     1      -5.345  38.078  20.516  1.00  0.00     0.000 C 
BRANCH   3   4
ATOM      4  C   UNL     1      -5.522  39.190  21.565  1.00  0.00     0.000 C 
BRANCH   4   5
ATOM      5  C   UNL     1      -6.123  38.669  22.880  1.00  0.00     0.006 C 
BRANCH   5   6
ATOM      6  C   UNL     1      -5.130  38.732  24.048  1.00  0.00     0.053 C 
BRANCH   6   7
ATOM      7  C   UNL     1      -5.316  37.558  24.956  1.00  0.00     0.041 C 
ATOM      8  O   UNL     1      -4.718  37.512  26.063  1.00  0.00    -0.550 OA
ATOM      9  O   UNL     1      -6.110  36.490  24.558  1.00  0.00    -0.550 OA
ENDBRANCH   6   7
ENDBRANCH   5   6
ENDBRANCH   4   5
ENDBRANCH   3   4
ENDBRANCH   2   3
ENDBRANCH   1   2
BRANCH   1  10
ATOM     10  C   UNL     1      -5.461  35.030  19.189  1.00  0.00     0.000 C 
BRANCH  10  11
ATOM     11  C   UNL     1      -4.567  34.481  18.066  1.00  0.00    -0.000 C 
BRANCH  11  12
ATOM     12  C   UNL     1      -4.223  35.544  17.009  1.00  0.00    -0.000 C 
BRANCH  12  13
ATOM     13  C   UNL     1      -3.151  35.066  16.016  1.00  0.00    -0.000 C 
BRANCH  13  14
ATOM     14  C   UNL     1      -2.619  36.198  15.125  1.00  0.00    -0.000 C 
BRANCH  14  15
ATOM     15  C   UNL     1      -3.631  36.551  14.028  1.00  0.00    -0.003 C 
ATOM     16  C   UNL     1      -4.120  37.989  14.172  1.00  0.00     0.004 C 
ENDBRANCH  14  15
ENDBRANCH  13  14
ENDBRANCH  12  13
ENDBRANCH  11  12
ENDBRANCH  10  11
ENDBRANCH   1  10
TORSDOF 12
ENDMDL
MODEL 5
REMARK VINA RESULT:    -0.452      2.132      3.448
REMARK INTER + INTRA:          -1.766
REMARK INTER:                  -1.129
REMARK INTRA:                  -0.638
REMARK UNBOUND:                -0.997
REMARK SMILES CCCCCCCCCCCCCC(=O)[O-]
REMARK SMILES IDX 8 1 9 2 10 3 11 4 12 5 13 6 14 7 15 8 16 9 7 10 6 11 5 12
REMARK SMILES IDX 4 13 3 14 2 15 1 16
REMARK H PARENT
REMARK Flexibility Score: inf
ROOT
ATOM      1  C   UNL     1      -4.947  35.001  21.512  1.00  0.00     0.000 C 
ENDROOT
BRANCH   1   2
ATOM      2  C   UNL     1      -5.111  35.720  20.164  1.00  0.00     0.000 C 
BRANCH   2   3
ATOM      3  C   UNL     1      -5.733  34.818  19.085  1.00  0.00     0.000 C 
BRANCH   3   4
ATOM      4  C   UNL     1      -4.713  34.379  18.020  1.00  0.00     0.000 C 
BRANCH   4   5
ATOM      5  C   UNL     1      -4.413  35.488  16.998  1.00  0.00     0.006 C 
BRANCH   5   6
ATOM      6  C   UNL     1      -3.164  35.193  16.158  1.00  0.00     0.053 C 
BRANCH   6   7
ATOM      7  C   UNL     1      -3.099  36.111  14.978  1.00  0.00     0.041 C 
ATOM      8  O   UNL     1      -2.056  36.167  14.276  1.00  0.00    -0.550 OA
ATOM      9  O   UNL     1      -4.173  36.941  14.684  1.00  0.00    -0.550 OA
ENDBRANCH   6   7
ENDBRANCH   5   6
ENDBRANCH   4   5
ENDBRANCH   3   4
ENDBRANCH   2   3
ENDBRANCH   1   2
BRANCH   1  10
ATOM     10  C   UNL     1      -6.105  35.346  22.462  1.00  0.00     0.000 C 
BRANCH  10  11
ATOM     11  C   UNL     1      -5.718  35.211  23.943  1.00  0.00    -0.000 C 
BRANCH  11  12
ATOM     12  C   UNL     1      -6.125  36.439  24.776  1.00  0.00    -0.000 C 
BRANCH  12  13
ATOM     13  C   UNL     1      -4.988  37.466  24.907  1.00  0.00    -0.000 C 
BRANCH  13  14
ATOM     14  C   UNL     1      -5.366  38.845  24.348  1.00  0.00    -0.000 C 
BRANCH  14  15
ATOM     15  C   UNL     1      -5.813  38.738  22.885  1.00  0.00    -0.003 C 
ATOM     16  C   UNL     1      -5.387  39.967  22.086  1.00  0.00     0.004 C 
ENDBRANCH  14  15
ENDBRANCH  13  14
ENDBRANCH  12  13
ENDBRANCH  11  12
ENDBRANCH  10  11
ENDBRANCH   1  10
TORSDOF 12
ENDMDL
MODEL 6
REMARK VINA RESULT:    -0.232      2.172      4.274
REMARK INTER + INTRA:          -1.391
REMARK INTER:                  -0.648
REMARK INTRA:                  -0.744
REMARK UNBOUND:                -0.997
REMARK SMILES CCCCCCCCCCCCCC(=O)[O-]
REMARK SMILES IDX 8 1 9 2 10 3 11 4 12 5 13 6 14 7 15 8 16 9 7 10 6 11 5 12
REMARK SMILES IDX 4 13 3 14 2 15 1 16
REMARK H PARENT
REMARK Flexibility Score: inf
ROOT
ATOM      1  C   UNL     1      -5.184  36.515  20.398  1.00  0.00     0.000 C 
ENDROOT
BRANCH   1   2
ATOM      2  C   UNL     1      -4.408  35.341  19.781  1.00  0.00     0.000 C 
BRANCH   2   3
ATOM      3  C   UNL     1      -5.314  34.387  18.985  1.00  0.00     0.000 C 
BRANCH   3   4
ATOM      4  C   UNL     1      -4.965  34.352  17.487  1.00  0.00     0.000 C 
BRANCH   4   5
ATOM      5  C   UNL     1      -4.030  35.499  17.072  1.00  0.00     0.006 C 
BRANCH   5   6
ATOM      6  C   UNL     1      -3.084  35.104  15.930  1.00  0.00     0.053 C 
BRANCH   6   7
ATOM      7  C   UNL     1      -3.030  36.187  14.899  1.00  0.00     0.041 C 
ATOM      8  O   UNL     1      -2.007  36.323  14.177  1.00  0.00    -0.550 OA
ATOM      9  O   UNL     1      -4.087  37.078  14.770  1.00  0.00    -0.550 OA
ENDBRANCH   6   7
ENDBRANCH   5   6
ENDBRANCH   4   5
ENDBRANCH   3   4
ENDBRANCH   2   3
ENDBRANCH   1   2
BRANCH   1  10
ATOM     10  C   UNL     1      -5.935  36.072  21.663  1.00  0.00     0.000 C 
BRANCH  10  11
ATOM     11  C   UNL     1      -5.276  34.868  22.354  1.00  0.00    -0.000 C 
BRANCH  11  12
ATOM     12  C   UNL     1      -5.741  34.692  23.810  1.00  0.00    -0.000 C 
BRANCH  12  13
ATOM     13  C   UNL     1      -6.116  36.026  24.476  1.00  0.00    -0.000 C 
BRANCH  13  14
ATOM     14  C   UNL     1      -5.185  36.391  25.641  1.00  0.00    -0.000 C 
BRANCH  14  15
ATOM     15  C   UNL     1      -4.827  37.881  25.608  1.00  0.00    -0.003 C 
ATOM     16  C   UNL     1      -5.374  38.552  24.350  1.00  0.00     0.004 C 
ENDBRANCH  14  15
ENDBRANCH  13  14
ENDBRANCH  12  13
ENDBRANCH  11  12
ENDBRANCH  10  11
ENDBRANCH   1  10
TORSDOF 12
ENDMDL
MODEL 7
REMARK VINA RESULT:     0.155      3.276      5.907
REMARK INTER + INTRA:          -0.733
REMARK INTER:                   0.036
REMARK INTRA:                  -0.769
REMARK UNBOUND:                -0.997
REMARK SMILES CCCCCCCCCCCCCC(=O)[O-]
REMARK SMILES IDX 8 1 9 2 10 3 11 4 12 5 13 6 14 7 15 8 16 9 7 10 6 11 5 12
REMARK SMILES IDX 4 13 3 14 2 15 1 16
REMARK H PARENT
REMARK Flexibility Score: inf
ROOT
ATOM      1  C   UNL     1      -4.073  34.800  21.316  1.00  0.00     0.000 C 
ENDROOT
BRANCH   1   2
ATOM      2  C   UNL     1      -4.848  34.176  22.487  1.00  0.00     0.000 C 
BRANCH   2   3
ATOM      3  C   UNL     1      -6.125  34.958  22.834  1.00  0.00     0.000 C 
BRANCH   3   4
ATOM      4  C   UNL     1      -6.020  35.697  24.180  1.00  0.00     0.000 C 
BRANCH   4   5
ATOM      5  C   UNL     1      -5.508  37.137  24.025  1.00  0.00     0.006 C 
BRANCH   5   6
ATOM      6  C   UNL     1      -6.118  37.852  22.811  1.00  0.00     0.053 C 
BRANCH   6   7
ATOM      7  C   UNL     1      -5.711  39.291  22.794  1.00  0.00     0.041 C 
ATOM      8  O   UNL     1      -5.055  39.775  23.754  1.00  0.00    -0.550 OA
ATOM      9  O   UNL     1      -6.100  40.111  21.743  1.00  0.00    -0.550 OA
ENDBRANCH   6   7
ENDBRANCH   5   6
ENDBRANCH   4   5
ENDBRANCH   3   4
ENDBRANCH   2   3
ENDBRANCH   1   2
BRANCH   1  10
ATOM     10  C   UNL     1      -5.031  35.484  20.328  1.00  0.00     0.000 C 
BRANCH  10  11
ATOM     11  C   UNL     1      -5.799  34.481  19.454  1.00  0.00    -0.000 C 
BRANCH  11  12
ATOM     12  C   UNL     1      -5.118  34.233  18.097  1.00  0.00    -0.000 C 
BRANCH  12  13
ATOM     13  C   UNL     1      -4.227  35.407  17.660  1.00  0.00    -0.000 C 
BRANCH  13  14
ATOM     14  C   UNL     1      -3.431  35.104  16.381  1.00  0.00    -0.000 C 
BRANCH  14  15
ATOM     15  C   UNL     1      -3.641  36.204  15.334  1.00  0.00    -0.003 C 
ATOM     16  C   UNL     1      -2.563  36.151  14.255  1.00  0.00     0.004 C 
ENDBRANCH  14  15
ENDBRANCH  13  14
ENDBRANCH  12  13
ENDBRANCH  11  12
ENDBRANCH  10  11
ENDBRANCH   1  10
TORSDOF 12
ENDMDL
MODEL 8
REMARK VINA RESULT:     0.224      2.289      4.656
REMARK INTER + INTRA:          -0.615
REMARK INTER:                   0.438
REMARK INTRA:                  -1.053
REMARK UNBOUND:                -0.997
REMARK SMILES CCCCCCCCCCCCCC(=O)[O-]
REMARK SMILES IDX 8 1 9 2 10 3 11 4 12 5 13 6 14 7 15 8 16 9 7 10 6 11 5 12
REMARK SMILES IDX 4 13 3 14 2 15 1 16
REMARK H PARENT
REMARK Flexibility Score: inf
ROOT
ATOM      1  C   UNL     1      -5.290  35.916  25.632  1.00  0.00     0.000 C 
ENDROOT
BRANCH   1   2
ATOM      2  C   UNL     1      -5.703  37.393  25.533  1.00  0.00     0.000 C 
BRANCH   2   3
ATOM      3  C   UNL     1      -4.498  38.346  25.539  1.00  0.00     0.000 C 
BRANCH   3   4
ATOM      4  C   UNL     1      -4.613  39.453  24.476  1.00  0.00     0.000 C 
BRANCH   4   5
ATOM      5  C   UNL     1      -5.622  39.106  23.370  1.00  0.00     0.006 C 
BRANCH   5   6
ATOM      6  C   UNL     1      -4.944  38.794  22.029  1.00  0.00     0.053 C 
BRANCH   6   7
ATOM      7  C   UNL     1      -5.708  39.412  20.901  1.00  0.00     0.041 C 
ATOM      8  O   UNL     1      -6.124  40.597  20.993  1.00  0.00    -0.550 OA
ATOM      9  O   UNL     1      -6.005  38.664  19.770  1.00  0.00    -0.550 OA
ENDBRANCH   6   7
ENDBRANCH   5   6
ENDBRANCH   4   5
ENDBRANCH   3   4
ENDBRANCH   2   3
ENDBRANCH   1   2
BRANCH   1  10
ATOM     10  C   UNL     1      -6.048  35.064  24.603  1.00  0.00     0.000 C 
BRANCH  10  11
ATOM     11  C   UNL     1      -6.125  35.732  23.221  1.00  0.00    -0.000 C 
BRANCH  11  12
ATOM     12  C   UNL     1      -6.048  34.717  22.067  1.00  0.00    -0.000 C 
BRANCH  12  13
ATOM     13  C   UNL     1      -5.851  35.391  20.699  1.00  0.00    -0.000 C 
BRANCH  13  14
ATOM     14  C   UNL     1      -4.405  35.295  20.192  1.00  0.00    -0.000 C 
BRANCH  14  15
ATOM     15  C   UNL     1      -4.362  35.298  18.660  1.00  0.00    -0.003 C 
ATOM     16  C   UNL     1      -5.130  34.111  18.084  1.00  0.00     0.004 C 
ENDBRANCH  14  15
ENDBRANCH  13  14
ENDBRANCH  12  13
ENDBRANCH  11  12
ENDBRANCH  10  11
ENDBRANCH   1  10
TORSDOF 12
ENDMDL
MODEL 9
REMARK VINA RESULT:     0.441      2.438      4.341
REMARK INTER + INTRA:          -0.246
REMARK INTER:                   0.611
REMARK INTRA:                  -0.857
REMARK UNBOUND:                -0.997
REMARK SMILES CCCCCCCCCCCCCC(=O)[O-]
REMARK SMILES IDX 8 1 9 2 10 3 11 4 12 5 13 6 14 7 15 8 16 9 7 10 6 11 5 12
REMARK SMILES IDX 4 13 3 14 2 15 1 16
REMARK H PARENT
REMARK Flexibility Score: inf
ROOT
ATOM      1  C   UNL     1      -4.988  35.555  20.346  1.00  0.00     0.000 C 
ENDROOT
BRANCH   1   2
ATOM      2  C   UNL     1      -5.859  34.651  19.460  1.00  0.00     0.000 C 
BRANCH   2   3
ATOM      3  C   UNL     1      -5.328  34.543  18.022  1.00  0.00     0.000 C 
BRANCH   3   4
ATOM      4  C   UNL     1      -3.853  34.967  17.902  1.00  0.00     0.000 C 
BRANCH   4   5
ATOM      5  C   UNL     1      -3.382  35.056  16.442  1.00  0.00     0.006 C 
BRANCH   5   6
ATOM      6  C   UNL     1      -4.243  36.008  15.602  1.00  0.00     0.053 C 
BRANCH   6   7
ATOM      7  C   UNL     1      -3.419  36.648  14.529  1.00  0.00     0.041 C 
ATOM      8  O   UNL     1      -2.280  36.192  14.248  1.00  0.00    -0.550 OA
ATOM      9  O   UNL     1      -3.888  37.780  13.875  1.00  0.00    -0.550 OA
ENDBRANCH   6   7
ENDBRANCH   5   6
ENDBRANCH   4   5
ENDBRANCH   3   4
ENDBRANCH   2   3
ENDBRANCH   1   2
BRANCH   1  10
ATOM     10  C   UNL     1      -5.829  36.669  20.987  1.00  0.00     0.000 C 
BRANCH  10  11
ATOM     11  C   UNL     1      -5.342  38.076  20.607  1.00  0.00    -0.000 C 
BRANCH  11  12
ATOM     12  C   UNL     1      -5.446  39.075  21.773  1.00  0.00    -0.000 C 
BRANCH  12  13
ATOM     13  C   UNL     1      -6.074  38.452  23.030  1.00  0.00    -0.000 C 
BRANCH  13  14
ATOM     14  C   UNL     1      -5.302  38.798  24.313  1.00  0.00    -0.000 C 
BRANCH  14  15
ATOM     15  C   UNL     1      -5.223  37.584  25.246  1.00  0.00    -0.003 C 
ATOM     16  C   UNL     1      -6.106  36.444  24.745  1.00  0.00     0.004 C 
ENDBRANCH  14  15
ENDBRANCH  13  14
ENDBRANCH  12  13
ENDBRANCH  11  12
ENDBRANCH  10  11
ENDBRANCH   1  10
TORSDOF 12
ENDMDL
