MODEL 1
REMARK VINA RESULT:     9.697      0.000      0.000
REMARK INTER + INTRA:          25.255
REMARK INTER:                  25.570
REMARK INTRA:                  -0.315
REMARK UNBOUND:                -0.315
REMARK SMILES CCCCCCCCCCCCCCCCCCCCCCCCCCCCCC(=O)[O-]
REMARK SMILES IDX 16 1 17 2 18 3 19 4 20 5 21 6 22 7 23 8 24 9 25 10 26 11
REMARK SMILES IDX 27 12 28 13 29 14 30 15 31 16 32 17 15 18 14 19 13 20 12 21
REMARK SMILES IDX 11 22 10 23 9 24 8 25 7 26 6 27 5 28 4 29 3 30 2 31 1 32
REMARK H PARENT
REMARK Flexibility Score: inf
ROOT
ATOM      1  C   UNL     1     -23.665  -2.897 -25.971  1.00  0.00     0.000 C 
ENDROOT
BRANCH   1   2
ATOM      2  C   UNL     1     -24.636  -4.055 -26.242  1.00  0.00     0.000 C 
BRANCH   2   3
ATOM      3  C   UNL     1     -26.080  -3.583 -26.492  1.00  0.00     0.000 C 
BRANCH   3   4
ATOM      4  C   UNL     1     -26.231  -2.441 -27.516  1.00  0.00     0.000 C 
BRANCH   4   5
ATOM      5  C   UNL     1     -27.421  -2.644 -28.470  1.00  0.00     0.000 C 
BRANCH   5   6
ATOM      6  C   UNL     1     -28.776  -2.303 -27.824  1.00  0.00     0.000 C 
BRANCH   6   7
ATOM      7  C   UNL     1     -29.979  -2.294 -28.787  1.00  0.00     0.000 C 
BRANCH   7   8
ATOM      8  C   UNL     1     -31.322  -2.525 -28.072  1.00  0.00     0.000 C 
BRANCH   8   9
ATOM      9  C   UNL     1     -31.316  -2.050 -26.607  1.00  0.00     0.000 C 
BRANCH   9  10
ATOM     10  C   UNL     1     -32.096  -0.752 -26.328  1.00  0.00     0.000 C 
BRANCH  10  11
ATOM     11  C   UNL     1     -31.195   0.494 -26.282  1.00  0.00     0.000 C 
BRANCH  11  12
ATOM     12  C   UNL     1     -31.408   1.346 -25.019  1.00  0.00     0.000 C 
BRANCH  12  13
ATOM     13  C   UNL     1     -30.933   2.809 -25.119  1.00  0.00     0.006 C 
BRANCH  13  14
ATOM     14  C   UNL     1     -31.692   3.646 -26.167  1.00  0.00     0.053 C 
BRANCH  14  15
ATOM     15  C   UNL     1     -31.025   3.625 -27.511  1.00  0.00     0.041 C 
ATOM     16  O   UNL     1     -31.275   2.703 -28.329  1.00  0.00    -0.550 OA
ATOM     17  O   UNL     1     -30.163   4.651 -27.876  1.00  0.00    -0.550 OA
ENDBRANCH  14  15
ENDBRANCH  13  14
ENDBRANCH  12  13
ENDBRANCH  11  12
ENDBRANCH  10  11
ENDBRANCH   9  10
ENDBRANCH   8   9
ENDBRANCH   7   8
ENDBRANCH   6   7
ENDBRANCH   5   6
ENDBRANCH   4   5
ENDBRANCH   3   4
ENDBRANCH   2   3
ENDBRANCH   1   2
BRANCH   1  18
ATOM     18  C   UNL     1     -23.469  -2.045 -27.235  1.00  0.00     0.000 C 
BRANCH  18  19
ATOM     19  C   UNL     1     -22.600  -0.802 -26.988  1.00  0.00     0.000 C 
BRANCH  19  20
ATOM     20  C   UNL     1     -23.226   0.486 -27.555  1.00  0.00     0.000 C 
BRANCH  20  21
ATOM     21  C   UNL     1     -22.193   1.416 -28.228  1.00  0.00     0.000 C 
BRANCH  21  22
ATOM     22  C   UNL     1     -20.886   1.594 -27.431  1.00  0.00     0.000 C 
BRANCH  22  23
ATOM     23  C   UNL     1     -20.713   2.958 -26.738  1.00  0.00     0.000 C 
BRANCH  23  24
ATOM     24  C   UNL     1     -19.251   3.401 -26.519  1.00  0.00    -0.000 C 
BRANCH  24  25
ATOM     25  C   UNL     1     -18.900   4.793 -27.080  1.00  0.00    -0.000 C 
BRANCH  25  26
ATOM     26  C   UNL     1     -18.553   4.814 -28.579  1.00  0.00    -0.000 C 
BRANCH  26  27
ATOM     27  C   UNL     1     -17.067   5.123 -28.840  1.00  0.00    -0.000 C 
BRANCH  27  28
ATOM     28  C   UNL     1     -16.127   4.073 -28.227  1.00  0.00    -0.000 C 
BRANCH  28  29
ATOM     29  C   UNL     1     -14.912   3.775 -29.122  1.00  0.00    -0.000 C 
BRANCH  29  30
ATOM     30  C   UNL     1     -13.645   4.531 -28.680  1.00  0.00    -0.000 C 
BRANCH  30  31
ATOM     31  C   UNL     1     -12.642   3.695 -27.867  1.00  0.00    -0.003 C 
ATOM     32  C   UNL     1     -12.048   2.532 -28.661  1.00  0.00     0.004 C 
ENDBRANCH  30  31
ENDBRANCH  29  30
ENDBRANCH  28  29
ENDBRANCH  27  28
ENDBRANCH  26  27
ENDBRANCH  25  26
ENDBRANCH  24  25
ENDBRANCH  23  24
ENDBRANCH  22  23
ENDBRANCH  21  22
ENDBRANCH  20  21
ENDBRANCH  19  20
ENDBRANCH  18  19
ENDBRANCH   1  18
TORSDOF 28
ENDMDL
MODEL 2
REMARK VINA RESULT:    10.698      2.477      3.926
REMARK INTER + INTRA:          27.895
REMARK INTER:                  26.974
REMARK INTRA:                   0.920
REMARK UNBOUND:                -0.315
REMARK SMILES CCCCCCCCCCCCCCCCCCCCCCCCCCCCCC(=O)[O-]
REMARK SMILES IDX 16 1 17 2 18 3 19 4 20 5 21 6 22 7 23 8 24 9 25 10 26 11
REMARK SMILES IDX 27 12 28 13 29 14 30 15 31 16 32 17 15 18 14 19 13 20 12 21
REMARK SMILES IDX 11 22 10 23 9 24 8 25 7 26 6 27 5 28 4 29 3 30 2 31 1 32
REMARK H PARENT
REMARK Flexibility Score: inf
ROOT
ATOM      1  C   UNL     1     -25.971  -3.786 -26.017  1.00  0.00     0.000 C 
ENDROOT
BRANCH   1   2
ATOM      2  C   UNL     1     -26.472  -3.662 -27.463  1.00  0.00     0.000 C 
BRANCH   2   3
ATOM      3  C   UNL     1     -27.268  -2.369 -27.716  1.00  0.00     0.000 C 
BRANCH   3   4
ATOM      4  C   UNL     1     -28.801  -2.514 -27.636  1.00  0.00     0.000 C 
BRANCH   4   5
ATOM      5  C   UNL     1     -29.469  -2.590 -29.020  1.00  0.00     0.000 C 
BRANCH   5   6
ATOM      6  C   UNL     1     -30.623  -3.608 -29.075  1.00  0.00     0.000 C 
BRANCH   6   7
ATOM      7  C   UNL     1     -32.037  -2.997 -29.125  1.00  0.00     0.000 C 
BRANCH   7   8
ATOM      8  C   UNL     1     -32.064  -1.516 -28.707  1.00  0.00     0.000 C 
BRANCH   8   9
ATOM      9  C   UNL     1     -31.949  -1.315 -27.184  1.00  0.00     0.000 C 
BRANCH   9  10
ATOM     10  C   UNL     1     -31.616   0.117 -26.728  1.00  0.00     0.000 C 
BRANCH  10  11
ATOM     11  C   UNL     1     -31.114   0.185 -25.275  1.00  0.00     0.000 C 
BRANCH  11  12
ATOM     12  C   UNL     1     -31.040   1.621 -24.729  1.00  0.00     0.000 C 
BRANCH  12  13
ATOM     13  C   UNL     1     -32.125   2.584 -25.250  1.00  0.00     0.006 C 
BRANCH  13  14
ATOM     14  C   UNL     1     -31.604   3.993 -25.592  1.00  0.00     0.053 C 
BRANCH  14  15
ATOM     15  C   UNL     1     -31.403   4.189 -27.065  1.00  0.00     0.041 C 
ATOM     16  O   UNL     1     -32.124   5.001 -27.702  1.00  0.00    -0.550 OA
ATOM     17  O   UNL     1     -30.388   3.509 -27.726  1.00  0.00    -0.550 OA
ENDBRANCH  14  15
ENDBRANCH  13  14
ENDBRANCH  12  13
ENDBRANCH  11  12
ENDBRANCH  10  11
ENDBRANCH   9  10
ENDBRANCH   8   9
ENDBRANCH   7   8
ENDBRANCH   6   7
ENDBRANCH   5   6
ENDBRANCH   4   5
ENDBRANCH   3   4
ENDBRANCH   2   3
ENDBRANCH   1   2
BRANCH   1  18
ATOM     18  C   UNL     1     -24.507  -3.333 -25.909  1.00  0.00     0.000 C 
BRANCH  18  19
ATOM     19  C   UNL     1     -23.975  -2.715 -27.212  1.00  0.00     0.000 C 
BRANCH  19  20
ATOM     20  C   UNL     1     -23.000  -1.548 -26.965  1.00  0.00     0.000 C 
BRANCH  20  21
ATOM     21  C   UNL     1     -23.150  -0.406 -27.993  1.00  0.00     0.000 C 
BRANCH  21  22
ATOM     22  C   UNL     1     -22.591   0.950 -27.520  1.00  0.00     0.000 C 
BRANCH  22  23
ATOM     23  C   UNL     1     -22.247   1.951 -28.639  1.00  0.00     0.000 C 
BRANCH  23  24
ATOM     24  C   UNL     1     -22.649   3.414 -28.356  1.00  0.00    -0.000 C 
BRANCH  24  25
ATOM     25  C   UNL     1     -21.727   4.165 -27.375  1.00  0.00    -0.000 C 
BRANCH  25  26
ATOM     26  C   UNL     1     -20.363   4.576 -27.958  1.00  0.00    -0.000 C 
BRANCH  26  27
ATOM     27  C   UNL     1     -19.190   3.804 -27.325  1.00  0.00    -0.000 C 
BRANCH  27  28
ATOM     28  C   UNL     1     -19.558   3.175 -25.972  1.00  0.00    -0.000 C 
BRANCH  28  29
ATOM     29  C   UNL     1     -20.461   1.939 -26.122  1.00  0.00    -0.000 C 
BRANCH  29  30
ATOM     30  C   UNL     1     -21.463   1.787 -24.964  1.00  0.00    -0.000 C 
BRANCH  30  31
ATOM     31  C   UNL     1     -21.616   0.355 -24.421  1.00  0.00    -0.003 C 
ATOM     32  C   UNL     1     -21.479   0.271 -22.902  1.00  0.00     0.004 C 
ENDBRANCH  30  31
ENDBRANCH  29  30
ENDBRANCH  28  29
ENDBRANCH  27  28
ENDBRANCH  26  27
ENDBRANCH  25  26
ENDBRANCH  24  25
ENDBRANCH  23  24
ENDBRANCH  22  23
ENDBRANCH  21  22
ENDBRANCH  20  21
ENDBRANCH  19  20
ENDBRANCH  18  19
ENDBRANCH   1  18
TORSDOF 28
ENDMDL
MODEL 3
REMARK VINA RESULT:    10.989      4.807     12.958
REMARK INTER + INTRA:          28.660
REMARK INTER:                  29.854
REMARK INTRA:                  -1.194
REMARK UNBOUND:                -0.315
REMARK SMILES CCCCCCCCCCCCCCCCCCCCCCCCCCCCCC(=O)[O-]
REMARK SMILES IDX 16 1 17 2 18 3 19 4 20 5 21 6 22 7 23 8 24 9 25 10 26 11
REMARK SMILES IDX 27 12 28 13 29 14 30 15 31 16 32 17 15 18 14 19 13 20 12 21
REMARK SMILES IDX 11 22 10 23 9 24 8 25 7 26 6 27 5 28 4 29 3 30 2 31 1 32
REMARK H PARENT
REMARK Flexibility Score: inf
ROOT
ATOM      1  C   UNL     1     -24.837  -2.910 -26.070  1.00  0.00     0.000 C 
ENDROOT
BRANCH   1   2
ATOM      2  C   UNL     1     -23.501  -2.413 -26.642  1.00  0.00     0.000 C 
BRANCH   2   3
ATOM      3  C   UNL     1     -23.611  -1.035 -27.319  1.00  0.00     0.000 C 
BRANCH   3   4
ATOM      4  C   UNL     1     -22.373  -0.601 -28.129  1.00  0.00     0.000 C 
BRANCH   4   5
ATOM      5  C   UNL     1     -22.106   0.913 -28.051  1.00  0.00     0.000 C 
BRANCH   5   6
ATOM      6  C   UNL     1     -22.502   1.525 -26.695  1.00  0.00     0.000 C 
BRANCH   6   7
ATOM      7  C   UNL     1     -22.121   3.006 -26.506  1.00  0.00     0.000 C 
BRANCH   7   8
ATOM      8  C   UNL     1     -21.556   3.647 -27.786  1.00  0.00     0.000 C 
BRANCH   8   9
ATOM      9  C   UNL     1     -20.855   4.994 -27.528  1.00  0.00     0.000 C 
BRANCH   9  10
ATOM     10  C   UNL     1     -19.453   4.900 -26.898  1.00  0.00     0.000 C 
BRANCH  10  11
ATOM     11  C   UNL     1     -18.461   4.092 -27.753  1.00  0.00     0.000 C 
BRANCH  11  12
ATOM     12  C   UNL     1     -17.218   4.901 -28.161  1.00  0.00     0.000 C 
BRANCH  12  13
ATOM     13  C   UNL     1     -16.129   4.108 -28.910  1.00  0.00     0.006 C 
BRANCH  13  14
ATOM     14  C   UNL     1     -14.789   4.856 -29.048  1.00  0.00     0.053 C 
BRANCH  14  15
ATOM     15  C   UNL     1     -13.639   4.085 -28.470  1.00  0.00     0.041 C 
ATOM     16  O   UNL     1     -12.566   3.966 -29.115  1.00  0.00    -0.550 OA
ATOM     17  O   UNL     1     -13.738   3.537 -27.197  1.00  0.00    -0.550 OA
ENDBRANCH  14  15
ENDBRANCH  13  14
ENDBRANCH  12  13
ENDBRANCH  11  12
ENDBRANCH  10  11
ENDBRANCH   9  10
ENDBRANCH   8   9
ENDBRANCH   7   8
ENDBRANCH   6   7
ENDBRANCH   5   6
ENDBRANCH   4   5
ENDBRANCH   3   4
ENDBRANCH   2   3
ENDBRANCH   1   2
BRANCH   1  18
ATOM     18  C   UNL     1     -25.768  -3.382 -27.198  1.00  0.00     0.000 C 
BRANCH  18  19
ATOM     19  C   UNL     1     -26.225  -2.236 -28.114  1.00  0.00     0.000 C 
BRANCH  19  20
ATOM     20  C   UNL     1     -27.515  -2.569 -28.888  1.00  0.00     0.000 C 
BRANCH  20  21
ATOM     21  C   UNL     1     -28.680  -2.994 -27.970  1.00  0.00     0.000 C 
BRANCH  21  22
ATOM     22  C   UNL     1     -30.058  -2.454 -28.401  1.00  0.00     0.000 C 
BRANCH  22  23
ATOM     23  C   UNL     1     -31.268  -3.067 -27.672  1.00  0.00     0.000 C 
BRANCH  23  24
ATOM     24  C   UNL     1     -32.111  -2.070 -26.850  1.00  0.00    -0.000 C 
BRANCH  24  25
ATOM     25  C   UNL     1     -31.899  -0.585 -27.207  1.00  0.00    -0.000 C 
BRANCH  25  26
ATOM     26  C   UNL     1     -31.262   0.260 -26.091  1.00  0.00    -0.000 C 
BRANCH  26  27
ATOM     27  C   UNL     1     -30.260  -0.540 -25.238  1.00  0.00    -0.000 C 
BRANCH  27  28
ATOM     28  C   UNL     1     -30.414  -0.268 -23.733  1.00  0.00    -0.000 C 
BRANCH  28  29
ATOM     29  C   UNL     1     -29.703  -1.322 -22.867  1.00  0.00    -0.000 C 
BRANCH  29  30
ATOM     30  C   UNL     1     -29.866  -1.063 -21.358  1.00  0.00    -0.000 C 
BRANCH  30  31
ATOM     31  C   UNL     1     -29.506  -2.254 -20.453  1.00  0.00    -0.003 C 
ATOM     32  C   UNL     1     -28.674  -1.854 -19.236  1.00  0.00     0.004 C 
ENDBRANCH  30  31
ENDBRANCH  29  30
ENDBRANCH  28  29
ENDBRANCH  27  28
ENDBRANCH  26  27
ENDBRANCH  25  26
ENDBRANCH  24  25
ENDBRANCH  23  24
ENDBRANCH  22  23
ENDBRANCH  21  22
ENDBRANCH  20  21
ENDBRANCH  19  20
ENDBRANCH  18  19
ENDBRANCH   1  18
TORSDOF 28
ENDMDL
MODEL 4
REMARK VINA RESULT:    11.537      3.523      5.477
REMARK INTER + INTRA:          30.106
REMARK INTER:                  31.345
REMARK INTRA:                  -1.239
REMARK UNBOUND:                -0.315
REMARK SMILES CCCCCCCCCCCCCCCCCCCCCCCCCCCCCC(=O)[O-]
REMARK SMILES IDX 16 1 17 2 18 3 19 4 20 5 21 6 22 7 23 8 24 9 25 10 26 11
REMARK SMILES IDX 27 12 28 13 29 14 30 15 31 16 32 17 15 18 14 19 13 20 12 21
REMARK SMILES IDX 11 22 10 23 9 24 8 25 7 26 6 27 5 28 4 29 3 30 2 31 1 32
REMARK H PARENT
REMARK Flexibility Score: inf
ROOT
ATOM      1  C   UNL     1     -27.271  -2.856 -26.886  1.00  0.00     0.000 C 
ENDROOT
BRANCH   1   2
ATOM      2  C   UNL     1     -28.741  -3.169 -27.202  1.00  0.00     0.000 C 
BRANCH   2   3
ATOM      3  C   UNL     1     -29.165  -2.709 -28.608  1.00  0.00     0.000 C 
BRANCH   3   4
ATOM      4  C   UNL     1     -30.686  -2.597 -28.833  1.00  0.00     0.000 C 
BRANCH   4   5
ATOM      5  C   UNL     1     -31.377  -1.675 -27.812  1.00  0.00     0.000 C 
BRANCH   5   6
ATOM      6  C   UNL     1     -32.045  -0.450 -28.463  1.00  0.00     0.000 C 
BRANCH   6   7
ATOM      7  C   UNL     1     -32.069   0.823 -27.596  1.00  0.00     0.000 C 
BRANCH   7   8
ATOM      8  C   UNL     1     -32.124   2.116 -28.429  1.00  0.00     0.000 C 
BRANCH   8   9
ATOM      9  C   UNL     1     -31.310   3.268 -27.812  1.00  0.00     0.000 C 
BRANCH   9  10
ATOM     10  C   UNL     1     -31.472   3.454 -26.292  1.00  0.00     0.000 C 
BRANCH  10  11
ATOM     11  C   UNL     1     -30.341   2.797 -25.482  1.00  0.00     0.000 C 
BRANCH  11  12
ATOM     12  C   UNL     1     -30.858   1.875 -24.364  1.00  0.00     0.000 C 
BRANCH  12  13
ATOM     13  C   UNL     1     -31.509   0.561 -24.837  1.00  0.00     0.006 C 
BRANCH  13  14
ATOM     14  C   UNL     1     -30.656  -0.695 -24.574  1.00  0.00     0.053 C 
BRANCH  14  15
ATOM     15  C   UNL     1     -30.377  -0.904 -23.115  1.00  0.00     0.041 C 
ATOM     16  O   UNL     1     -31.325  -1.085 -22.307  1.00  0.00    -0.550 OA
ATOM     17  O   UNL     1     -29.068  -0.944 -22.654  1.00  0.00    -0.550 OA
ENDBRANCH  14  15
ENDBRANCH  13  14
ENDBRANCH  12  13
ENDBRANCH  11  12
ENDBRANCH  10  11
ENDBRANCH   9  10
ENDBRANCH   8   9
ENDBRANCH   7   8
ENDBRANCH   6   7
ENDBRANCH   5   6
ENDBRANCH   4   5
ENDBRANCH   3   4
ENDBRANCH   2   3
ENDBRANCH   1   2
BRANCH   1  18
ATOM     18  C   UNL     1     -26.516  -4.135 -26.492  1.00  0.00     0.000 C 
BRANCH  18  19
ATOM     19  C   UNL     1     -25.019  -3.892 -26.245  1.00  0.00     0.000 C 
BRANCH  19  20
ATOM     20  C   UNL     1     -24.356  -3.061 -27.360  1.00  0.00     0.000 C 
BRANCH  20  21
ATOM     21  C   UNL     1     -23.036  -2.395 -26.916  1.00  0.00     0.000 C 
BRANCH  21  22
ATOM     22  C   UNL     1     -23.062  -0.854 -26.947  1.00  0.00     0.000 C 
BRANCH  22  23
ATOM     23  C   UNL     1     -22.984  -0.218 -28.348  1.00  0.00     0.000 C 
BRANCH  23  24
ATOM     24  C   UNL     1     -22.134   1.067 -28.437  1.00  0.00    -0.000 C 
BRANCH  24  25
ATOM     25  C   UNL     1     -22.744   2.302 -27.745  1.00  0.00    -0.000 C 
BRANCH  25  26
ATOM     26  C   UNL     1     -21.728   3.388 -27.353  1.00  0.00    -0.000 C 
BRANCH  26  27
ATOM     27  C   UNL     1     -20.285   2.854 -27.285  1.00  0.00    -0.000 C 
BRANCH  27  28
ATOM     28  C   UNL     1     -20.036   1.978 -26.047  1.00  0.00    -0.000 C 
BRANCH  28  29
ATOM     29  C   UNL     1     -21.030   2.268 -24.909  1.00  0.00    -0.000 C 
BRANCH  29  30
ATOM     30  C   UNL     1     -21.914   1.056 -24.565  1.00  0.00    -0.000 C 
BRANCH  30  31
ATOM     31  C   UNL     1     -21.217  -0.042 -23.743  1.00  0.00    -0.003 C 
ATOM     32  C   UNL     1     -21.868  -0.277 -22.381  1.00  0.00     0.004 C 
ENDBRANCH  30  31
ENDBRANCH  29  30
ENDBRANCH  28  29
ENDBRANCH  27  28
ENDBRANCH  26  27
ENDBRANCH  25  26
ENDBRANCH  24  25
ENDBRANCH  23  24
ENDBRANCH  22  23
ENDBRANCH  21  22
ENDBRANCH  20  21
ENDBRANCH  19  20
ENDBRANCH  18  19
ENDBRANCH   1  18
TORSDOF 28
ENDMDL
MODEL 5
REMARK VINA RESULT:    12.339      3.860     11.707
REMARK INTER + INTRA:          32.222
REMARK INTER:                  31.324
REMARK INTRA:                   0.897
REMARK UNBOUND:                -0.315
REMARK SMILES CCCCCCCCCCCCCCCCCCCCCCCCCCCCCC(=O)[O-]
REMARK SMILES IDX 16 1 17 2 18 3 19 4 20 5 21 6 22 7 23 8 24 9 25 10 26 11
REMARK SMILES IDX 27 12 28 13 29 14 30 15 31 16 32 17 15 18 14 19 13 20 12 21
REMARK SMILES IDX 11 22 10 23 9 24 8 25 7 26 6 27 5 28 4 29 3 30 2 31 1 32
REMARK H PARENT
REMARK Flexibility Score: inf
ROOT
ATOM      1  C   UNL     1     -23.041  -1.572 -26.412  1.00  0.00     0.000 C 
ENDROOT
BRANCH   1   2
ATOM      2  C   UNL     1     -23.408  -0.822 -27.700  1.00  0.00     0.000 C 
BRANCH   2   3
ATOM      3  C   UNL     1     -22.385   0.265 -28.077  1.00  0.00     0.000 C 
BRANCH   3   4
ATOM      4  C   UNL     1     -22.817   1.711 -27.764  1.00  0.00     0.000 C 
BRANCH   4   5
ATOM      5  C   UNL     1     -22.053   2.759 -28.593  1.00  0.00     0.000 C 
BRANCH   5   6
ATOM      6  C   UNL     1     -22.235   4.193 -28.064  1.00  0.00     0.000 C 
BRANCH   6   7
ATOM      7  C   UNL     1     -21.023   5.125 -28.262  1.00  0.00     0.000 C 
BRANCH   7   8
ATOM      8  C   UNL     1     -19.876   4.834 -27.279  1.00  0.00     0.000 C 
BRANCH   8   9
ATOM      9  C   UNL     1     -19.321   3.402 -27.404  1.00  0.00     0.000 C 
BRANCH   9  10
ATOM     10  C   UNL     1     -19.822   2.403 -26.345  1.00  0.00     0.000 C 
BRANCH  10  11
ATOM     11  C   UNL     1     -20.938   2.977 -25.455  1.00  0.00     0.000 C 
BRANCH  11  12
ATOM     12  C   UNL     1     -22.086   1.983 -25.212  1.00  0.00     0.000 C 
BRANCH  12  13
ATOM     13  C   UNL     1     -21.674   0.635 -24.588  1.00  0.00     0.006 C 
BRANCH  13  14
ATOM     14  C   UNL     1     -21.712   0.617 -23.048  1.00  0.00     0.053 C 
BRANCH  14  15
ATOM     15  C   UNL     1     -21.297  -0.707 -22.479  1.00  0.00     0.041 C 
ATOM     16  O   UNL     1     -22.166  -1.547 -22.126  1.00  0.00    -0.550 OA
ATOM     17  O   UNL     1     -19.951  -1.033 -22.383  1.00  0.00    -0.550 OA
ENDBRANCH  14  15
ENDBRANCH  13  14
ENDBRANCH  12  13
ENDBRANCH  11  12
ENDBRANCH  10  11
ENDBRANCH   9  10
ENDBRANCH   8   9
ENDBRANCH   7   8
ENDBRANCH   6   7
ENDBRANCH   5   6
ENDBRANCH   4   5
ENDBRANCH   3   4
ENDBRANCH   2   3
ENDBRANCH   1   2
BRANCH   1  18
ATOM     18  C   UNL     1     -24.261  -2.317 -25.851  1.00  0.00     0.000 C 
BRANCH  18  19
ATOM     19  C   UNL     1     -24.464  -3.699 -26.491  1.00  0.00     0.000 C 
BRANCH  19  20
ATOM     20  C   UNL     1     -25.944  -4.122 -26.544  1.00  0.00     0.000 C 
BRANCH  20  21
ATOM     21  C   UNL     1     -26.838  -3.105 -27.285  1.00  0.00     0.000 C 
BRANCH  21  22
ATOM     22  C   UNL     1     -28.292  -3.049 -26.775  1.00  0.00     0.000 C 
BRANCH  22  23
ATOM     23  C   UNL     1     -29.282  -2.292 -27.680  1.00  0.00     0.000 C 
BRANCH  23  24
ATOM     24  C   UNL     1     -30.699  -2.897 -27.750  1.00  0.00    -0.000 C 
BRANCH  24  25
ATOM     25  C   UNL     1     -31.758  -2.181 -26.889  1.00  0.00    -0.000 C 
BRANCH  25  26
ATOM     26  C   UNL     1     -31.860  -0.664 -27.122  1.00  0.00    -0.000 C 
BRANCH  26  27
ATOM     27  C   UNL     1     -30.967   0.146 -26.163  1.00  0.00    -0.000 C 
BRANCH  27  28
ATOM     28  C   UNL     1     -31.704   1.337 -25.532  1.00  0.00    -0.000 C 
BRANCH  28  29
ATOM     29  C   UNL     1     -30.869   2.628 -25.556  1.00  0.00    -0.000 C 
BRANCH  29  30
ATOM     30  C   UNL     1     -31.727   3.891 -25.756  1.00  0.00    -0.000 C 
BRANCH  30  31
ATOM     31  C   UNL     1     -31.732   4.452 -27.188  1.00  0.00    -0.003 C 
ATOM     32  C   UNL     1     -30.480   4.081 -27.982  1.00  0.00     0.004 C 
ENDBRANCH  30  31
ENDBRANCH  29  30
ENDBRANCH  28  29
ENDBRANCH  27  28
ENDBRANCH  26  27
ENDBRANCH  25  26
ENDBRANCH  24  25
ENDBRANCH  23  24
ENDBRANCH  22  23
ENDBRANCH  21  22
ENDBRANCH  20  21
ENDBRANCH  19  20
ENDBRANCH  18  19
ENDBRANCH   1  18
TORSDOF 28
ENDMDL
