MODEL 1
REMARK VINA RESULT:    -3.854      0.000      0.000
REMARK INTER + INTRA:         -14.074
REMARK INTER:                  -9.711
REMARK INTRA:                  -4.363
REMARK UNBOUND:                -4.363
REMARK SMILES CCCCCCCCCCCCCCCCCCCCCCCCCCCC(=O)[O-]
REMARK SMILES IDX 15 1 16 2 17 3 18 4 19 5 20 6 21 7 22 8 23 9 24 10 25 11
REMARK SMILES IDX 26 12 27 13 28 14 29 15 30 16 14 17 13 18 12 19 11 20 10 21
REMARK SMILES IDX 9 22 8 23 7 24 6 25 5 26 4 27 3 28 2 29 1 30
REMARK H PARENT
REMARK Flexibility Score: inf
ROOT
ATOM      1  C   UNL     1      -3.902  -0.341  -6.618  1.00  0.00     0.000 C 
ENDROOT
BRANCH   1   2
ATOM      2  C   UNL     1      -4.369  -1.486  -5.712  1.00  0.00     0.000 C 
BRANCH   2   3
ATOM      3  C   UNL     1      -5.120  -0.943  -4.488  1.00  0.00     0.000 C 
BRANCH   3   4
ATOM      4  C   UNL     1      -5.302   0.589  -4.544  1.00  0.00     0.000 C 
BRANCH   4   5
ATOM      5  C   UNL     1      -6.720   1.058  -4.174  1.00  0.00     0.000 C 
BRANCH   5   6
ATOM      6  C   UNL     1      -7.715   0.913  -5.334  1.00  0.00     0.000 C 
BRANCH   6   7
ATOM      7  C   UNL     1      -7.123   1.317  -6.697  1.00  0.00     0.000 C 
BRANCH   7   8
ATOM      8  C   UNL     1      -7.231   0.251  -7.802  1.00  0.00     0.000 C 
BRANCH   8   9
ATOM      9  C   UNL     1      -7.693  -1.119  -7.275  1.00  0.00     0.000 C 
BRANCH   9  10
ATOM     10  C   UNL     1      -7.393  -2.261  -8.257  1.00  0.00     0.000 C 
BRANCH  10  11
ATOM     11  C   UNL     1      -6.110  -2.016  -9.073  1.00  0.00     0.000 C 
BRANCH  11  12
ATOM     12  C   UNL     1      -5.169  -3.231  -9.077  1.00  0.00     0.006 C 
BRANCH  12  13
ATOM     13  C   UNL     1      -5.317  -4.102  -7.819  1.00  0.00     0.053 C 
BRANCH  13  14
ATOM     14  C   UNL     1      -5.694  -5.507  -8.173  1.00  0.00     0.041 C 
ATOM     15  O   UNL     1      -6.567  -6.122  -7.504  1.00  0.00    -0.550 OA
ATOM     16  O   UNL     1      -5.116  -6.122  -9.278  1.00  0.00    -0.550 OA
ENDBRANCH  13  14
ENDBRANCH  12  13
ENDBRANCH  11  12
ENDBRANCH  10  11
ENDBRANCH   9  10
ENDBRANCH   8   9
ENDBRANCH   7   8
ENDBRANCH   6   7
ENDBRANCH   5   6
ENDBRANCH   4   5
ENDBRANCH   3   4
ENDBRANCH   2   3
ENDBRANCH   1   2
BRANCH   1  17
ATOM     17  C   UNL     1      -2.727  -0.783  -7.503  1.00  0.00     0.000 C 
BRANCH  17  18
ATOM     18  C   UNL     1      -2.860  -0.273  -8.948  1.00  0.00     0.000 C 
BRANCH  18  19
ATOM     19  C   UNL     1      -3.742   0.984  -9.042  1.00  0.00     0.000 C 
BRANCH  19  20
ATOM     20  C   UNL     1      -2.955   2.230  -9.474  1.00  0.00     0.000 C 
BRANCH  20  21
ATOM     21  C   UNL     1      -3.860   3.444  -9.735  1.00  0.00     0.000 C 
BRANCH  21  22
ATOM     22  C   UNL     1      -5.333   3.093  -9.479  1.00  0.00    -0.000 C 
BRANCH  22  23
ATOM     23  C   UNL     1      -6.143   4.279  -8.931  1.00  0.00    -0.000 C 
BRANCH  23  24
ATOM     24  C   UNL     1      -5.518   5.665  -9.184  1.00  0.00    -0.000 C 
BRANCH  24  25
ATOM     25  C   UNL     1      -6.243   6.821  -8.461  1.00  0.00    -0.000 C 
BRANCH  25  26
ATOM     26  C   UNL     1      -6.592   6.473  -7.004  1.00  0.00    -0.000 C 
BRANCH  26  27
ATOM     27  C   UNL     1      -6.017   7.483  -5.994  1.00  0.00    -0.000 C 
BRANCH  27  28
ATOM     28  C   UNL     1      -4.604   7.987  -6.361  1.00  0.00    -0.000 C 
BRANCH  28  29
ATOM     29  C   UNL     1      -3.524   7.411  -5.435  1.00  0.00    -0.003 C 
ATOM     30  C   UNL     1      -3.812   7.748  -3.974  1.00  0.00     0.004 C 
ENDBRANCH  28  29
ENDBRANCH  27  28
ENDBRANCH  26  27
ENDBRANCH  25  26
ENDBRANCH  24  25
ENDBRANCH  23  24
ENDBRANCH  22  23
ENDBRANCH  21  22
ENDBRANCH  20  21
ENDBRANCH  19  20
ENDBRANCH  18  19
ENDBRANCH  17  18
ENDBRANCH   1  17
TORSDOF 26
ENDMDL
MODEL 2
REMARK VINA RESULT:    -3.568      1.302      2.089
REMARK INTER + INTRA:         -13.354
REMARK INTER:                  -9.736
REMARK INTRA:                  -3.617
REMARK UNBOUND:                -4.363
REMARK SMILES CCCCCCCCCCCCCCCCCCCCCCCCCCCC(=O)[O-]
REMARK SMILES IDX 15 1 16 2 17 3 18 4 19 5 20 6 21 7 22 8 23 9 24 10 25 11
REMARK SMILES IDX 26 12 27 13 28 14 29 15 30 16 14 17 13 18 12 19 11 20 10 21
REMARK SMILES IDX 9 22 8 23 7 24 6 25 5 26 4 27 3 28 2 29 1 30
REMARK H PARENT
REMARK Flexibility Score: inf
ROOT
ATOM      1  C   UNL     1      -4.711  -0.134  -5.988  1.00  0.00     0.000 C 
ENDROOT
BRANCH   1   2
ATOM      2  C   UNL     1      -5.109  -0.452  -4.542  1.00  0.00     0.000 C 
BRANCH   2   3
ATOM      3  C   UNL     1      -6.637  -0.465  -4.387  1.00  0.00     0.000 C 
BRANCH   3   4
ATOM      4  C   UNL     1      -7.230   0.958  -4.310  1.00  0.00     0.000 C 
BRANCH   4   5
ATOM      5  C   UNL     1      -8.125   1.322  -5.507  1.00  0.00     0.000 C 
BRANCH   5   6
ATOM      6  C   UNL     1      -7.515   2.420  -6.391  1.00  0.00     0.000 C 
BRANCH   6   7
ATOM      7  C   UNL     1      -7.660   2.137  -7.898  1.00  0.00     0.000 C 
BRANCH   7   8
ATOM      8  C   UNL     1      -6.541   1.281  -8.516  1.00  0.00     0.000 C 
BRANCH   8   9
ATOM      9  C   UNL     1      -7.069   0.027  -9.234  1.00  0.00     0.000 C 
BRANCH   9  10
ATOM     10  C   UNL     1      -7.543  -1.058  -8.255  1.00  0.00     0.000 C 
BRANCH  10  11
ATOM     11  C   UNL     1      -6.818  -2.401  -8.464  1.00  0.00     0.000 C 
BRANCH  11  12
ATOM     12  C   UNL     1      -6.944  -3.338  -7.252  1.00  0.00     0.006 C 
BRANCH  12  13
ATOM     13  C   UNL     1      -6.775  -4.819  -7.626  1.00  0.00     0.053 C 
BRANCH  13  14
ATOM     14  C   UNL     1      -5.346  -5.138  -7.944  1.00  0.00     0.041 C 
ATOM     15  O   UNL     1      -5.045  -5.703  -9.029  1.00  0.00    -0.550 OA
ATOM     16  O   UNL     1      -4.340  -4.764  -7.060  1.00  0.00    -0.550 OA
ENDBRANCH  13  14
ENDBRANCH  12  13
ENDBRANCH  11  12
ENDBRANCH  10  11
ENDBRANCH   9  10
ENDBRANCH   8   9
ENDBRANCH   7   8
ENDBRANCH   6   7
ENDBRANCH   5   6
ENDBRANCH   4   5
ENDBRANCH   3   4
ENDBRANCH   2   3
ENDBRANCH   1   2
BRANCH   1  17
ATOM     17  C   UNL     1      -3.970  -1.317  -6.629  1.00  0.00     0.000 C 
BRANCH  17  18
ATOM     18  C   UNL     1      -3.291  -0.933  -7.955  1.00  0.00     0.000 C 
BRANCH  18  19
ATOM     19  C   UNL     1      -2.022  -0.092  -7.735  1.00  0.00     0.000 C 
BRANCH  19  20
ATOM     20  C   UNL     1      -1.817   0.969  -8.827  1.00  0.00     0.000 C 
BRANCH  20  21
ATOM     21  C   UNL     1      -3.140   1.575  -9.321  1.00  0.00     0.000 C 
BRANCH  21  22
ATOM     22  C   UNL     1      -2.945   3.035  -9.755  1.00  0.00    -0.000 C 
BRANCH  22  23
ATOM     23  C   UNL     1      -4.150   3.926  -9.410  1.00  0.00    -0.000 C 
BRANCH  23  24
ATOM     24  C   UNL     1      -3.874   5.441  -9.467  1.00  0.00    -0.000 C 
BRANCH  24  25
ATOM     25  C   UNL     1      -3.095   5.984  -8.249  1.00  0.00    -0.000 C 
BRANCH  25  26
ATOM     26  C   UNL     1      -3.281   7.500  -8.064  1.00  0.00    -0.000 C 
BRANCH  26  27
ATOM     27  C   UNL     1      -2.925   7.977  -6.645  1.00  0.00    -0.000 C 
BRANCH  27  28
ATOM     28  C   UNL     1      -4.039   7.711  -5.607  1.00  0.00    -0.000 C 
BRANCH  28  29
ATOM     29  C   UNL     1      -5.439   7.775  -6.232  1.00  0.00    -0.003 C 
ATOM     30  C   UNL     1      -6.504   7.290  -5.251  1.00  0.00     0.004 C 
ENDBRANCH  28  29
ENDBRANCH  27  28
ENDBRANCH  26  27
ENDBRANCH  25  26
ENDBRANCH  24  25
ENDBRANCH  23  24
ENDBRANCH  22  23
ENDBRANCH  21  22
ENDBRANCH  20  21
ENDBRANCH  19  20
ENDBRANCH  18  19
ENDBRANCH  17  18
ENDBRANCH   1  17
TORSDOF 26
ENDMDL
MODEL 3
REMARK VINA RESULT:    -3.276      8.695     12.109
REMARK INTER + INTRA:         -12.618
REMARK INTER:                 -10.897
REMARK INTRA:                  -1.721
REMARK UNBOUND:                -4.363
REMARK SMILES CCCCCCCCCCCCCCCCCCCCCCCCCCCC(=O)[O-]
REMARK SMILES IDX 15 1 16 2 17 3 18 4 19 5 20 6 21 7 22 8 23 9 24 10 25 11
REMARK SMILES IDX 26 12 27 13 28 14 29 15 30 16 14 17 13 18 12 19 11 20 10 21
REMARK SMILES IDX 9 22 8 23 7 24 6 25 5 26 4 27 3 28 2 29 1 30
REMARK H PARENT
REMARK Flexibility Score: inf
ROOT
ATOM      1  C   UNL     1      -7.700   0.395   3.991  1.00  0.00     0.000 C 
ENDROOT
BRANCH   1   2
ATOM      2  C   UNL     1      -7.074   0.834   2.662  1.00  0.00     0.000 C 
BRANCH   2   3
ATOM      3  C   UNL     1      -8.064   1.675   1.843  1.00  0.00     0.000 C 
BRANCH   3   4
ATOM      4  C   UNL     1      -7.434   2.987   1.329  1.00  0.00     0.000 C 
BRANCH   4   5
ATOM      5  C   UNL     1      -8.124   3.557   0.078  1.00  0.00     0.000 C 
BRANCH   5   6
ATOM      6  C   UNL     1      -7.160   3.728  -1.105  1.00  0.00     0.000 C 
BRANCH   6   7
ATOM      7  C   UNL     1      -7.798   3.383  -2.463  1.00  0.00     0.000 C 
BRANCH   7   8
ATOM      8  C   UNL     1      -7.506   1.964  -2.984  1.00  0.00     0.000 C 
BRANCH   8   9
ATOM      9  C   UNL     1      -7.731   1.820  -4.499  1.00  0.00     0.000 C 
BRANCH   9  10
ATOM     10  C   UNL     1      -6.678   0.925  -5.170  1.00  0.00     0.000 C 
BRANCH  10  11
ATOM     11  C   UNL     1      -5.976  -0.013  -4.169  1.00  0.00     0.000 C 
BRANCH  11  12
ATOM     12  C   UNL     1      -4.883  -0.870  -4.826  1.00  0.00     0.006 C 
BRANCH  12  13
ATOM     13  C   UNL     1      -4.763  -0.623  -6.338  1.00  0.00     0.053 C 
BRANCH  13  14
ATOM     14  C   UNL     1      -4.283  -1.850  -7.051  1.00  0.00     0.041 C 
ATOM     15  O   UNL     1      -5.010  -2.878  -7.112  1.00  0.00    -0.550 OA
ATOM     16  O   UNL     1      -3.050  -1.840  -7.695  1.00  0.00    -0.550 OA
ENDBRANCH  13  14
ENDBRANCH  12  13
ENDBRANCH  11  12
ENDBRANCH  10  11
ENDBRANCH   9  10
ENDBRANCH   8   9
ENDBRANCH   7   8
ENDBRANCH   6   7
ENDBRANCH   5   6
ENDBRANCH   4   5
ENDBRANCH   3   4
ENDBRANCH   2   3
ENDBRANCH   1   2
BRANCH   1  17
ATOM     17  C   UNL     1      -6.912  -0.766   4.614  1.00  0.00     0.000 C 
BRANCH  17  18
ATOM     18  C   UNL     1      -7.679  -2.097   4.545  1.00  0.00     0.000 C 
BRANCH  18  19
ATOM     19  C   UNL     1      -7.742  -2.803   5.910  1.00  0.00     0.000 C 
BRANCH  19  20
ATOM     20  C   UNL     1      -6.773  -3.991   6.009  1.00  0.00     0.000 C 
BRANCH  20  21
ATOM     21  C   UNL     1      -5.340  -3.623   5.595  1.00  0.00     0.000 C 
BRANCH  21  22
ATOM     22  C   UNL     1      -4.608  -2.901   6.736  1.00  0.00    -0.000 C 
BRANCH  22  23
ATOM     23  C   UNL     1      -5.385  -2.935   8.061  1.00  0.00    -0.000 C 
BRANCH  23  24
ATOM     24  C   UNL     1      -4.834  -2.008   9.161  1.00  0.00    -0.000 C 
BRANCH  24  25
ATOM     25  C   UNL     1      -5.758  -0.816   9.498  1.00  0.00    -0.000 C 
BRANCH  25  26
ATOM     26  C   UNL     1      -4.987   0.512   9.591  1.00  0.00    -0.000 C 
BRANCH  26  27
ATOM     27  C   UNL     1      -3.480   0.351   9.322  1.00  0.00    -0.000 C 
BRANCH  27  28
ATOM     28  C   UNL     1      -3.008   1.041   8.023  1.00  0.00    -0.000 C 
BRANCH  28  29
ATOM     29  C   UNL     1      -3.839   0.613   6.805  1.00  0.00    -0.003 C 
ATOM     30  C   UNL     1      -4.832   1.702   6.403  1.00  0.00     0.004 C 
ENDBRANCH  28  29
ENDBRANCH  27  28
ENDBRANCH  26  27
ENDBRANCH  25  26
ENDBRANCH  24  25
ENDBRANCH  23  24
ENDBRANCH  22  23
ENDBRANCH  21  22
ENDBRANCH  20  21
ENDBRANCH  19  20
ENDBRANCH  18  19
ENDBRANCH  17  18
ENDBRANCH   1  17
TORSDOF 26
ENDMDL
MODEL 4
REMARK VINA RESULT:    -3.121      8.917     12.200
REMARK INTER + INTRA:         -12.228
REMARK INTER:                 -10.695
REMARK INTRA:                  -1.533
REMARK UNBOUND:                -4.363
REMARK SMILES CCCCCCCCCCCCCCCCCCCCCCCCCCCC(=O)[O-]
REMARK SMILES IDX 15 1 16 2 17 3 18 4 19 5 20 6 21 7 22 8 23 9 24 10 25 11
REMARK SMILES IDX 26 12 27 13 28 14 29 15 30 16 14 17 13 18 12 19 11 20 10 21
REMARK SMILES IDX 9 22 8 23 7 24 6 25 5 26 4 27 3 28 2 29 1 30
REMARK H PARENT
REMARK Flexibility Score: inf
ROOT
ATOM      1  C   UNL     1      -7.191   1.349   2.601  1.00  0.00     0.000 C 
ENDROOT
BRANCH   1   2
ATOM      2  C   UNL     1      -7.423   1.043   4.085  1.00  0.00     0.000 C 
BRANCH   2   3
ATOM      3  C   UNL     1      -8.097  -0.326   4.262  1.00  0.00     0.000 C 
BRANCH   3   4
ATOM      4  C   UNL     1      -7.094  -1.423   4.676  1.00  0.00     0.000 C 
BRANCH   4   5
ATOM      5  C   UNL     1      -7.460  -2.825   4.156  1.00  0.00     0.000 C 
BRANCH   5   6
ATOM      6  C   UNL     1      -6.362  -3.863   4.429  1.00  0.00     0.000 C 
BRANCH   6   7
ATOM      7  C   UNL     1      -5.148  -3.282   5.176  1.00  0.00     0.000 C 
BRANCH   7   8
ATOM      8  C   UNL     1      -5.022  -3.702   6.652  1.00  0.00     0.000 C 
BRANCH   8   9
ATOM      9  C   UNL     1      -5.899  -2.860   7.594  1.00  0.00     0.000 C 
BRANCH   9  10
ATOM     10  C   UNL     1      -5.155  -2.435   8.870  1.00  0.00     0.000 C 
BRANCH  10  11
ATOM     11  C   UNL     1      -3.768  -1.835   8.572  1.00  0.00     0.000 C 
BRANCH  11  12
ATOM     12  C   UNL     1      -3.762  -0.299   8.630  1.00  0.00     0.006 C 
BRANCH  12  13
ATOM     13  C   UNL     1      -3.108   0.340   7.394  1.00  0.00     0.053 C 
BRANCH  13  14
ATOM     14  C   UNL     1      -3.820   1.595   6.992  1.00  0.00     0.041 C 
ATOM     15  O   UNL     1      -3.437   2.714   7.429  1.00  0.00    -0.550 OA
ATOM     16  O   UNL     1      -4.878   1.534   6.092  1.00  0.00    -0.550 OA
ENDBRANCH  13  14
ENDBRANCH  12  13
ENDBRANCH  11  12
ENDBRANCH  10  11
ENDBRANCH   9  10
ENDBRANCH   8   9
ENDBRANCH   7   8
ENDBRANCH   6   7
ENDBRANCH   5   6
ENDBRANCH   4   5
ENDBRANCH   3   4
ENDBRANCH   2   3
ENDBRANCH   1   2
BRANCH   1  17
ATOM     17  C   UNL     1      -8.078   2.511   2.132  1.00  0.00     0.000 C 
BRANCH  17  18
ATOM     18  C   UNL     1      -7.507   3.220   0.893  1.00  0.00     0.000 C 
BRANCH  18  19
ATOM     19  C   UNL     1      -7.904   4.705   0.838  1.00  0.00     0.000 C 
BRANCH  19  20
ATOM     20  C   UNL     1      -7.760   5.306  -0.568  1.00  0.00     0.000 C 
BRANCH  20  21
ATOM     21  C   UNL     1      -7.011   4.378  -1.536  1.00  0.00     0.000 C 
BRANCH  21  22
ATOM     22  C   UNL     1      -7.918   3.956  -2.702  1.00  0.00    -0.000 C 
BRANCH  22  23
ATOM     23  C   UNL     1      -8.122   2.435  -2.781  1.00  0.00    -0.000 C 
BRANCH  23  24
ATOM     24  C   UNL     1      -6.957   1.656  -3.423  1.00  0.00    -0.000 C 
BRANCH  24  25
ATOM     25  C   UNL     1      -7.396   0.388  -4.187  1.00  0.00    -0.000 C 
BRANCH  25  26
ATOM     26  C   UNL     1      -6.674   0.240  -5.538  1.00  0.00    -0.000 C 
BRANCH  26  27
ATOM     27  C   UNL     1      -5.420  -0.648  -5.453  1.00  0.00    -0.000 C 
BRANCH  27  28
ATOM     28  C   UNL     1      -4.274  -0.189  -6.381  1.00  0.00    -0.000 C 
BRANCH  28  29
ATOM     29  C   UNL     1      -3.651  -1.359  -7.154  1.00  0.00    -0.003 C 
ATOM     30  C   UNL     1      -4.386  -2.666  -6.866  1.00  0.00     0.004 C 
ENDBRANCH  28  29
ENDBRANCH  27  28
ENDBRANCH  26  27
ENDBRANCH  25  26
ENDBRANCH  24  25
ENDBRANCH  23  24
ENDBRANCH  22  23
ENDBRANCH  21  22
ENDBRANCH  20  21
ENDBRANCH  19  20
ENDBRANCH  18  19
ENDBRANCH  17  18
ENDBRANCH   1  17
TORSDOF 26
ENDMDL
MODEL 5
REMARK VINA RESULT:    -3.086      2.661      6.400
REMARK INTER + INTRA:         -12.141
REMARK INTER:                  -9.132
REMARK INTRA:                  -3.009
REMARK UNBOUND:                -4.363
REMARK SMILES CCCCCCCCCCCCCCCCCCCCCCCCCCCC(=O)[O-]
REMARK SMILES IDX 15 1 16 2 17 3 18 4 19 5 20 6 21 7 22 8 23 9 24 10 25 11
REMARK SMILES IDX 26 12 27 13 28 14 29 15 30 16 14 17 13 18 12 19 11 20 10 21
REMARK SMILES IDX 9 22 8 23 7 24 6 25 5 26 4 27 3 28 2 29 1 30
REMARK H PARENT
REMARK Flexibility Score: inf
ROOT
ATOM      1  C   UNL     1      -5.464   7.057  -2.534  1.00  0.00     0.000 C 
ENDROOT
BRANCH   1   2
ATOM      2  C   UNL     1      -6.961   7.326  -2.349  1.00  0.00     0.000 C 
BRANCH   2   3
ATOM      3  C   UNL     1      -7.413   6.950  -0.930  1.00  0.00     0.000 C 
BRANCH   3   4
ATOM      4  C   UNL     1      -6.434   5.975  -0.243  1.00  0.00     0.000 C 
BRANCH   4   5
ATOM      5  C   UNL     1      -7.126   4.924   0.642  1.00  0.00     0.000 C 
BRANCH   5   6
ATOM      6  C   UNL     1      -7.115   3.521   0.016  1.00  0.00     0.000 C 
BRANCH   6   7
ATOM      7  C   UNL     1      -7.971   3.419  -1.259  1.00  0.00     0.000 C 
BRANCH   7   8
ATOM      8  C   UNL     1      -7.210   2.998  -2.530  1.00  0.00     0.000 C 
BRANCH   8   9
ATOM      9  C   UNL     1      -7.786   1.731  -3.185  1.00  0.00     0.000 C 
BRANCH   9  10
ATOM     10  C   UNL     1      -7.115   1.405  -4.528  1.00  0.00     0.000 C 
BRANCH  10  11
ATOM     11  C   UNL     1      -5.931   0.431  -4.374  1.00  0.00     0.000 C 
BRANCH  11  12
ATOM     12  C   UNL     1      -5.952  -0.699  -5.416  1.00  0.00     0.006 C 
BRANCH  12  13
ATOM     13  C   UNL     1      -4.548  -1.224  -5.753  1.00  0.00     0.053 C 
BRANCH  13  14
ATOM     14  C   UNL     1      -4.598  -2.238  -6.854  1.00  0.00     0.041 C 
ATOM     15  O   UNL     1      -3.595  -2.428  -7.593  1.00  0.00    -0.550 OA
ATOM     16  O   UNL     1      -5.740  -3.012  -7.032  1.00  0.00    -0.550 OA
ENDBRANCH  13  14
ENDBRANCH  12  13
ENDBRANCH  11  12
ENDBRANCH  10  11
ENDBRANCH   9  10
ENDBRANCH   8   9
ENDBRANCH   7   8
ENDBRANCH   6   7
ENDBRANCH   5   6
ENDBRANCH   4   5
ENDBRANCH   3   4
ENDBRANCH   2   3
ENDBRANCH   1   2
BRANCH   1  17
ATOM     17  C   UNL     1      -4.962   7.628  -3.868  1.00  0.00     0.000 C 
BRANCH  17  18
ATOM     18  C   UNL     1      -6.112   7.945  -4.839  1.00  0.00     0.000 C 
BRANCH  18  19
ATOM     19  C   UNL     1      -6.047   7.089  -6.115  1.00  0.00     0.000 C 
BRANCH  19  20
ATOM     20  C   UNL     1      -7.431   6.838  -6.732  1.00  0.00     0.000 C 
BRANCH  20  21
ATOM     21  C   UNL     1      -8.123   5.595  -6.152  1.00  0.00     0.000 C 
BRANCH  21  22
ATOM     22  C   UNL     1      -7.695   4.328  -6.906  1.00  0.00    -0.000 C 
BRANCH  22  23
ATOM     23  C   UNL     1      -7.460   4.574  -8.405  1.00  0.00    -0.000 C 
BRANCH  23  24
ATOM     24  C   UNL     1      -6.120   4.044  -8.949  1.00  0.00    -0.000 C 
BRANCH  24  25
ATOM     25  C   UNL     1      -6.173   2.577  -9.428  1.00  0.00    -0.000 C 
BRANCH  25  26
ATOM     26  C   UNL     1      -5.613   1.598  -8.380  1.00  0.00    -0.000 C 
BRANCH  26  27
ATOM     27  C   UNL     1      -4.381   0.825  -8.882  1.00  0.00    -0.000 C 
BRANCH  27  28
ATOM     28  C   UNL     1      -3.197   1.737  -9.274  1.00  0.00    -0.000 C 
BRANCH  28  29
ATOM     29  C   UNL     1      -1.856   0.992  -9.242  1.00  0.00    -0.003 C 
ATOM     30  C   UNL     1      -1.568   0.432  -7.850  1.00  0.00     0.004 C 
ENDBRANCH  28  29
ENDBRANCH  27  28
ENDBRANCH  26  27
ENDBRANCH  25  26
ENDBRANCH  24  25
ENDBRANCH  23  24
ENDBRANCH  22  23
ENDBRANCH  21  22
ENDBRANCH  20  21
ENDBRANCH  19  20
ENDBRANCH  18  19
ENDBRANCH  17  18
ENDBRANCH   1  17
TORSDOF 26
ENDMDL
MODEL 6
REMARK VINA RESULT:    -3.068      3.924      9.145
REMARK INTER + INTRA:         -12.094
REMARK INTER:                  -8.803
REMARK INTRA:                  -3.292
REMARK UNBOUND:                -4.363
REMARK SMILES CCCCCCCCCCCCCCCCCCCCCCCCCCCC(=O)[O-]
REMARK SMILES IDX 15 1 16 2 17 3 18 4 19 5 20 6 21 7 22 8 23 9 24 10 25 11
REMARK SMILES IDX 26 12 27 13 28 14 29 15 30 16 14 17 13 18 12 19 11 20 10 21
REMARK SMILES IDX 9 22 8 23 7 24 6 25 5 26 4 27 3 28 2 29 1 30
REMARK H PARENT
REMARK Flexibility Score: inf
ROOT
ATOM      1  C   UNL     1      -6.808  -0.505  -4.705  1.00  0.00     0.000 C 
ENDROOT
BRANCH   1   2
ATOM      2  C   UNL     1      -7.844   0.325  -5.471  1.00  0.00     0.000 C 
BRANCH   2   3
ATOM      3  C   UNL     1      -7.157   1.370  -6.361  1.00  0.00     0.000 C 
BRANCH   3   4
ATOM      4  C   UNL     1      -8.025   2.630  -6.563  1.00  0.00     0.000 C 
BRANCH   4   5
ATOM      5  C   UNL     1      -7.382   3.685  -7.480  1.00  0.00     0.000 C 
BRANCH   5   6
ATOM      6  C   UNL     1      -7.104   3.151  -8.894  1.00  0.00     0.000 C 
BRANCH   6   7
ATOM      7  C   UNL     1      -5.829   3.740  -9.525  1.00  0.00     0.000 C 
BRANCH   7   8
ATOM      8  C   UNL     1      -5.531   5.205  -9.159  1.00  0.00     0.000 C 
BRANCH   8   9
ATOM      9  C   UNL     1      -4.028   5.490  -8.991  1.00  0.00     0.000 C 
BRANCH   9  10
ATOM     10  C   UNL     1      -3.750   6.920  -8.504  1.00  0.00     0.000 C 
BRANCH  10  11
ATOM     11  C   UNL     1      -2.938   6.951  -7.195  1.00  0.00     0.000 C 
BRANCH  11  12
ATOM     12  C   UNL     1      -3.364   8.094  -6.260  1.00  0.00     0.006 C 
BRANCH  12  13
ATOM     13  C   UNL     1      -3.751   7.601  -4.856  1.00  0.00     0.053 C 
BRANCH  13  14
ATOM     14  C   UNL     1      -5.225   7.730  -4.624  1.00  0.00     0.041 C 
ATOM     15  O   UNL     1      -5.663   8.119  -3.508  1.00  0.00    -0.550 OA
ATOM     16  O   UNL     1      -6.115   7.467  -5.659  1.00  0.00    -0.550 OA
ENDBRANCH  13  14
ENDBRANCH  12  13
ENDBRANCH  11  12
ENDBRANCH  10  11
ENDBRANCH   9  10
ENDBRANCH   8   9
ENDBRANCH   7   8
ENDBRANCH   6   7
ENDBRANCH   5   6
ENDBRANCH   4   5
ENDBRANCH   3   4
ENDBRANCH   2   3
ENDBRANCH   1   2
BRANCH   1  17
ATOM     17  C   UNL     1      -5.380  -0.060  -5.050  1.00  0.00     0.000 C 
BRANCH  17  18
ATOM     18  C   UNL     1      -4.607  -1.132  -5.838  1.00  0.00     0.000 C 
BRANCH  18  19
ATOM     19  C   UNL     1      -3.599  -0.515  -6.822  1.00  0.00     0.000 C 
BRANCH  19  20
ATOM     20  C   UNL     1      -3.901  -0.877  -8.284  1.00  0.00     0.000 C 
BRANCH  20  21
ATOM     21  C   UNL     1      -4.520   0.290  -9.069  1.00  0.00     0.000 C 
BRANCH  21  22
ATOM     22  C   UNL     1      -5.914  -0.082  -9.594  1.00  0.00    -0.000 C 
BRANCH  22  23
ATOM     23  C   UNL     1      -6.228  -1.579  -9.448  1.00  0.00    -0.000 C 
BRANCH  23  24
ATOM     24  C   UNL     1      -7.435  -1.905  -8.547  1.00  0.00    -0.000 C 
BRANCH  24  25
ATOM     25  C   UNL     1      -7.721  -3.416  -8.402  1.00  0.00    -0.000 C 
BRANCH  25  26
ATOM     26  C   UNL     1      -6.773  -4.097  -7.400  1.00  0.00    -0.000 C 
BRANCH  26  27
ATOM     27  C   UNL     1      -5.588  -4.803  -8.082  1.00  0.00    -0.000 C 
BRANCH  27  28
ATOM     28  C   UNL     1      -5.219  -6.156  -7.433  1.00  0.00    -0.000 C 
BRANCH  28  29
ATOM     29  C   UNL     1      -6.128  -7.296  -7.914  1.00  0.00    -0.003 C 
ATOM     30  C   UNL     1      -7.138  -7.689  -6.838  1.00  0.00     0.004 C 
ENDBRANCH  28  29
ENDBRANCH  27  28
ENDBRANCH  26  27
ENDBRANCH  25  26
ENDBRANCH  24  25
ENDBRANCH  23  24
ENDBRANCH  22  23
ENDBRANCH  21  22
ENDBRANCH  20  21
ENDBRANCH  19  20
ENDBRANCH  18  19
ENDBRANCH  17  18
ENDBRANCH   1  17
TORSDOF 26
ENDMDL
MODEL 7
REMARK VINA RESULT:    -3.041      9.899     13.716
REMARK INTER + INTRA:         -12.026
REMARK INTER:                  -9.994
REMARK INTRA:                  -2.032
REMARK UNBOUND:                -4.363
REMARK SMILES CCCCCCCCCCCCCCCCCCCCCCCCCCCC(=O)[O-]
REMARK SMILES IDX 15 1 16 2 17 3 18 4 19 5 20 6 21 7 22 8 23 9 24 10 25 11
REMARK SMILES IDX 26 12 27 13 28 14 29 15 30 16 14 17 13 18 12 19 11 20 10 21
REMARK SMILES IDX 9 22 8 23 7 24 6 25 5 26 4 27 3 28 2 29 1 30
REMARK H PARENT
REMARK Flexibility Score: inf
ROOT
ATOM      1  C   UNL     1      -7.417  -0.388   4.566  1.00  0.00     0.000 C 
ENDROOT
BRANCH   1   2
ATOM      2  C   UNL     1      -6.901   0.885   3.887  1.00  0.00     0.000 C 
BRANCH   2   3
ATOM      3  C   UNL     1      -8.067   1.747   3.382  1.00  0.00     0.000 C 
BRANCH   3   4
ATOM      4  C   UNL     1      -8.125   1.812   1.842  1.00  0.00     0.000 C 
BRANCH   4   5
ATOM      5  C   UNL     1      -7.821   3.206   1.268  1.00  0.00     0.000 C 
BRANCH   5   6
ATOM      6  C   UNL     1      -8.121   3.308  -0.235  1.00  0.00     0.000 C 
BRANCH   6   7
ATOM      7  C   UNL     1      -7.348   4.441  -0.934  1.00  0.00     0.000 C 
BRANCH   7   8
ATOM      8  C   UNL     1      -6.502   5.329  -0.004  1.00  0.00     0.000 C 
BRANCH   8   9
ATOM      9  C   UNL     1      -6.770   6.832  -0.198  1.00  0.00     0.000 C 
BRANCH   9  10
ATOM     10  C   UNL     1      -6.860   7.229  -1.679  1.00  0.00     0.000 C 
BRANCH  10  11
ATOM     11  C   UNL     1      -5.529   7.023  -2.427  1.00  0.00     0.000 C 
BRANCH  11  12
ATOM     12  C   UNL     1      -5.540   7.638  -3.837  1.00  0.00     0.006 C 
BRANCH  12  13
ATOM     13  C   UNL     1      -4.130   7.798  -4.427  1.00  0.00     0.053 C 
BRANCH  13  14
ATOM     14  C   UNL     1      -4.128   7.542  -5.902  1.00  0.00     0.041 C 
ATOM     15  O   UNL     1      -5.193   7.639  -6.569  1.00  0.00    -0.550 OA
ATOM     16  O   UNL     1      -2.934   7.244  -6.551  1.00  0.00    -0.550 OA
ENDBRANCH  13  14
ENDBRANCH  12  13
ENDBRANCH  11  12
ENDBRANCH  10  11
ENDBRANCH   9  10
ENDBRANCH   8   9
ENDBRANCH   7   8
ENDBRANCH   6   7
ENDBRANCH   5   6
ENDBRANCH   4   5
ENDBRANCH   3   4
ENDBRANCH   2   3
ENDBRANCH   1   2
BRANCH   1  17
ATOM     17  C   UNL     1      -7.085  -1.633   3.730  1.00  0.00     0.000 C 
BRANCH  17  18
ATOM     18  C   UNL     1      -6.292  -2.680   4.529  1.00  0.00     0.000 C 
BRANCH  18  19
ATOM     19  C   UNL     1      -6.318  -2.398   6.042  1.00  0.00     0.000 C 
BRANCH  19  20
ATOM     20  C   UNL     1      -5.475  -3.399   6.846  1.00  0.00     0.000 C 
BRANCH  20  21
ATOM     21  C   UNL     1      -4.286  -2.736   7.558  1.00  0.00     0.000 C 
BRANCH  21  22
ATOM     22  C   UNL     1      -4.632  -1.302   7.983  1.00  0.00    -0.000 C 
BRANCH  22  23
ATOM     23  C   UNL     1      -4.947  -1.181   9.482  1.00  0.00    -0.000 C 
BRANCH  23  24
ATOM     24  C   UNL     1      -5.652   0.125   9.895  1.00  0.00    -0.000 C 
BRANCH  24  25
ATOM     25  C   UNL     1      -6.128   0.985   8.704  1.00  0.00    -0.000 C 
BRANCH  25  26
ATOM     26  C   UNL     1      -6.113   2.490   9.025  1.00  0.00    -0.000 C 
BRANCH  26  27
ATOM     27  C   UNL     1      -4.762   2.968   9.587  1.00  0.00    -0.000 C 
BRANCH  27  28
ATOM     28  C   UNL     1      -3.666   3.125   8.509  1.00  0.00    -0.000 C 
BRANCH  28  29
ATOM     29  C   UNL     1      -2.519   2.124   8.700  1.00  0.00    -0.003 C 
ATOM     30  C   UNL     1      -2.470   1.115   7.554  1.00  0.00     0.004 C 
ENDBRANCH  28  29
ENDBRANCH  27  28
ENDBRANCH  26  27
ENDBRANCH  25  26
ENDBRANCH  24  25
ENDBRANCH  23  24
ENDBRANCH  22  23
ENDBRANCH  21  22
ENDBRANCH  20  21
ENDBRANCH  19  20
ENDBRANCH  18  19
ENDBRANCH  17  18
ENDBRANCH   1  17
TORSDOF 26
ENDMDL
MODEL 8
REMARK VINA RESULT:    -2.965      2.664      5.265
REMARK INTER + INTRA:         -11.835
REMARK INTER:                  -8.564
REMARK INTRA:                  -3.271
REMARK UNBOUND:                -4.363
REMARK SMILES CCCCCCCCCCCCCCCCCCCCCCCCCCCC(=O)[O-]
REMARK SMILES IDX 15 1 16 2 17 3 18 4 19 5 20 6 21 7 22 8 23 9 24 10 25 11
REMARK SMILES IDX 26 12 27 13 28 14 29 15 30 16 14 17 13 18 12 19 11 20 10 21
REMARK SMILES IDX 9 22 8 23 7 24 6 25 5 26 4 27 3 28 2 29 1 30
REMARK H PARENT
REMARK Flexibility Score: inf
ROOT
ATOM      1  C   UNL     1      -4.745  -0.098  -5.486  1.00  0.00     0.000 C 
ENDROOT
BRANCH   1   2
ATOM      2  C   UNL     1      -4.170  -1.016  -6.570  1.00  0.00     0.000 C 
BRANCH   2   3
ATOM      3  C   UNL     1      -2.860  -0.444  -7.132  1.00  0.00     0.000 C 
BRANCH   3   4
ATOM      4  C   UNL     1      -2.729  -0.664  -8.654  1.00  0.00     0.000 C 
BRANCH   4   5
ATOM      5  C   UNL     1      -3.943  -0.166  -9.458  1.00  0.00     0.000 C 
BRANCH   5   6
ATOM      6  C   UNL     1      -4.127   1.356  -9.372  1.00  0.00     0.000 C 
BRANCH   6   7
ATOM      7  C   UNL     1      -5.594   1.779  -9.172  1.00  0.00     0.000 C 
BRANCH   7   8
ATOM      8  C   UNL     1      -6.547   0.656  -8.724  1.00  0.00     0.000 C 
BRANCH   8   9
ATOM      9  C   UNL     1      -7.406   0.102  -9.873  1.00  0.00     0.000 C 
BRANCH   9  10
ATOM     10  C   UNL     1      -7.485  -1.432  -9.864  1.00  0.00     0.000 C 
BRANCH  10  11
ATOM     11  C   UNL     1      -6.732  -2.055  -8.673  1.00  0.00     0.000 C 
BRANCH  11  12
ATOM     12  C   UNL     1      -7.463  -3.271  -8.080  1.00  0.00     0.006 C 
BRANCH  12  13
ATOM     13  C   UNL     1      -6.504  -4.407  -7.689  1.00  0.00     0.053 C 
BRANCH  13  14
ATOM     14  C   UNL     1      -5.945  -5.086  -8.901  1.00  0.00     0.041 C 
ATOM     15  O   UNL     1      -6.596  -5.997  -9.479  1.00  0.00    -0.550 OA
ATOM     16  O   UNL     1      -4.723  -4.676  -9.423  1.00  0.00    -0.550 OA
ENDBRANCH  13  14
ENDBRANCH  12  13
ENDBRANCH  11  12
ENDBRANCH  10  11
ENDBRANCH   9  10
ENDBRANCH   8   9
ENDBRANCH   7   8
ENDBRANCH   6   7
ENDBRANCH   5   6
ENDBRANCH   4   5
ENDBRANCH   3   4
ENDBRANCH   2   3
ENDBRANCH   1   2
BRANCH   1  17
ATOM     17  C   UNL     1      -6.240  -0.370  -5.268  1.00  0.00     0.000 C 
BRANCH  17  18
ATOM     18  C   UNL     1      -7.059   0.926  -5.149  1.00  0.00     0.000 C 
BRANCH  18  19
ATOM     19  C   UNL     1      -7.686   1.091  -3.754  1.00  0.00     0.000 C 
BRANCH  19  20
ATOM     20  C   UNL     1      -8.015   2.554  -3.420  1.00  0.00     0.000 C 
BRANCH  20  21
ATOM     21  C   UNL     1      -7.161   3.105  -2.267  1.00  0.00     0.000 C 
BRANCH  21  22
ATOM     22  C   UNL     1      -8.049   3.595  -1.114  1.00  0.00    -0.000 C 
BRANCH  22  23
ATOM     23  C   UNL     1      -7.360   3.495   0.256  1.00  0.00    -0.000 C 
BRANCH  23  24
ATOM     24  C   UNL     1      -7.306   4.811   1.054  1.00  0.00    -0.000 C 
BRANCH  24  25
ATOM     25  C   UNL     1      -7.504   6.077   0.191  1.00  0.00    -0.000 C 
BRANCH  25  26
ATOM     26  C   UNL     1      -6.168   6.696  -0.255  1.00  0.00    -0.000 C 
BRANCH  26  27
ATOM     27  C   UNL     1      -6.038   6.801  -1.785  1.00  0.00    -0.000 C 
BRANCH  27  28
ATOM     28  C   UNL     1      -7.384   7.042  -2.504  1.00  0.00    -0.000 C 
BRANCH  28  29
ATOM     29  C   UNL     1      -7.383   6.490  -3.936  1.00  0.00    -0.003 C 
ATOM     30  C   UNL     1      -6.577   7.387  -4.873  1.00  0.00     0.004 C 
ENDBRANCH  28  29
ENDBRANCH  27  28
ENDBRANCH  26  27
ENDBRANCH  25  26
ENDBRANCH  24  25
ENDBRANCH  23  24
ENDBRANCH  22  23
ENDBRANCH  21  22
ENDBRANCH  20  21
ENDBRANCH  19  20
ENDBRANCH  18  19
ENDBRANCH  17  18
ENDBRANCH   1  17
TORSDOF 26
ENDMDL
MODEL 9
REMARK VINA RESULT:    -2.893      3.849      9.584
REMARK INTER + INTRA:         -11.653
REMARK INTER:                  -8.666
REMARK INTRA:                  -2.987
REMARK UNBOUND:                -4.363
REMARK SMILES CCCCCCCCCCCCCCCCCCCCCCCCCCCC(=O)[O-]
REMARK SMILES IDX 15 1 16 2 17 3 18 4 19 5 20 6 21 7 22 8 23 9 24 10 25 11
REMARK SMILES IDX 26 12 27 13 28 14 29 15 30 16 14 17 13 18 12 19 11 20 10 21
REMARK SMILES IDX 9 22 8 23 7 24 6 25 5 26 4 27 3 28 2 29 1 30
REMARK H PARENT
REMARK Flexibility Score: inf
ROOT
ATOM      1  C   UNL     1      -2.364  -1.176  -7.607  1.00  0.00     0.000 C 
ENDROOT
BRANCH   1   2
ATOM      2  C   UNL     1      -1.920   0.283  -7.755  1.00  0.00     0.000 C 
BRANCH   2   3
ATOM      3  C   UNL     1      -2.008   0.736  -9.220  1.00  0.00     0.000 C 
BRANCH   3   4
ATOM      4  C   UNL     1      -3.237   1.630  -9.484  1.00  0.00     0.000 C 
BRANCH   4   5
ATOM      5  C   UNL     1      -2.880   3.059  -9.930  1.00  0.00     0.000 C 
BRANCH   5   6
ATOM      6  C   UNL     1      -4.062   4.032  -9.807  1.00  0.00     0.000 C 
BRANCH   6   7
ATOM      7  C   UNL     1      -5.376   3.342  -9.397  1.00  0.00     0.000 C 
BRANCH   7   8
ATOM      8  C   UNL     1      -6.622   4.246  -9.406  1.00  0.00     0.000 C 
BRANCH   8   9
ATOM      9  C   UNL     1      -6.879   4.931  -8.053  1.00  0.00     0.000 C 
BRANCH   9  10
ATOM     10  C   UNL     1      -6.668   6.451  -8.112  1.00  0.00     0.000 C 
BRANCH  10  11
ATOM     11  C   UNL     1      -5.943   6.996  -6.867  1.00  0.00     0.000 C 
BRANCH  11  12
ATOM     12  C   UNL     1      -4.848   8.016  -7.217  1.00  0.00     0.006 C 
BRANCH  12  13
ATOM     13  C   UNL     1      -4.187   7.736  -8.577  1.00  0.00     0.053 C 
BRANCH  13  14
ATOM     14  C   UNL     1      -2.777   7.263  -8.407  1.00  0.00     0.041 C 
ATOM     15  O   UNL     1      -1.829   7.857  -8.988  1.00  0.00    -0.550 OA
ATOM     16  O   UNL     1      -2.503   6.191  -7.563  1.00  0.00    -0.550 OA
ENDBRANCH  13  14
ENDBRANCH  12  13
ENDBRANCH  11  12
ENDBRANCH  10  11
ENDBRANCH   9  10
ENDBRANCH   8   9
ENDBRANCH   7   8
ENDBRANCH   6   7
ENDBRANCH   5   6
ENDBRANCH   4   5
ENDBRANCH   3   4
ENDBRANCH   2   3
ENDBRANCH   1   2
BRANCH   1  17
ATOM     17  C   UNL     1      -3.895  -1.287  -7.580  1.00  0.00     0.000 C 
BRANCH  17  18
ATOM     18  C   UNL     1      -4.528  -0.390  -6.503  1.00  0.00     0.000 C 
BRANCH  18  19
ATOM     19  C   UNL     1      -5.683   0.461  -7.060  1.00  0.00     0.000 C 
BRANCH  19  20
ATOM     20  C   UNL     1      -7.021   0.173  -6.364  1.00  0.00     0.000 C 
BRANCH  20  21
ATOM     21  C   UNL     1      -7.065  -1.219  -5.715  1.00  0.00     0.000 C 
BRANCH  21  22
ATOM     22  C   UNL     1      -8.083  -2.123  -6.426  1.00  0.00    -0.000 C 
BRANCH  22  23
ATOM     23  C   UNL     1      -7.886  -2.162  -7.950  1.00  0.00    -0.000 C 
BRANCH  23  24
ATOM     24  C   UNL     1      -6.801  -3.140  -8.440  1.00  0.00    -0.000 C 
BRANCH  24  25
ATOM     25  C   UNL     1      -6.618  -4.378  -7.535  1.00  0.00    -0.000 C 
BRANCH  25  26
ATOM     26  C   UNL     1      -5.177  -4.918  -7.566  1.00  0.00    -0.000 C 
BRANCH  26  27
ATOM     27  C   UNL     1      -5.105  -6.444  -7.377  1.00  0.00    -0.000 C 
BRANCH  27  28
ATOM     28  C   UNL     1      -6.486  -7.105  -7.170  1.00  0.00    -0.000 C 
BRANCH  28  29
ATOM     29  C   UNL     1      -6.381  -8.629  -7.014  1.00  0.00    -0.003 C 
ATOM     30  C   UNL     1      -7.138  -9.111  -5.779  1.00  0.00     0.004 C 
ENDBRANCH  28  29
ENDBRANCH  27  28
ENDBRANCH  26  27
ENDBRANCH  25  26
ENDBRANCH  24  25
ENDBRANCH  23  24
ENDBRANCH  22  23
ENDBRANCH  21  22
ENDBRANCH  20  21
ENDBRANCH  19  20
ENDBRANCH  18  19
ENDBRANCH  17  18
ENDBRANCH   1  17
TORSDOF 26
ENDMDL
