MODEL 1
REMARK VINA RESULT:    25.823      0.000      0.000
REMARK INTER + INTRA:          60.327
REMARK INTER:                  59.034
REMARK INTRA:                   1.293
REMARK UNBOUND:                 1.293
REMARK SMILES CCCCCCCCCCCCCCCCCCCCCCCC(=O)[O-]
REMARK SMILES IDX 13 1 14 2 15 3 16 4 17 5 18 6 19 7 20 8 21 9 22 10 23 11
REMARK SMILES IDX 24 12 25 13 26 14 12 15 11 16 10 17 9 18 8 19 7 20 6 21 5 22
REMARK SMILES IDX 4 23 3 24 2 25 1 26
REMARK H PARENT
REMARK Flexibility Score: inf
ROOT
ATOM      1  C   UNL     1      10.554   6.345   8.398  1.00  0.00     0.000 C 
ENDROOT
BRANCH   1   2
ATOM      2  C   UNL     1      10.376   5.739   9.795  1.00  0.00     0.000 C 
BRANCH   2   3
ATOM      3  C   UNL     1       9.873   4.290   9.710  1.00  0.00     0.000 C 
BRANCH   3   4
ATOM      4  C   UNL     1      10.856   3.368   8.971  1.00  0.00     0.000 C 
BRANCH   4   5
ATOM      5  C   UNL     1      10.142   2.258   8.178  1.00  0.00     0.000 C 
BRANCH   5   6
ATOM      6  C   UNL     1      11.127   1.333   7.446  1.00  0.00     0.000 C 
BRANCH   6   7
ATOM      7  C   UNL     1      11.518   0.106   8.291  1.00  0.00     0.000 C 
BRANCH   7   8
ATOM      8  C   UNL     1      12.556  -0.788   7.595  1.00  0.00     0.000 C 
BRANCH   8   9
ATOM      9  C   UNL     1      12.076  -2.222   7.297  1.00  0.00     0.000 C 
BRANCH   9  10
ATOM     10  C   UNL     1      12.224  -3.189   8.492  1.00  0.00     0.006 C 
BRANCH  10  11
ATOM     11  C   UNL     1      10.958  -4.023   8.725  1.00  0.00     0.053 C 
BRANCH  11  12
ATOM     12  C   UNL     1      11.246  -5.479   8.530  1.00  0.00     0.041 C 
ATOM     13  O   UNL     1      10.982  -6.037   7.432  1.00  0.00    -0.550 OA
ATOM     14  O   UNL     1      11.765  -6.230   9.576  1.00  0.00    -0.550 OA
ENDBRANCH  11  12
ENDBRANCH  10  11
ENDBRANCH   9  10
ENDBRANCH   8   9
ENDBRANCH   7   8
ENDBRANCH   6   7
ENDBRANCH   5   6
ENDBRANCH   4   5
ENDBRANCH   3   4
ENDBRANCH   2   3
ENDBRANCH   1   2
BRANCH   1  15
ATOM     15  C   UNL     1      11.866   5.868   7.758  1.00  0.00     0.000 C 
BRANCH  15  16
ATOM     16  C   UNL     1      13.106   6.527   8.384  1.00  0.00     0.000 C 
BRANCH  16  17
ATOM     17  C   UNL     1      14.305   6.560   7.425  1.00  0.00     0.000 C 
BRANCH  17  18
ATOM     18  C   UNL     1      15.171   5.304   7.588  1.00  0.00    -0.000 C 
BRANCH  18  19
ATOM     19  C   UNL     1      16.249   5.232   6.497  1.00  0.00    -0.000 C 
BRANCH  19  20
ATOM     20  C   UNL     1      17.669   5.121   7.072  1.00  0.00    -0.000 C 
BRANCH  20  21
ATOM     21  C   UNL     1      17.782   5.698   8.494  1.00  0.00    -0.000 C 
BRANCH  21  22
ATOM     22  C   UNL     1      16.738   6.803   8.759  1.00  0.00    -0.000 C 
BRANCH  22  23
ATOM     23  C   UNL     1      16.824   7.403  10.172  1.00  0.00    -0.000 C 
BRANCH  23  24
ATOM     24  C   UNL     1      17.993   8.382  10.335  1.00  0.00    -0.000 C 
BRANCH  24  25
ATOM     25  C   UNL     1      18.125   9.289   9.106  1.00  0.00    -0.003 C 
ATOM     26  C   UNL     1      17.892  10.752   9.474  1.00  0.00     0.004 C 
ENDBRANCH  24  25
ENDBRANCH  23  24
ENDBRANCH  22  23
ENDBRANCH  21  22
ENDBRANCH  20  21
ENDBRANCH  19  20
ENDBRANCH  18  19
ENDBRANCH  17  18
ENDBRANCH  16  17
ENDBRANCH  15  16
ENDBRANCH   1  15
TORSDOF 22
ENDMDL
MODEL 2
REMARK VINA RESULT:    26.244      2.344      3.058
REMARK INTER + INTRA:          61.291
REMARK INTER:                  61.362
REMARK INTRA:                  -0.071
REMARK UNBOUND:                 1.293
REMARK SMILES CCCCCCCCCCCCCCCCCCCCCCCC(=O)[O-]
REMARK SMILES IDX 13 1 14 2 15 3 16 4 17 5 18 6 19 7 20 8 21 9 22 10 23 11
REMARK SMILES IDX 24 12 25 13 26 14 12 15 11 16 10 17 9 18 8 19 7 20 6 21 5 22
REMARK SMILES IDX 4 23 3 24 2 25 1 26
REMARK H PARENT
REMARK Flexibility Score: inf
ROOT
ATOM      1  C   UNL     1      10.688   5.603   9.128  1.00  0.00     0.000 C 
ENDROOT
BRANCH   1   2
ATOM      2  C   UNL     1      10.078   4.236   8.797  1.00  0.00     0.000 C 
BRANCH   2   3
ATOM      3  C   UNL     1      10.977   3.094   9.293  1.00  0.00     0.000 C 
BRANCH   3   4
ATOM      4  C   UNL     1      10.385   1.707   8.997  1.00  0.00     0.000 C 
BRANCH   4   5
ATOM      5  C   UNL     1      11.045   1.029   7.783  1.00  0.00     0.000 C 
BRANCH   5   6
ATOM      6  C   UNL     1      11.183  -0.491   7.962  1.00  0.00     0.000 C 
BRANCH   6   7
ATOM      7  C   UNL     1      12.585  -0.899   8.451  1.00  0.00     0.000 C 
BRANCH   7   8
ATOM      8  C   UNL     1      12.932  -2.357   8.110  1.00  0.00     0.000 C 
BRANCH   8   9
ATOM      9  C   UNL     1      14.441  -2.665   8.061  1.00  0.00     0.000 C 
BRANCH   9  10
ATOM     10  C   UNL     1      15.083  -2.855   9.452  1.00  0.00     0.006 C 
BRANCH  10  11
ATOM     11  C   UNL     1      15.467  -4.316   9.721  1.00  0.00     0.053 C 
BRANCH  11  12
ATOM     12  C   UNL     1      16.800  -4.628   9.116  1.00  0.00     0.041 C 
ATOM     13  O   UNL     1      17.591  -5.418   9.697  1.00  0.00    -0.550 OA
ATOM     14  O   UNL     1      17.187  -4.014   7.933  1.00  0.00    -0.550 OA
ENDBRANCH  11  12
ENDBRANCH  10  11
ENDBRANCH   9  10
ENDBRANCH   8   9
ENDBRANCH   7   8
ENDBRANCH   6   7
ENDBRANCH   5   6
ENDBRANCH   4   5
ENDBRANCH   3   4
ENDBRANCH   2   3
ENDBRANCH   1   2
BRANCH   1  15
ATOM     15  C   UNL     1      11.762   5.987   8.099  1.00  0.00     0.000 C 
BRANCH  15  16
ATOM     16  C   UNL     1      11.360   7.200   7.246  1.00  0.00     0.000 C 
BRANCH  16  17
ATOM     17  C   UNL     1      12.558   8.086   6.874  1.00  0.00     0.000 C 
BRANCH  17  18
ATOM     18  C   UNL     1      13.724   7.866   7.846  1.00  0.00    -0.000 C 
BRANCH  18  19
ATOM     19  C   UNL     1      14.762   6.901   7.253  1.00  0.00    -0.000 C 
BRANCH  19  20
ATOM     20  C   UNL     1      14.596   5.463   7.766  1.00  0.00    -0.000 C 
BRANCH  20  21
ATOM     21  C   UNL     1      15.927   4.691   7.814  1.00  0.00    -0.000 C 
BRANCH  21  22
ATOM     22  C   UNL     1      17.058   5.436   7.074  1.00  0.00    -0.000 C 
BRANCH  22  23
ATOM     23  C   UNL     1      18.123   6.024   8.014  1.00  0.00    -0.000 C 
BRANCH  23  24
ATOM     24  C   UNL     1      17.587   6.300   9.425  1.00  0.00    -0.000 C 
BRANCH  24  25
ATOM     25  C   UNL     1      16.976   7.703   9.516  1.00  0.00    -0.003 C 
ATOM     26  C   UNL     1      18.006   8.723   9.991  1.00  0.00     0.004 C 
ENDBRANCH  24  25
ENDBRANCH  23  24
ENDBRANCH  22  23
ENDBRANCH  21  22
ENDBRANCH  20  21
ENDBRANCH  19  20
ENDBRANCH  18  19
ENDBRANCH  17  18
ENDBRANCH  16  17
ENDBRANCH  15  16
ENDBRANCH   1  15
TORSDOF 22
ENDMDL
MODEL 3
REMARK VINA RESULT:    26.527      4.634     10.938
REMARK INTER + INTRA:          61.937
REMARK INTER:                  62.291
REMARK INTRA:                  -0.354
REMARK UNBOUND:                 1.293
REMARK SMILES CCCCCCCCCCCCCCCCCCCCCCCC(=O)[O-]
REMARK SMILES IDX 13 1 14 2 15 3 16 4 17 5 18 6 19 7 20 8 21 9 22 10 23 11
REMARK SMILES IDX 24 12 25 13 26 14 12 15 11 16 10 17 9 18 8 19 7 20 6 21 5 22
REMARK SMILES IDX 4 23 3 24 2 25 1 26
REMARK H PARENT
REMARK Flexibility Score: inf
ROOT
ATOM      1  C   UNL     1      10.610   3.275   9.048  1.00  0.00     0.000 C 
ENDROOT
BRANCH   1   2
ATOM      2  C   UNL     1      10.204   3.673   7.624  1.00  0.00     0.000 C 
BRANCH   2   3
ATOM      3  C   UNL     1      10.800   5.036   7.239  1.00  0.00     0.000 C 
BRANCH   3   4
ATOM      4  C   UNL     1      11.757   5.585   8.309  1.00  0.00     0.000 C 
BRANCH   4   5
ATOM      5  C   UNL     1      12.188   7.035   8.027  1.00  0.00     0.000 C 
BRANCH   5   6
ATOM      6  C   UNL     1      13.587   7.119   7.396  1.00  0.00     0.000 C 
BRANCH   6   7
ATOM      7  C   UNL     1      14.594   6.173   8.074  1.00  0.00     0.000 C 
BRANCH   7   8
ATOM      8  C   UNL     1      15.620   5.590   7.088  1.00  0.00     0.000 C 
BRANCH   8   9
ATOM      9  C   UNL     1      17.091   5.892   7.434  1.00  0.00     0.000 C 
BRANCH   9  10
ATOM     10  C   UNL     1      17.372   5.962   8.950  1.00  0.00     0.006 C 
BRANCH  10  11
ATOM     11  C   UNL     1      18.121   7.241   9.344  1.00  0.00     0.053 C 
BRANCH  11  12
ATOM     12  C   UNL     1      17.153   8.330   9.690  1.00  0.00     0.041 C 
ATOM     13  O   UNL     1      15.970   8.047  10.017  1.00  0.00    -0.550 OA
ATOM     14  O   UNL     1      17.546   9.659   9.611  1.00  0.00    -0.550 OA
ENDBRANCH  11  12
ENDBRANCH  10  11
ENDBRANCH   9  10
ENDBRANCH   8   9
ENDBRANCH   7   8
ENDBRANCH   6   7
ENDBRANCH   5   6
ENDBRANCH   4   5
ENDBRANCH   3   4
ENDBRANCH   2   3
ENDBRANCH   1   2
BRANCH   1  15
ATOM     15  C   UNL     1      11.295   1.901   9.059  1.00  0.00     0.000 C 
BRANCH  15  16
ATOM     16  C   UNL     1      11.175   1.168   7.713  1.00  0.00     0.000 C 
BRANCH  16  17
ATOM     17  C   UNL     1      11.247  -0.358   7.862  1.00  0.00     0.000 C 
BRANCH  17  18
ATOM     18  C   UNL     1      12.586  -0.787   8.477  1.00  0.00    -0.000 C 
BRANCH  18  19
ATOM     19  C   UNL     1      12.684  -2.316   8.571  1.00  0.00    -0.000 C 
BRANCH  19  20
ATOM     20  C   UNL     1      11.365  -3.019   8.215  1.00  0.00    -0.000 C 
BRANCH  20  21
ATOM     21  C   UNL     1      11.132  -4.299   9.036  1.00  0.00    -0.000 C 
BRANCH  21  22
ATOM     22  C   UNL     1      11.278  -5.575   8.180  1.00  0.00    -0.000 C 
BRANCH  22  23
ATOM     23  C   UNL     1      11.965  -6.734   8.920  1.00  0.00    -0.000 C 
BRANCH  23  24
ATOM     24  C   UNL     1      11.247  -7.124  10.218  1.00  0.00    -0.000 C 
BRANCH  24  25
ATOM     25  C   UNL     1      11.183  -5.939  11.188  1.00  0.00    -0.003 C 
ATOM     26  C   UNL     1      11.874  -6.269  12.508  1.00  0.00     0.004 C 
ENDBRANCH  24  25
ENDBRANCH  23  24
ENDBRANCH  22  23
ENDBRANCH  21  22
ENDBRANCH  20  21
ENDBRANCH  19  20
ENDBRANCH  18  19
ENDBRANCH  17  18
ENDBRANCH  16  17
ENDBRANCH  15  16
ENDBRANCH   1  15
TORSDOF 22
ENDMDL
MODEL 4
REMARK VINA RESULT:    26.954      2.566      4.085
REMARK INTER + INTRA:          62.913
REMARK INTER:                  63.152
REMARK INTRA:                  -0.239
REMARK UNBOUND:                 1.293
REMARK SMILES CCCCCCCCCCCCCCCCCCCCCCCC(=O)[O-]
REMARK SMILES IDX 13 1 14 2 15 3 16 4 17 5 18 6 19 7 20 8 21 9 22 10 23 11
REMARK SMILES IDX 24 12 25 13 26 14 12 15 11 16 10 17 9 18 8 19 7 20 6 21 5 22
REMARK SMILES IDX 4 23 3 24 2 25 1 26
REMARK H PARENT
REMARK Flexibility Score: inf
ROOT
ATOM      1  C   UNL     1      10.612   2.388   9.597  1.00  0.00     0.000 C 
ENDROOT
BRANCH   1   2
ATOM      2  C   UNL     1      11.222   2.025   8.238  1.00  0.00     0.000 C 
BRANCH   2   3
ATOM      3  C   UNL     1      10.234   1.215   7.386  1.00  0.00     0.000 C 
BRANCH   3   4
ATOM      4  C   UNL     1      10.854  -0.078   6.833  1.00  0.00     0.000 C 
BRANCH   4   5
ATOM      5  C   UNL     1      11.687  -0.830   7.887  1.00  0.00     0.000 C 
BRANCH   5   6
ATOM      6  C   UNL     1      11.425  -2.345   7.871  1.00  0.00     0.000 C 
BRANCH   6   7
ATOM      7  C   UNL     1      12.720  -3.166   8.001  1.00  0.00     0.000 C 
BRANCH   7   8
ATOM      8  C   UNL     1      13.079  -3.483   9.462  1.00  0.00     0.000 C 
BRANCH   8   9
ATOM      9  C   UNL     1      14.588  -3.474   9.772  1.00  0.00     0.000 C 
BRANCH   9  10
ATOM     10  C   UNL     1      15.408  -4.451   8.903  1.00  0.00     0.006 C 
BRANCH  10  11
ATOM     11  C   UNL     1      16.919  -4.287   9.112  1.00  0.00     0.053 C 
BRANCH  11  12
ATOM     12  C   UNL     1      17.583  -5.625   9.215  1.00  0.00     0.041 C 
ATOM     13  O   UNL     1      17.647  -6.381   8.209  1.00  0.00    -0.550 OA
ATOM     14  O   UNL     1      18.093  -6.055  10.432  1.00  0.00    -0.550 OA
ENDBRANCH  11  12
ENDBRANCH  10  11
ENDBRANCH   9  10
ENDBRANCH   8   9
ENDBRANCH   7   8
ENDBRANCH   6   7
ENDBRANCH   5   6
ENDBRANCH   4   5
ENDBRANCH   3   4
ENDBRANCH   2   3
ENDBRANCH   1   2
BRANCH   1  15
ATOM     15  C   UNL     1      10.143   3.850   9.614  1.00  0.00     0.000 C 
BRANCH  15  16
ATOM     16  C   UNL     1      10.532   4.613   8.337  1.00  0.00     0.000 C 
BRANCH  16  17
ATOM     17  C   UNL     1      10.517   6.136   8.530  1.00  0.00     0.000 C 
BRANCH  17  18
ATOM     18  C   UNL     1      11.945   6.691   8.614  1.00  0.00    -0.000 C 
BRANCH  18  19
ATOM     19  C   UNL     1      12.866   5.999   7.599  1.00  0.00    -0.000 C 
BRANCH  19  20
ATOM     20  C   UNL     1      14.298   6.556   7.621  1.00  0.00    -0.000 C 
BRANCH  20  21
ATOM     21  C   UNL     1      15.352   5.476   7.922  1.00  0.00    -0.000 C 
BRANCH  21  22
ATOM     22  C   UNL     1      16.479   5.454   6.867  1.00  0.00    -0.000 C 
BRANCH  22  23
ATOM     23  C   UNL     1      17.853   5.081   7.447  1.00  0.00    -0.000 C 
BRANCH  23  24
ATOM     24  C   UNL     1      18.116   5.717   8.818  1.00  0.00    -0.000 C 
BRANCH  24  25
ATOM     25  C   UNL     1      17.475   7.106   8.911  1.00  0.00    -0.003 C 
ATOM     26  C   UNL     1      16.721   7.279  10.226  1.00  0.00     0.004 C 
ENDBRANCH  24  25
ENDBRANCH  23  24
ENDBRANCH  22  23
ENDBRANCH  21  22
ENDBRANCH  20  21
ENDBRANCH  19  20
ENDBRANCH  18  19
ENDBRANCH  17  18
ENDBRANCH  16  17
ENDBRANCH  15  16
ENDBRANCH   1  15
TORSDOF 22
ENDMDL
MODEL 5
REMARK VINA RESULT:    28.504      4.990      9.903
REMARK INTER + INTRA:          66.456
REMARK INTER:                  65.286
REMARK INTRA:                   1.169
REMARK UNBOUND:                 1.293
REMARK SMILES CCCCCCCCCCCCCCCCCCCCCCCC(=O)[O-]
REMARK SMILES IDX 13 1 14 2 15 3 16 4 17 5 18 6 19 7 20 8 21 9 22 10 23 11
REMARK SMILES IDX 24 12 25 13 26 14 12 15 11 16 10 17 9 18 8 19 7 20 6 21 5 22
REMARK SMILES IDX 4 23 3 24 2 25 1 26
REMARK H PARENT
REMARK Flexibility Score: inf
ROOT
ATOM      1  C   UNL     1      10.086   2.248   7.515  1.00  0.00     0.000 C 
ENDROOT
BRANCH   1   2
ATOM      2  C   UNL     1      10.305   3.490   6.643  1.00  0.00     0.000 C 
BRANCH   2   3
ATOM      3  C   UNL     1      11.124   4.553   7.390  1.00  0.00     0.000 C 
BRANCH   3   4
ATOM      4  C   UNL     1      10.309   5.269   8.478  1.00  0.00     0.000 C 
BRANCH   4   5
ATOM      5  C   UNL     1      11.076   6.442   9.116  1.00  0.00     0.000 C 
BRANCH   5   6
ATOM      6  C   UNL     1      12.418   6.715   8.417  1.00  0.00     0.000 C 
BRANCH   6   7
ATOM      7  C   UNL     1      13.139   5.418   8.005  1.00  0.00     0.000 C 
BRANCH   7   8
ATOM      8  C   UNL     1      14.528   5.677   7.400  1.00  0.00     0.000 C 
BRANCH   8   9
ATOM      9  C   UNL     1      15.710   5.230   8.282  1.00  0.00     0.000 C 
BRANCH   9  10
ATOM     10  C   UNL     1      17.071   5.807   7.838  1.00  0.00     0.006 C 
BRANCH  10  11
ATOM     11  C   UNL     1      17.800   6.522   8.983  1.00  0.00     0.053 C 
BRANCH  11  12
ATOM     12  C   UNL     1      16.956   7.629   9.534  1.00  0.00     0.041 C 
ATOM     13  O   UNL     1      15.879   7.948   8.965  1.00  0.00    -0.550 OA
ATOM     14  O   UNL     1      17.381   8.336  10.651  1.00  0.00    -0.550 OA
ENDBRANCH  11  12
ENDBRANCH  10  11
ENDBRANCH   9  10
ENDBRANCH   8   9
ENDBRANCH   7   8
ENDBRANCH   6   7
ENDBRANCH   5   6
ENDBRANCH   4   5
ENDBRANCH   3   4
ENDBRANCH   2   3
ENDBRANCH   1   2
BRANCH   1  15
ATOM     15  C   UNL     1      11.378   1.859   8.248  1.00  0.00     0.000 C 
BRANCH  15  16
ATOM     16  C   UNL     1      11.404   0.378   8.660  1.00  0.00     0.000 C 
BRANCH  16  17
ATOM     17  C   UNL     1      10.834  -0.548   7.575  1.00  0.00     0.000 C 
BRANCH  17  18
ATOM     18  C   UNL     1      11.717  -1.788   7.394  1.00  0.00    -0.000 C 
BRANCH  18  19
ATOM     19  C   UNL     1      12.912  -1.759   8.359  1.00  0.00    -0.000 C 
BRANCH  19  20
ATOM     20  C   UNL     1      13.579  -3.134   8.518  1.00  0.00    -0.000 C 
BRANCH  20  21
ATOM     21  C   UNL     1      15.083  -3.034   8.827  1.00  0.00    -0.000 C 
BRANCH  21  22
ATOM     22  C   UNL     1      15.613  -4.289   9.553  1.00  0.00    -0.000 C 
BRANCH  22  23
ATOM     23  C   UNL     1      17.134  -4.269   9.780  1.00  0.00    -0.000 C 
BRANCH  23  24
ATOM     24  C   UNL     1      17.809  -5.597   9.413  1.00  0.00    -0.000 C 
BRANCH  24  25
ATOM     25  C   UNL     1      17.399  -6.051   8.008  1.00  0.00    -0.003 C 
ATOM     26  C   UNL     1      18.124  -5.246   6.934  1.00  0.00     0.004 C 
ENDBRANCH  24  25
ENDBRANCH  23  24
ENDBRANCH  22  23
ENDBRANCH  21  22
ENDBRANCH  20  21
ENDBRANCH  19  20
ENDBRANCH  18  19
ENDBRANCH  17  18
ENDBRANCH  16  17
ENDBRANCH  15  16
ENDBRANCH   1  15
TORSDOF 22
ENDMDL
MODEL 6
REMARK VINA RESULT:    28.569      6.563     10.050
REMARK INTER + INTRA:          66.606
REMARK INTER:                  66.221
REMARK INTRA:                   0.385
REMARK UNBOUND:                 1.293
REMARK SMILES CCCCCCCCCCCCCCCCCCCCCCCC(=O)[O-]
REMARK SMILES IDX 13 1 14 2 15 3 16 4 17 5 18 6 19 7 20 8 21 9 22 10 23 11
REMARK SMILES IDX 24 12 25 13 26 14 12 15 11 16 10 17 9 18 8 19 7 20 6 21 5 22
REMARK SMILES IDX 4 23 3 24 2 25 1 26
REMARK H PARENT
REMARK Flexibility Score: inf
ROOT
ATOM      1  C   UNL     1      17.215   8.045  12.919  1.00  0.00     0.000 C 
ENDROOT
BRANCH   1   2
ATOM      2  C   UNL     1      18.097   7.770  11.695  1.00  0.00     0.000 C 
BRANCH   2   3
ATOM      3  C   UNL     1      17.602   8.552  10.469  1.00  0.00     0.000 C 
BRANCH   3   4
ATOM      4  C   UNL     1      16.739   7.694   9.532  1.00  0.00     0.000 C 
BRANCH   4   5
ATOM      5  C   UNL     1      17.281   6.262   9.375  1.00  0.00     0.000 C 
BRANCH   5   6
ATOM      6  C   UNL     1      17.315   5.804   7.908  1.00  0.00     0.000 C 
BRANCH   6   7
ATOM      7  C   UNL     1      15.907   5.539   7.344  1.00  0.00     0.000 C 
BRANCH   7   8
ATOM      8  C   UNL     1      14.790   5.977   8.305  1.00  0.00     0.000 C 
BRANCH   8   9
ATOM      9  C   UNL     1      13.960   7.182   7.821  1.00  0.00     0.000 C 
BRANCH   9  10
ATOM     10  C   UNL     1      12.451   6.883   7.685  1.00  0.00     0.006 C 
BRANCH  10  11
ATOM     11  C   UNL     1      12.166   5.383   7.540  1.00  0.00     0.053 C 
BRANCH  11  12
ATOM     12  C   UNL     1      10.717   5.098   7.786  1.00  0.00     0.041 C 
ATOM     13  O   UNL     1      10.051   4.432   6.950  1.00  0.00    -0.550 OA
ATOM     14  O   UNL     1      10.093   5.604   8.918  1.00  0.00    -0.550 OA
ENDBRANCH  11  12
ENDBRANCH  10  11
ENDBRANCH   9  10
ENDBRANCH   8   9
ENDBRANCH   7   8
ENDBRANCH   6   7
ENDBRANCH   5   6
ENDBRANCH   4   5
ENDBRANCH   3   4
ENDBRANCH   2   3
ENDBRANCH   1   2
BRANCH   1  15
ATOM     15  C   UNL     1      18.010   7.861  14.220  1.00  0.00     0.000 C 
BRANCH  15  16
ATOM     16  C   UNL     1      17.322   6.903  15.205  1.00  0.00     0.000 C 
BRANCH  16  17
ATOM     17  C   UNL     1      18.120   6.718  16.505  1.00  0.00     0.000 C 
BRANCH  17  18
ATOM     18  C   UNL     1      17.429   5.711  17.433  1.00  0.00    -0.000 C 
BRANCH  18  19
ATOM     19  C   UNL     1      16.492   6.423  18.419  1.00  0.00    -0.000 C 
BRANCH  19  20
ATOM     20  C   UNL     1      15.213   5.622  18.706  1.00  0.00    -0.000 C 
BRANCH  20  21
ATOM     21  C   UNL     1      15.031   4.428  17.753  1.00  0.00    -0.000 C 
BRANCH  21  22
ATOM     22  C   UNL     1      13.561   3.963  17.675  1.00  0.00    -0.000 C 
BRANCH  22  23
ATOM     23  C   UNL     1      12.672   4.553  18.783  1.00  0.00    -0.000 C 
BRANCH  23  24
ATOM     24  C   UNL     1      12.961   3.950  20.164  1.00  0.00    -0.000 C 
BRANCH  24  25
ATOM     25  C   UNL     1      12.138   2.677  20.390  1.00  0.00    -0.003 C 
ATOM     26  C   UNL     1      11.684   2.071  19.065  1.00  0.00     0.004 C 
ENDBRANCH  24  25
ENDBRANCH  23  24
ENDBRANCH  22  23
ENDBRANCH  21  22
ENDBRANCH  20  21
ENDBRANCH  19  20
ENDBRANCH  18  19
ENDBRANCH  17  18
ENDBRANCH  16  17
ENDBRANCH  15  16
ENDBRANCH   1  15
TORSDOF 22
ENDMDL
