MODEL 1
REMARK VINA RESULT:    -5.617      0.000      0.000
REMARK INTER + INTRA:          -6.805
REMARK INTER:                  -6.766
REMARK INTRA:                  -0.039
REMARK UNBOUND:                -0.039
REMARK SMILES O=c1c(O)c(-c2ccc(O)c(O)c2)oc2cc(O)cc(O)c12
REMARK SMILES IDX 5 1 3 2 2 3 1 4 22 5 20 6 19 7 17 8 16 9 15 10 14 11 6 12
REMARK SMILES IDX 7 13 8 14 9 15 13 16 11 17 10 18 12 20 4 22 21 24 18 26
REMARK H PARENT 10 19 12 21 4 23 21 25 18 27
REMARK Flexibility Score: inf
ROOT
ATOM      1  C   UNL     1      14.211 -17.152  20.107  1.00  0.00     0.180 A 
ATOM      2  C   UNL     1      15.044 -17.876  20.978  1.00  0.00     0.208 A 
ATOM      3  C   UNL     1      16.293 -17.337  21.330  1.00  0.00     0.238 A 
ATOM      4  O   UNL     1      17.057 -18.013  22.067  1.00  0.00    -0.285 OA
ATOM      5  C   UNL     1      16.684 -16.075  20.821  1.00  0.00     0.111 A 
ATOM      6  C   UNL     1      17.908 -15.415  21.143  1.00  0.00     0.134 A 
ATOM      7  C   UNL     1      18.250 -14.231  20.480  1.00  0.00     0.093 A 
ATOM      8  C   UNL     1      17.385 -13.648  19.554  1.00  0.00     0.123 A 
ATOM      9  C   UNL     1      16.158 -14.253  19.276  1.00  0.00     0.094 A 
ATOM     10  C   UNL     1      15.806 -15.455  19.895  1.00  0.00     0.146 A 
ATOM     11  O   UNL     1      14.634 -16.004  19.594  1.00  0.00    -0.452 OA
ENDROOT
BRANCH   1  12
ATOM     12  C   UNL     1      12.872 -17.643  19.709  1.00  0.00     0.025 A 
ATOM     13  C   UNL     1      11.941 -17.993  20.700  1.00  0.00     0.016 A 
ATOM     14  C   UNL     1      10.680 -18.479  20.348  1.00  0.00     0.051 A 
ATOM     15  C   UNL     1      10.336 -18.637  18.999  1.00  0.00     0.157 A 
ATOM     16  C   UNL     1      12.529 -17.823  18.356  1.00  0.00     0.062 A 
ATOM     17  C   UNL     1      11.264 -18.313  18.001  1.00  0.00     0.158 A 
BRANCH  15  18
ATOM     18  O   UNL     1       9.078 -19.120  18.643  1.00  0.00    -0.504 OA
ATOM     19  H   UNL     1       8.288 -18.498  18.516  1.00  0.00     0.293 HD
ENDBRANCH  15  18
BRANCH  17  20
ATOM     20  O   UNL     1      10.924 -18.484  16.661  1.00  0.00    -0.504 OA
ATOM     21  H   UNL     1      11.629 -18.648  15.951  1.00  0.00     0.293 HD
ENDBRANCH  17  20
ENDBRANCH   1  12
BRANCH   2  22
ATOM     22  O   UNL     1      14.647 -19.129  21.451  1.00  0.00    -0.502 OA
ATOM     23  H   UNL     1      14.034 -19.240  22.249  1.00  0.00     0.293 HD
ENDBRANCH   2  22
BRANCH   6  24
ATOM     24  O   UNL     1      18.802 -15.864  22.121  1.00  0.00    -0.507 OA
ATOM     25  H   UNL     1      19.805 -15.887  22.015  1.00  0.00     0.293 HD
ENDBRANCH   6  24
BRANCH   8  26
ATOM     26  O   UNL     1      17.751 -12.461  18.925  1.00  0.00    -0.508 OA
ATOM     27  H   UNL     1      17.449 -12.246  17.982  1.00  0.00     0.293 HD
ENDBRANCH   8  26
TORSDOF 6
ENDMDL
MODEL 2
REMARK VINA RESULT:    -5.375     13.189     16.010
REMARK INTER + INTRA:          -6.514
REMARK INTER:                  -6.183
REMARK INTRA:                  -0.331
REMARK UNBOUND:                -0.039
REMARK SMILES O=c1c(O)c(-c2ccc(O)c(O)c2)oc2cc(O)cc(O)c12
REMARK SMILES IDX 5 1 3 2 2 3 1 4 22 5 20 6 19 7 17 8 16 9 15 10 14 11 6 12
REMARK SMILES IDX 7 13 8 14 9 15 13 16 11 17 10 18 12 20 4 22 21 24 18 26
REMARK H PARENT 10 19 12 21 4 23 21 25 18 27
REMARK Flexibility Score: inf
ROOT
ATOM      1  C   UNL     1      15.342  -6.737   9.054  1.00  0.00     0.180 A 
ATOM      2  C   UNL     1      14.188  -6.695   8.252  1.00  0.00     0.208 A 
ATOM      3  C   UNL     1      14.320  -6.404   6.884  1.00  0.00     0.238 A 
ATOM      4  O   UNL     1      13.280  -6.314   6.182  1.00  0.00    -0.285 OA
ATOM      5  C   UNL     1      15.605  -6.175   6.333  1.00  0.00     0.111 A 
ATOM      6  C   UNL     1      15.860  -5.913   4.954  1.00  0.00     0.134 A 
ATOM      7  C   UNL     1      17.154  -5.573   4.544  1.00  0.00     0.093 A 
ATOM      8  C   UNL     1      18.214  -5.550   5.450  1.00  0.00     0.123 A 
ATOM      9  C   UNL     1      17.987  -5.864   6.791  1.00  0.00     0.094 A 
ATOM     10  C   UNL     1      16.700  -6.171   7.236  1.00  0.00     0.146 A 
ATOM     11  O   UNL     1      16.524  -6.453   8.522  1.00  0.00    -0.452 OA
ENDROOT
BRANCH   1  12
ATOM     12  C   UNL     1      15.284  -7.061  10.498  1.00  0.00     0.025 A 
ATOM     13  C   UNL     1      15.266  -6.020  11.440  1.00  0.00     0.016 A 
ATOM     14  C   UNL     1      15.234  -6.302  12.807  1.00  0.00     0.051 A 
ATOM     15  C   UNL     1      15.235  -7.630  13.254  1.00  0.00     0.157 A 
ATOM     16  C   UNL     1      15.307  -8.392  10.952  1.00  0.00     0.062 A 
ATOM     17  C   UNL     1      15.277  -8.677  12.325  1.00  0.00     0.158 A 
BRANCH  15  18
ATOM     18  O   UNL     1      15.202  -7.916  14.618  1.00  0.00    -0.504 OA
ATOM     19  H   UNL     1      15.667  -8.731  15.000  1.00  0.00     0.293 HD
ENDBRANCH  15  18
BRANCH  17  20
ATOM     20  O   UNL     1      15.292  -9.996  12.773  1.00  0.00    -0.504 OA
ATOM     21  H   UNL     1      14.654 -10.690  12.400  1.00  0.00     0.293 HD
ENDBRANCH  17  20
ENDBRANCH   1  12
BRANCH   2  22
ATOM     22  O   UNL     1      12.928  -6.901   8.820  1.00  0.00    -0.502 OA
ATOM     23  H   UNL     1      12.183  -7.381   8.330  1.00  0.00     0.293 HD
ENDBRANCH   2  22
BRANCH   6  24
ATOM     24  O   UNL     1      14.889  -5.999   3.951  1.00  0.00    -0.507 OA
ATOM     25  H   UNL     1      14.400  -6.843   3.695  1.00  0.00     0.293 HD
ENDBRANCH   6  24
BRANCH   8  26
ATOM     26  O   UNL     1      19.493  -5.223   5.004  1.00  0.00    -0.508 OA
ATOM     27  H   UNL     1      19.637  -4.594   4.222  1.00  0.00     0.293 HD
ENDBRANCH   8  26
TORSDOF 6
ENDMDL
MODEL 3
REMARK VINA RESULT:    -5.353     12.826     16.029
REMARK INTER + INTRA:          -6.487
REMARK INTER:                  -6.375
REMARK INTRA:                  -0.112
REMARK UNBOUND:                -0.039
REMARK SMILES O=c1c(O)c(-c2ccc(O)c(O)c2)oc2cc(O)cc(O)c12
REMARK SMILES IDX 5 1 3 2 2 3 1 4 22 5 20 6 19 7 17 8 16 9 15 10 14 11 6 12
REMARK SMILES IDX 7 13 8 14 9 15 13 16 11 17 10 18 12 20 4 22 21 24 18 26
REMARK H PARENT 10 19 12 21 4 23 21 25 18 27
REMARK Flexibility Score: inf
ROOT
ATOM      1  C   UNL     1      15.820  -7.097   8.234  1.00  0.00     0.180 A 
ATOM      2  C   UNL     1      15.012  -8.112   7.692  1.00  0.00     0.208 A 
ATOM      3  C   UNL     1      14.398  -9.029   8.561  1.00  0.00     0.238 A 
ATOM      4  O   UNL     1      13.720  -9.968   8.068  1.00  0.00    -0.285 OA
ATOM      5  C   UNL     1      14.587  -8.909   9.960  1.00  0.00     0.111 A 
ATOM      6  C   UNL     1      13.980  -9.757  10.934  1.00  0.00     0.134 A 
ATOM      7  C   UNL     1      14.340  -9.629  12.280  1.00  0.00     0.093 A 
ATOM      8  C   UNL     1      15.234  -8.643  12.697  1.00  0.00     0.123 A 
ATOM      9  C   UNL     1      15.787  -7.769  11.760  1.00  0.00     0.094 A 
ATOM     10  C   UNL     1      15.475  -7.896  10.404  1.00  0.00     0.146 A 
ATOM     11  O   UNL     1      16.031  -7.051   9.543  1.00  0.00    -0.452 OA
ENDROOT
BRANCH   1  12
ATOM     12  C   UNL     1      16.481  -6.079   7.384  1.00  0.00     0.025 A 
ATOM     13  C   UNL     1      15.698  -5.240   6.575  1.00  0.00     0.016 A 
ATOM     14  C   UNL     1      16.301  -4.288   5.750  1.00  0.00     0.051 A 
ATOM     15  C   UNL     1      17.696  -4.171   5.710  1.00  0.00     0.157 A 
ATOM     16  C   UNL     1      17.883  -5.972   7.324  1.00  0.00     0.062 A 
ATOM     17  C   UNL     1      18.489  -5.018   6.494  1.00  0.00     0.158 A 
BRANCH  15  18
ATOM     18  O   UNL     1      18.302  -3.221   4.889  1.00  0.00    -0.504 OA
ATOM     19  H   UNL     1      18.410  -3.373   3.893  1.00  0.00     0.293 HD
ENDBRANCH  15  18
BRANCH  17  20
ATOM     20  O   UNL     1      19.877  -4.909   6.442  1.00  0.00    -0.504 OA
ATOM     21  H   UNL     1      20.479  -5.711   6.591  1.00  0.00     0.293 HD
ENDBRANCH  17  20
ENDBRANCH   1  12
BRANCH   2  22
ATOM     22  O   UNL     1      14.858  -8.225   6.308  1.00  0.00    -0.502 OA
ATOM     23  H   UNL     1      15.620  -8.063   5.661  1.00  0.00     0.293 HD
ENDBRANCH   2  22
BRANCH   6  24
ATOM     24  O   UNL     1      13.006 -10.715  10.637  1.00  0.00    -0.507 OA
ATOM     25  H   UNL     1      13.199 -11.670  10.376  1.00  0.00     0.293 HD
ENDBRANCH   6  24
BRANCH   8  26
ATOM     26  O   UNL     1      15.558  -8.534  14.047  1.00  0.00    -0.508 OA
ATOM     27  H   UNL     1      15.876  -7.659  14.447  1.00  0.00     0.293 HD
ENDBRANCH   8  26
TORSDOF 6
ENDMDL
MODEL 4
REMARK VINA RESULT:    -5.199      9.330     12.383
REMARK INTER + INTRA:          -6.303
REMARK INTER:                  -6.009
REMARK INTRA:                  -0.294
REMARK UNBOUND:                -0.039
REMARK SMILES O=c1c(O)c(-c2ccc(O)c(O)c2)oc2cc(O)cc(O)c12
REMARK SMILES IDX 5 1 3 2 2 3 1 4 22 5 20 6 19 7 17 8 16 9 15 10 14 11 6 12
REMARK SMILES IDX 7 13 8 14 9 15 13 16 11 17 10 18 12 20 4 22 21 24 18 26
REMARK H PARENT 10 19 12 21 4 23 21 25 18 27
REMARK Flexibility Score: inf
ROOT
ATOM      1  C   UNL     1      25.281 -12.917  17.843  1.00  0.00     0.180 A 
ATOM      2  C   UNL     1      25.914 -12.134  18.825  1.00  0.00     0.208 A 
ATOM      3  C   UNL     1      26.389 -10.859  18.476  1.00  0.00     0.238 A 
ATOM      4  O   UNL     1      27.003 -10.185  19.343  1.00  0.00    -0.285 OA
ATOM      5  C   UNL     1      26.210 -10.377  17.157  1.00  0.00     0.111 A 
ATOM      6  C   UNL     1      26.613  -9.085  16.704  1.00  0.00     0.134 A 
ATOM      7  C   UNL     1      26.504  -8.764  15.347  1.00  0.00     0.093 A 
ATOM      8  C   UNL     1      25.946  -9.661  14.436  1.00  0.00     0.123 A 
ATOM      9  C   UNL     1      25.492 -10.905  14.879  1.00  0.00     0.094 A 
ATOM     10  C   UNL     1      25.622 -11.268  16.221  1.00  0.00     0.146 A 
ATOM     11  O   UNL     1      25.187 -12.465  16.600  1.00  0.00    -0.452 OA
ENDROOT
BRANCH   1  12
ATOM     12  C   UNL     1      24.734 -14.261  18.141  1.00  0.00     0.025 A 
ATOM     13  C   UNL     1      23.495 -14.374  18.792  1.00  0.00     0.016 A 
ATOM     14  C   UNL     1      22.970 -15.631  19.101  1.00  0.00     0.051 A 
ATOM     15  C   UNL     1      23.683 -16.793  18.778  1.00  0.00     0.157 A 
ATOM     16  C   UNL     1      25.456 -15.430  17.837  1.00  0.00     0.062 A 
ATOM     17  C   UNL     1      24.930 -16.692  18.150  1.00  0.00     0.158 A 
BRANCH  15  18
ATOM     18  O   UNL     1      23.162 -18.049  19.084  1.00  0.00    -0.504 OA
ATOM     19  H   UNL     1      22.350 -18.417  18.602  1.00  0.00     0.293 HD
ENDBRANCH  15  18
BRANCH  17  20
ATOM     20  O   UNL     1      25.643 -17.849  17.841  1.00  0.00    -0.504 OA
ATOM     21  H   UNL     1      25.186 -18.668  17.458  1.00  0.00     0.293 HD
ENDBRANCH  17  20
ENDBRANCH   1  12
BRANCH   2  22
ATOM     22  O   UNL     1      26.101 -12.639  20.114  1.00  0.00    -0.502 OA
ATOM     23  H   UNL     1      26.513 -12.089  20.858  1.00  0.00     0.293 HD
ENDBRANCH   2  22
BRANCH   6  24
ATOM     24  O   UNL     1      27.099  -8.080  17.547  1.00  0.00    -0.507 OA
ATOM     25  H   UNL     1      26.928  -7.094  17.423  1.00  0.00     0.293 HD
ENDBRANCH   6  24
BRANCH   8  26
ATOM     26  O   UNL     1      25.838  -9.301  13.095  1.00  0.00    -0.508 OA
ATOM     27  H   UNL     1      24.983  -9.451  12.573  1.00  0.00     0.293 HD
ENDBRANCH   8  26
TORSDOF 6
ENDMDL
MODEL 5
REMARK VINA RESULT:    -5.127      3.070      5.073
REMARK INTER + INTRA:          -6.215
REMARK INTER:                  -5.897
REMARK INTRA:                  -0.318
REMARK UNBOUND:                -0.039
REMARK SMILES O=c1c(O)c(-c2ccc(O)c(O)c2)oc2cc(O)cc(O)c12
REMARK SMILES IDX 5 1 3 2 2 3 1 4 22 5 20 6 19 7 17 8 16 9 15 10 14 11 6 12
REMARK SMILES IDX 7 13 8 14 9 15 13 16 11 17 10 18 12 20 4 22 21 24 18 26
REMARK H PARENT 10 19 12 21 4 23 21 25 18 27
REMARK Flexibility Score: inf
ROOT
ATOM      1  C   UNL     1      17.329 -14.146  20.122  1.00  0.00     0.180 A 
ATOM      2  C   UNL     1      18.674 -13.976  20.495  1.00  0.00     0.208 A 
ATOM      3  C   UNL     1      19.318 -12.766  20.187  1.00  0.00     0.238 A 
ATOM      4  O   UNL     1      20.537 -12.640  20.474  1.00  0.00    -0.285 OA
ATOM      5  C   UNL     1      18.604 -11.737  19.525  1.00  0.00     0.111 A 
ATOM      6  C   UNL     1      19.144 -10.457  19.201  1.00  0.00     0.134 A 
ATOM      7  C   UNL     1      18.390  -9.564  18.430  1.00  0.00     0.093 A 
ATOM      8  C   UNL     1      17.092  -9.879  18.028  1.00  0.00     0.123 A 
ATOM      9  C   UNL     1      16.532 -11.104  18.392  1.00  0.00     0.094 A 
ATOM     10  C   UNL     1      17.274 -12.030  19.129  1.00  0.00     0.146 A 
ATOM     11  O   UNL     1      16.708 -13.189  19.445  1.00  0.00    -0.452 OA
ENDROOT
BRANCH   1  12
ATOM     12  C   UNL     1      16.576 -15.383  20.434  1.00  0.00     0.025 A 
ATOM     13  C   UNL     1      15.850 -15.467  21.632  1.00  0.00     0.016 A 
ATOM     14  C   UNL     1      15.150 -16.632  21.956  1.00  0.00     0.051 A 
ATOM     15  C   UNL     1      15.180 -17.735  21.094  1.00  0.00     0.157 A 
ATOM     16  C   UNL     1      16.620 -16.502  19.582  1.00  0.00     0.062 A 
ATOM     17  C   UNL     1      15.920 -17.672  19.908  1.00  0.00     0.158 A 
BRANCH  15  18
ATOM     18  O   UNL     1      14.482 -18.899  21.413  1.00  0.00    -0.504 OA
ATOM     19  H   UNL     1      13.895 -19.369  20.733  1.00  0.00     0.293 HD
ENDBRANCH  15  18
BRANCH  17  20
ATOM     20  O   UNL     1      15.959 -18.777  19.058  1.00  0.00    -0.504 OA
ATOM     21  H   UNL     1      15.490 -18.772  18.160  1.00  0.00     0.293 HD
ENDBRANCH  17  20
ENDBRANCH   1  12
BRANCH   2  22
ATOM     22  O   UNL     1      19.365 -15.013  21.127  1.00  0.00    -0.502 OA
ATOM     23  H   UNL     1      20.352 -15.182  20.973  1.00  0.00     0.293 HD
ENDBRANCH   2  22
BRANCH   6  24
ATOM     24  O   UNL     1      20.397 -10.006  19.631  1.00  0.00    -0.507 OA
ATOM     25  H   UNL     1      21.015  -9.422  19.089  1.00  0.00     0.293 HD
ENDBRANCH   6  24
BRANCH   8  26
ATOM     26  O   UNL     1      16.364  -8.960  17.276  1.00  0.00    -0.508 OA
ATOM     27  H   UNL     1      16.577  -7.970  17.297  1.00  0.00     0.293 HD
ENDBRANCH   8  26
TORSDOF 6
ENDMDL
MODEL 6
REMARK VINA RESULT:    -5.123      9.167     11.258
REMARK INTER + INTRA:          -6.211
REMARK INTER:                  -5.916
REMARK INTRA:                  -0.295
REMARK UNBOUND:                -0.039
REMARK SMILES O=c1c(O)c(-c2ccc(O)c(O)c2)oc2cc(O)cc(O)c12
REMARK SMILES IDX 5 1 3 2 2 3 1 4 22 5 20 6 19 7 17 8 16 9 15 10 14 11 6 12
REMARK SMILES IDX 7 13 8 14 9 15 13 16 11 17 10 18 12 20 4 22 21 24 18 26
REMARK H PARENT 10 19 12 21 4 23 21 25 18 27
REMARK Flexibility Score: inf
ROOT
ATOM      1  C   UNL     1      14.297 -11.100  11.126  1.00  0.00     0.180 A 
ATOM      2  C   UNL     1      14.315 -10.566   9.825  1.00  0.00     0.208 A 
ATOM      3  C   UNL     1      14.654  -9.214   9.650  1.00  0.00     0.238 A 
ATOM      4  O   UNL     1      14.615  -8.727   8.490  1.00  0.00    -0.285 OA
ATOM      5  C   UNL     1      14.987  -8.419  10.773  1.00  0.00     0.111 A 
ATOM      6  C   UNL     1      15.386  -7.051  10.708  1.00  0.00     0.134 A 
ATOM      7  C   UNL     1      15.566  -6.326  11.892  1.00  0.00     0.093 A 
ATOM      8  C   UNL     1      15.426  -6.937  13.138  1.00  0.00     0.123 A 
ATOM      9  C   UNL     1      15.095  -8.290  13.213  1.00  0.00     0.094 A 
ATOM     10  C   UNL     1      14.873  -9.030  12.049  1.00  0.00     0.146 A 
ATOM     11  O   UNL     1      14.549 -10.313  12.164  1.00  0.00    -0.452 OA
ENDROOT
BRANCH   1  12
ATOM     12  C   UNL     1      13.973 -12.521  11.389  1.00  0.00     0.025 A 
ATOM     13  C   UNL     1      12.629 -12.925  11.439  1.00  0.00     0.016 A 
ATOM     14  C   UNL     1      12.300 -14.256  11.707  1.00  0.00     0.051 A 
ATOM     15  C   UNL     1      13.309 -15.199  11.943  1.00  0.00     0.157 A 
ATOM     16  C   UNL     1      14.981 -13.467  11.649  1.00  0.00     0.062 A 
ATOM     17  C   UNL     1      14.652 -14.802  11.920  1.00  0.00     0.158 A 
BRANCH  15  18
ATOM     18  O   UNL     1      12.985 -16.528  12.210  1.00  0.00    -0.504 OA
ATOM     19  H   UNL     1      13.174 -16.949  13.112  1.00  0.00     0.293 HD
ENDBRANCH  15  18
BRANCH  17  20
ATOM     20  O   UNL     1      15.653 -15.739  12.169  1.00  0.00    -0.504 OA
ATOM     21  H   UNL     1      15.434 -16.682  12.469  1.00  0.00     0.293 HD
ENDBRANCH  17  20
ENDBRANCH   1  12
BRANCH   2  22
ATOM     22  O   UNL     1      13.960 -11.362   8.733  1.00  0.00    -0.502 OA
ATOM     23  H   UNL     1      13.387 -12.191   8.828  1.00  0.00     0.293 HD
ENDBRANCH   2  22
BRANCH   6  24
ATOM     24  O   UNL     1      15.643  -6.369   9.514  1.00  0.00    -0.507 OA
ATOM     25  H   UNL     1      16.563  -6.135   9.172  1.00  0.00     0.293 HD
ENDBRANCH   6  24
BRANCH   8  26
ATOM     26  O   UNL     1      15.628  -6.189  14.296  1.00  0.00    -0.508 OA
ATOM     27  H   UNL     1      16.216  -5.364  14.298  1.00  0.00     0.293 HD
ENDBRANCH   8  26
TORSDOF 6
ENDMDL
MODEL 7
REMARK VINA RESULT:    -5.068      1.842      3.246
REMARK INTER + INTRA:          -6.145
REMARK INTER:                  -5.836
REMARK INTRA:                  -0.309
REMARK UNBOUND:                -0.039
REMARK SMILES O=c1c(O)c(-c2ccc(O)c(O)c2)oc2cc(O)cc(O)c12
REMARK SMILES IDX 5 1 3 2 2 3 1 4 22 5 20 6 19 7 17 8 16 9 15 10 14 11 6 12
REMARK SMILES IDX 7 13 8 14 9 15 13 16 11 17 10 18 12 20 4 22 21 24 18 26
REMARK H PARENT 10 19 12 21 4 23 21 25 18 27
REMARK Flexibility Score: inf
ROOT
ATOM      1  C   UNL     1      13.323 -16.957  20.474  1.00  0.00     0.180 A 
ATOM      2  C   UNL     1      13.270 -15.599  20.837  1.00  0.00     0.208 A 
ATOM      3  C   UNL     1      14.403 -15.006  21.419  1.00  0.00     0.238 A 
ATOM      4  O   UNL     1      14.332 -13.806  21.792  1.00  0.00    -0.285 OA
ATOM      5  C   UNL     1      15.578 -15.772  21.615  1.00  0.00     0.111 A 
ATOM      6  C   UNL     1      16.796 -15.263  22.157  1.00  0.00     0.134 A 
ATOM      7  C   UNL     1      17.852 -16.141  22.426  1.00  0.00     0.093 A 
ATOM      8  C   UNL     1      17.759 -17.497  22.113  1.00  0.00     0.123 A 
ATOM      9  C   UNL     1      16.594 -17.995  21.527  1.00  0.00     0.094 A 
ATOM     10  C   UNL     1      15.510 -17.150  21.280  1.00  0.00     0.146 A 
ATOM     11  O   UNL     1      14.416 -17.665  20.731  1.00  0.00    -0.452 OA
ENDROOT
BRANCH   1  12
ATOM     12  C   UNL     1      12.179 -17.645  19.834  1.00  0.00     0.025 A 
ATOM     13  C   UNL     1      11.977 -17.512  18.451  1.00  0.00     0.016 A 
ATOM     14  C   UNL     1      10.892 -18.135  17.830  1.00  0.00     0.051 A 
ATOM     15  C   UNL     1       9.984 -18.889  18.586  1.00  0.00     0.157 A 
ATOM     16  C   UNL     1      11.252 -18.385  20.592  1.00  0.00     0.062 A 
ATOM     17  C   UNL     1      10.162 -19.010  19.969  1.00  0.00     0.158 A 
BRANCH  15  18
ATOM     18  O   UNL     1       8.901 -19.513  17.970  1.00  0.00    -0.504 OA
ATOM     19  H   UNL     1       8.792 -19.514  16.962  1.00  0.00     0.293 HD
ENDBRANCH  15  18
BRANCH  17  20
ATOM     20  O   UNL     1       9.249 -19.749  20.720  1.00  0.00    -0.504 OA
ATOM     21  H   UNL     1       8.259 -19.535  20.711  1.00  0.00     0.293 HD
ENDBRANCH  17  20
ENDBRANCH   1  12
BRANCH   2  22
ATOM     22  O   UNL     1      12.093 -14.868  20.656  1.00  0.00    -0.502 OA
ATOM     23  H   UNL     1      11.216 -15.305  20.402  1.00  0.00     0.293 HD
ENDBRANCH   2  22
BRANCH   6  24
ATOM     24  O   UNL     1      17.027 -13.909  22.421  1.00  0.00    -0.507 OA
ATOM     25  H   UNL     1      17.401 -13.548  23.285  1.00  0.00     0.293 HD
ENDBRANCH   6  24
BRANCH   8  26
ATOM     26  O   UNL     1      18.836 -18.340  22.381  1.00  0.00    -0.508 OA
ATOM     27  H   UNL     1      19.793 -18.012  22.321  1.00  0.00     0.293 HD
ENDBRANCH   8  26
TORSDOF 6
ENDMDL
MODEL 8
REMARK VINA RESULT:    -5.045      2.165      7.010
REMARK INTER + INTRA:          -6.117
REMARK INTER:                  -5.812
REMARK INTRA:                  -0.305
REMARK UNBOUND:                -0.039
REMARK SMILES O=c1c(O)c(-c2ccc(O)c(O)c2)oc2cc(O)cc(O)c12
REMARK SMILES IDX 5 1 3 2 2 3 1 4 22 5 20 6 19 7 17 8 16 9 15 10 14 11 6 12
REMARK SMILES IDX 7 13 8 14 9 15 13 16 11 17 10 18 12 20 4 22 21 24 18 26
REMARK H PARENT 10 19 12 21 4 23 21 25 18 27
REMARK Flexibility Score: inf
ROOT
ATOM      1  C   UNL     1      15.736 -14.047  19.928  1.00  0.00     0.180 A 
ATOM      2  C   UNL     1      15.594 -14.325  21.299  1.00  0.00     0.208 A 
ATOM      3  C   UNL     1      14.805 -15.419  21.693  1.00  0.00     0.238 A 
ATOM      4  O   UNL     1      14.638 -15.631  22.922  1.00  0.00    -0.285 OA
ATOM      5  C   UNL     1      14.183 -16.229  20.712  1.00  0.00     0.111 A 
ATOM      6  C   UNL     1      13.397 -17.385  20.996  1.00  0.00     0.134 A 
ATOM      7  C   UNL     1      12.722 -18.034  19.956  1.00  0.00     0.093 A 
ATOM      8  C   UNL     1      12.858 -17.610  18.634  1.00  0.00     0.123 A 
ATOM      9  C   UNL     1      13.673 -16.517  18.337  1.00  0.00     0.094 A 
ATOM     10  C   UNL     1      14.329 -15.826  19.359  1.00  0.00     0.146 A 
ATOM     11  O   UNL     1      15.087 -14.785  19.036  1.00  0.00    -0.452 OA
ENDROOT
BRANCH   1  12
ATOM     12  C   UNL     1      16.570 -12.927  19.434  1.00  0.00     0.025 A 
ATOM     13  C   UNL     1      17.960 -13.093  19.333  1.00  0.00     0.016 A 
ATOM     14  C   UNL     1      18.769 -12.043  18.890  1.00  0.00     0.051 A 
ATOM     15  C   UNL     1      18.200 -10.807  18.557  1.00  0.00     0.157 A 
ATOM     16  C   UNL     1      16.006 -11.677  19.119  1.00  0.00     0.062 A 
ATOM     17  C   UNL     1      16.817 -10.622  18.676  1.00  0.00     0.158 A 
BRANCH  15  18
ATOM     18  O   UNL     1      19.002  -9.757  18.114  1.00  0.00    -0.504 OA
ATOM     19  H   UNL     1      19.992  -9.719  18.328  1.00  0.00     0.293 HD
ENDBRANCH  15  18
BRANCH  17  20
ATOM     20  O   UNL     1      16.256  -9.387  18.357  1.00  0.00    -0.504 OA
ATOM     21  H   UNL     1      16.333  -8.994  17.427  1.00  0.00     0.293 HD
ENDBRANCH  17  20
ENDBRANCH   1  12
BRANCH   2  22
ATOM     22  O   UNL     1      16.199 -13.500  22.250  1.00  0.00    -0.502 OA
ATOM     23  H   UNL     1      15.750 -13.260  23.126  1.00  0.00     0.293 HD
ENDBRANCH   2  22
BRANCH   6  24
ATOM     24  O   UNL     1      13.268 -17.948  22.270  1.00  0.00    -0.507 OA
ATOM     25  H   UNL     1      13.113 -18.927  22.453  1.00  0.00     0.293 HD
ENDBRANCH   6  24
BRANCH   8  26
ATOM     26  O   UNL     1      12.184 -18.290  17.622  1.00  0.00    -0.508 OA
ATOM     27  H   UNL     1      11.198 -18.137  17.446  1.00  0.00     0.293 HD
ENDBRANCH   8  26
TORSDOF 6
ENDMDL
MODEL 9
REMARK VINA RESULT:    -4.892      1.837      6.900
REMARK INTER + INTRA:          -5.933
REMARK INTER:                  -5.608
REMARK INTRA:                  -0.325
REMARK UNBOUND:                -0.039
REMARK SMILES O=c1c(O)c(-c2ccc(O)c(O)c2)oc2cc(O)cc(O)c12
REMARK SMILES IDX 5 1 3 2 2 3 1 4 22 5 20 6 19 7 17 8 16 9 15 10 14 11 6 12
REMARK SMILES IDX 7 13 8 14 9 15 13 16 11 17 10 18 12 20 4 22 21 24 18 26
REMARK H PARENT 10 19 12 21 4 23 21 25 18 27
REMARK Flexibility Score: inf
ROOT
ATOM      1  C   UNL     1      15.261 -15.062  20.057  1.00  0.00     0.180 A 
ATOM      2  C   UNL     1      14.855 -15.480  21.336  1.00  0.00     0.208 A 
ATOM      3  C   UNL     1      13.754 -16.345  21.452  1.00  0.00     0.238 A 
ATOM      4  O   UNL     1      13.361 -16.672  22.602  1.00  0.00    -0.285 OA
ATOM      5  C   UNL     1      13.085 -16.793  20.287  1.00  0.00     0.111 A 
ATOM      6  C   UNL     1      11.985 -17.703  20.285  1.00  0.00     0.134 A 
ATOM      7  C   UNL     1      11.317 -17.975  19.085  1.00  0.00     0.093 A 
ATOM      8  C   UNL     1      11.749 -17.424  17.879  1.00  0.00     0.123 A 
ATOM      9  C   UNL     1      12.861 -16.581  17.861  1.00  0.00     0.094 A 
ATOM     10  C   UNL     1      13.525 -16.261  19.048  1.00  0.00     0.146 A 
ATOM     11  O   UNL     1      14.573 -15.447  18.989  1.00  0.00    -0.452 OA
ENDROOT
BRANCH   1  12
ATOM     12  C   UNL     1      16.426 -14.171  19.853  1.00  0.00     0.025 A 
ATOM     13  C   UNL     1      16.219 -12.797  19.655  1.00  0.00     0.016 A 
ATOM     14  C   UNL     1      17.302 -11.941  19.440  1.00  0.00     0.051 A 
ATOM     15  C   UNL     1      18.607 -12.449  19.404  1.00  0.00     0.157 A 
ATOM     16  C   UNL     1      17.736 -14.680  19.794  1.00  0.00     0.062 A 
ATOM     17  C   UNL     1      18.824 -13.822  19.576  1.00  0.00     0.158 A 
BRANCH  15  18
ATOM     18  O   UNL     1      19.690 -11.599  19.190  1.00  0.00    -0.504 OA
ATOM     19  H   UNL     1      20.268 -11.675  18.361  1.00  0.00     0.293 HD
ENDBRANCH  15  18
BRANCH  17  20
ATOM     20  O   UNL     1      20.122 -14.327  19.526  1.00  0.00    -0.504 OA
ATOM     21  H   UNL     1      20.492 -14.913  20.265  1.00  0.00     0.293 HD
ENDBRANCH  17  20
ENDBRANCH   1  12
BRANCH   2  22
ATOM     22  O   UNL     1      15.515 -15.007  22.473  1.00  0.00    -0.502 OA
ATOM     23  H   UNL     1      15.839 -15.623  23.209  1.00  0.00     0.293 HD
ENDBRANCH   2  22
BRANCH   6  24
ATOM     24  O   UNL     1      11.529 -18.380  21.421  1.00  0.00    -0.507 OA
ATOM     25  H   UNL     1      10.737 -18.100  21.978  1.00  0.00     0.293 HD
ENDBRANCH   6  24
BRANCH   8  26
ATOM     26  O   UNL     1      11.070 -17.729  16.702  1.00  0.00    -0.508 OA
ATOM     27  H   UNL     1      10.079 -17.941  16.701  1.00  0.00     0.293 HD
ENDBRANCH   8  26
TORSDOF 6
ENDMDL
