MODEL 1
REMARK VINA RESULT:    -4.461      0.000      0.000
REMARK INTER + INTRA:          -7.972
REMARK INTER:                  -7.069
REMARK INTRA:                  -0.903
REMARK UNBOUND:                -0.903
REMARK SMILES CCCCCCCCCCCC(=O)[O-]
REMARK SMILES IDX 7 1 8 2 9 3 10 4 11 5 12 6 13 7 14 8 6 9 5 10 4 11 3 12 2 13
REMARK SMILES IDX 1 14
REMARK H PARENT
REMARK Flexibility Score: inf
ROOT
ATOM      1  C   UNL     1      19.291  27.956  31.218  1.00  0.00     0.000 C 
ENDROOT
BRANCH   1   2
ATOM      2  C   UNL     1      18.014  28.589  30.645  1.00  0.00     0.000 C 
BRANCH   2   3
ATOM      3  C   UNL     1      18.296  29.923  29.923  1.00  0.00     0.000 C 
BRANCH   3   4
ATOM      4  C   UNL     1      18.497  29.771  28.405  1.00  0.00     0.006 C 
BRANCH   4   5
ATOM      5  C   UNL     1      17.957  28.442  27.862  1.00  0.00     0.053 C 
BRANCH   5   6
ATOM      6  C   UNL     1      19.036  27.694  27.145  1.00  0.00     0.041 C 
ATOM      7  O   UNL     1      19.269  27.928  25.930  1.00  0.00    -0.550 OA
ATOM      8  O   UNL     1      19.754  26.705  27.806  1.00  0.00    -0.550 OA
ENDBRANCH   5   6
ENDBRANCH   4   5
ENDBRANCH   3   4
ENDBRANCH   2   3
ENDBRANCH   1   2
BRANCH   1   9
ATOM      9  C   UNL     1      19.158  27.713  32.726  1.00  0.00     0.000 C 
BRANCH   9  10
ATOM     10  C   UNL     1      18.868  29.025  33.470  1.00  0.00    -0.000 C 
BRANCH  10  11
ATOM     11  C   UNL     1      17.978  28.822  34.707  1.00  0.00    -0.000 C 
BRANCH  11  12
ATOM     12  C   UNL     1      16.772  29.778  34.732  1.00  0.00    -0.000 C 
BRANCH  12  13
ATOM     13  C   UNL     1      16.620  30.566  33.422  1.00  0.00    -0.003 C 
ATOM     14  C   UNL     1      16.559  32.077  33.644  1.00  0.00     0.004 C 
ENDBRANCH  12  13
ENDBRANCH  11  12
ENDBRANCH  10  11
ENDBRANCH   9  10
ENDBRANCH   1   9
TORSDOF 10
ENDMDL
MODEL 2
REMARK VINA RESULT:    -4.452      1.405      2.783
REMARK INTER + INTRA:          -7.958
REMARK INTER:                  -6.856
REMARK INTRA:                  -1.102
REMARK UNBOUND:                -0.903
REMARK SMILES CCCCCCCCCCCC(=O)[O-]
REMARK SMILES IDX 7 1 8 2 9 3 10 4 11 5 12 6 13 7 14 8 6 9 5 10 4 11 3 12 2 13
REMARK SMILES IDX 1 14
REMARK H PARENT
REMARK Flexibility Score: inf
ROOT
ATOM      1  C   UNL     1      18.427  30.575  31.209  1.00  0.00     0.000 C 
ENDROOT
BRANCH   1   2
ATOM      2  C   UNL     1      17.826  29.162  31.143  1.00  0.00     0.000 C 
BRANCH   2   3
ATOM      3  C   UNL     1      18.908  28.064  31.201  1.00  0.00     0.000 C 
BRANCH   3   4
ATOM      4  C   UNL     1      19.067  27.286  29.883  1.00  0.00     0.006 C 
BRANCH   4   5
ATOM      5  C   UNL     1      17.757  27.178  29.093  1.00  0.00     0.053 C 
BRANCH   5   6
ATOM      6  C   UNL     1      17.922  27.768  27.728  1.00  0.00     0.041 C 
ATOM      7  O   UNL     1      17.738  27.057  26.705  1.00  0.00    -0.550 OA
ATOM      8  O   UNL     1      18.325  29.090  27.585  1.00  0.00    -0.550 OA
ENDBRANCH   5   6
ENDBRANCH   4   5
ENDBRANCH   3   4
ENDBRANCH   2   3
ENDBRANCH   1   2
BRANCH   1   9
ATOM      9  C   UNL     1      17.852  31.365  32.391  1.00  0.00     0.000 C 
BRANCH   9  10
ATOM     10  C   UNL     1      16.757  30.560  33.109  1.00  0.00    -0.000 C 
BRANCH  10  11
ATOM     11  C   UNL     1      17.040  30.380  34.609  1.00  0.00    -0.000 C 
BRANCH  11  12
ATOM     12  C   UNL     1      17.496  28.952  34.958  1.00  0.00    -0.000 C 
BRANCH  12  13
ATOM     13  C   UNL     1      19.020  28.846  35.123  1.00  0.00    -0.003 C 
ATOM     14  C   UNL     1      19.561  27.464  34.758  1.00  0.00     0.004 C 
ENDBRANCH  12  13
ENDBRANCH  11  12
ENDBRANCH  10  11
ENDBRANCH   9  10
ENDBRANCH   1   9
TORSDOF 10
ENDMDL
MODEL 3
REMARK VINA RESULT:    -4.367      3.143      6.157
REMARK INTER + INTRA:          -7.823
REMARK INTER:                  -6.870
REMARK INTRA:                  -0.953
REMARK UNBOUND:                -0.903
REMARK SMILES CCCCCCCCCCCC(=O)[O-]
REMARK SMILES IDX 7 1 8 2 9 3 10 4 11 5 12 6 13 7 14 8 6 9 5 10 4 11 3 12 2 13
REMARK SMILES IDX 1 14
REMARK H PARENT
REMARK Flexibility Score: inf
ROOT
ATOM      1  C   UNL     1      18.396  30.426  28.303  1.00  0.00     0.000 C 
ENDROOT
BRANCH   1   2
ATOM      2  C   UNL     1      19.178  30.571  29.618  1.00  0.00     0.000 C 
BRANCH   2   3
ATOM      3  C   UNL     1      18.283  30.354  30.856  1.00  0.00     0.000 C 
BRANCH   3   4
ATOM      4  C   UNL     1      17.921  28.879  31.102  1.00  0.00     0.006 C 
BRANCH   4   5
ATOM      5  C   UNL     1      19.131  28.027  31.504  1.00  0.00     0.053 C 
BRANCH   5   6
ATOM      6  C   UNL     1      19.110  27.753  32.975  1.00  0.00     0.041 C 
ATOM      7  O   UNL     1      18.445  28.492  33.748  1.00  0.00    -0.550 OA
ATOM      8  O   UNL     1      19.863  26.709  33.499  1.00  0.00    -0.550 OA
ENDBRANCH   5   6
ENDBRANCH   4   5
ENDBRANCH   3   4
ENDBRANCH   2   3
ENDBRANCH   1   2
BRANCH   1   9
ATOM      9  C   UNL     1      18.904  29.231  27.488  1.00  0.00     0.000 C 
BRANCH   9  10
ATOM     10  C   UNL     1      17.830  28.136  27.390  1.00  0.00    -0.000 C 
BRANCH  10  11
ATOM     11  C   UNL     1      18.428  26.724  27.284  1.00  0.00    -0.000 C 
BRANCH  11  12
ATOM     12  C   UNL     1      18.333  25.940  28.604  1.00  0.00    -0.000 C 
BRANCH  12  13
ATOM     13  C   UNL     1      19.407  24.846  28.717  1.00  0.00    -0.003 C 
ATOM     14  C   UNL     1      19.013  23.553  28.003  1.00  0.00     0.004 C 
ENDBRANCH  12  13
ENDBRANCH  11  12
ENDBRANCH  10  11
ENDBRANCH   9  10
ENDBRANCH   1   9
TORSDOF 10
ENDMDL
MODEL 4
REMARK VINA RESULT:    -4.355      1.379      2.112
REMARK INTER + INTRA:          -7.804
REMARK INTER:                  -6.772
REMARK INTRA:                  -1.033
REMARK UNBOUND:                -0.903
REMARK SMILES CCCCCCCCCCCC(=O)[O-]
REMARK SMILES IDX 7 1 8 2 9 3 10 4 11 5 12 6 13 7 14 8 6 9 5 10 4 11 3 12 2 13
REMARK SMILES IDX 1 14
REMARK H PARENT
REMARK Flexibility Score: inf
ROOT
ATOM      1  C   UNL     1      19.853  27.448  33.876  1.00  0.00     0.000 C 
ENDROOT
BRANCH   1   2
ATOM      2  C   UNL     1      19.477  27.375  32.388  1.00  0.00     0.000 C 
BRANCH   2   3
ATOM      3  C   UNL     1      19.093  28.755  31.815  1.00  0.00     0.000 C 
BRANCH   3   4
ATOM      4  C   UNL     1      17.926  28.704  30.813  1.00  0.00     0.006 C 
BRANCH   4   5
ATOM      5  C   UNL     1      18.244  27.864  29.570  1.00  0.00     0.053 C 
BRANCH   5   6
ATOM      6  C   UNL     1      18.148  28.704  28.336  1.00  0.00     0.041 C 
ATOM      7  O   UNL     1      17.962  28.162  27.214  1.00  0.00    -0.550 OA
ATOM      8  O   UNL     1      18.310  30.081  28.417  1.00  0.00    -0.550 OA
ENDBRANCH   5   6
ENDBRANCH   4   5
ENDBRANCH   3   4
ENDBRANCH   2   3
ENDBRANCH   1   2
BRANCH   1   9
ATOM      9  C   UNL     1      18.711  28.047  34.705  1.00  0.00     0.000 C 
BRANCH   9  10
ATOM     10  C   UNL     1      19.156  29.346  35.395  1.00  0.00    -0.000 C 
BRANCH  10  11
ATOM     11  C   UNL     1      18.014  30.365  35.537  1.00  0.00    -0.000 C 
BRANCH  11  12
ATOM     12  C   UNL     1      16.745  29.941  34.776  1.00  0.00    -0.000 C 
BRANCH  12  13
ATOM     13  C   UNL     1      16.521  30.770  33.502  1.00  0.00    -0.003 C 
ATOM     14  C   UNL     1      17.023  32.208  33.633  1.00  0.00     0.004 C 
ENDBRANCH  12  13
ENDBRANCH  11  12
ENDBRANCH  10  11
ENDBRANCH   9  10
ENDBRANCH   1   9
TORSDOF 10
ENDMDL
MODEL 5
REMARK VINA RESULT:    -4.346      2.038      3.200
REMARK INTER + INTRA:          -7.789
REMARK INTER:                  -7.004
REMARK INTRA:                  -0.785
REMARK UNBOUND:                -0.903
REMARK SMILES CCCCCCCCCCCC(=O)[O-]
REMARK SMILES IDX 7 1 8 2 9 3 10 4 11 5 12 6 13 7 14 8 6 9 5 10 4 11 3 12 2 13
REMARK SMILES IDX 1 14
REMARK H PARENT
REMARK Flexibility Score: inf
ROOT
ATOM      1  C   UNL     1      18.769  29.076  33.487  1.00  0.00     0.000 C 
ENDROOT
BRANCH   1   2
ATOM      2  C   UNL     1      19.178  27.733  32.862  1.00  0.00     0.000 C 
BRANCH   2   3
ATOM      3  C   UNL     1      19.174  27.782  31.320  1.00  0.00     0.000 C 
BRANCH   3   4
ATOM      4  C   UNL     1      18.047  28.650  30.734  1.00  0.00     0.006 C 
BRANCH   4   5
ATOM      5  C   UNL     1      18.385  29.210  29.346  1.00  0.00     0.053 C 
BRANCH   5   6
ATOM      6  C   UNL     1      18.413  30.705  29.380  1.00  0.00     0.041 C 
ATOM      7  O   UNL     1      18.372  31.314  30.481  1.00  0.00    -0.550 OA
ATOM      8  O   UNL     1      18.439  31.428  28.194  1.00  0.00    -0.550 OA
ENDBRANCH   5   6
ENDBRANCH   4   5
ENDBRANCH   3   4
ENDBRANCH   2   3
ENDBRANCH   1   2
BRANCH   1   9
ATOM      9  C   UNL     1      17.886  28.863  34.722  1.00  0.00     0.000 C 
BRANCH   9  10
ATOM     10  C   UNL     1      16.741  29.887  34.761  1.00  0.00    -0.000 C 
BRANCH  10  11
ATOM     11  C   UNL     1      16.736  30.820  33.539  1.00  0.00    -0.000 C 
BRANCH  11  12
ATOM     12  C   UNL     1      17.195  32.248  33.883  1.00  0.00    -0.000 C 
BRANCH  12  13
ATOM     13  C   UNL     1      16.075  33.090  34.514  1.00  0.00    -0.003 C 
ATOM     14  C   UNL     1      15.464  34.092  33.535  1.00  0.00     0.004 C 
ENDBRANCH  12  13
ENDBRANCH  11  12
ENDBRANCH  10  11
ENDBRANCH   9  10
ENDBRANCH   1   9
TORSDOF 10
ENDMDL
MODEL 6
REMARK VINA RESULT:    -4.308      4.038      6.227
REMARK INTER + INTRA:          -7.729
REMARK INTER:                  -6.561
REMARK INTRA:                  -1.168
REMARK UNBOUND:                -0.903
REMARK SMILES CCCCCCCCCCCC(=O)[O-]
REMARK SMILES IDX 7 1 8 2 9 3 10 4 11 5 12 6 13 7 14 8 6 9 5 10 4 11 3 12 2 13
REMARK SMILES IDX 1 14
REMARK H PARENT
REMARK Flexibility Score: inf
ROOT
ATOM      1  C   UNL     1      19.470  29.002  35.546  1.00  0.00     0.000 C 
ENDROOT
BRANCH   1   2
ATOM      2  C   UNL     1      18.420  30.116  35.412  1.00  0.00     0.000 C 
BRANCH   2   3
ATOM      3  C   UNL     1      17.100  29.603  34.800  1.00  0.00     0.000 C 
BRANCH   3   4
ATOM      4  C   UNL     1      16.511  30.540  33.731  1.00  0.00     0.006 C 
BRANCH   4   5
ATOM      5  C   UNL     1      17.147  31.935  33.747  1.00  0.00     0.053 C 
BRANCH   5   6
ATOM      6  C   UNL     1      16.204  32.931  34.345  1.00  0.00     0.041 C 
ATOM      7  O   UNL     1      16.010  32.952  35.589  1.00  0.00    -0.550 OA
ATOM      8  O   UNL     1      15.504  33.806  33.524  1.00  0.00    -0.550 OA
ENDBRANCH   5   6
ENDBRANCH   4   5
ENDBRANCH   3   4
ENDBRANCH   2   3
ENDBRANCH   1   2
BRANCH   1   9
ATOM      9  C   UNL     1      19.057  27.756  34.755  1.00  0.00     0.000 C 
BRANCH   9  10
ATOM     10  C   UNL     1      20.085  27.437  33.657  1.00  0.00    -0.000 C 
BRANCH  10  11
ATOM     11  C   UNL     1      19.463  27.412  32.251  1.00  0.00    -0.000 C 
BRANCH  11  12
ATOM     12  C   UNL     1      19.028  28.807  31.771  1.00  0.00    -0.000 C 
BRANCH  12  13
ATOM     13  C   UNL     1      17.955  28.742  30.672  1.00  0.00    -0.003 C 
ATOM     14  C   UNL     1      18.393  29.424  29.376  1.00  0.00     0.004 C 
ENDBRANCH  12  13
ENDBRANCH  11  12
ENDBRANCH  10  11
ENDBRANCH   9  10
ENDBRANCH   1   9
TORSDOF 10
ENDMDL
MODEL 7
REMARK VINA RESULT:    -4.287      3.611      6.503
REMARK INTER + INTRA:          -7.696
REMARK INTER:                  -6.913
REMARK INTRA:                  -0.783
REMARK UNBOUND:                -0.903
REMARK SMILES CCCCCCCCCCCC(=O)[O-]
REMARK SMILES IDX 7 1 8 2 9 3 10 4 11 5 12 6 13 7 14 8 6 9 5 10 4 11 3 12 2 13
REMARK SMILES IDX 1 14
REMARK H PARENT
REMARK Flexibility Score: inf
ROOT
ATOM      1  C   UNL     1      19.165  27.750  32.615  1.00  0.00     0.000 C 
ENDROOT
BRANCH   1   2
ATOM      2  C   UNL     1      18.636  29.090  33.149  1.00  0.00     0.000 C 
BRANCH   2   3
ATOM      3  C   UNL     1      18.006  28.951  34.551  1.00  0.00     0.000 C 
BRANCH   3   4
ATOM      4  C   UNL     1      16.759  29.829  34.755  1.00  0.00     0.006 C 
BRANCH   4   5
ATOM      5  C   UNL     1      16.520  30.804  33.595  1.00  0.00     0.053 C 
BRANCH   5   6
ATOM      6  C   UNL     1      16.784  32.210  34.033  1.00  0.00     0.041 C 
ATOM      7  O   UNL     1      17.926  32.540  34.448  1.00  0.00    -0.550 OA
ATOM      8  O   UNL     1      15.757  33.145  34.027  1.00  0.00    -0.550 OA
ENDBRANCH   5   6
ENDBRANCH   4   5
ENDBRANCH   3   4
ENDBRANCH   2   3
ENDBRANCH   1   2
BRANCH   1   9
ATOM      9  C   UNL     1      19.189  27.737  31.082  1.00  0.00     0.000 C 
BRANCH   9  10
ATOM     10  C   UNL     1      17.984  28.500  30.508  1.00  0.00    -0.000 C 
BRANCH  10  11
ATOM     11  C   UNL     1      18.376  29.463  29.375  1.00  0.00    -0.000 C 
BRANCH  11  12
ATOM     12  C   UNL     1      18.946  28.732  28.148  1.00  0.00    -0.000 C 
BRANCH  12  13
ATOM     13  C   UNL     1      17.847  28.143  27.251  1.00  0.00    -0.003 C 
ATOM     14  C   UNL     1      18.031  26.648  26.990  1.00  0.00     0.004 C 
ENDBRANCH  12  13
ENDBRANCH  11  12
ENDBRANCH  10  11
ENDBRANCH   9  10
ENDBRANCH   1   9
TORSDOF 10
ENDMDL
MODEL 8
REMARK VINA RESULT:    -4.277      1.489      2.815
REMARK INTER + INTRA:          -7.680
REMARK INTER:                  -6.997
REMARK INTRA:                  -0.683
REMARK UNBOUND:                -0.903
REMARK SMILES CCCCCCCCCCCC(=O)[O-]
REMARK SMILES IDX 7 1 8 2 9 3 10 4 11 5 12 6 13 7 14 8 6 9 5 10 4 11 3 12 2 13
REMARK SMILES IDX 1 14
REMARK H PARENT
REMARK Flexibility Score: inf
ROOT
ATOM      1  C   UNL     1      18.654  30.778  28.767  1.00  0.00     0.000 C 
ENDROOT
BRANCH   1   2
ATOM      2  C   UNL     1      18.824  29.283  28.460  1.00  0.00     0.000 C 
BRANCH   2   3
ATOM      3  C   UNL     1      17.962  28.830  27.263  1.00  0.00     0.000 C 
BRANCH   3   4
ATOM      4  C   UNL     1      17.565  27.345  27.317  1.00  0.00     0.006 C 
BRANCH   4   5
ATOM      5  C   UNL     1      18.047  26.644  28.593  1.00  0.00     0.053 C 
BRANCH   5   6
ATOM      6  C   UNL     1      19.079  25.613  28.264  1.00  0.00     0.041 C 
ATOM      7  O   UNL     1      18.753  24.401  28.160  1.00  0.00    -0.550 OA
ATOM      8  O   UNL     1      20.410  25.983  28.117  1.00  0.00    -0.550 OA
ENDBRANCH   5   6
ENDBRANCH   4   5
ENDBRANCH   3   4
ENDBRANCH   2   3
ENDBRANCH   1   2
BRANCH   1   9
ATOM      9  C   UNL     1      18.344  31.006  30.251  1.00  0.00     0.000 C 
BRANCH   9  10
ATOM     10  C   UNL     1      18.572  29.722  31.063  1.00  0.00    -0.000 C 
BRANCH  10  11
ATOM     11  C   UNL     1      17.738  29.680  32.354  1.00  0.00    -0.000 C 
BRANCH  11  12
ATOM     12  C   UNL     1      18.403  28.843  33.461  1.00  0.00    -0.000 C 
BRANCH  12  13
ATOM     13  C   UNL     1      17.721  29.026  34.826  1.00  0.00    -0.003 C 
ATOM     14  C   UNL     1      16.651  30.118  34.812  1.00  0.00     0.004 C 
ENDBRANCH  12  13
ENDBRANCH  11  12
ENDBRANCH  10  11
ENDBRANCH   9  10
ENDBRANCH   1   9
TORSDOF 10
ENDMDL
MODEL 9
REMARK VINA RESULT:    -4.268      3.541      6.870
REMARK INTER + INTRA:          -7.667
REMARK INTER:                  -7.092
REMARK INTRA:                  -0.575
REMARK UNBOUND:                -0.903
REMARK SMILES CCCCCCCCCCCC(=O)[O-]
REMARK SMILES IDX 7 1 8 2 9 3 10 4 11 5 12 6 13 7 14 8 6 9 5 10 4 11 3 12 2 13
REMARK SMILES IDX 1 14
REMARK H PARENT
REMARK Flexibility Score: inf
ROOT
ATOM      1  C   UNL     1      18.268  28.841  31.477  1.00  0.00     0.000 C 
ENDROOT
BRANCH   1   2
ATOM      2  C   UNL     1      19.101  27.856  32.312  1.00  0.00     0.000 C 
BRANCH   2   3
ATOM      3  C   UNL     1      19.484  28.437  33.689  1.00  0.00     0.000 C 
BRANCH   3   4
ATOM      4  C   UNL     1      18.322  28.449  34.697  1.00  0.00     0.006 C 
BRANCH   4   5
ATOM      5  C   UNL     1      18.215  29.770  35.468  1.00  0.00     0.053 C 
BRANCH   5   6
ATOM      6  C   UNL     1      16.978  30.510  35.066  1.00  0.00     0.041 C 
ATOM      7  O   UNL     1      16.468  30.321  33.931  1.00  0.00    -0.550 OA
ATOM      8  O   UNL     1      16.415  31.443  35.928  1.00  0.00    -0.550 OA
ENDBRANCH   5   6
ENDBRANCH   4   5
ENDBRANCH   3   4
ENDBRANCH   2   3
ENDBRANCH   1   2
BRANCH   1   9
ATOM      9  C   UNL     1      18.046  28.310  30.056  1.00  0.00     0.000 C 
BRANCH   9  10
ATOM     10  C   UNL     1      18.473  29.350  29.008  1.00  0.00    -0.000 C 
BRANCH  10  11
ATOM     11  C   UNL     1      18.089  28.942  27.576  1.00  0.00    -0.000 C 
BRANCH  11  12
ATOM     12  C   UNL     1      17.441  27.548  27.511  1.00  0.00    -0.000 C 
BRANCH  12  13
ATOM     13  C   UNL     1      18.362  26.502  26.862  1.00  0.00    -0.003 C 
ATOM     14  C   UNL     1      18.762  25.385  27.825  1.00  0.00     0.004 C 
ENDBRANCH  12  13
ENDBRANCH  11  12
ENDBRANCH  10  11
ENDBRANCH   9  10
ENDBRANCH   1   9
TORSDOF 10
ENDMDL
