MODEL 1
REMARK VINA RESULT:    -4.350      0.000      0.000
REMARK INTER + INTRA:          -4.604
REMARK INTER:                  -4.604
REMARK INTRA:                   0.000
REMARK UNBOUND:                 0.000
REMARK SMILES O=c1ccc2cc(O)c(O)cc2o1
REMARK SMILES IDX 4 1 3 2 2 3 1 4 13 5 12 6 11 7 9 8 7 9 6 10 5 11 8 12 10 14
REMARK H PARENT 8 13 10 15
REMARK Flexibility Score: inf
ROOT
ATOM      1  C   UNL     1      -3.651  -2.751 -31.858  1.00  0.00     0.019 A 
ATOM      2  C   UNL     1      -4.257  -2.819 -33.112  1.00  0.00     0.094 A 
ATOM      3  C   UNL     1      -4.577  -4.073 -33.644  1.00  0.00     0.336 A 
ATOM      4  O   UNL     1      -5.125  -4.155 -34.773  1.00  0.00    -0.246 OA
ATOM      5  O   UNL     1      -4.307  -5.183 -32.960  1.00  0.00    -0.423 OA
ATOM      6  C   UNL     1      -3.730  -5.163 -31.761  1.00  0.00     0.142 A 
ATOM      7  C   UNL     1      -3.469  -6.361 -31.090  1.00  0.00     0.098 A 
ATOM      8  C   UNL     1      -2.861  -6.348 -29.826  1.00  0.00     0.161 A 
ATOM      9  C   UNL     1      -2.510  -5.121 -29.230  1.00  0.00     0.158 A 
ATOM     10  C   UNL     1      -2.770  -3.919 -29.900  1.00  0.00     0.062 A 
ATOM     11  C   UNL     1      -3.378  -3.933 -31.163  1.00  0.00     0.022 A 
ENDROOT
BRANCH   9  12
ATOM     12  O   UNL     1      -1.905  -5.079 -27.976  1.00  0.00    -0.504 OA
ATOM     13  H   UNL     1      -1.175  -4.413 -27.752  1.00  0.00     0.293 HD
ENDBRANCH   9  12
BRANCH   8  14
ATOM     14  O   UNL     1      -2.603  -7.545 -29.161  1.00  0.00    -0.504 OA
ATOM     15  H   UNL     1      -3.238  -7.911 -28.462  1.00  0.00     0.293 HD
ENDBRANCH   8  14
TORSDOF 2
ENDMDL
MODEL 2
REMARK VINA RESULT:    -4.251      5.977      7.635
REMARK INTER + INTRA:          -4.499
REMARK INTER:                  -4.499
REMARK INTRA:                   0.000
REMARK UNBOUND:                 0.000
REMARK SMILES O=c1ccc2cc(O)c(O)cc2o1
REMARK SMILES IDX 4 1 3 2 2 3 1 4 13 5 12 6 11 7 9 8 7 9 6 10 5 11 8 12 10 14
REMARK H PARENT 8 13 10 15
REMARK Flexibility Score: inf
ROOT
ATOM      1  C   UNL     1      -1.486  -3.040 -36.409  1.00  0.00     0.019 A 
ATOM      2  C   UNL     1      -2.511  -2.926 -35.470  1.00  0.00     0.094 A 
ATOM      3  C   UNL     1      -2.388  -1.984 -34.442  1.00  0.00     0.336 A 
ATOM      4  O   UNL     1      -3.302  -1.866 -33.585  1.00  0.00    -0.246 OA
ATOM      5  O   UNL     1      -1.308  -1.209 -34.365  1.00  0.00    -0.423 OA
ATOM      6  C   UNL     1      -0.308  -1.286 -35.239  1.00  0.00     0.142 A 
ATOM      7  C   UNL     1       0.802  -0.446 -35.107  1.00  0.00     0.098 A 
ATOM      8  C   UNL     1       1.860  -0.521 -36.025  1.00  0.00     0.161 A 
ATOM      9  C   UNL     1       1.804  -1.446 -37.085  1.00  0.00     0.158 A 
ATOM     10  C   UNL     1       0.694  -2.289 -37.220  1.00  0.00     0.062 A 
ATOM     11  C   UNL     1      -0.363  -2.213 -36.302  1.00  0.00     0.022 A 
ENDROOT
BRANCH   9  12
ATOM     12  O   UNL     1       2.841  -1.542 -38.011  1.00  0.00    -0.504 OA
ATOM     13  H   UNL     1       3.757  -1.145 -37.838  1.00  0.00     0.293 HD
ENDBRANCH   9  12
BRANCH   8  14
ATOM     14  O   UNL     1       2.964   0.317 -35.890  1.00  0.00    -0.504 OA
ATOM     15  H   UNL     1       3.903  -0.052 -35.790  1.00  0.00     0.293 HD
ENDBRANCH   8  14
TORSDOF 2
ENDMDL
MODEL 3
REMARK VINA RESULT:    -4.191      6.079      7.770
REMARK INTER + INTRA:          -4.436
REMARK INTER:                  -4.436
REMARK INTRA:                   0.000
REMARK UNBOUND:                 0.000
REMARK SMILES O=c1ccc2cc(O)c(O)cc2o1
REMARK SMILES IDX 4 1 3 2 2 3 1 4 13 5 12 6 11 7 9 8 7 9 6 10 5 11 8 12 10 14
REMARK H PARENT 8 13 10 15
REMARK Flexibility Score: inf
ROOT
ATOM      1  C   UNL     1       0.493  -0.134 -34.697  1.00  0.00     0.019 A 
ATOM      2  C   UNL     1       1.625   0.531 -35.170  1.00  0.00     0.094 A 
ATOM      3  C   UNL     1       2.130   0.196 -36.432  1.00  0.00     0.336 A 
ATOM      4  O   UNL     1       3.150   0.785 -36.876  1.00  0.00    -0.246 OA
ATOM      5  O   UNL     1       1.538  -0.741 -37.167  1.00  0.00    -0.423 OA
ATOM      6  C   UNL     1       0.457  -1.399 -36.754  1.00  0.00     0.142 A 
ATOM      7  C   UNL     1      -0.122  -2.376 -37.570  1.00  0.00     0.098 A 
ATOM      8  C   UNL     1      -1.261  -3.073 -37.141  1.00  0.00     0.161 A 
ATOM      9  C   UNL     1      -1.824  -2.789 -35.882  1.00  0.00     0.158 A 
ATOM     10  C   UNL     1      -1.246  -1.812 -35.062  1.00  0.00     0.062 A 
ATOM     11  C   UNL     1      -0.108  -1.115 -35.492  1.00  0.00     0.022 A 
ENDROOT
BRANCH   9  12
ATOM     12  O   UNL     1      -2.955  -3.466 -35.431  1.00  0.00    -0.504 OA
ATOM     13  H   UNL     1      -3.148  -3.596 -34.445  1.00  0.00     0.293 HD
ENDBRANCH   9  12
BRANCH   8  14
ATOM     14  O   UNL     1      -1.835  -4.045 -37.958  1.00  0.00    -0.504 OA
ATOM     15  H   UNL     1      -2.641  -3.843 -38.538  1.00  0.00     0.293 HD
ENDBRANCH   8  14
TORSDOF 2
ENDMDL
MODEL 4
REMARK VINA RESULT:    -4.134      1.090      5.036
REMARK INTER + INTRA:          -4.375
REMARK INTER:                  -4.375
REMARK INTRA:                   0.000
REMARK UNBOUND:                 0.000
REMARK SMILES O=c1ccc2cc(O)c(O)cc2o1
REMARK SMILES IDX 4 1 3 2 2 3 1 4 13 5 12 6 11 7 9 8 7 9 6 10 5 11 8 12 10 14
REMARK H PARENT 8 13 10 15
REMARK Flexibility Score: inf
ROOT
ATOM      1  C   UNL     1      -3.333  -6.489 -30.677  1.00  0.00     0.019 A 
ATOM      2  C   UNL     1      -2.733  -6.429 -29.419  1.00  0.00     0.094 A 
ATOM      3  C   UNL     1      -2.382  -5.180 -28.894  1.00  0.00     0.336 A 
ATOM      4  O   UNL     1      -1.841  -5.104 -27.761  1.00  0.00    -0.246 OA
ATOM      5  O   UNL     1      -2.618  -4.068 -29.586  1.00  0.00    -0.423 OA
ATOM      6  C   UNL     1      -3.188  -4.081 -30.789  1.00  0.00     0.142 A 
ATOM      7  C   UNL     1      -3.411  -2.881 -31.471  1.00  0.00     0.098 A 
ATOM      8  C   UNL     1      -4.011  -2.887 -32.739  1.00  0.00     0.161 A 
ATOM      9  C   UNL     1      -4.390  -4.108 -33.329  1.00  0.00     0.158 A 
ATOM     10  C   UNL     1      -4.167  -5.312 -32.649  1.00  0.00     0.062 A 
ATOM     11  C   UNL     1      -3.568  -5.305 -31.382  1.00  0.00     0.022 A 
ENDROOT
BRANCH   9  12
ATOM     12  O   UNL     1      -4.988  -4.143 -34.587  1.00  0.00    -0.504 OA
ATOM     13  H   UNL     1      -5.777  -4.744 -34.793  1.00  0.00     0.293 HD
ENDBRANCH   9  12
BRANCH   8  14
ATOM     14  O   UNL     1      -4.231  -1.689 -33.414  1.00  0.00    -0.504 OA
ATOM     15  H   UNL     1      -3.474  -1.181 -33.856  1.00  0.00     0.293 HD
ENDBRANCH   8  14
TORSDOF 2
ENDMDL
MODEL 5
REMARK VINA RESULT:    -4.078      1.684      2.499
REMARK INTER + INTRA:          -4.316
REMARK INTER:                  -4.316
REMARK INTRA:                   0.000
REMARK UNBOUND:                 0.000
REMARK SMILES O=c1ccc2cc(O)c(O)cc2o1
REMARK SMILES IDX 4 1 3 2 2 3 1 4 13 5 12 6 11 7 9 8 7 9 6 10 5 11 8 12 10 14
REMARK H PARENT 8 13 10 15
REMARK Flexibility Score: inf
ROOT
ATOM      1  C   UNL     1      -3.255  -3.809 -30.490  1.00  0.00     0.019 A 
ATOM      2  C   UNL     1      -3.600  -2.701 -31.264  1.00  0.00     0.094 A 
ATOM      3  C   UNL     1      -3.920  -2.890 -32.614  1.00  0.00     0.336 A 
ATOM      4  O   UNL     1      -4.233  -1.904 -33.329  1.00  0.00    -0.246 OA
ATOM      5  O   UNL     1      -3.894  -4.109 -33.147  1.00  0.00    -0.423 OA
ATOM      6  C   UNL     1      -3.571  -5.192 -32.444  1.00  0.00     0.142 A 
ATOM      7  C   UNL     1      -3.561  -6.448 -33.059  1.00  0.00     0.098 A 
ATOM      8  C   UNL     1      -3.221  -7.593 -32.324  1.00  0.00     0.161 A 
ATOM      9  C   UNL     1      -2.888  -7.478 -30.961  1.00  0.00     0.158 A 
ATOM     10  C   UNL     1      -2.897  -6.222 -30.342  1.00  0.00     0.062 A 
ATOM     11  C   UNL     1      -3.237  -5.078 -31.077  1.00  0.00     0.022 A 
ENDROOT
BRANCH   9  12
ATOM     12  O   UNL     1      -2.547  -8.600 -30.207  1.00  0.00    -0.504 OA
ATOM     13  H   UNL     1      -2.898  -9.524 -30.427  1.00  0.00     0.293 HD
ENDBRANCH   9  12
BRANCH   8  14
ATOM     14  O   UNL     1      -3.213  -8.843 -32.940  1.00  0.00    -0.504 OA
ATOM     15  H   UNL     1      -3.534  -8.967 -33.893  1.00  0.00     0.293 HD
ENDBRANCH   8  14
TORSDOF 2
ENDMDL
MODEL 6
REMARK VINA RESULT:    -4.020      1.232      2.311
REMARK INTER + INTRA:          -4.255
REMARK INTER:                  -4.255
REMARK INTRA:                   0.000
REMARK UNBOUND:                 0.000
REMARK SMILES O=c1ccc2cc(O)c(O)cc2o1
REMARK SMILES IDX 4 1 3 2 2 3 1 4 13 5 12 6 11 7 9 8 7 9 6 10 5 11 8 12 10 14
REMARK H PARENT 8 13 10 15
REMARK Flexibility Score: inf
ROOT
ATOM      1  C   UNL     1      -4.139  -5.164 -33.391  1.00  0.00     0.019 A 
ATOM      2  C   UNL     1      -4.391  -3.877 -33.867  1.00  0.00     0.094 A 
ATOM      3  C   UNL     1      -4.130  -2.782 -33.033  1.00  0.00     0.336 A 
ATOM      4  O   UNL     1      -4.350  -1.614 -33.443  1.00  0.00    -0.246 OA
ATOM      5  O   UNL     1      -3.647  -2.970 -31.807  1.00  0.00    -0.423 OA
ATOM      6  C   UNL     1      -3.392  -4.181 -31.316  1.00  0.00     0.142 A 
ATOM      7  C   UNL     1      -2.885  -4.317 -30.020  1.00  0.00     0.098 A 
ATOM      8  C   UNL     1      -2.615  -5.589 -29.495  1.00  0.00     0.161 A 
ATOM      9  C   UNL     1      -2.854  -6.736 -30.277  1.00  0.00     0.158 A 
ATOM     10  C   UNL     1      -3.362  -6.602 -31.575  1.00  0.00     0.062 A 
ATOM     11  C   UNL     1      -3.632  -5.331 -32.099  1.00  0.00     0.022 A 
ENDROOT
BRANCH   9  12
ATOM     12  O   UNL     1      -2.594  -8.011 -29.781  1.00  0.00    -0.504 OA
ATOM     13  H   UNL     1      -2.678  -8.841 -30.356  1.00  0.00     0.293 HD
ENDBRANCH   9  12
BRANCH   8  14
ATOM     14  O   UNL     1      -2.110  -5.720 -28.203  1.00  0.00    -0.504 OA
ATOM     15  H   UNL     1      -1.171  -5.421 -27.967  1.00  0.00     0.293 HD
ENDBRANCH   8  14
TORSDOF 2
ENDMDL
MODEL 7
REMARK VINA RESULT:    -4.005      1.143      4.478
REMARK INTER + INTRA:          -4.239
REMARK INTER:                  -4.239
REMARK INTRA:                   0.000
REMARK UNBOUND:                 0.000
REMARK SMILES O=c1ccc2cc(O)c(O)cc2o1
REMARK SMILES IDX 4 1 3 2 2 3 1 4 13 5 12 6 11 7 9 8 7 9 6 10 5 11 8 12 10 14
REMARK H PARENT 8 13 10 15
REMARK Flexibility Score: inf
ROOT
ATOM      1  C   UNL     1      -2.793  -4.254 -29.484  1.00  0.00     0.019 A 
ATOM      2  C   UNL     1      -2.703  -5.476 -28.818  1.00  0.00     0.094 A 
ATOM      3  C   UNL     1      -3.097  -6.643 -29.485  1.00  0.00     0.336 A 
ATOM      4  O   UNL     1      -3.023  -7.755 -28.901  1.00  0.00    -0.246 OA
ATOM      5  O   UNL     1      -3.548  -6.584 -30.735  1.00  0.00    -0.423 OA
ATOM      6  C   UNL     1      -3.650  -5.439 -31.407  1.00  0.00     0.142 A 
ATOM      7  C   UNL     1      -4.132  -5.437 -32.719  1.00  0.00     0.098 A 
ATOM      8  C   UNL     1      -4.242  -4.235 -33.432  1.00  0.00     0.161 A 
ATOM      9  C   UNL     1      -3.864  -3.022 -32.824  1.00  0.00     0.158 A 
ATOM     10  C   UNL     1      -3.381  -3.020 -31.510  1.00  0.00     0.062 A 
ATOM     11  C   UNL     1      -3.272  -4.222 -30.798  1.00  0.00     0.022 A 
ENDROOT
BRANCH   9  12
ATOM     12  O   UNL     1      -3.963  -1.813 -33.510  1.00  0.00    -0.504 OA
ATOM     13  H   UNL     1      -3.166  -1.386 -33.967  1.00  0.00     0.293 HD
ENDBRANCH   9  12
BRANCH   8  14
ATOM     14  O   UNL     1      -4.723  -4.238 -34.740  1.00  0.00    -0.504 OA
ATOM     15  H   UNL     1      -4.180  -4.622 -35.504  1.00  0.00     0.293 HD
ENDBRANCH   8  14
TORSDOF 2
ENDMDL
MODEL 8
REMARK VINA RESULT:    -3.938     19.838     21.553
REMARK INTER + INTRA:          -4.168
REMARK INTER:                  -4.168
REMARK INTRA:                   0.000
REMARK UNBOUND:                 0.000
REMARK SMILES O=c1ccc2cc(O)c(O)cc2o1
REMARK SMILES IDX 4 1 3 2 2 3 1 4 13 5 12 6 11 7 9 8 7 9 6 10 5 11 8 12 10 14
REMARK H PARENT 8 13 10 15
REMARK Flexibility Score: inf
ROOT
ATOM      1  C   UNL     1       9.102   9.884 -22.310  1.00  0.00     0.019 A 
ATOM      2  C   UNL     1      10.459   9.884 -21.986  1.00  0.00     0.094 A 
ATOM      3  C   UNL     1      10.846   9.538 -20.686  1.00  0.00     0.336 A 
ATOM      4  O   UNL     1      12.064   9.531 -20.374  1.00  0.00    -0.246 OA
ATOM      5  O   UNL     1       9.931   9.214 -19.775  1.00  0.00    -0.423 OA
ATOM      6  C   UNL     1       8.627   9.203 -20.042  1.00  0.00     0.142 A 
ATOM      7  C   UNL     1       7.711   8.855 -19.045  1.00  0.00     0.098 A 
ATOM      8  C   UNL     1       6.336   8.840 -19.319  1.00  0.00     0.161 A 
ATOM      9  C   UNL     1       5.874   9.178 -20.606  1.00  0.00     0.158 A 
ATOM     10  C   UNL     1       6.789   9.527 -21.607  1.00  0.00     0.062 A 
ATOM     11  C   UNL     1       8.163   9.541 -21.332  1.00  0.00     0.022 A 
ENDROOT
BRANCH   9  12
ATOM     12  O   UNL     1       4.513   9.171 -20.906  1.00  0.00    -0.504 OA
ATOM     13  H   UNL     1       3.807   9.376 -20.209  1.00  0.00     0.293 HD
ENDBRANCH   9  12
BRANCH   8  14
ATOM     14  O   UNL     1       5.427   8.493 -18.322  1.00  0.00    -0.504 OA
ATOM     15  H   UNL     1       5.702   7.929 -17.526  1.00  0.00     0.293 HD
ENDBRANCH   8  14
TORSDOF 2
ENDMDL
