MODEL 1
REMARK VINA RESULT:    -4.131      0.000      0.000
REMARK INTER + INTRA:          -9.721
REMARK INTER:                  -7.512
REMARK INTRA:                  -2.208
REMARK UNBOUND:                -2.208
REMARK SMILES CCCCCCCCCCCCCCCC(=O)[O-]
REMARK SMILES IDX 9 1 10 2 11 3 12 4 13 5 14 6 15 7 16 8 17 9 18 10 8 11 7 12
REMARK SMILES IDX 6 13 5 14 4 15 3 16 2 17 1 18
REMARK H PARENT
REMARK Flexibility Score: inf
ROOT
ATOM      1  C   UNL     1       4.267  35.822  -0.179  1.00  0.00     0.000 C 
ENDROOT
BRANCH   1   2
ATOM      2  C   UNL     1       4.886  34.843  -1.198  1.00  0.00     0.000 C 
BRANCH   2   3
ATOM      3  C   UNL     1       5.500  35.538  -2.427  1.00  0.00     0.000 C 
BRANCH   3   4
ATOM      4  C   UNL     1       6.847  34.929  -2.848  1.00  0.00     0.000 C 
BRANCH   4   5
ATOM      5  C   UNL     1       7.055  33.517  -2.263  1.00  0.00     0.000 C 
BRANCH   5   6
ATOM      6  C   UNL     1       8.534  33.104  -2.160  1.00  0.00     0.006 C 
BRANCH   6   7
ATOM      7  C   UNL     1       9.007  32.942  -0.712  1.00  0.00     0.053 C 
BRANCH   7   8
ATOM      8  C   UNL     1       9.831  31.702  -0.568  1.00  0.00     0.041 C 
ATOM      9  O   UNL     1       9.716  30.981   0.460  1.00  0.00    -0.550 OA
ATOM     10  O   UNL     1      10.760  31.365  -1.544  1.00  0.00    -0.550 OA
ENDBRANCH   7   8
ENDBRANCH   6   7
ENDBRANCH   5   6
ENDBRANCH   4   5
ENDBRANCH   3   4
ENDBRANCH   2   3
ENDBRANCH   1   2
BRANCH   1  11
ATOM     11  C   UNL     1       5.274  36.250   0.902  1.00  0.00     0.000 C 
BRANCH  11  12
ATOM     12  C   UNL     1       6.472  35.293   1.008  1.00  0.00    -0.000 C 
BRANCH  12  13
ATOM     13  C   UNL     1       7.818  36.032   1.067  1.00  0.00    -0.000 C 
BRANCH  13  14
ATOM     14  C   UNL     1       7.736  37.380   0.340  1.00  0.00    -0.000 C 
BRANCH  14  15
ATOM     15  C   UNL     1       8.527  37.346  -0.974  1.00  0.00    -0.000 C 
BRANCH  15  16
ATOM     16  C   UNL     1       9.948  36.809  -0.745  1.00  0.00    -0.000 C 
BRANCH  16  17
ATOM     17  C   UNL     1      10.874  37.849  -0.095  1.00  0.00    -0.003 C 
ATOM     18  C   UNL     1      11.079  39.087  -0.968  1.00  0.00     0.004 C 
ENDBRANCH  16  17
ENDBRANCH  15  16
ENDBRANCH  14  15
ENDBRANCH  13  14
ENDBRANCH  12  13
ENDBRANCH  11  12
ENDBRANCH   1  11
TORSDOF 14
ENDMDL
MODEL 2
REMARK VINA RESULT:    -3.991      3.028      5.015
REMARK INTER + INTRA:          -9.465
REMARK INTER:                  -7.495
REMARK INTRA:                  -1.970
REMARK UNBOUND:                -2.208
REMARK SMILES CCCCCCCCCCCCCCCC(=O)[O-]
REMARK SMILES IDX 9 1 10 2 11 3 12 4 13 5 14 6 15 7 16 8 17 9 18 10 8 11 7 12
REMARK SMILES IDX 6 13 5 14 4 15 3 16 2 17 1 18
REMARK H PARENT
REMARK Flexibility Score: inf
ROOT
ATOM      1  C   UNL     1       5.372  34.181  -2.232  1.00  0.00     0.000 C 
ENDROOT
BRANCH   1   2
ATOM      2  C   UNL     1       6.604  33.394  -2.726  1.00  0.00     0.000 C 
BRANCH   2   3
ATOM      3  C   UNL     1       7.841  33.553  -1.823  1.00  0.00     0.000 C 
BRANCH   3   4
ATOM      4  C   UNL     1       7.604  34.515  -0.648  1.00  0.00     0.000 C 
BRANCH   4   5
ATOM      5  C   UNL     1       8.911  35.185  -0.174  1.00  0.00     0.000 C 
BRANCH   5   6
ATOM      6  C   UNL     1       9.432  36.268  -1.134  1.00  0.00     0.006 C 
BRANCH   6   7
ATOM      7  C   UNL     1      10.652  37.014  -0.583  1.00  0.00     0.053 C 
BRANCH   7   8
ATOM      8  C   UNL     1      10.430  38.493  -0.646  1.00  0.00     0.041 C 
ATOM      9  O   UNL     1      11.289  39.240  -1.187  1.00  0.00    -0.550 OA
ATOM     10  O   UNL     1       9.300  39.053  -0.065  1.00  0.00    -0.550 OA
ENDBRANCH   7   8
ENDBRANCH   6   7
ENDBRANCH   5   6
ENDBRANCH   4   5
ENDBRANCH   3   4
ENDBRANCH   2   3
ENDBRANCH   1   2
BRANCH   1  11
ATOM     11  C   UNL     1       4.063  33.399  -2.437  1.00  0.00     0.000 C 
BRANCH  11  12
ATOM     12  C   UNL     1       2.876  34.023  -1.687  1.00  0.00    -0.000 C 
BRANCH  12  13
ATOM     13  C   UNL     1       3.167  35.450  -1.200  1.00  0.00    -0.000 C 
BRANCH  13  14
ATOM     14  C   UNL     1       3.150  35.521   0.332  1.00  0.00    -0.000 C 
BRANCH  14  15
ATOM     15  C   UNL     1       4.452  36.129   0.869  1.00  0.00    -0.000 C 
BRANCH  15  16
ATOM     16  C   UNL     1       4.647  37.560   0.346  1.00  0.00    -0.000 C 
BRANCH  16  17
ATOM     17  C   UNL     1       6.042  37.783  -0.260  1.00  0.00    -0.003 C 
ATOM     18  C   UNL     1       6.025  37.810  -1.787  1.00  0.00     0.004 C 
ENDBRANCH  16  17
ENDBRANCH  15  16
ENDBRANCH  14  15
ENDBRANCH  13  14
ENDBRANCH  12  13
ENDBRANCH  11  12
ENDBRANCH   1  11
TORSDOF 14
ENDMDL
MODEL 3
REMARK VINA RESULT:    -3.959      1.520      2.086
REMARK INTER + INTRA:          -9.406
REMARK INTER:                  -7.154
REMARK INTRA:                  -2.253
REMARK UNBOUND:                -2.208
REMARK SMILES CCCCCCCCCCCCCCCC(=O)[O-]
REMARK SMILES IDX 9 1 10 2 11 3 12 4 13 5 14 6 15 7 16 8 17 9 18 10 8 11 7 12
REMARK SMILES IDX 6 13 5 14 4 15 3 16 2 17 1 18
REMARK H PARENT
REMARK Flexibility Score: inf
ROOT
ATOM      1  C   UNL     1       6.276  38.606  -1.338  1.00  0.00     0.000 C 
ENDROOT
BRANCH   1   2
ATOM      2  C   UNL     1       5.859  37.151  -1.039  1.00  0.00     0.000 C 
BRANCH   2   3
ATOM      3  C   UNL     1       6.759  36.101  -1.714  1.00  0.00     0.000 C 
BRANCH   3   4
ATOM      4  C   UNL     1       6.580  34.692  -1.126  1.00  0.00     0.000 C 
BRANCH   4   5
ATOM      5  C   UNL     1       7.920  34.079  -0.666  1.00  0.00     0.000 C 
BRANCH   5   6
ATOM      6  C   UNL     1       8.605  33.219  -1.741  1.00  0.00     0.006 C 
BRANCH   6   7
ATOM      7  C   UNL     1      10.107  33.042  -1.492  1.00  0.00     0.053 C 
BRANCH   7   8
ATOM      8  C   UNL     1      10.419  31.613  -1.179  1.00  0.00     0.041 C 
ATOM      9  O   UNL     1       9.918  31.063  -0.161  1.00  0.00    -0.550 OA
ATOM     10  O   UNL     1      11.301  30.900  -1.981  1.00  0.00    -0.550 OA
ENDBRANCH   7   8
ENDBRANCH   6   7
ENDBRANCH   5   6
ENDBRANCH   4   5
ENDBRANCH   3   4
ENDBRANCH   2   3
ENDBRANCH   1   2
BRANCH   1  11
ATOM     11  C   UNL     1       7.157  39.199  -0.224  1.00  0.00     0.000 C 
BRANCH  11  12
ATOM     12  C   UNL     1       6.829  38.620   1.161  1.00  0.00    -0.000 C 
BRANCH  12  13
ATOM     13  C   UNL     1       8.086  38.234   1.955  1.00  0.00    -0.000 C 
BRANCH  13  14
ATOM     14  C   UNL     1       8.604  36.856   1.527  1.00  0.00    -0.000 C 
BRANCH  14  15
ATOM     15  C   UNL     1      10.135  36.800   1.589  1.00  0.00    -0.000 C 
BRANCH  15  16
ATOM     16  C   UNL     1      10.724  36.356   0.241  1.00  0.00    -0.000 C 
BRANCH  16  17
ATOM     17  C   UNL     1      10.234  37.220  -0.931  1.00  0.00    -0.003 C 
ATOM     18  C   UNL     1      10.795  38.641  -0.893  1.00  0.00     0.004 C 
ENDBRANCH  16  17
ENDBRANCH  15  16
ENDBRANCH  14  15
ENDBRANCH  13  14
ENDBRANCH  12  13
ENDBRANCH  11  12
ENDBRANCH   1  11
TORSDOF 14
ENDMDL
MODEL 4
REMARK VINA RESULT:    -3.948      2.255      3.559
REMARK INTER + INTRA:          -9.387
REMARK INTER:                  -7.354
REMARK INTRA:                  -2.033
REMARK UNBOUND:                -2.208
REMARK SMILES CCCCCCCCCCCCCCCC(=O)[O-]
REMARK SMILES IDX 9 1 10 2 11 3 12 4 13 5 14 6 15 7 16 8 17 9 18 10 8 11 7 12
REMARK SMILES IDX 6 13 5 14 4 15 3 16 2 17 1 18
REMARK H PARENT
REMARK Flexibility Score: inf
ROOT
ATOM      1  C   UNL     1       3.851  33.744  -2.198  1.00  0.00     0.000 C 
ENDROOT
BRANCH   1   2
ATOM      2  C   UNL     1       5.331  34.174  -2.125  1.00  0.00     0.000 C 
BRANCH   2   3
ATOM      3  C   UNL     1       6.275  33.275  -2.942  1.00  0.00     0.000 C 
BRANCH   3   4
ATOM      4  C   UNL     1       7.734  33.346  -2.464  1.00  0.00     0.000 C 
BRANCH   4   5
ATOM      5  C   UNL     1       7.859  34.016  -1.079  1.00  0.00     0.000 C 
BRANCH   5   6
ATOM      6  C   UNL     1       9.014  33.460  -0.229  1.00  0.00     0.006 C 
BRANCH   6   7
ATOM      7  C   UNL     1      10.378  34.033  -0.630  1.00  0.00     0.053 C 
BRANCH   7   8
ATOM      8  C   UNL     1      10.475  35.473  -0.233  1.00  0.00     0.041 C 
ATOM      9  O   UNL     1      10.638  35.787   0.976  1.00  0.00    -0.550 OA
ATOM     10  O   UNL     1      10.339  36.470  -1.191  1.00  0.00    -0.550 OA
ENDBRANCH   7   8
ENDBRANCH   6   7
ENDBRANCH   5   6
ENDBRANCH   4   5
ENDBRANCH   3   4
ENDBRANCH   2   3
ENDBRANCH   1   2
BRANCH   1  11
ATOM     11  C   UNL     1       2.933  34.685  -1.396  1.00  0.00     0.000 C 
BRANCH  11  12
ATOM     12  C   UNL     1       3.647  35.970  -0.949  1.00  0.00    -0.000 C 
BRANCH  12  13
ATOM     13  C   UNL     1       3.221  36.426   0.455  1.00  0.00    -0.000 C 
BRANCH  13  14
ATOM     14  C   UNL     1       3.991  35.660   1.537  1.00  0.00    -0.000 C 
BRANCH  14  15
ATOM     15  C   UNL     1       5.495  35.643   1.236  1.00  0.00    -0.000 C 
BRANCH  15  16
ATOM     16  C   UNL     1       6.132  37.006   1.542  1.00  0.00    -0.000 C 
BRANCH  16  17
ATOM     17  C   UNL     1       7.388  37.274   0.698  1.00  0.00    -0.003 C 
ATOM     18  C   UNL     1       7.060  37.644  -0.748  1.00  0.00     0.004 C 
ENDBRANCH  16  17
ENDBRANCH  15  16
ENDBRANCH  14  15
ENDBRANCH  13  14
ENDBRANCH  12  13
ENDBRANCH  11  12
ENDBRANCH   1  11
TORSDOF 14
ENDMDL
MODEL 5
REMARK VINA RESULT:    -3.944      2.830      4.838
REMARK INTER + INTRA:          -9.381
REMARK INTER:                  -7.096
REMARK INTRA:                  -2.284
REMARK UNBOUND:                -2.208
REMARK SMILES CCCCCCCCCCCCCCCC(=O)[O-]
REMARK SMILES IDX 9 1 10 2 11 3 12 4 13 5 14 6 15 7 16 8 17 9 18 10 8 11 7 12
REMARK SMILES IDX 6 13 5 14 4 15 3 16 2 17 1 18
REMARK H PARENT
REMARK Flexibility Score: inf
ROOT
ATOM      1  C   UNL     1      11.239  35.887  -0.813  1.00  0.00     0.000 C 
ENDROOT
BRANCH   1   2
ATOM      2  C   UNL     1      10.413  34.623  -0.494  1.00  0.00     0.000 C 
BRANCH   2   3
ATOM      3  C   UNL     1       9.134  34.911   0.313  1.00  0.00     0.000 C 
BRANCH   3   4
ATOM      4  C   UNL     1       7.892  34.215  -0.266  1.00  0.00     0.000 C 
BRANCH   4   5
ATOM      5  C   UNL     1       8.211  33.439  -1.561  1.00  0.00     0.000 C 
BRANCH   5   6
ATOM      6  C   UNL     1       7.186  33.670  -2.685  1.00  0.00     0.006 C 
BRANCH   6   7
ATOM      7  C   UNL     1       6.590  35.082  -2.665  1.00  0.00     0.053 C 
BRANCH   7   8
ATOM      8  C   UNL     1       5.115  35.022  -2.424  1.00  0.00     0.041 C 
ATOM      9  O   UNL     1       4.569  33.932  -2.106  1.00  0.00    -0.550 OA
ATOM     10  O   UNL     1       4.334  36.158  -2.594  1.00  0.00    -0.550 OA
ENDBRANCH   7   8
ENDBRANCH   6   7
ENDBRANCH   5   6
ENDBRANCH   4   5
ENDBRANCH   3   4
ENDBRANCH   2   3
ENDBRANCH   1   2
BRANCH   1  11
ATOM     11  C   UNL     1      10.347  37.095  -1.150  1.00  0.00     0.000 C 
BRANCH  11  12
ATOM     12  C   UNL     1      10.772  38.371  -0.407  1.00  0.00    -0.000 C 
BRANCH  12  13
ATOM     13  C   UNL     1      11.096  38.116   1.072  1.00  0.00    -0.000 C 
BRANCH  13  14
ATOM     14  C   UNL     1      10.232  38.996   1.983  1.00  0.00    -0.000 C 
BRANCH  14  15
ATOM     15  C   UNL     1       8.941  38.272   2.385  1.00  0.00    -0.000 C 
BRANCH  15  16
ATOM     16  C   UNL     1       7.728  38.866   1.654  1.00  0.00    -0.000 C 
BRANCH  16  17
ATOM     17  C   UNL     1       6.942  37.812   0.860  1.00  0.00    -0.003 C 
ATOM     18  C   UNL     1       6.897  38.112  -0.638  1.00  0.00     0.004 C 
ENDBRANCH  16  17
ENDBRANCH  15  16
ENDBRANCH  14  15
ENDBRANCH  13  14
ENDBRANCH  12  13
ENDBRANCH  11  12
ENDBRANCH   1  11
TORSDOF 14
ENDMDL
MODEL 6
REMARK VINA RESULT:    -3.939      1.470      2.182
REMARK INTER + INTRA:          -9.371
REMARK INTER:                  -6.658
REMARK INTRA:                  -2.712
REMARK UNBOUND:                -2.208
REMARK SMILES CCCCCCCCCCCCCCCC(=O)[O-]
REMARK SMILES IDX 9 1 10 2 11 3 12 4 13 5 14 6 15 7 16 8 17 9 18 10 8 11 7 12
REMARK SMILES IDX 6 13 5 14 4 15 3 16 2 17 1 18
REMARK H PARENT
REMARK Flexibility Score: inf
ROOT
ATOM      1  C   UNL     1       3.177  35.497  -0.081  1.00  0.00     0.000 C 
ENDROOT
BRANCH   1   2
ATOM      2  C   UNL     1       3.038  36.294  -1.395  1.00  0.00     0.000 C 
BRANCH   2   3
ATOM      3  C   UNL     1       4.026  35.855  -2.490  1.00  0.00     0.000 C 
BRANCH   3   4
ATOM      4  C   UNL     1       5.295  36.720  -2.533  1.00  0.00     0.000 C 
BRANCH   4   5
ATOM      5  C   UNL     1       6.581  35.866  -2.504  1.00  0.00     0.000 C 
BRANCH   5   6
ATOM      6  C   UNL     1       6.457  34.595  -1.648  1.00  0.00     0.006 C 
BRANCH   6   7
ATOM      7  C   UNL     1       7.681  34.356  -0.756  1.00  0.00     0.053 C 
BRANCH   7   8
ATOM      8  C   UNL     1       8.503  33.226  -1.291  1.00  0.00     0.041 C 
ATOM      9  O   UNL     1       8.471  32.945  -2.519  1.00  0.00    -0.550 OA
ATOM     10  O   UNL     1       9.268  32.453  -0.428  1.00  0.00    -0.550 OA
ENDBRANCH   7   8
ENDBRANCH   6   7
ENDBRANCH   5   6
ENDBRANCH   4   5
ENDBRANCH   3   4
ENDBRANCH   2   3
ENDBRANCH   1   2
BRANCH   1  11
ATOM     11  C   UNL     1       3.778  36.346   1.054  1.00  0.00     0.000 C 
BRANCH  11  12
ATOM     12  C   UNL     1       5.084  35.757   1.608  1.00  0.00    -0.000 C 
BRANCH  12  13
ATOM     13  C   UNL     1       6.248  36.759   1.575  1.00  0.00    -0.000 C 
BRANCH  13  14
ATOM     14  C   UNL     1       5.852  38.034   0.821  1.00  0.00    -0.000 C 
BRANCH  14  15
ATOM     15  C   UNL     1       7.069  38.670   0.138  1.00  0.00    -0.000 C 
BRANCH  15  16
ATOM     16  C   UNL     1       8.339  37.846   0.399  1.00  0.00    -0.000 C 
BRANCH  16  17
ATOM     17  C   UNL     1       9.366  37.968  -0.737  1.00  0.00    -0.003 C 
ATOM     18  C   UNL     1      10.332  36.786  -0.791  1.00  0.00     0.004 C 
ENDBRANCH  16  17
ENDBRANCH  15  16
ENDBRANCH  14  15
ENDBRANCH  13  14
ENDBRANCH  12  13
ENDBRANCH  11  12
ENDBRANCH   1  11
TORSDOF 14
ENDMDL
MODEL 7
REMARK VINA RESULT:    -3.933      2.002      4.531
REMARK INTER + INTRA:          -9.361
REMARK INTER:                  -7.525
REMARK INTRA:                  -1.836
REMARK UNBOUND:                -2.208
REMARK SMILES CCCCCCCCCCCCCCCC(=O)[O-]
REMARK SMILES IDX 9 1 10 2 11 3 12 4 13 5 14 6 15 7 16 8 17 9 18 10 8 11 7 12
REMARK SMILES IDX 6 13 5 14 4 15 3 16 2 17 1 18
REMARK H PARENT
REMARK Flexibility Score: inf
ROOT
ATOM      1  C   UNL     1       5.016  36.891  -2.558  1.00  0.00     0.000 C 
ENDROOT
BRANCH   1   2
ATOM      2  C   UNL     1       4.910  38.209  -1.763  1.00  0.00     0.000 C 
BRANCH   2   3
ATOM      3  C   UNL     1       5.137  38.037  -0.251  1.00  0.00     0.000 C 
BRANCH   3   4
ATOM      4  C   UNL     1       6.372  37.181   0.075  1.00  0.00     0.000 C 
BRANCH   4   5
ATOM      5  C   UNL     1       7.690  37.937  -0.194  1.00  0.00     0.000 C 
BRANCH   5   6
ATOM      6  C   UNL     1       8.638  37.197  -1.154  1.00  0.00     0.006 C 
BRANCH   6   7
ATOM      7  C   UNL     1      10.117  37.436  -0.830  1.00  0.00     0.053 C 
BRANCH   7   8
ATOM      8  C   UNL     1      10.755  36.175  -0.338  1.00  0.00     0.041 C 
ATOM      9  O   UNL     1      11.339  35.404  -1.146  1.00  0.00    -0.550 OA
ATOM     10  O   UNL     1      10.664  35.826   1.003  1.00  0.00    -0.550 OA
ENDBRANCH   7   8
ENDBRANCH   6   7
ENDBRANCH   5   6
ENDBRANCH   4   5
ENDBRANCH   3   4
ENDBRANCH   2   3
ENDBRANCH   1   2
BRANCH   1  11
ATOM     11  C   UNL     1       3.833  35.947  -2.278  1.00  0.00     0.000 C 
BRANCH  11  12
ATOM     12  C   UNL     1       4.237  34.465  -2.309  1.00  0.00    -0.000 C 
BRANCH  12  13
ATOM     13  C   UNL     1       5.692  34.238  -1.872  1.00  0.00    -0.000 C 
BRANCH  13  14
ATOM     14  C   UNL     1       6.434  33.346  -2.876  1.00  0.00    -0.000 C 
BRANCH  14  15
ATOM     15  C   UNL     1       7.926  33.257  -2.535  1.00  0.00    -0.000 C 
BRANCH  15  16
ATOM     16  C   UNL     1       8.176  33.612  -1.061  1.00  0.00    -0.000 C 
BRANCH  16  17
ATOM     17  C   UNL     1       9.231  32.707  -0.406  1.00  0.00    -0.003 C 
ATOM     18  C   UNL     1       9.963  31.826  -1.417  1.00  0.00     0.004 C 
ENDBRANCH  16  17
ENDBRANCH  15  16
ENDBRANCH  14  15
ENDBRANCH  13  14
ENDBRANCH  12  13
ENDBRANCH  11  12
ENDBRANCH   1  11
TORSDOF 14
ENDMDL
MODEL 8
REMARK VINA RESULT:    -3.912      1.413      2.242
REMARK INTER + INTRA:          -9.323
REMARK INTER:                  -7.515
REMARK INTRA:                  -1.807
REMARK UNBOUND:                -2.208
REMARK SMILES CCCCCCCCCCCCCCCC(=O)[O-]
REMARK SMILES IDX 9 1 10 2 11 3 12 4 13 5 14 6 15 7 16 8 17 9 18 10 8 11 7 12
REMARK SMILES IDX 6 13 5 14 4 15 3 16 2 17 1 18
REMARK H PARENT
REMARK Flexibility Score: inf
ROOT
ATOM      1  C   UNL     1       3.233  35.396  -2.511  1.00  0.00     0.000 C 
ENDROOT
BRANCH   1   2
ATOM      2  C   UNL     1       3.958  34.148  -1.965  1.00  0.00     0.000 C 
BRANCH   2   3
ATOM      3  C   UNL     1       5.385  33.975  -2.516  1.00  0.00     0.000 C 
BRANCH   3   4
ATOM      4  C   UNL     1       6.471  34.252  -1.463  1.00  0.00     0.000 C 
BRANCH   4   5
ATOM      5  C   UNL     1       7.817  33.592  -1.830  1.00  0.00     0.000 C 
BRANCH   5   6
ATOM      6  C   UNL     1       8.785  33.466  -0.641  1.00  0.00     0.006 C 
BRANCH   6   7
ATOM      7  C   UNL     1      10.218  33.137  -1.073  1.00  0.00     0.053 C 
BRANCH   7   8
ATOM      8  C   UNL     1      10.467  31.665  -0.973  1.00  0.00     0.041 C 
ATOM      9  O   UNL     1       9.890  30.983  -0.084  1.00  0.00    -0.550 OA
ATOM     10  O   UNL     1      11.371  31.052  -1.831  1.00  0.00    -0.550 OA
ENDBRANCH   7   8
ENDBRANCH   6   7
ENDBRANCH   5   6
ENDBRANCH   4   5
ENDBRANCH   3   4
ENDBRANCH   2   3
ENDBRANCH   1   2
BRANCH   1  11
ATOM     11  C   UNL     1       2.927  36.421  -1.404  1.00  0.00     0.000 C 
BRANCH  11  12
ATOM     12  C   UNL     1       4.189  37.133  -0.891  1.00  0.00    -0.000 C 
BRANCH  12  13
ATOM     13  C   UNL     1       5.050  37.705  -2.027  1.00  0.00    -0.000 C 
BRANCH  13  14
ATOM     14  C   UNL     1       6.356  38.294  -1.481  1.00  0.00    -0.000 C 
BRANCH  14  15
ATOM     15  C   UNL     1       6.505  38.007   0.019  1.00  0.00    -0.000 C 
BRANCH  15  16
ATOM     16  C   UNL     1       7.760  37.166   0.295  1.00  0.00    -0.000 C 
BRANCH  16  17
ATOM     17  C   UNL     1       9.040  37.817  -0.253  1.00  0.00    -0.003 C 
ATOM     18  C   UNL     1       9.845  36.876  -1.149  1.00  0.00     0.004 C 
ENDBRANCH  16  17
ENDBRANCH  15  16
ENDBRANCH  14  15
ENDBRANCH  13  14
ENDBRANCH  12  13
ENDBRANCH  11  12
ENDBRANCH   1  11
TORSDOF 14
ENDMDL
MODEL 9
REMARK VINA RESULT:    -3.883      1.596      4.357
REMARK INTER + INTRA:          -9.269
REMARK INTER:                  -7.191
REMARK INTRA:                  -2.078
REMARK UNBOUND:                -2.208
REMARK SMILES CCCCCCCCCCCCCCCC(=O)[O-]
REMARK SMILES IDX 9 1 10 2 11 3 12 4 13 5 14 6 15 7 16 8 17 9 18 10 8 11 7 12
REMARK SMILES IDX 6 13 5 14 4 15 3 16 2 17 1 18
REMARK H PARENT
REMARK Flexibility Score: inf
ROOT
ATOM      1  C   UNL     1       6.580  34.499  -1.480  1.00  0.00     0.000 C 
ENDROOT
BRANCH   1   2
ATOM      2  C   UNL     1       7.382  35.674  -2.078  1.00  0.00     0.000 C 
BRANCH   2   3
ATOM      3  C   UNL     1       7.480  36.892  -1.142  1.00  0.00     0.000 C 
BRANCH   3   4
ATOM      4  C   UNL     1       8.866  37.038  -0.493  1.00  0.00     0.000 C 
BRANCH   4   5
ATOM      5  C   UNL     1       9.971  36.349  -1.321  1.00  0.00     0.000 C 
BRANCH   5   6
ATOM      6  C   UNL     1      10.665  35.193  -0.580  1.00  0.00     0.006 C 
BRANCH   6   7
ATOM      7  C   UNL     1      10.781  33.925  -1.433  1.00  0.00     0.053 C 
BRANCH   7   8
ATOM      8  C   UNL     1      10.129  32.770  -0.742  1.00  0.00     0.041 C 
ATOM      9  O   UNL     1      10.445  31.589  -1.046  1.00  0.00    -0.550 OA
ATOM     10  O   UNL     1       9.137  32.994   0.205  1.00  0.00    -0.550 OA
ENDBRANCH   7   8
ENDBRANCH   6   7
ENDBRANCH   5   6
ENDBRANCH   4   5
ENDBRANCH   3   4
ENDBRANCH   2   3
ENDBRANCH   1   2
BRANCH   1  11
ATOM     11  C   UNL     1       5.689  33.811  -2.529  1.00  0.00     0.000 C 
BRANCH  11  12
ATOM     12  C   UNL     1       4.190  33.987  -2.240  1.00  0.00    -0.000 C 
BRANCH  12  13
ATOM     13  C   UNL     1       3.697  35.416  -2.515  1.00  0.00    -0.000 C 
BRANCH  13  14
ATOM     14  C   UNL     1       3.068  36.030  -1.258  1.00  0.00    -0.000 C 
BRANCH  14  15
ATOM     15  C   UNL     1       3.807  37.308  -0.842  1.00  0.00    -0.000 C 
BRANCH  15  16
ATOM     16  C   UNL     1       4.006  37.356   0.681  1.00  0.00    -0.000 C 
BRANCH  16  17
ATOM     17  C   UNL     1       3.986  35.960   1.323  1.00  0.00    -0.003 C 
ATOM     18  C   UNL     1       5.374  35.488   1.755  1.00  0.00     0.004 C 
ENDBRANCH  16  17
ENDBRANCH  15  16
ENDBRANCH  14  15
ENDBRANCH  13  14
ENDBRANCH  12  13
ENDBRANCH  11  12
ENDBRANCH   1  11
TORSDOF 14
ENDMDL
