MODEL 1
REMARK VINA RESULT:    -2.969      0.000      0.000
REMARK INTER + INTRA:          -5.832
REMARK INTER:                  -4.705
REMARK INTRA:                  -1.127
REMARK UNBOUND:                -1.127
REMARK SMILES CCCCCCCCCCCC(=O)[O-]
REMARK SMILES IDX 7 1 8 2 9 3 10 4 11 5 12 6 13 7 14 8 6 9 5 10 4 11 3 12 2 13
REMARK SMILES IDX 1 14
REMARK H PARENT
REMARK Flexibility Score: inf
ROOT
ATOM      1  C   UNL     1       6.762   9.327 -12.667  1.00  0.00     0.000 C 
ENDROOT
BRANCH   1   2
ATOM      2  C   UNL     1       5.840   8.802 -11.555  1.00  0.00     0.000 C 
BRANCH   2   3
ATOM      3  C   UNL     1       4.424   8.472 -12.060  1.00  0.00     0.000 C 
BRANCH   3   4
ATOM      4  C   UNL     1       3.318   9.310 -11.385  1.00  0.00     0.006 C 
BRANCH   4   5
ATOM      5  C   UNL     1       2.427   8.465 -10.467  1.00  0.00     0.053 C 
BRANCH   5   6
ATOM      6  C   UNL     1       2.769   8.712  -9.032  1.00  0.00     0.041 C 
ATOM      7  O   UNL     1       3.868   8.312  -8.565  1.00  0.00    -0.550 OA
ATOM      8  O   UNL     1       1.897   9.428  -8.222  1.00  0.00    -0.550 OA
ENDBRANCH   5   6
ENDBRANCH   4   5
ENDBRANCH   3   4
ENDBRANCH   2   3
ENDBRANCH   1   2
BRANCH   1   9
ATOM      9  C   UNL     1       6.129  10.478 -13.465  1.00  0.00     0.000 C 
BRANCH   9  10
ATOM     10  C   UNL     1       5.742  10.064 -14.892  1.00  0.00    -0.000 C 
BRANCH  10  11
ATOM     11  C   UNL     1       4.687  11.014 -15.473  1.00  0.00    -0.000 C 
BRANCH  11  12
ATOM     12  C   UNL     1       4.011  11.831 -14.365  1.00  0.00    -0.000 C 
BRANCH  12  13
ATOM     13  C   UNL     1       2.509  11.532 -14.301  1.00  0.00    -0.003 C 
ATOM     14  C   UNL     1       2.199  10.144 -14.853  1.00  0.00     0.004 C 
ENDBRANCH  12  13
ENDBRANCH  11  12
ENDBRANCH  10  11
ENDBRANCH   9  10
ENDBRANCH   1   9
TORSDOF 10
ENDMDL
MODEL 2
REMARK VINA RESULT:    -2.939      1.569      2.461
REMARK INTER + INTRA:          -5.785
REMARK INTER:                  -5.060
REMARK INTRA:                  -0.725
REMARK UNBOUND:                -1.127
REMARK SMILES CCCCCCCCCCCC(=O)[O-]
REMARK SMILES IDX 7 1 8 2 9 3 10 4 11 5 12 6 13 7 14 8 6 9 5 10 4 11 3 12 2 13
REMARK SMILES IDX 1 14
REMARK H PARENT
REMARK Flexibility Score: inf
ROOT
ATOM      1  C   UNL     1       5.421  10.621 -13.671  1.00  0.00     0.000 C 
ENDROOT
BRANCH   1   2
ATOM      2  C   UNL     1       6.766  10.208 -13.052  1.00  0.00     0.000 C 
BRANCH   2   3
ATOM      3  C   UNL     1       6.813   8.719 -12.665  1.00  0.00     0.000 C 
BRANCH   3   4
ATOM      4  C   UNL     1       5.477   8.185 -12.107  1.00  0.00     0.006 C 
BRANCH   4   5
ATOM      5  C   UNL     1       5.263   8.573 -10.638  1.00  0.00     0.053 C 
BRANCH   5   6
ATOM      6  C   UNL     1       3.817   8.845 -10.372  1.00  0.00     0.041 C 
ATOM      7  O   UNL     1       3.089   9.340 -11.273  1.00  0.00    -0.550 OA
ATOM      8  O   UNL     1       3.258   8.505  -9.147  1.00  0.00    -0.550 OA
ENDBRANCH   5   6
ENDBRANCH   4   5
ENDBRANCH   3   4
ENDBRANCH   2   3
ENDBRANCH   1   2
BRANCH   1   9
ATOM      9  C   UNL     1       5.380  10.402 -15.192  1.00  0.00     0.000 C 
BRANCH   9  10
ATOM     10  C   UNL     1       3.947  10.333 -15.740  1.00  0.00    -0.000 C 
BRANCH  10  11
ATOM     11  C   UNL     1       3.423  11.732 -16.087  1.00  0.00    -0.000 C 
BRANCH  11  12
ATOM     12  C   UNL     1       2.492  12.260 -14.990  1.00  0.00    -0.000 C 
BRANCH  12  13
ATOM     13  C   UNL     1       2.965  13.626 -14.479  1.00  0.00    -0.003 C 
ATOM     14  C   UNL     1       3.060  14.637 -15.618  1.00  0.00     0.004 C 
ENDBRANCH  12  13
ENDBRANCH  11  12
ENDBRANCH  10  11
ENDBRANCH   9  10
ENDBRANCH   1   9
TORSDOF 10
ENDMDL
MODEL 3
REMARK VINA RESULT:    -2.801     14.239     16.534
REMARK INTER + INTRA:          -5.565
REMARK INTER:                  -5.101
REMARK INTRA:                  -0.464
REMARK UNBOUND:                -1.127
REMARK SMILES CCCCCCCCCCCC(=O)[O-]
REMARK SMILES IDX 7 1 8 2 9 3 10 4 11 5 12 6 13 7 14 8 6 9 5 10 4 11 3 12 2 13
REMARK SMILES IDX 1 14
REMARK H PARENT
REMARK Flexibility Score: inf
ROOT
ATOM      1  C   UNL     1      19.371  11.423 -15.461  1.00  0.00     0.000 C 
ENDROOT
BRANCH   1   2
ATOM      2  C   UNL     1      20.716  10.755 -15.132  1.00  0.00     0.000 C 
BRANCH   2   3
ATOM      3  C   UNL     1      21.693  11.704 -14.415  1.00  0.00     0.000 C 
BRANCH   3   4
ATOM      4  C   UNL     1      21.053  13.042 -13.989  1.00  0.00     0.006 C 
BRANCH   4   5
ATOM      5  C   UNL     1      22.019  14.223 -14.141  1.00  0.00     0.053 C 
BRANCH   5   6
ATOM      6  C   UNL     1      21.572  15.130 -15.243  1.00  0.00     0.041 C 
ATOM      7  O   UNL     1      22.125  16.249 -15.406  1.00  0.00    -0.550 OA
ATOM      8  O   UNL     1      20.580  14.718 -16.123  1.00  0.00    -0.550 OA
ENDBRANCH   5   6
ENDBRANCH   4   5
ENDBRANCH   3   4
ENDBRANCH   2   3
ENDBRANCH   1   2
BRANCH   1   9
ATOM      9  C   UNL     1      18.256  11.021 -14.482  1.00  0.00     0.000 C 
BRANCH   9  10
ATOM     10  C   UNL     1      18.268   9.519 -14.160  1.00  0.00    -0.000 C 
BRANCH  10  11
ATOM     11  C   UNL     1      18.119   8.682 -15.437  1.00  0.00    -0.000 C 
BRANCH  11  12
ATOM     12  C   UNL     1      16.793   7.913 -15.440  1.00  0.00    -0.000 C 
BRANCH  12  13
ATOM     13  C   UNL     1      16.027   8.133 -14.131  1.00  0.00    -0.003 C 
ATOM     14  C   UNL     1      14.520   8.146 -14.370  1.00  0.00     0.004 C 
ENDBRANCH  12  13
ENDBRANCH  11  12
ENDBRANCH  10  11
ENDBRANCH   9  10
ENDBRANCH   1   9
TORSDOF 10
ENDMDL
MODEL 4
REMARK VINA RESULT:    -2.367      3.539      5.885
REMARK INTER + INTRA:          -4.877
REMARK INTER:                  -4.407
REMARK INTRA:                  -0.471
REMARK UNBOUND:                -1.127
REMARK SMILES CCCCCCCCCCCC(=O)[O-]
REMARK SMILES IDX 7 1 8 2 9 3 10 4 11 5 12 6 13 7 14 8 6 9 5 10 4 11 3 12 2 13
REMARK SMILES IDX 1 14
REMARK H PARENT
REMARK Flexibility Score: inf
ROOT
ATOM      1  C   UNL     1       5.204   9.972 -13.678  1.00  0.00     0.000 C 
ENDROOT
BRANCH   1   2
ATOM      2  C   UNL     1       5.222  11.246 -14.537  1.00  0.00     0.000 C 
BRANCH   2   3
ATOM      3  C   UNL     1       3.962  11.398 -15.407  1.00  0.00     0.000 C 
BRANCH   3   4
ATOM      4  C   UNL     1       3.805  12.803 -16.026  1.00  0.00     0.006 C 
BRANCH   4   5
ATOM      5  C   UNL     1       2.348  13.281 -16.019  1.00  0.00     0.053 C 
BRANCH   5   6
ATOM      6  C   UNL     1       2.185  14.455 -15.106  1.00  0.00     0.041 C 
ATOM      7  O   UNL     1       2.236  15.626 -15.566  1.00  0.00    -0.550 OA
ATOM      8  O   UNL     1       1.926  14.256 -13.757  1.00  0.00    -0.550 OA
ENDBRANCH   5   6
ENDBRANCH   4   5
ENDBRANCH   3   4
ENDBRANCH   2   3
ENDBRANCH   1   2
BRANCH   1   9
ATOM      9  C   UNL     1       6.522   9.752 -12.918  1.00  0.00     0.000 C 
BRANCH   9  10
ATOM     10  C   UNL     1       6.560   8.407 -12.179  1.00  0.00    -0.000 C 
BRANCH  10  11
ATOM     11  C   UNL     1       5.239   8.144 -11.445  1.00  0.00    -0.000 C 
BRANCH  11  12
ATOM     12  C   UNL     1       5.294   8.669 -10.006  1.00  0.00    -0.000 C 
BRANCH  12  13
ATOM     13  C   UNL     1       3.970   8.413  -9.277  1.00  0.00    -0.003 C 
ATOM     14  C   UNL     1       2.778   8.742 -10.170  1.00  0.00     0.004 C 
ENDBRANCH  12  13
ENDBRANCH  11  12
ENDBRANCH  10  11
ENDBRANCH   9  10
ENDBRANCH   1   9
TORSDOF 10
ENDMDL
MODEL 5
REMARK VINA RESULT:    -2.352     12.807     15.005
REMARK INTER + INTRA:          -4.855
REMARK INTER:                  -4.297
REMARK INTRA:                  -0.557
REMARK UNBOUND:                -1.127
REMARK SMILES CCCCCCCCCCCC(=O)[O-]
REMARK SMILES IDX 7 1 8 2 9 3 10 4 11 5 12 6 13 7 14 8 6 9 5 10 4 11 3 12 2 13
REMARK SMILES IDX 1 14
REMARK H PARENT
REMARK Flexibility Score: inf
ROOT
ATOM      1  C   UNL     1      18.208  11.303 -13.433  1.00  0.00     0.000 C 
ENDROOT
BRANCH   1   2
ATOM      2  C   UNL     1      18.461   9.840 -13.834  1.00  0.00     0.000 C 
BRANCH   2   3
ATOM      3  C   UNL     1      17.930   9.506 -15.239  1.00  0.00     0.000 C 
BRANCH   3   4
ATOM      4  C   UNL     1      17.159   8.170 -15.305  1.00  0.00     0.006 C 
BRANCH   4   5
ATOM      5  C   UNL     1      16.275   7.947 -14.072  1.00  0.00     0.053 C 
BRANCH   5   6
ATOM      6  C   UNL     1      14.922   8.548 -14.280  1.00  0.00     0.041 C 
ATOM      7  O   UNL     1      14.060   7.944 -14.971  1.00  0.00    -0.550 OA
ATOM      8  O   UNL     1      14.593   9.751 -13.670  1.00  0.00    -0.550 OA
ENDBRANCH   5   6
ENDBRANCH   4   5
ENDBRANCH   3   4
ENDBRANCH   2   3
ENDBRANCH   1   2
BRANCH   1   9
ATOM      9  C   UNL     1      19.377  12.228 -13.807  1.00  0.00     0.000 C 
BRANCH   9  10
ATOM     10  C   UNL     1      19.352  12.645 -15.284  1.00  0.00    -0.000 C 
BRANCH  10  11
ATOM     11  C   UNL     1      20.590  12.122 -16.024  1.00  0.00    -0.000 C 
BRANCH  11  12
ATOM     12  C   UNL     1      21.823  12.976 -15.706  1.00  0.00    -0.000 C 
BRANCH  12  13
ATOM     13  C   UNL     1      21.424  14.423 -15.394  1.00  0.00    -0.003 C 
ATOM     14  C   UNL     1      22.115  14.923 -14.128  1.00  0.00     0.004 C 
ENDBRANCH  12  13
ENDBRANCH  11  12
ENDBRANCH  10  11
ENDBRANCH   9  10
ENDBRANCH   1   9
TORSDOF 10
ENDMDL
MODEL 6
REMARK VINA RESULT:    -2.306     13.892     16.020
REMARK INTER + INTRA:          -4.781
REMARK INTER:                  -4.077
REMARK INTRA:                  -0.705
REMARK UNBOUND:                -1.127
REMARK SMILES CCCCCCCCCCCC(=O)[O-]
REMARK SMILES IDX 7 1 8 2 9 3 10 4 11 5 12 6 13 7 14 8 6 9 5 10 4 11 3 12 2 13
REMARK SMILES IDX 1 14
REMARK H PARENT
REMARK Flexibility Score: inf
ROOT
ATOM      1  C   UNL     1      19.173  11.196 -15.913  1.00  0.00     0.000 C 
ENDROOT
BRANCH   1   2
ATOM      2  C   UNL     1      18.786  12.077 -14.715  1.00  0.00     0.000 C 
BRANCH   2   3
ATOM      3  C   UNL     1      18.041  11.298 -13.617  1.00  0.00     0.000 C 
BRANCH   3   4
ATOM      4  C   UNL     1      18.185   9.766 -13.742  1.00  0.00     0.006 C 
BRANCH   4   5
ATOM      5  C   UNL     1      16.833   9.046 -13.667  1.00  0.00     0.053 C 
BRANCH   5   6
ATOM      6  C   UNL     1      16.588   8.257 -14.914  1.00  0.00     0.041 C 
ATOM      7  O   UNL     1      17.556   7.892 -15.632  1.00  0.00    -0.550 OA
ATOM      8  O   UNL     1      15.297   7.880 -15.257  1.00  0.00    -0.550 OA
ENDBRANCH   5   6
ENDBRANCH   4   5
ENDBRANCH   3   4
ENDBRANCH   2   3
ENDBRANCH   1   2
BRANCH   1   9
ATOM      9  C   UNL     1      20.680  10.894 -15.962  1.00  0.00     0.000 C 
BRANCH   9  10
ATOM     10  C   UNL     1      21.477  11.705 -14.930  1.00  0.00    -0.000 C 
BRANCH  10  11
ATOM     11  C   UNL     1      22.113  12.942 -15.576  1.00  0.00    -0.000 C 
BRANCH  11  12
ATOM     12  C   UNL     1      21.758  14.214 -14.797  1.00  0.00    -0.000 C 
BRANCH  12  13
ATOM     13  C   UNL     1      21.251  15.312 -15.739  1.00  0.00    -0.003 C 
ATOM     14  C   UNL     1      22.065  16.593 -15.580  1.00  0.00     0.004 C 
ENDBRANCH  12  13
ENDBRANCH  11  12
ENDBRANCH  10  11
ENDBRANCH   9  10
ENDBRANCH   1   9
TORSDOF 10
ENDMDL
MODEL 7
REMARK VINA RESULT:    -2.077      4.585      6.628
REMARK INTER + INTRA:          -4.418
REMARK INTER:                  -4.023
REMARK INTRA:                  -0.395
REMARK UNBOUND:                -1.127
REMARK SMILES CCCCCCCCCCCC(=O)[O-]
REMARK SMILES IDX 7 1 8 2 9 3 10 4 11 5 12 6 13 7 14 8 6 9 5 10 4 11 3 12 2 13
REMARK SMILES IDX 1 14
REMARK H PARENT
REMARK Flexibility Score: inf
ROOT
ATOM      1  C   UNL     1       4.036  10.812 -14.090  1.00  0.00     0.000 C 
ENDROOT
BRANCH   1   2
ATOM      2  C   UNL     1       3.802  12.070 -14.943  1.00  0.00     0.000 C 
BRANCH   2   3
ATOM      3  C   UNL     1       2.506  12.810 -14.569  1.00  0.00     0.000 C 
BRANCH   3   4
ATOM      4  C   UNL     1       2.090  13.882 -15.598  1.00  0.00     0.006 C 
BRANCH   4   5
ATOM      5  C   UNL     1       1.875  15.257 -14.952  1.00  0.00     0.053 C 
BRANCH   5   6
ATOM      6  C   UNL     1       2.636  16.310 -15.693  1.00  0.00     0.041 C 
ATOM      7  O   UNL     1       3.794  16.068 -16.125  1.00  0.00    -0.550 OA
ATOM      8  O   UNL     1       2.048  17.541 -15.953  1.00  0.00    -0.550 OA
ENDBRANCH   5   6
ENDBRANCH   4   5
ENDBRANCH   3   4
ENDBRANCH   2   3
ENDBRANCH   1   2
BRANCH   1   9
ATOM      9  C   UNL     1       5.528  10.520 -13.866  1.00  0.00     0.000 C 
BRANCH   9  10
ATOM     10  C   UNL     1       5.920   9.095 -14.286  1.00  0.00    -0.000 C 
BRANCH  10  11
ATOM     11  C   UNL     1       5.416   8.064 -13.268  1.00  0.00    -0.000 C 
BRANCH  11  12
ATOM     12  C   UNL     1       5.636   8.553 -11.832  1.00  0.00    -0.000 C 
BRANCH  12  13
ATOM     13  C   UNL     1       4.336   8.484 -11.023  1.00  0.00    -0.003 C 
ATOM     14  C   UNL     1       4.624   8.405  -9.526  1.00  0.00     0.004 C 
ENDBRANCH  12  13
ENDBRANCH  11  12
ENDBRANCH  10  11
ENDBRANCH   9  10
ENDBRANCH   1   9
TORSDOF 10
ENDMDL
MODEL 8
REMARK VINA RESULT:    -1.537     14.788     17.038
REMARK INTER + INTRA:          -3.562
REMARK INTER:                  -3.174
REMARK INTRA:                  -0.389
REMARK UNBOUND:                -1.127
REMARK SMILES CCCCCCCCCCCC(=O)[O-]
REMARK SMILES IDX 7 1 8 2 9 3 10 4 11 5 12 6 13 7 14 8 6 9 5 10 4 11 3 12 2 13
REMARK SMILES IDX 1 14
REMARK H PARENT
REMARK Flexibility Score: inf
ROOT
ATOM      1  C   UNL     1      19.538  12.145 -14.687  1.00  0.00     0.000 C 
ENDROOT
BRANCH   1   2
ATOM      2  C   UNL     1      20.881  12.893 -14.662  1.00  0.00     0.000 C 
BRANCH   2   3
ATOM      3  C   UNL     1      20.925  14.075 -15.646  1.00  0.00     0.000 C 
BRANCH   3   4
ATOM      4  C   UNL     1      21.374  15.401 -14.998  1.00  0.00     0.006 C 
BRANCH   4   5
ATOM      5  C   UNL     1      22.097  16.319 -15.993  1.00  0.00     0.053 C 
BRANCH   5   6
ATOM      6  C   UNL     1      21.430  17.656 -16.053  1.00  0.00     0.041 C 
ATOM      7  O   UNL     1      22.123  18.706 -16.117  1.00  0.00    -0.550 OA
ATOM      8  O   UNL     1      20.045  17.742 -16.090  1.00  0.00    -0.550 OA
ENDBRANCH   5   6
ENDBRANCH   4   5
ENDBRANCH   3   4
ENDBRANCH   2   3
ENDBRANCH   1   2
BRANCH   1   9
ATOM      9  C   UNL     1      19.607  10.834 -15.487  1.00  0.00     0.000 C 
BRANCH   9  10
ATOM     10  C   UNL     1      18.462   9.871 -15.141  1.00  0.00    -0.000 C 
BRANCH  10  11
ATOM     11  C   UNL     1      17.665  10.376 -13.932  1.00  0.00    -0.000 C 
BRANCH  11  12
ATOM     12  C   UNL     1      16.205   9.913 -14.002  1.00  0.00    -0.000 C 
BRANCH  12  13
ATOM     13  C   UNL     1      16.119   8.411 -14.298  1.00  0.00    -0.003 C 
ATOM     14  C   UNL     1      14.691   7.899 -14.133  1.00  0.00     0.004 C 
ENDBRANCH  12  13
ENDBRANCH  11  12
ENDBRANCH  10  11
ENDBRANCH   9  10
ENDBRANCH   1   9
TORSDOF 10
ENDMDL
