MODEL 1
REMARK VINA RESULT:    -4.508      0.000      0.000
REMARK INTER + INTRA:          -4.886
REMARK INTER:                  -5.430
REMARK INTRA:                   0.544
REMARK UNBOUND:                 0.544
REMARK SMILES O=c1c(O)c(-c2ccc(O)c(O)c2)oc2cc(O)cc(O)c12
REMARK SMILES IDX 5 1 3 2 2 3 1 4 22 5 20 6 19 7 17 8 16 9 15 10 14 11 6 12
REMARK SMILES IDX 7 13 8 14 9 15 13 16 11 17 10 18 12 20 4 22 21 24 18 26
REMARK H PARENT 10 19 12 21 4 23 21 25 18 27
REMARK Flexibility Score: inf
ROOT
ATOM      1  C   UNL     1      -6.797  -2.189 -10.029  1.00  0.00     0.180 A 
ATOM      2  C   UNL     1      -8.165  -1.859 -10.004  1.00  0.00     0.208 A 
ATOM      3  C   UNL     1      -8.537  -0.506  -9.984  1.00  0.00     0.238 A 
ATOM      4  O   UNL     1      -9.760  -0.198  -9.950  1.00  0.00    -0.285 OA
ATOM      5  C   UNL     1      -7.540   0.491 -10.010  1.00  0.00     0.111 A 
ATOM      6  C   UNL     1      -7.830   1.878  -9.998  1.00  0.00     0.134 A 
ATOM      7  C   UNL     1      -6.781   2.808 -10.035  1.00  0.00     0.093 A 
ATOM      8  C   UNL     1      -5.452   2.382 -10.086  1.00  0.00     0.123 A 
ATOM      9  C   UNL     1      -5.159   1.014 -10.099  1.00  0.00     0.094 A 
ATOM     10  C   UNL     1      -6.191   0.071 -10.060  1.00  0.00     0.146 A 
ATOM     11  O   UNL     1      -5.885  -1.221 -10.068  1.00  0.00    -0.452 OA
ENDROOT
BRANCH   1  12
ATOM     12  C   UNL     1      -6.325  -3.592 -10.032  1.00  0.00     0.025 A 
ATOM     13  C   UNL     1      -4.954  -3.903 -10.055  1.00  0.00     0.016 A 
ATOM     14  C   UNL     1      -4.531  -5.234 -10.081  1.00  0.00     0.051 A 
ATOM     15  C   UNL     1      -5.467  -6.273 -10.100  1.00  0.00     0.157 A 
ATOM     16  C   UNL     1      -7.262  -4.637 -10.073  1.00  0.00     0.062 A 
ATOM     17  C   UNL     1      -6.840  -5.975 -10.099  1.00  0.00     0.158 A 
BRANCH  15  18
ATOM     18  O   UNL     1      -5.016  -7.592 -10.124  1.00  0.00    -0.504 OA
ATOM     19  H   UNL     1      -4.054  -7.827 -10.338  1.00  0.00     0.293 HD
ENDBRANCH  15  18
BRANCH  17  20
ATOM     20  O   UNL     1      -7.779  -7.005 -10.124  1.00  0.00    -0.504 OA
ATOM     21  H   UNL     1      -8.447  -7.133  -9.373  1.00  0.00     0.293 HD
ENDBRANCH  17  20
ENDBRANCH   1  12
BRANCH   2  22
ATOM     22  O   UNL     1      -9.135  -2.865 -10.028  1.00  0.00    -0.502 OA
ATOM     23  H   UNL     1      -9.462  -3.284 -10.889  1.00  0.00     0.293 HD
ENDBRANCH   2  22
BRANCH   6  24
ATOM     24  O   UNL     1      -9.147   2.335  -9.948  1.00  0.00    -0.507 OA
ATOM     25  H   UNL     1      -9.580   2.803 -10.736  1.00  0.00     0.293 HD
ENDBRANCH   6  24
BRANCH   8  26
ATOM     26  O   UNL     1      -4.429   3.327 -10.125  1.00  0.00    -0.508 OA
ATOM     27  H   UNL     1      -4.621   4.310 -10.279  1.00  0.00     0.293 HD
ENDBRANCH   8  26
TORSDOF 6
ENDMDL
MODEL 2
REMARK VINA RESULT:    -4.433      1.794      3.540
REMARK INTER + INTRA:          -4.796
REMARK INTER:                  -5.065
REMARK INTRA:                   0.269
REMARK UNBOUND:                 0.544
REMARK SMILES O=c1c(O)c(-c2ccc(O)c(O)c2)oc2cc(O)cc(O)c12
REMARK SMILES IDX 5 1 3 2 2 3 1 4 22 5 20 6 19 7 17 8 16 9 15 10 14 11 6 12
REMARK SMILES IDX 7 13 8 14 9 15 13 16 11 17 10 18 12 20 4 22 21 24 18 26
REMARK H PARENT 10 19 12 21 4 23 21 25 18 27
REMARK Flexibility Score: inf
ROOT
ATOM      1  C   UNL     1      -5.368  -2.817  -9.668  1.00  0.00     0.180 A 
ATOM      2  C   UNL     1      -3.979  -2.610  -9.754  1.00  0.00     0.208 A 
ATOM      3  C   UNL     1      -3.495  -1.298  -9.868  1.00  0.00     0.238 A 
ATOM      4  O   UNL     1      -2.252  -1.101  -9.957  1.00  0.00    -0.285 OA
ATOM      5  C   UNL     1      -4.401  -0.218  -9.873  1.00  0.00     0.111 A 
ATOM      6  C   UNL     1      -3.995   1.135  -9.979  1.00  0.00     0.134 A 
ATOM      7  C   UNL     1      -4.959   2.153  -9.968  1.00  0.00     0.093 A 
ATOM      8  C   UNL     1      -6.316   1.848  -9.851  1.00  0.00     0.123 A 
ATOM      9  C   UNL     1      -6.724   0.515  -9.746  1.00  0.00     0.094 A 
ATOM     10  C   UNL     1      -5.779  -0.516  -9.757  1.00  0.00     0.146 A 
ATOM     11  O   UNL     1      -6.193  -1.774  -9.662  1.00  0.00    -0.452 OA
ENDROOT
BRANCH   1  12
ATOM     12  C   UNL     1      -5.958  -4.172  -9.565  1.00  0.00     0.025 A 
ATOM     13  C   UNL     1      -7.214  -4.467 -10.122  1.00  0.00     0.016 A 
ATOM     14  C   UNL     1      -7.762  -5.746  -9.993  1.00  0.00     0.051 A 
ATOM     15  C   UNL     1      -7.073  -6.743  -9.295  1.00  0.00     0.157 A 
ATOM     16  C   UNL     1      -5.278  -5.169  -8.847  1.00  0.00     0.062 A 
ATOM     17  C   UNL     1      -5.826  -6.454  -8.716  1.00  0.00     0.158 A 
BRANCH  15  18
ATOM     18  O   UNL     1      -7.644  -8.010  -9.184  1.00  0.00    -0.504 OA
ATOM     19  H   UNL     1      -7.955  -8.384  -8.296  1.00  0.00     0.293 HD
ENDBRANCH  15  18
BRANCH  17  20
ATOM     20  O   UNL     1      -5.136  -7.441  -8.014  1.00  0.00    -0.504 OA
ATOM     21  H   UNL     1      -4.539  -8.110  -8.486  1.00  0.00     0.293 HD
ENDBRANCH  17  20
ENDBRANCH   1  12
BRANCH   2  22
ATOM     22  O   UNL     1      -3.098  -3.694  -9.698  1.00  0.00    -0.502 OA
ATOM     23  H   UNL     1      -2.148  -3.604  -9.358  1.00  0.00     0.293 HD
ENDBRANCH   2  22
BRANCH   6  24
ATOM     24  O   UNL     1      -2.646   1.472 -10.097  1.00  0.00    -0.507 OA
ATOM     25  H   UNL     1      -2.324   2.428  -9.993  1.00  0.00     0.293 HD
ENDBRANCH   6  24
BRANCH   8  26
ATOM     26  O   UNL     1      -7.254   2.880  -9.840  1.00  0.00    -0.508 OA
ATOM     27  H   UNL     1      -8.206   2.727  -9.528  1.00  0.00     0.293 HD
ENDBRANCH   8  26
TORSDOF 6
ENDMDL
MODEL 3
REMARK VINA RESULT:    -3.607      1.367      2.103
REMARK INTER + INTRA:          -3.801
REMARK INTER:                  -4.262
REMARK INTRA:                   0.461
REMARK UNBOUND:                 0.544
REMARK SMILES O=c1c(O)c(-c2ccc(O)c(O)c2)oc2cc(O)cc(O)c12
REMARK SMILES IDX 5 1 3 2 2 3 1 4 22 5 20 6 19 7 17 8 16 9 15 10 14 11 6 12
REMARK SMILES IDX 7 13 8 14 9 15 13 16 11 17 10 18 12 20 4 22 21 24 18 26
REMARK H PARENT 10 19 12 21 4 23 21 25 18 27
REMARK Flexibility Score: inf
ROOT
ATOM      1  C   UNL     1      -6.582  -2.924 -10.076  1.00  0.00     0.180 A 
ATOM      2  C   UNL     1      -7.696  -2.064 -10.060  1.00  0.00     0.208 A 
ATOM      3  C   UNL     1      -7.481  -0.678 -10.011  1.00  0.00     0.238 A 
ATOM      4  O   UNL     1      -8.472   0.103  -9.986  1.00  0.00    -0.285 OA
ATOM      5  C   UNL     1      -6.164  -0.176 -10.000  1.00  0.00     0.111 A 
ATOM      6  C   UNL     1      -5.861   1.207  -9.956  1.00  0.00     0.134 A 
ATOM      7  C   UNL     1      -4.522   1.626  -9.957  1.00  0.00     0.093 A 
ATOM      8  C   UNL     1      -3.484   0.694 -10.001  1.00  0.00     0.123 A 
ATOM      9  C   UNL     1      -3.776  -0.673 -10.044  1.00  0.00     0.094 A 
ATOM     10  C   UNL     1      -5.103  -1.111 -10.043  1.00  0.00     0.146 A 
ATOM     11  O   UNL     1      -5.353  -2.415 -10.078  1.00  0.00    -0.452 OA
ENDROOT
BRANCH   1  12
ATOM     12  C   UNL     1      -6.726  -4.398 -10.108  1.00  0.00     0.025 A 
ATOM     13  C   UNL     1      -7.991  -5.009 -10.118  1.00  0.00     0.016 A 
ATOM     14  C   UNL     1      -8.104  -6.402 -10.124  1.00  0.00     0.051 A 
ATOM     15  C   UNL     1      -6.958  -7.204 -10.106  1.00  0.00     0.157 A 
ATOM     16  C   UNL     1      -5.578  -5.206 -10.068  1.00  0.00     0.062 A 
ATOM     17  C   UNL     1      -5.688  -6.605 -10.075  1.00  0.00     0.158 A 
BRANCH  15  18
ATOM     18  O   UNL     1      -7.102  -8.590 -10.115  1.00  0.00    -0.504 OA
ATOM     19  H   UNL     1      -6.361  -9.210  -9.809  1.00  0.00     0.293 HD
ENDBRANCH  15  18
BRANCH  17  20
ATOM     20  O   UNL     1      -4.542  -7.397 -10.051  1.00  0.00    -0.504 OA
ATOM     21  H   UNL     1      -4.041  -7.634 -10.900  1.00  0.00     0.293 HD
ENDBRANCH  17  20
ENDBRANCH   1  12
BRANCH   2  22
ATOM     22  O   UNL     1      -8.992  -2.584 -10.121  1.00  0.00    -0.502 OA
ATOM     23  H   UNL     1      -9.812  -1.992 -10.162  1.00  0.00     0.293 HD
ENDBRANCH   2  22
BRANCH   6  24
ATOM     24  O   UNL     1      -6.876   2.162  -9.912  1.00  0.00    -0.507 OA
ATOM     25  H   UNL     1      -7.218   2.538  -9.034  1.00  0.00     0.293 HD
ENDBRANCH   6  24
BRANCH   8  26
ATOM     26  O   UNL     1      -2.162   1.138 -10.002  1.00  0.00    -0.508 OA
ATOM     27  H   UNL     1      -1.387   0.492  -9.906  1.00  0.00     0.293 HD
ENDBRANCH   8  26
TORSDOF 6
ENDMDL
