MODEL 1
REMARK VINA RESULT:    -2.493      0.000      0.000
REMARK INTER + INTRA:          -6.309
REMARK INTER:                  -5.408
REMARK INTRA:                  -0.901
REMARK UNBOUND:                -0.901
REMARK SMILES CCCCCCCCCCCCCCCCCCCCCC(=O)[O-]
REMARK SMILES IDX 12 1 11 2 10 3 9 4 8 5 7 6 6 7 5 8 4 9 3 10 2 11 1 12 13 13
REMARK SMILES IDX 14 14 15 15 16 16 17 17 18 18 19 19 20 20 21 21 22 22 23 23
REMARK SMILES IDX 24 24
REMARK H PARENT
REMARK Flexibility Score: inf
ROOT
ATOM      1  C   UNL     1       0.546 -22.800  15.225  1.00  0.00     0.000 C 
ENDROOT
BRANCH   1   2
ATOM      2  C   UNL     1       1.913 -22.247  15.645  1.00  0.00     0.000 C 
BRANCH   2   3
ATOM      3  C   UNL     1       3.038 -22.856  14.792  1.00  0.00     0.000 C 
BRANCH   3   4
ATOM      4  C   UNL     1       4.431 -22.609  15.393  1.00  0.00    -0.000 C 
BRANCH   4   5
ATOM      5  C   UNL     1       4.388 -21.707  16.640  1.00  0.00    -0.000 C 
BRANCH   5   6
ATOM      6  C   UNL     1       5.717 -21.732  17.425  1.00  0.00    -0.000 C 
BRANCH   6   7
ATOM      7  C   UNL     1       6.916 -21.171  16.634  1.00  0.00    -0.000 C 
BRANCH   7   8
ATOM      8  C   UNL     1       8.043 -22.182  16.362  1.00  0.00    -0.000 C 
BRANCH   8   9
ATOM      9  C   UNL     1       8.810 -21.885  15.064  1.00  0.00    -0.000 C 
BRANCH   9  10
ATOM     10  C   UNL     1       7.995 -20.969  14.145  1.00  0.00    -0.000 C 
BRANCH  10  11
ATOM     11  C   UNL     1       8.865 -19.840  13.582  1.00  0.00    -0.003 C 
ATOM     12  C   UNL     1       8.256 -19.255  12.310  1.00  0.00     0.004 C 
ENDBRANCH  10  11
ENDBRANCH   9  10
ENDBRANCH   8   9
ENDBRANCH   7   8
ENDBRANCH   6   7
ENDBRANCH   5   6
ENDBRANCH   4   5
ENDBRANCH   3   4
ENDBRANCH   2   3
ENDBRANCH   1   2
BRANCH   1  13
ATOM     13  C   UNL     1      -0.583 -22.168  16.051  1.00  0.00     0.000 C 
BRANCH  13  14
ATOM     14  C   UNL     1      -1.903 -22.953  15.962  1.00  0.00     0.000 C 
BRANCH  14  15
ATOM     15  C   UNL     1      -3.133 -22.062  15.685  1.00  0.00     0.000 C 
BRANCH  15  16
ATOM     16  C   UNL     1      -4.355 -22.479  16.524  1.00  0.00     0.000 C 
BRANCH  16  17
ATOM     17  C   UNL     1      -5.650 -21.766  16.094  1.00  0.00     0.000 C 
BRANCH  17  18
ATOM     18  C   UNL     1      -6.950 -22.491  16.487  1.00  0.00     0.000 C 
BRANCH  18  19
ATOM     19  C   UNL     1      -7.418 -22.143  17.910  1.00  0.00     0.000 C 
BRANCH  19  20
ATOM     20  C   UNL     1      -8.944 -22.226  18.073  1.00  0.00     0.006 C 
BRANCH  20  21
ATOM     21  C   UNL     1      -9.385 -22.307  19.541  1.00  0.00     0.053 C 
BRANCH  21  22
ATOM     22  C   UNL     1     -10.048 -21.034  19.962  1.00  0.00     0.041 C 
ATOM     23  O   UNL     1     -10.033 -20.030  19.203  1.00  0.00    -0.550 OA
ATOM     24  O   UNL     1     -10.661 -20.947  21.207  1.00  0.00    -0.550 OA
ENDBRANCH  21  22
ENDBRANCH  20  21
ENDBRANCH  19  20
ENDBRANCH  18  19
ENDBRANCH  17  18
ENDBRANCH  16  17
ENDBRANCH  15  16
ENDBRANCH  14  15
ENDBRANCH  13  14
ENDBRANCH   1  13
TORSDOF 20
ENDMDL
MODEL 2
REMARK VINA RESULT:    -2.340      5.696     13.944
REMARK INTER + INTRA:          -5.977
REMARK INTER:                  -4.855
REMARK INTRA:                  -1.121
REMARK UNBOUND:                -0.901
REMARK SMILES CCCCCCCCCCCCCCCCCCCCCC(=O)[O-]
REMARK SMILES IDX 12 1 11 2 10 3 9 4 8 5 7 6 6 7 5 8 4 9 3 10 2 11 1 12 13 13
REMARK SMILES IDX 14 14 15 15 16 16 17 17 18 18 19 19 20 20 21 21 22 22 23 23
REMARK SMILES IDX 24 24
REMARK H PARENT
REMARK Flexibility Score: inf
ROOT
ATOM      1  C   UNL     1      -0.823 -21.650  16.370  1.00  0.00     0.000 C 
ENDROOT
BRANCH   1   2
ATOM      2  C   UNL     1      -1.513 -22.729  15.528  1.00  0.00     0.000 C 
BRANCH   2   3
ATOM      3  C   UNL     1      -2.866 -23.125  16.141  1.00  0.00     0.000 C 
BRANCH   3   4
ATOM      4  C   UNL     1      -3.945 -22.050  15.930  1.00  0.00    -0.000 C 
BRANCH   4   5
ATOM      5  C   UNL     1      -5.120 -22.188  16.915  1.00  0.00    -0.000 C 
BRANCH   5   6
ATOM      6  C   UNL     1      -6.453 -21.704  16.304  1.00  0.00    -0.000 C 
BRANCH   6   7
ATOM      7  C   UNL     1      -7.637 -22.656  16.566  1.00  0.00    -0.000 C 
BRANCH   7   8
ATOM      8  C   UNL     1      -8.358 -22.438  17.908  1.00  0.00    -0.000 C 
BRANCH   8   9
ATOM      9  C   UNL     1      -9.260 -21.194  17.904  1.00  0.00    -0.000 C 
BRANCH   9  10
ATOM     10  C   UNL     1     -10.436 -21.373  16.937  1.00  0.00    -0.000 C 
BRANCH  10  11
ATOM     11  C   UNL     1     -10.688 -20.092  16.135  1.00  0.00    -0.003 C 
ATOM     12  C   UNL     1     -10.408 -20.305  14.650  1.00  0.00     0.004 C 
ENDBRANCH  10  11
ENDBRANCH   9  10
ENDBRANCH   8   9
ENDBRANCH   7   8
ENDBRANCH   6   7
ENDBRANCH   5   6
ENDBRANCH   4   5
ENDBRANCH   3   4
ENDBRANCH   2   3
ENDBRANCH   1   2
BRANCH   1  13
ATOM     13  C   UNL     1       0.689 -21.629  16.110  1.00  0.00     0.000 C 
BRANCH  13  14
ATOM     14  C   UNL     1       1.145 -22.727  15.133  1.00  0.00     0.000 C 
BRANCH  14  15
ATOM     15  C   UNL     1       2.649 -23.056  15.233  1.00  0.00     0.000 C 
BRANCH  15  16
ATOM     16  C   UNL     1       3.402 -22.069  16.145  1.00  0.00     0.000 C 
BRANCH  16  17
ATOM     17  C   UNL     1       4.926 -22.287  16.135  1.00  0.00     0.000 C 
BRANCH  17  18
ATOM     18  C   UNL     1       5.710 -21.419  17.137  1.00  0.00     0.000 C 
BRANCH  18  19
ATOM     19  C   UNL     1       7.233 -21.606  17.021  1.00  0.00     0.000 C 
BRANCH  19  20
ATOM     20  C   UNL     1       7.648 -22.325  15.728  1.00  0.00     0.006 C 
BRANCH  20  21
ATOM     21  C   UNL     1       8.841 -21.659  15.030  1.00  0.00     0.053 C 
BRANCH  21  22
ATOM     22  C   UNL     1       8.370 -20.732  13.954  1.00  0.00     0.041 C 
ATOM     23  O   UNL     1       7.580 -21.143  13.064  1.00  0.00    -0.550 OA
ATOM     24  O   UNL     1       8.824 -19.418  13.918  1.00  0.00    -0.550 OA
ENDBRANCH  21  22
ENDBRANCH  20  21
ENDBRANCH  19  20
ENDBRANCH  18  19
ENDBRANCH  17  18
ENDBRANCH  16  17
ENDBRANCH  15  16
ENDBRANCH  14  15
ENDBRANCH  13  14
ENDBRANCH   1  13
TORSDOF 20
ENDMDL
MODEL 3
REMARK VINA RESULT:    -2.320      5.617     14.325
REMARK INTER + INTRA:          -5.934
REMARK INTER:                  -4.977
REMARK INTRA:                  -0.957
REMARK UNBOUND:                -0.901
REMARK SMILES CCCCCCCCCCCCCCCCCCCCCC(=O)[O-]
REMARK SMILES IDX 12 1 11 2 10 3 9 4 8 5 7 6 6 7 5 8 4 9 3 10 2 11 1 12 13 13
REMARK SMILES IDX 14 14 15 15 16 16 17 17 18 18 19 19 20 20 21 21 22 22 23 23
REMARK SMILES IDX 24 24
REMARK H PARENT
REMARK Flexibility Score: inf
ROOT
ATOM      1  C   UNL     1      -4.088 -22.961  16.440  1.00  0.00     0.000 C 
ENDROOT
BRANCH   1   2
ATOM      2  C   UNL     1      -5.536 -22.459  16.409  1.00  0.00     0.000 C 
BRANCH   2   3
ATOM      3  C   UNL     1      -6.177 -22.540  17.804  1.00  0.00     0.000 C 
BRANCH   3   4
ATOM      4  C   UNL     1      -7.708 -22.423  17.756  1.00  0.00    -0.000 C 
BRANCH   4   5
ATOM      5  C   UNL     1      -8.353 -22.502  19.152  1.00  0.00    -0.000 C 
BRANCH   5   6
ATOM      6  C   UNL     1      -9.767 -21.882  19.176  1.00  0.00    -0.000 C 
BRANCH   6   7
ATOM      7  C   UNL     1      -9.930 -20.671  18.235  1.00  0.00    -0.000 C 
BRANCH   7   8
ATOM      8  C   UNL     1     -10.813 -19.538  18.785  1.00  0.00    -0.000 C 
BRANCH   8   9
ATOM      9  C   UNL     1     -10.897 -19.539  20.320  1.00  0.00    -0.000 C 
BRANCH   9  10
ATOM     10  C   UNL     1     -10.053 -18.406  20.915  1.00  0.00    -0.000 C 
BRANCH  10  11
ATOM     11  C   UNL     1      -9.675 -18.709  22.369  1.00  0.00    -0.003 C 
ATOM     12  C   UNL     1      -9.656 -20.212  22.633  1.00  0.00     0.004 C 
ENDBRANCH  10  11
ENDBRANCH   9  10
ENDBRANCH   8   9
ENDBRANCH   7   8
ENDBRANCH   6   7
ENDBRANCH   5   6
ENDBRANCH   4   5
ENDBRANCH   3   4
ENDBRANCH   2   3
ENDBRANCH   1   2
BRANCH   1  13
ATOM     13  C   UNL     1      -3.168 -22.043  15.624  1.00  0.00     0.000 C 
BRANCH  13  14
ATOM     14  C   UNL     1      -1.752 -21.932  16.218  1.00  0.00     0.000 C 
BRANCH  14  15
ATOM     15  C   UNL     1      -0.757 -22.957  15.636  1.00  0.00     0.000 C 
BRANCH  15  16
ATOM     16  C   UNL     1       0.699 -22.458  15.701  1.00  0.00     0.000 C 
BRANCH  16  17
ATOM     17  C   UNL     1       1.541 -22.907  14.493  1.00  0.00     0.000 C 
BRANCH  17  18
ATOM     18  C   UNL     1       3.055 -22.998  14.757  1.00  0.00     0.000 C 
BRANCH  18  19
ATOM     19  C   UNL     1       3.885 -23.024  13.462  1.00  0.00     0.000 C 
BRANCH  19  20
ATOM     20  C   UNL     1       5.397 -23.097  13.725  1.00  0.00     0.006 C 
BRANCH  20  21
ATOM     21  C   UNL     1       5.813 -22.398  15.026  1.00  0.00     0.053 C 
BRANCH  21  22
ATOM     22  C   UNL     1       7.261 -22.024  14.982  1.00  0.00     0.041 C 
ATOM     23  O   UNL     1       7.621 -20.850  15.261  1.00  0.00    -0.550 OA
ATOM     24  O   UNL     1       8.213 -22.965  14.607  1.00  0.00    -0.550 OA
ENDBRANCH  21  22
ENDBRANCH  20  21
ENDBRANCH  19  20
ENDBRANCH  18  19
ENDBRANCH  17  18
ENDBRANCH  16  17
ENDBRANCH  15  16
ENDBRANCH  14  15
ENDBRANCH  13  14
ENDBRANCH   1  13
TORSDOF 20
ENDMDL
MODEL 4
REMARK VINA RESULT:    -2.159      1.277      2.458
REMARK INTER + INTRA:          -5.584
REMARK INTER:                  -4.442
REMARK INTRA:                  -1.142
REMARK UNBOUND:                -0.901
REMARK SMILES CCCCCCCCCCCCCCCCCCCCCC(=O)[O-]
REMARK SMILES IDX 12 1 11 2 10 3 9 4 8 5 7 6 6 7 5 8 4 9 3 10 2 11 1 12 13 13
REMARK SMILES IDX 14 14 15 15 16 16 17 17 18 18 19 19 20 20 21 21 22 22 23 23
REMARK SMILES IDX 24 24
REMARK H PARENT
REMARK Flexibility Score: inf
ROOT
ATOM      1  C   UNL     1       2.982 -23.063  14.439  1.00  0.00     0.000 C 
ENDROOT
BRANCH   1   2
ATOM      2  C   UNL     1       3.459 -22.428  15.750  1.00  0.00     0.000 C 
BRANCH   2   3
ATOM      3  C   UNL     1       4.985 -22.238  15.746  1.00  0.00     0.000 C 
BRANCH   3   4
ATOM      4  C   UNL     1       5.487 -21.488  16.990  1.00  0.00    -0.000 C 
BRANCH   4   5
ATOM      5  C   UNL     1       7.020 -21.352  17.021  1.00  0.00    -0.000 C 
BRANCH   5   6
ATOM      6  C   UNL     1       7.730 -22.700  16.771  1.00  0.00    -0.000 C 
BRANCH   6   7
ATOM      7  C   UNL     1       9.072 -22.565  16.022  1.00  0.00    -0.000 C 
BRANCH   7   8
ATOM      8  C   UNL     1       9.026 -21.679  14.766  1.00  0.00    -0.000 C 
BRANCH   8   9
ATOM      9  C   UNL     1       8.303 -22.353  13.588  1.00  0.00    -0.000 C 
BRANCH   9  10
ATOM     10  C   UNL     1       8.394 -21.491  12.325  1.00  0.00    -0.000 C 
BRANCH  10  11
ATOM     11  C   UNL     1       8.376 -19.999  12.675  1.00  0.00    -0.003 C 
ATOM     12  C   UNL     1       7.738 -19.177  11.557  1.00  0.00     0.004 C 
ENDBRANCH  10  11
ENDBRANCH   9  10
ENDBRANCH   8   9
ENDBRANCH   7   8
ENDBRANCH   6   7
ENDBRANCH   5   6
ENDBRANCH   4   5
ENDBRANCH   3   4
ENDBRANCH   2   3
ENDBRANCH   1   2
BRANCH   1  13
ATOM     13  C   UNL     1       1.449 -23.123  14.380  1.00  0.00     0.000 C 
BRANCH  13  14
ATOM     14  C   UNL     1       0.777 -22.500  15.616  1.00  0.00     0.000 C 
BRANCH  14  15
ATOM     15  C   UNL     1      -0.693 -22.932  15.802  1.00  0.00     0.000 C 
BRANCH  15  16
ATOM     16  C   UNL     1      -1.636 -21.728  15.988  1.00  0.00     0.000 C 
BRANCH  16  17
ATOM     17  C   UNL     1      -3.098 -22.051  15.631  1.00  0.00     0.000 C 
BRANCH  17  18
ATOM     18  C   UNL     1      -3.830 -22.945  16.649  1.00  0.00     0.000 C 
BRANCH  18  19
ATOM     19  C   UNL     1      -5.338 -23.056  16.366  1.00  0.00     0.000 C 
BRANCH  19  20
ATOM     20  C   UNL     1      -6.163 -21.993  17.108  1.00  0.00     0.006 C 
BRANCH  20  21
ATOM     21  C   UNL     1      -6.955 -22.568  18.290  1.00  0.00     0.053 C 
BRANCH  21  22
ATOM     22  C   UNL     1      -8.399 -22.191  18.189  1.00  0.00     0.041 C 
ATOM     23  O   UNL     1      -8.839 -21.639  17.146  1.00  0.00    -0.550 OA
ATOM     24  O   UNL     1      -9.257 -22.425  19.258  1.00  0.00    -0.550 OA
ENDBRANCH  21  22
ENDBRANCH  20  21
ENDBRANCH  19  20
ENDBRANCH  18  19
ENDBRANCH  17  18
ENDBRANCH  16  17
ENDBRANCH  15  16
ENDBRANCH  14  15
ENDBRANCH  13  14
ENDBRANCH   1  13
TORSDOF 20
ENDMDL
MODEL 5
REMARK VINA RESULT:    -2.101      6.005     14.072
REMARK INTER + INTRA:          -5.459
REMARK INTER:                  -4.574
REMARK INTRA:                  -0.884
REMARK UNBOUND:                -0.901
REMARK SMILES CCCCCCCCCCCCCCCCCCCCCC(=O)[O-]
REMARK SMILES IDX 12 1 11 2 10 3 9 4 8 5 7 6 6 7 5 8 4 9 3 10 2 11 1 12 13 13
REMARK SMILES IDX 14 14 15 15 16 16 17 17 18 18 19 19 20 20 21 21 22 22 23 23
REMARK SMILES IDX 24 24
REMARK H PARENT
REMARK Flexibility Score: inf
ROOT
ATOM      1  C   UNL     1       0.653 -23.057  15.198  1.00  0.00     0.000 C 
ENDROOT
BRANCH   1   2
ATOM      2  C   UNL     1       0.169 -22.035  16.234  1.00  0.00     0.000 C 
BRANCH   2   3
ATOM      3  C   UNL     1      -1.281 -21.609  15.950  1.00  0.00     0.000 C 
BRANCH   3   4
ATOM      4  C   UNL     1      -2.259 -22.795  15.979  1.00  0.00    -0.000 C 
BRANCH   4   5
ATOM      5  C   UNL     1      -3.720 -22.365  15.753  1.00  0.00    -0.000 C 
BRANCH   5   6
ATOM      6  C   UNL     1      -4.651 -22.846  16.887  1.00  0.00    -0.000 C 
BRANCH   6   7
ATOM      7  C   UNL     1      -5.979 -22.067  16.973  1.00  0.00    -0.000 C 
BRANCH   7   8
ATOM      8  C   UNL     1      -7.090 -22.766  17.774  1.00  0.00    -0.000 C 
BRANCH   8   9
ATOM      9  C   UNL     1      -8.480 -22.161  17.519  1.00  0.00    -0.000 C 
BRANCH   9  10
ATOM     10  C   UNL     1      -9.557 -22.912  18.310  1.00  0.00    -0.000 C 
BRANCH  10  11
ATOM     11  C   UNL     1     -10.279 -21.973  19.282  1.00  0.00    -0.003 C 
ATOM     12  C   UNL     1      -9.887 -20.518  19.038  1.00  0.00     0.004 C 
ENDBRANCH  10  11
ENDBRANCH   9  10
ENDBRANCH   8   9
ENDBRANCH   7   8
ENDBRANCH   6   7
ENDBRANCH   5   6
ENDBRANCH   4   5
ENDBRANCH   3   4
ENDBRANCH   2   3
ENDBRANCH   1   2
BRANCH   1  13
ATOM     13  C   UNL     1       2.138 -22.851  14.872  1.00  0.00     0.000 C 
BRANCH  13  14
ATOM     14  C   UNL     1       2.894 -22.087  15.973  1.00  0.00     0.000 C 
BRANCH  14  15
ATOM     15  C   UNL     1       4.416 -22.340  15.966  1.00  0.00     0.000 C 
BRANCH  15  16
ATOM     16  C   UNL     1       5.171 -21.381  16.907  1.00  0.00     0.000 C 
BRANCH  16  17
ATOM     17  C   UNL     1       6.619 -21.826  17.179  1.00  0.00     0.000 C 
BRANCH  17  18
ATOM     18  C   UNL     1       7.461 -22.097  15.918  1.00  0.00     0.000 C 
BRANCH  18  19
ATOM     19  C   UNL     1       7.979 -20.806  15.260  1.00  0.00     0.000 C 
BRANCH  19  20
ATOM     20  C   UNL     1       8.554 -21.043  13.855  1.00  0.00     0.006 C 
BRANCH  20  21
ATOM     21  C   UNL     1       7.483 -21.445  12.832  1.00  0.00     0.053 C 
BRANCH  21  22
ATOM     22  C   UNL     1       7.866 -20.984  11.461  1.00  0.00     0.041 C 
ATOM     23  O   UNL     1       8.011 -21.818  10.529  1.00  0.00    -0.550 OA
ATOM     24  O   UNL     1       8.089 -19.633  11.217  1.00  0.00    -0.550 OA
ENDBRANCH  21  22
ENDBRANCH  20  21
ENDBRANCH  19  20
ENDBRANCH  18  19
ENDBRANCH  17  18
ENDBRANCH  16  17
ENDBRANCH  15  16
ENDBRANCH  14  15
ENDBRANCH  13  14
ENDBRANCH   1  13
TORSDOF 20
ENDMDL
MODEL 6
REMARK VINA RESULT:    -1.996      1.676      2.800
REMARK INTER + INTRA:          -5.232
REMARK INTER:                  -4.781
REMARK INTRA:                  -0.450
REMARK UNBOUND:                -0.901
REMARK SMILES CCCCCCCCCCCCCCCCCCCCCC(=O)[O-]
REMARK SMILES IDX 12 1 11 2 10 3 9 4 8 5 7 6 6 7 5 8 4 9 3 10 2 11 1 12 13 13
REMARK SMILES IDX 14 14 15 15 16 16 17 17 18 18 19 19 20 20 21 21 22 22 23 23
REMARK SMILES IDX 24 24
REMARK H PARENT
REMARK Flexibility Score: inf
ROOT
ATOM      1  C   UNL     1      -0.143 -22.996  15.450  1.00  0.00     0.000 C 
ENDROOT
BRANCH   1   2
ATOM      2  C   UNL     1       1.054 -22.257  14.840  1.00  0.00     0.000 C 
BRANCH   2   3
ATOM      3  C   UNL     1       2.324 -23.122  14.904  1.00  0.00     0.000 C 
BRANCH   3   4
ATOM      4  C   UNL     1       3.101 -23.124  13.578  1.00  0.00    -0.000 C 
BRANCH   4   5
ATOM      5  C   UNL     1       4.596 -22.809  13.766  1.00  0.00    -0.000 C 
BRANCH   5   6
ATOM      6  C   UNL     1       5.422 -23.124  12.500  1.00  0.00    -0.000 C 
BRANCH   6   7
ATOM      7  C   UNL     1       6.926 -22.815  12.646  1.00  0.00    -0.000 C 
BRANCH   7   8
ATOM      8  C   UNL     1       7.315 -21.351  12.383  1.00  0.00    -0.000 C 
BRANCH   8   9
ATOM      9  C   UNL     1       7.989 -20.686  13.595  1.00  0.00    -0.000 C 
BRANCH   9  10
ATOM     10  C   UNL     1       8.220 -21.703  14.718  1.00  0.00    -0.000 C 
BRANCH  10  11
ATOM     11  C   UNL     1       7.027 -21.741  15.679  1.00  0.00    -0.003 C 
ATOM     12  C   UNL     1       7.487 -21.653  17.132  1.00  0.00     0.004 C 
ENDBRANCH  10  11
ENDBRANCH   9  10
ENDBRANCH   8   9
ENDBRANCH   7   8
ENDBRANCH   6   7
ENDBRANCH   5   6
ENDBRANCH   4   5
ENDBRANCH   3   4
ENDBRANCH   2   3
ENDBRANCH   1   2
BRANCH   1  13
ATOM     13  C   UNL     1      -0.959 -22.068  16.361  1.00  0.00     0.000 C 
BRANCH  13  14
ATOM     14  C   UNL     1      -2.287 -21.620  15.726  1.00  0.00     0.000 C 
BRANCH  14  15
ATOM     15  C   UNL     1      -3.423 -22.653  15.877  1.00  0.00     0.000 C 
BRANCH  15  16
ATOM     16  C   UNL     1      -4.803 -21.985  16.022  1.00  0.00     0.000 C 
BRANCH  16  17
ATOM     17  C   UNL     1      -5.828 -22.876  16.747  1.00  0.00     0.000 C 
BRANCH  17  18
ATOM     18  C   UNL     1      -7.266 -22.326  16.765  1.00  0.00     0.000 C 
BRANCH  18  19
ATOM     19  C   UNL     1      -7.901 -22.368  18.166  1.00  0.00     0.000 C 
BRANCH  19  20
ATOM     20  C   UNL     1      -9.035 -21.345  18.337  1.00  0.00     0.006 C 
BRANCH  20  21
ATOM     21  C   UNL     1     -10.222 -21.606  17.401  1.00  0.00     0.053 C 
BRANCH  21  22
ATOM     22  C   UNL     1     -10.400 -20.467  16.447  1.00  0.00     0.041 C 
ATOM     23  O   UNL     1     -10.142 -20.619  15.223  1.00  0.00    -0.550 OA
ATOM     24  O   UNL     1     -10.825 -19.228  16.912  1.00  0.00    -0.550 OA
ENDBRANCH  21  22
ENDBRANCH  20  21
ENDBRANCH  19  20
ENDBRANCH  18  19
ENDBRANCH  17  18
ENDBRANCH  16  17
ENDBRANCH  15  16
ENDBRANCH  14  15
ENDBRANCH  13  14
ENDBRANCH   1  13
TORSDOF 20
ENDMDL
MODEL 7
REMARK VINA RESULT:    -1.914      6.331     14.089
REMARK INTER + INTRA:          -5.053
REMARK INTER:                  -4.309
REMARK INTRA:                  -0.744
REMARK UNBOUND:                -0.901
REMARK SMILES CCCCCCCCCCCCCCCCCCCCCC(=O)[O-]
REMARK SMILES IDX 12 1 11 2 10 3 9 4 8 5 7 6 6 7 5 8 4 9 3 10 2 11 1 12 13 13
REMARK SMILES IDX 14 14 15 15 16 16 17 17 18 18 19 19 20 20 21 21 22 22 23 23
REMARK SMILES IDX 24 24
REMARK H PARENT
REMARK Flexibility Score: inf
ROOT
ATOM      1  C   UNL     1       2.977 -22.952  15.700  1.00  0.00     0.000 C 
ENDROOT
BRANCH   1   2
ATOM      2  C   UNL     1       1.919 -22.387  14.745  1.00  0.00     0.000 C 
BRANCH   2   3
ATOM      3  C   UNL     1       0.579 -23.122  14.910  1.00  0.00     0.000 C 
BRANCH   3   4
ATOM      4  C   UNL     1      -0.432 -22.322  15.746  1.00  0.00    -0.000 C 
BRANCH   4   5
ATOM      5  C   UNL     1      -1.736 -23.100  16.003  1.00  0.00    -0.000 C 
BRANCH   5   6
ATOM      6  C   UNL     1      -2.969 -22.171  16.044  1.00  0.00    -0.000 C 
BRANCH   6   7
ATOM      7  C   UNL     1      -4.295 -22.912  16.315  1.00  0.00    -0.000 C 
BRANCH   7   8
ATOM      8  C   UNL     1      -5.513 -22.000  16.539  1.00  0.00    -0.000 C 
BRANCH   8   9
ATOM      9  C   UNL     1      -6.849 -22.728  16.327  1.00  0.00    -0.000 C 
BRANCH   9  10
ATOM     10  C   UNL     1      -7.953 -22.110  17.193  1.00  0.00    -0.000 C 
BRANCH  10  11
ATOM     11  C   UNL     1      -8.487 -23.125  18.209  1.00  0.00    -0.003 C 
ATOM     12  C   UNL     1      -9.123 -22.424  19.407  1.00  0.00     0.004 C 
ENDBRANCH  10  11
ENDBRANCH   9  10
ENDBRANCH   8   9
ENDBRANCH   7   8
ENDBRANCH   6   7
ENDBRANCH   5   6
ENDBRANCH   4   5
ENDBRANCH   3   4
ENDBRANCH   2   3
ENDBRANCH   1   2
BRANCH   1  13
ATOM     13  C   UNL     1       4.229 -22.065  15.726  1.00  0.00     0.000 C 
BRANCH  13  14
ATOM     14  C   UNL     1       4.844 -21.937  17.130  1.00  0.00     0.000 C 
BRANCH  14  15
ATOM     15  C   UNL     1       6.269 -21.344  17.128  1.00  0.00     0.000 C 
BRANCH  15  16
ATOM     16  C   UNL     1       6.990 -21.566  15.784  1.00  0.00     0.000 C 
BRANCH  16  17
ATOM     17  C   UNL     1       8.064 -22.666  15.854  1.00  0.00     0.000 C 
BRANCH  17  18
ATOM     18  C   UNL     1       8.617 -23.119  14.490  1.00  0.00     0.000 C 
BRANCH  18  19
ATOM     19  C   UNL     1       8.090 -22.267  13.323  1.00  0.00     0.000 C 
BRANCH  19  20
ATOM     20  C   UNL     1       8.706 -22.661  11.971  1.00  0.00     0.006 C 
BRANCH  20  21
ATOM     21  C   UNL     1       7.868 -22.195  10.774  1.00  0.00     0.053 C 
BRANCH  21  22
ATOM     22  C   UNL     1       8.417 -20.923  10.210  1.00  0.00     0.041 C 
ATOM     23  O   UNL     1       9.125 -20.166  10.926  1.00  0.00    -0.550 OA
ATOM     24  O   UNL     1       8.125 -20.558   8.900  1.00  0.00    -0.550 OA
ENDBRANCH  21  22
ENDBRANCH  20  21
ENDBRANCH  19  20
ENDBRANCH  18  19
ENDBRANCH  17  18
ENDBRANCH  16  17
ENDBRANCH  15  16
ENDBRANCH  14  15
ENDBRANCH  13  14
ENDBRANCH   1  13
TORSDOF 20
ENDMDL
MODEL 8
REMARK VINA RESULT:    -1.630      1.563      3.040
REMARK INTER + INTRA:          -4.438
REMARK INTER:                  -3.493
REMARK INTRA:                  -0.944
REMARK UNBOUND:                -0.901
REMARK SMILES CCCCCCCCCCCCCCCCCCCCCC(=O)[O-]
REMARK SMILES IDX 12 1 11 2 10 3 9 4 8 5 7 6 6 7 5 8 4 9 3 10 2 11 1 12 13 13
REMARK SMILES IDX 14 14 15 15 16 16 17 17 18 18 19 19 20 20 21 21 22 22 23 23
REMARK SMILES IDX 24 24
REMARK H PARENT
REMARK Flexibility Score: inf
ROOT
ATOM      1  C   UNL     1      -2.227 -22.672  15.652  1.00  0.00     0.000 C 
ENDROOT
BRANCH   1   2
ATOM      2  C   UNL     1      -1.225 -21.836  16.457  1.00  0.00     0.000 C 
BRANCH   2   3
ATOM      3  C   UNL     1       0.172 -21.886  15.817  1.00  0.00     0.000 C 
BRANCH   3   4
ATOM      4  C   UNL     1       0.312 -23.029  14.798  1.00  0.00    -0.000 C 
BRANCH   4   5
ATOM      5  C   UNL     1       1.728 -23.122  14.203  1.00  0.00    -0.000 C 
BRANCH   5   6
ATOM      6  C   UNL     1       2.768 -22.356  15.050  1.00  0.00    -0.000 C 
BRANCH   6   7
ATOM      7  C   UNL     1       4.227 -22.761  14.756  1.00  0.00    -0.000 C 
BRANCH   7   8
ATOM      8  C   UNL     1       4.608 -22.776  13.266  1.00  0.00    -0.000 C 
BRANCH   8   9
ATOM      9  C   UNL     1       6.088 -23.116  13.033  1.00  0.00    -0.000 C 
BRANCH   9  10
ATOM     10  C   UNL     1       6.980 -22.420  14.067  1.00  0.00    -0.000 C 
BRANCH  10  11
ATOM     11  C   UNL     1       7.758 -21.263  13.432  1.00  0.00    -0.003 C 
ATOM     12  C   UNL     1       8.482 -20.436  14.492  1.00  0.00     0.004 C 
ENDBRANCH  10  11
ENDBRANCH   9  10
ENDBRANCH   8   9
ENDBRANCH   7   8
ENDBRANCH   6   7
ENDBRANCH   5   6
ENDBRANCH   4   5
ENDBRANCH   3   4
ENDBRANCH   2   3
ENDBRANCH   1   2
BRANCH   1  13
ATOM     13  C   UNL     1      -3.625 -22.037  15.680  1.00  0.00     0.000 C 
BRANCH  13  14
ATOM     14  C   UNL     1      -4.423 -22.399  16.945  1.00  0.00     0.000 C 
BRANCH  14  15
ATOM     15  C   UNL     1      -5.753 -23.123  16.648  1.00  0.00     0.000 C 
BRANCH  15  16
ATOM     16  C   UNL     1      -6.794 -22.911  17.764  1.00  0.00     0.000 C 
BRANCH  16  17
ATOM     17  C   UNL     1      -7.669 -21.666  17.538  1.00  0.00     0.000 C 
BRANCH  17  18
ATOM     18  C   UNL     1      -9.181 -21.895  17.724  1.00  0.00     0.000 C 
BRANCH  18  19
ATOM     19  C   UNL     1      -9.578 -22.075  19.199  1.00  0.00     0.000 C 
BRANCH  19  20
ATOM     20  C   UNL     1     -10.616 -21.042  19.666  1.00  0.00     0.006 C 
BRANCH  20  21
ATOM     21  C   UNL     1     -10.265 -19.609  19.245  1.00  0.00     0.053 C 
BRANCH  21  22
ATOM     22  C   UNL     1     -10.266 -18.697  20.431  1.00  0.00     0.041 C 
ATOM     23  O   UNL     1     -10.371 -17.452  20.274  1.00  0.00    -0.550 OA
ATOM     24  O   UNL     1     -10.124 -19.220  21.712  1.00  0.00    -0.550 OA
ENDBRANCH  21  22
ENDBRANCH  20  21
ENDBRANCH  19  20
ENDBRANCH  18  19
ENDBRANCH  17  18
ENDBRANCH  16  17
ENDBRANCH  15  16
ENDBRANCH  14  15
ENDBRANCH  13  14
ENDBRANCH   1  13
TORSDOF 20
ENDMDL
