MODEL 1
REMARK VINA RESULT:    -6.802      0.000      0.000
REMARK INTER + INTRA:          -8.484
REMARK INTER:                  -8.194
REMARK INTRA:                  -0.290
REMARK UNBOUND:                -0.290
REMARK SMILES O=c1c(O)c(-c2ccc(O)c(O)c2)oc2cc(O)cc(O)c12
REMARK SMILES IDX 5 1 3 2 2 3 1 4 22 5 20 6 19 7 17 8 16 9 15 10 14 11 6 12
REMARK SMILES IDX 7 13 8 14 9 15 13 16 11 17 10 18 12 20 4 22 21 24 18 26
REMARK H PARENT 10 19 12 21 4 23 21 25 18 27
REMARK Flexibility Score: inf
ROOT
ATOM      1  C   UNL     1      86.968  73.230  19.275  1.00  0.00     0.180 A 
ATOM      2  C   UNL     1      87.081  72.059  18.506  1.00  0.00     0.208 A 
ATOM      3  C   UNL     1      87.762  72.113  17.279  1.00  0.00     0.238 A 
ATOM      4  O   UNL     1      87.907  71.050  16.620  1.00  0.00    -0.285 OA
ATOM      5  C   UNL     1      88.308  73.340  16.830  1.00  0.00     0.111 A 
ATOM      6  C   UNL     1      88.982  73.519  15.585  1.00  0.00     0.134 A 
ATOM      7  C   UNL     1      89.595  74.746  15.302  1.00  0.00     0.093 A 
ATOM      8  C   UNL     1      89.502  75.818  16.187  1.00  0.00     0.123 A 
ATOM      9  C   UNL     1      88.794  75.673  17.381  1.00  0.00     0.094 A 
ATOM     10  C   UNL     1      88.203  74.450  17.708  1.00  0.00     0.146 A 
ATOM     11  O   UNL     1      87.547  74.349  18.858  1.00  0.00    -0.452 OA
ENDROOT
BRANCH   1  12
ATOM     12  C   UNL     1      86.244  73.257  20.567  1.00  0.00     0.025 A 
ATOM     13  C   UNL     1      84.841  73.309  20.570  1.00  0.00     0.016 A 
ATOM     14  C   UNL     1      84.136  73.314  21.776  1.00  0.00     0.051 A 
ATOM     15  C   UNL     1      84.818  73.251  22.995  1.00  0.00     0.157 A 
ATOM     16  C   UNL     1      86.927  73.172  21.792  1.00  0.00     0.062 A 
ATOM     17  C   UNL     1      86.221  73.174  23.005  1.00  0.00     0.158 A 
BRANCH  15  18
ATOM     18  O   UNL     1      84.087  73.260  24.183  1.00  0.00    -0.504 OA
ATOM     19  H   UNL     1      83.282  72.663  24.322  1.00  0.00     0.293 HD
ENDBRANCH  15  18
BRANCH  17  20
ATOM     20  O   UNL     1      86.907  73.097  24.215  1.00  0.00    -0.504 OA
ATOM     21  H   UNL     1      87.888  73.341  24.286  1.00  0.00     0.293 HD
ENDBRANCH  17  20
ENDBRANCH   1  12
BRANCH   2  22
ATOM     22  O   UNL     1      86.555  70.854  18.979  1.00  0.00    -0.502 OA
ATOM     23  H   UNL     1      85.577  70.611  18.878  1.00  0.00     0.293 HD
ENDBRANCH   2  22
BRANCH   6  24
ATOM     24  O   UNL     1      89.055  72.541  14.589  1.00  0.00    -0.507 OA
ATOM     25  H   UNL     1      88.770  71.580  14.705  1.00  0.00     0.293 HD
ENDBRANCH   6  24
BRANCH   8  26
ATOM     26  O   UNL     1      90.111  77.030  15.867  1.00  0.00    -0.508 OA
ATOM     27  H   UNL     1      90.726  77.119  15.066  1.00  0.00     0.293 HD
ENDBRANCH   8  26
TORSDOF 6
ENDMDL
MODEL 2
REMARK VINA RESULT:    -6.611      1.438      6.834
REMARK INTER + INTRA:          -8.254
REMARK INTER:                  -8.183
REMARK INTRA:                  -0.072
REMARK UNBOUND:                -0.290
REMARK SMILES O=c1c(O)c(-c2ccc(O)c(O)c2)oc2cc(O)cc(O)c12
REMARK SMILES IDX 5 1 3 2 2 3 1 4 22 5 20 6 19 7 17 8 16 9 15 10 14 11 6 12
REMARK SMILES IDX 7 13 8 14 9 15 13 16 11 17 10 18 12 20 4 22 21 24 18 26
REMARK H PARENT 10 19 12 21 4 23 21 25 18 27
REMARK Flexibility Score: inf
ROOT
ATOM      1  C   UNL     1      87.081  73.595  18.763  1.00  0.00     0.180 A 
ATOM      2  C   UNL     1      85.850  72.958  18.530  1.00  0.00     0.208 A 
ATOM      3  C   UNL     1      85.123  72.462  19.624  1.00  0.00     0.238 A 
ATOM      4  O   UNL     1      83.996  71.941  19.415  1.00  0.00    -0.285 OA
ATOM      5  C   UNL     1      85.643  72.593  20.934  1.00  0.00     0.111 A 
ATOM      6  C   UNL     1      85.011  72.092  22.111  1.00  0.00     0.134 A 
ATOM      7  C   UNL     1      85.551  72.393  23.368  1.00  0.00     0.093 A 
ATOM      8  C   UNL     1      86.734  73.121  23.486  1.00  0.00     0.123 A 
ATOM      9  C   UNL     1      87.393  73.566  22.340  1.00  0.00     0.094 A 
ATOM     10  C   UNL     1      86.859  73.312  21.074  1.00  0.00     0.146 A 
ATOM     11  O   UNL     1      87.511  73.761  20.008  1.00  0.00    -0.452 OA
ENDROOT
BRANCH   1  12
ATOM     12  C   UNL     1      87.916  74.121  17.659  1.00  0.00     0.025 A 
ATOM     13  C   UNL     1      88.378  75.446  17.715  1.00  0.00     0.016 A 
ATOM     14  C   UNL     1      89.185  75.957  16.695  1.00  0.00     0.051 A 
ATOM     15  C   UNL     1      89.555  75.151  15.614  1.00  0.00     0.157 A 
ATOM     16  C   UNL     1      88.307  73.306  16.583  1.00  0.00     0.062 A 
ATOM     17  C   UNL     1      89.119  73.816  15.559  1.00  0.00     0.158 A 
BRANCH  15  18
ATOM     18  O   UNL     1      90.359  75.690  14.610  1.00  0.00    -0.504 OA
ATOM     19  H   UNL     1      91.369  75.705  14.680  1.00  0.00     0.293 HD
ENDBRANCH  15  18
BRANCH  17  20
ATOM     20  O   UNL     1      89.495  73.003  14.492  1.00  0.00    -0.504 OA
ATOM     21  H   UNL     1      89.705  73.388  13.578  1.00  0.00     0.293 HD
ENDBRANCH  17  20
ENDBRANCH   1  12
BRANCH   2  22
ATOM     22  O   UNL     1      85.344  72.859  17.231  1.00  0.00    -0.502 OA
ATOM     23  H   UNL     1      84.351  72.822  17.036  1.00  0.00     0.293 HD
ENDBRANCH   2  22
BRANCH   6  24
ATOM     24  O   UNL     1      83.875  71.277  22.100  1.00  0.00    -0.507 OA
ATOM     25  H   UNL     1      83.367  71.009  21.270  1.00  0.00     0.293 HD
ENDBRANCH   6  24
BRANCH   8  26
ATOM     26  O   UNL     1      87.252  73.389  24.752  1.00  0.00    -0.508 OA
ATOM     27  H   UNL     1      86.656  73.685  25.517  1.00  0.00     0.293 HD
ENDBRANCH   8  26
TORSDOF 6
ENDMDL
MODEL 3
REMARK VINA RESULT:    -6.479      1.297      1.930
REMARK INTER + INTRA:          -8.095
REMARK INTER:                  -7.870
REMARK INTRA:                  -0.225
REMARK UNBOUND:                -0.290
REMARK SMILES O=c1c(O)c(-c2ccc(O)c(O)c2)oc2cc(O)cc(O)c12
REMARK SMILES IDX 5 1 3 2 2 3 1 4 22 5 20 6 19 7 17 8 16 9 15 10 14 11 6 12
REMARK SMILES IDX 7 13 8 14 9 15 13 16 11 17 10 18 12 20 4 22 21 24 18 26
REMARK H PARENT 10 19 12 21 4 23 21 25 18 27
REMARK Flexibility Score: inf
ROOT
ATOM      1  C   UNL     1      87.599  73.501  18.896  1.00  0.00     0.180 A 
ATOM      2  C   UNL     1      87.602  72.332  18.114  1.00  0.00     0.208 A 
ATOM      3  C   UNL     1      87.704  72.446  16.719  1.00  0.00     0.238 A 
ATOM      4  O   UNL     1      87.761  71.395  16.029  1.00  0.00    -0.285 OA
ATOM      5  C   UNL     1      87.787  73.727  16.121  1.00  0.00     0.111 A 
ATOM      6  C   UNL     1      87.853  73.962  14.715  1.00  0.00     0.134 A 
ATOM      7  C   UNL     1      88.063  75.263  14.241  1.00  0.00     0.093 A 
ATOM      8  C   UNL     1      88.143  76.344  15.118  1.00  0.00     0.123 A 
ATOM      9  C   UNL     1      88.019  76.134  16.492  1.00  0.00     0.094 A 
ATOM     10  C   UNL     1      87.846  74.842  16.996  1.00  0.00     0.146 A 
ATOM     11  O   UNL     1      87.743  74.683  18.310  1.00  0.00    -0.452 OA
ENDROOT
BRANCH   1  12
ATOM     12  C   UNL     1      87.469  73.461  20.370  1.00  0.00     0.025 A 
ATOM     13  C   UNL     1      88.540  73.893  21.169  1.00  0.00     0.016 A 
ATOM     14  C   UNL     1      88.431  73.885  22.562  1.00  0.00     0.051 A 
ATOM     15  C   UNL     1      87.249  73.461  23.178  1.00  0.00     0.157 A 
ATOM     16  C   UNL     1      86.274  73.056  20.990  1.00  0.00     0.062 A 
ATOM     17  C   UNL     1      86.162  73.049  22.389  1.00  0.00     0.158 A 
BRANCH  15  18
ATOM     18  O   UNL     1      87.172  73.461  24.570  1.00  0.00    -0.504 OA
ATOM     19  H   UNL     1      87.975  73.659  25.153  1.00  0.00     0.293 HD
ENDBRANCH  15  18
BRANCH  17  20
ATOM     20  O   UNL     1      84.976  72.639  22.994  1.00  0.00    -0.504 OA
ATOM     21  H   UNL     1      84.083  72.718  22.522  1.00  0.00     0.293 HD
ENDBRANCH  17  20
ENDBRANCH   1  12
BRANCH   2  22
ATOM     22  O   UNL     1      87.543  71.077  18.727  1.00  0.00    -0.502 OA
ATOM     23  H   UNL     1      86.810  70.824  19.378  1.00  0.00     0.293 HD
ENDBRANCH   2  22
BRANCH   6  24
ATOM     24  O   UNL     1      87.693  72.965  13.748  1.00  0.00    -0.507 OA
ATOM     25  H   UNL     1      86.889  72.359  13.674  1.00  0.00     0.293 HD
ENDBRANCH   6  24
BRANCH   8  26
ATOM     26  O   UNL     1      88.337  77.628  14.611  1.00  0.00    -0.508 OA
ATOM     27  H   UNL     1      87.591  78.131  14.144  1.00  0.00     0.293 HD
ENDBRANCH   8  26
TORSDOF 6
ENDMDL
MODEL 4
REMARK VINA RESULT:    -6.298      3.158      6.182
REMARK INTER + INTRA:          -7.877
REMARK INTER:                  -7.648
REMARK INTRA:                  -0.228
REMARK UNBOUND:                -0.290
REMARK SMILES O=c1c(O)c(-c2ccc(O)c(O)c2)oc2cc(O)cc(O)c12
REMARK SMILES IDX 5 1 3 2 2 3 1 4 22 5 20 6 19 7 17 8 16 9 15 10 14 11 6 12
REMARK SMILES IDX 7 13 8 14 9 15 13 16 11 17 10 18 12 20 4 22 21 24 18 26
REMARK H PARENT 10 19 12 21 4 23 21 25 18 27
REMARK Flexibility Score: inf
ROOT
ATOM      1  C   UNL     1      87.365  70.738  16.357  1.00  0.00     0.180 A 
ATOM      2  C   UNL     1      86.841  71.160  17.591  1.00  0.00     0.208 A 
ATOM      3  C   UNL     1      87.160  72.443  18.063  1.00  0.00     0.238 A 
ATOM      4  O   UNL     1      86.644  72.836  19.142  1.00  0.00    -0.285 OA
ATOM      5  C   UNL     1      88.010  73.283  17.303  1.00  0.00     0.111 A 
ATOM      6  C   UNL     1      88.431  74.586  17.703  1.00  0.00     0.134 A 
ATOM      7  C   UNL     1      89.167  75.378  16.813  1.00  0.00     0.093 A 
ATOM      8  C   UNL     1      89.552  74.891  15.566  1.00  0.00     0.123 A 
ATOM      9  C   UNL     1      89.197  73.595  15.187  1.00  0.00     0.094 A 
ATOM     10  C   UNL     1      88.432  72.794  16.039  1.00  0.00     0.146 A 
ATOM     11  O   UNL     1      88.106  71.572  15.637  1.00  0.00    -0.452 OA
ENDROOT
BRANCH   1  12
ATOM     12  C   UNL     1      87.095  69.390  15.806  1.00  0.00     0.025 A 
ATOM     13  C   UNL     1      85.824  69.100  15.284  1.00  0.00     0.016 A 
ATOM     14  C   UNL     1      85.553  67.842  14.741  1.00  0.00     0.051 A 
ATOM     15  C   UNL     1      86.549  66.861  14.695  1.00  0.00     0.157 A 
ATOM     16  C   UNL     1      88.101  68.410  15.740  1.00  0.00     0.062 A 
ATOM     17  C   UNL     1      87.832  67.147  15.193  1.00  0.00     0.158 A 
BRANCH  15  18
ATOM     18  O   UNL     1      86.248  65.613  14.149  1.00  0.00    -0.504 OA
ATOM     19  H   UNL     1      86.928  65.078  13.624  1.00  0.00     0.293 HD
ENDBRANCH  15  18
BRANCH  17  20
ATOM     20  O   UNL     1      88.833  66.179  15.137  1.00  0.00    -0.504 OA
ATOM     21  H   UNL     1      88.773  65.321  15.674  1.00  0.00     0.293 HD
ENDBRANCH  17  20
ENDBRANCH   1  12
BRANCH   2  22
ATOM     22  O   UNL     1      85.986  70.324  18.314  1.00  0.00    -0.502 OA
ATOM     23  H   UNL     1      86.175  70.048  19.270  1.00  0.00     0.293 HD
ENDBRANCH   2  22
BRANCH   6  24
ATOM     24  O   UNL     1      88.178  75.135  18.964  1.00  0.00    -0.507 OA
ATOM     25  H   UNL     1      87.275  75.453  19.282  1.00  0.00     0.293 HD
ENDBRANCH   6  24
BRANCH   8  26
ATOM     26  O   UNL     1      90.298  75.701  14.711  1.00  0.00    -0.508 OA
ATOM     27  H   UNL     1      90.784  76.523  15.050  1.00  0.00     0.293 HD
ENDBRANCH   8  26
TORSDOF 6
ENDMDL
MODEL 5
REMARK VINA RESULT:    -6.038      1.879      7.178
REMARK INTER + INTRA:          -7.564
REMARK INTER:                  -7.881
REMARK INTRA:                   0.317
REMARK UNBOUND:                -0.290
REMARK SMILES O=c1c(O)c(-c2ccc(O)c(O)c2)oc2cc(O)cc(O)c12
REMARK SMILES IDX 5 1 3 2 2 3 1 4 22 5 20 6 19 7 17 8 16 9 15 10 14 11 6 12
REMARK SMILES IDX 7 13 8 14 9 15 13 16 11 17 10 18 12 20 4 22 21 24 18 26
REMARK H PARENT 10 19 12 21 4 23 21 25 18 27
REMARK Flexibility Score: inf
ROOT
ATOM      1  C   UNL     1      87.439  73.167  19.183  1.00  0.00     0.180 A 
ATOM      2  C   UNL     1      87.675  73.667  20.476  1.00  0.00     0.208 A 
ATOM      3  C   UNL     1      87.042  73.053  21.568  1.00  0.00     0.238 A 
ATOM      4  O   UNL     1      87.300  73.469  22.728  1.00  0.00    -0.285 OA
ATOM      5  C   UNL     1      86.170  71.958  21.354  1.00  0.00     0.111 A 
ATOM      6  C   UNL     1      85.445  71.286  22.382  1.00  0.00     0.134 A 
ATOM      7  C   UNL     1      84.713  70.133  22.072  1.00  0.00     0.093 A 
ATOM      8  C   UNL     1      84.626  69.667  20.761  1.00  0.00     0.123 A 
ATOM      9  C   UNL     1      85.282  70.351  19.736  1.00  0.00     0.094 A 
ATOM     10  C   UNL     1      86.051  71.483  20.022  1.00  0.00     0.146 A 
ATOM     11  O   UNL     1      86.668  72.099  19.021  1.00  0.00    -0.452 OA
ENDROOT
BRANCH   1  12
ATOM     12  C   UNL     1      88.050  73.778  17.980  1.00  0.00     0.025 A 
ATOM     13  C   UNL     1      88.361  75.147  17.983  1.00  0.00     0.016 A 
ATOM     14  C   UNL     1      88.957  75.739  16.866  1.00  0.00     0.051 A 
ATOM     15  C   UNL     1      89.266  74.973  15.738  1.00  0.00     0.157 A 
ATOM     16  C   UNL     1      88.380  73.004  16.853  1.00  0.00     0.062 A 
ATOM     17  C   UNL     1      88.981  73.597  15.732  1.00  0.00     0.158 A 
BRANCH  15  18
ATOM     18  O   UNL     1      89.858  75.592  14.638  1.00  0.00    -0.504 OA
ATOM     19  H   UNL     1      89.914  76.600  14.554  1.00  0.00     0.293 HD
ENDBRANCH  15  18
BRANCH  17  20
ATOM     20  O   UNL     1      89.298  72.824  14.617  1.00  0.00    -0.504 OA
ATOM     21  H   UNL     1      90.258  72.682  14.324  1.00  0.00     0.293 HD
ENDBRANCH  17  20
ENDBRANCH   1  12
BRANCH   2  22
ATOM     22  O   UNL     1      88.557  74.733  20.667  1.00  0.00    -0.502 OA
ATOM     23  H   UNL     1      88.858  75.031  21.587  1.00  0.00     0.293 HD
ENDBRANCH   2  22
BRANCH   6  24
ATOM     24  O   UNL     1      85.389  71.721  23.710  1.00  0.00    -0.507 OA
ATOM     25  H   UNL     1      86.089  71.523  24.410  1.00  0.00     0.293 HD
ENDBRANCH   6  24
BRANCH   8  26
ATOM     26  O   UNL     1      83.875  68.526  20.485  1.00  0.00    -0.508 OA
ATOM     27  H   UNL     1      84.296  67.701  20.075  1.00  0.00     0.293 HD
ENDBRANCH   8  26
TORSDOF 6
ENDMDL
MODEL 6
REMARK VINA RESULT:    -5.888      2.335      2.655
REMARK INTER + INTRA:          -7.384
REMARK INTER:                  -7.064
REMARK INTRA:                  -0.320
REMARK UNBOUND:                -0.290
REMARK SMILES O=c1c(O)c(-c2ccc(O)c(O)c2)oc2cc(O)cc(O)c12
REMARK SMILES IDX 5 1 3 2 2 3 1 4 22 5 20 6 19 7 17 8 16 9 15 10 14 11 6 12
REMARK SMILES IDX 7 13 8 14 9 15 13 16 11 17 10 18 12 20 4 22 21 24 18 26
REMARK H PARENT 10 19 12 21 4 23 21 25 18 27
REMARK Flexibility Score: inf
ROOT
ATOM      1  C   UNL     1      86.367  73.790  18.234  1.00  0.00     0.180 A 
ATOM      2  C   UNL     1      85.322  73.942  17.306  1.00  0.00     0.208 A 
ATOM      3  C   UNL     1      85.593  74.553  16.071  1.00  0.00     0.238 A 
ATOM      4  O   UNL     1      84.666  74.637  15.222  1.00  0.00    -0.285 OA
ATOM      5  C   UNL     1      86.899  75.017  15.785  1.00  0.00     0.111 A 
ATOM      6  C   UNL     1      87.277  75.686  14.583  1.00  0.00     0.134 A 
ATOM      7  C   UNL     1      88.626  75.985  14.352  1.00  0.00     0.093 A 
ATOM      8  C   UNL     1      89.599  75.699  15.308  1.00  0.00     0.123 A 
ATOM      9  C   UNL     1      89.233  75.099  16.514  1.00  0.00     0.094 A 
ATOM     10  C   UNL     1      87.901  74.755  16.756  1.00  0.00     0.146 A 
ATOM     11  O   UNL     1      87.595  74.177  17.911  1.00  0.00    -0.452 OA
ENDROOT
BRANCH   1  12
ATOM     12  C   UNL     1      86.153  73.179  19.566  1.00  0.00     0.025 A 
ATOM     13  C   UNL     1      85.809  73.999  20.654  1.00  0.00     0.016 A 
ATOM     14  C   UNL     1      85.583  73.441  21.915  1.00  0.00     0.051 A 
ATOM     15  C   UNL     1      85.680  72.060  22.106  1.00  0.00     0.157 A 
ATOM     16  C   UNL     1      86.230  71.788  19.755  1.00  0.00     0.062 A 
ATOM     17  C   UNL     1      86.001  71.227  21.021  1.00  0.00     0.158 A 
BRANCH  15  18
ATOM     18  O   UNL     1      85.451  71.533  23.377  1.00  0.00    -0.504 OA
ATOM     19  H   UNL     1      84.519  71.323  23.711  1.00  0.00     0.293 HD
ENDBRANCH  15  18
BRANCH  17  20
ATOM     20  O   UNL     1      86.086  69.848  21.201  1.00  0.00    -0.504 OA
ATOM     21  H   UNL     1      85.299  69.238  21.014  1.00  0.00     0.293 HD
ENDBRANCH  17  20
ENDBRANCH   1  12
BRANCH   2  22
ATOM     22  O   UNL     1      84.045  73.456  17.599  1.00  0.00    -0.502 OA
ATOM     23  H   UNL     1      83.848  72.468  17.694  1.00  0.00     0.293 HD
ENDBRANCH   2  22
BRANCH   6  24
ATOM     24  O   UNL     1      86.370  76.100  13.602  1.00  0.00    -0.507 OA
ATOM     25  H   UNL     1      85.540  76.646  13.780  1.00  0.00     0.293 HD
ENDBRANCH   6  24
BRANCH   8  26
ATOM     26  O   UNL     1      90.930  76.025  15.053  1.00  0.00    -0.508 OA
ATOM     27  H   UNL     1      91.335  75.916  14.130  1.00  0.00     0.293 HD
ENDBRANCH   8  26
TORSDOF 6
ENDMDL
MODEL 7
REMARK VINA RESULT:    -5.762      2.070      7.015
REMARK INTER + INTRA:          -7.231
REMARK INTER:                  -7.057
REMARK INTRA:                  -0.174
REMARK UNBOUND:                -0.290
REMARK SMILES O=c1c(O)c(-c2ccc(O)c(O)c2)oc2cc(O)cc(O)c12
REMARK SMILES IDX 5 1 3 2 2 3 1 4 22 5 20 6 19 7 17 8 16 9 15 10 14 11 6 12
REMARK SMILES IDX 7 13 8 14 9 15 13 16 11 17 10 18 12 20 4 22 21 24 18 26
REMARK H PARENT 10 19 12 21 4 23 21 25 18 27
REMARK Flexibility Score: inf
ROOT
ATOM      1  C   UNL     1      87.215  74.076  16.886  1.00  0.00     0.180 A 
ATOM      2  C   UNL     1      87.763  72.793  17.056  1.00  0.00     0.208 A 
ATOM      3  C   UNL     1      87.478  72.083  18.233  1.00  0.00     0.238 A 
ATOM      4  O   UNL     1      87.927  70.913  18.357  1.00  0.00    -0.285 OA
ATOM      5  C   UNL     1      86.661  72.669  19.231  1.00  0.00     0.111 A 
ATOM      6  C   UNL     1      86.340  72.056  20.478  1.00  0.00     0.134 A 
ATOM      7  C   UNL     1      85.418  72.672  21.334  1.00  0.00     0.093 A 
ATOM      8  C   UNL     1      84.858  73.908  21.017  1.00  0.00     0.123 A 
ATOM      9  C   UNL     1      85.210  74.546  19.826  1.00  0.00     0.094 A 
ATOM     10  C   UNL     1      86.099  73.938  18.936  1.00  0.00     0.146 A 
ATOM     11  O   UNL     1      86.401  74.572  17.809  1.00  0.00    -0.452 OA
ENDROOT
BRANCH   1  12
ATOM     12  C   UNL     1      87.491  74.896  15.683  1.00  0.00     0.025 A 
ATOM     13  C   UNL     1      88.267  76.060  15.805  1.00  0.00     0.016 A 
ATOM     14  C   UNL     1      88.557  76.837  14.681  1.00  0.00     0.051 A 
ATOM     15  C   UNL     1      88.092  76.458  13.419  1.00  0.00     0.157 A 
ATOM     16  C   UNL     1      87.041  74.505  14.410  1.00  0.00     0.062 A 
ATOM     17  C   UNL     1      87.333  75.283  13.280  1.00  0.00     0.158 A 
BRANCH  15  18
ATOM     18  O   UNL     1      88.395  77.255  12.316  1.00  0.00    -0.504 OA
ATOM     19  H   UNL     1      87.908  77.160  11.433  1.00  0.00     0.293 HD
ENDBRANCH  15  18
BRANCH  17  20
ATOM     20  O   UNL     1      86.878  74.891  12.023  1.00  0.00    -0.504 OA
ATOM     21  H   UNL     1      87.131  73.996  11.621  1.00  0.00     0.293 HD
ENDBRANCH  17  20
ENDBRANCH   1  12
BRANCH   2  22
ATOM     22  O   UNL     1      88.547  72.224  16.050  1.00  0.00    -0.502 OA
ATOM     23  H   UNL     1      88.172  71.574  15.370  1.00  0.00     0.293 HD
ENDBRANCH   2  22
BRANCH   6  24
ATOM     24  O   UNL     1      86.915  70.866  20.934  1.00  0.00    -0.507 OA
ATOM     25  H   UNL     1      87.700  70.811  21.565  1.00  0.00     0.293 HD
ENDBRANCH   6  24
BRANCH   8  26
ATOM     26  O   UNL     1      83.956  74.501  21.899  1.00  0.00    -0.508 OA
ATOM     27  H   UNL     1      83.095  74.924  21.572  1.00  0.00     0.293 HD
ENDBRANCH   8  26
TORSDOF 6
ENDMDL
MODEL 8
REMARK VINA RESULT:    -5.709      3.132      6.895
REMARK INTER + INTRA:          -7.168
REMARK INTER:                  -6.857
REMARK INTRA:                  -0.311
REMARK UNBOUND:                -0.290
REMARK SMILES O=c1c(O)c(-c2ccc(O)c(O)c2)oc2cc(O)cc(O)c12
REMARK SMILES IDX 5 1 3 2 2 3 1 4 22 5 20 6 19 7 17 8 16 9 15 10 14 11 6 12
REMARK SMILES IDX 7 13 8 14 9 15 13 16 11 17 10 18 12 20 4 22 21 24 18 26
REMARK H PARENT 10 19 12 21 4 23 21 25 18 27
REMARK Flexibility Score: inf
ROOT
ATOM      1  C   UNL     1      87.391  70.754  16.696  1.00  0.00     0.180 A 
ATOM      2  C   UNL     1      88.000  71.910  16.178  1.00  0.00     0.208 A 
ATOM      3  C   UNL     1      88.211  73.007  17.029  1.00  0.00     0.238 A 
ATOM      4  O   UNL     1      88.805  74.019  16.574  1.00  0.00    -0.285 OA
ATOM      5  C   UNL     1      87.797  72.940  18.382  1.00  0.00     0.111 A 
ATOM      6  C   UNL     1      87.925  74.005  19.322  1.00  0.00     0.134 A 
ATOM      7  C   UNL     1      87.601  73.783  20.667  1.00  0.00     0.093 A 
ATOM      8  C   UNL     1      87.093  72.557  21.091  1.00  0.00     0.123 A 
ATOM      9  C   UNL     1      86.907  71.525  20.168  1.00  0.00     0.094 A 
ATOM     10  C   UNL     1      87.256  71.706  18.828  1.00  0.00     0.146 A 
ATOM     11  O   UNL     1      87.074  70.697  17.984  1.00  0.00    -0.452 OA
ENDROOT
BRANCH   1  12
ATOM     12  C   UNL     1      87.113  69.567  15.855  1.00  0.00     0.025 A 
ATOM     13  C   UNL     1      85.959  69.543  15.055  1.00  0.00     0.016 A 
ATOM     14  C   UNL     1      85.688  68.443  14.237  1.00  0.00     0.051 A 
ATOM     15  C   UNL     1      86.570  67.359  14.194  1.00  0.00     0.157 A 
ATOM     16  C   UNL     1      88.010  68.485  15.794  1.00  0.00     0.062 A 
ATOM     17  C   UNL     1      87.740  67.381  14.972  1.00  0.00     0.158 A 
BRANCH  15  18
ATOM     18  O   UNL     1      86.271  66.274  13.370  1.00  0.00    -0.504 OA
ATOM     19  H   UNL     1      86.941  65.899  12.710  1.00  0.00     0.293 HD
ENDBRANCH  15  18
BRANCH  17  20
ATOM     20  O   UNL     1      88.630  66.310  14.923  1.00  0.00    -0.504 OA
ATOM     21  H   UNL     1      89.622  66.435  15.091  1.00  0.00     0.293 HD
ENDBRANCH  17  20
ENDBRANCH   1  12
BRANCH   2  22
ATOM     22  O   UNL     1      88.421  71.947  14.847  1.00  0.00    -0.502 OA
ATOM     23  H   UNL     1      87.805  72.212  14.088  1.00  0.00     0.293 HD
ENDBRANCH   2  22
BRANCH   6  24
ATOM     24  O   UNL     1      88.336  75.298  18.985  1.00  0.00    -0.507 OA
ATOM     25  H   UNL     1      89.290  75.626  19.021  1.00  0.00     0.293 HD
ENDBRANCH   6  24
BRANCH   8  26
ATOM     26  O   UNL     1      86.766  72.375  22.433  1.00  0.00    -0.508 OA
ATOM     27  H   UNL     1      86.073  72.954  22.893  1.00  0.00     0.293 HD
ENDBRANCH   8  26
TORSDOF 6
ENDMDL
MODEL 9
REMARK VINA RESULT:    -5.698      2.304      3.077
REMARK INTER + INTRA:          -7.154
REMARK INTER:                  -7.063
REMARK INTRA:                  -0.091
REMARK UNBOUND:                -0.290
REMARK SMILES O=c1c(O)c(-c2ccc(O)c(O)c2)oc2cc(O)cc(O)c12
REMARK SMILES IDX 5 1 3 2 2 3 1 4 22 5 20 6 19 7 17 8 16 9 15 10 14 11 6 12
REMARK SMILES IDX 7 13 8 14 9 15 13 16 11 17 10 18 12 20 4 22 21 24 18 26
REMARK H PARENT 10 19 12 21 4 23 21 25 18 27
REMARK Flexibility Score: inf
ROOT
ATOM      1  C   UNL     1      86.837  74.317  17.871  1.00  0.00     0.180 A 
ATOM      2  C   UNL     1      88.212  74.081  17.703  1.00  0.00     0.208 A 
ATOM      3  C   UNL     1      88.897  74.750  16.676  1.00  0.00     0.238 A 
ATOM      4  O   UNL     1      90.139  74.576  16.564  1.00  0.00    -0.285 OA
ATOM      5  C   UNL     1      88.195  75.634  15.820  1.00  0.00     0.111 A 
ATOM      6  C   UNL     1      88.779  76.333  14.722  1.00  0.00     0.134 A 
ATOM      7  C   UNL     1      88.021  77.281  14.024  1.00  0.00     0.093 A 
ATOM      8  C   UNL     1      86.682  77.506  14.342  1.00  0.00     0.123 A 
ATOM      9  C   UNL     1      86.083  76.784  15.375  1.00  0.00     0.094 A 
ATOM     10  C   UNL     1      86.825  75.859  16.113  1.00  0.00     0.146 A 
ATOM     11  O   UNL     1      86.221  75.200  17.095  1.00  0.00    -0.452 OA
ENDROOT
BRANCH   1  12
ATOM     12  C   UNL     1      86.042  73.630  18.915  1.00  0.00     0.025 A 
ATOM     13  C   UNL     1      85.994  72.226  18.935  1.00  0.00     0.016 A 
ATOM     14  C   UNL     1      85.268  71.557  19.923  1.00  0.00     0.051 A 
ATOM     15  C   UNL     1      84.593  72.276  20.914  1.00  0.00     0.157 A 
ATOM     16  C   UNL     1      85.381  74.350  19.925  1.00  0.00     0.062 A 
ATOM     17  C   UNL     1      84.653  73.680  20.920  1.00  0.00     0.158 A 
BRANCH  15  18
ATOM     18  O   UNL     1      83.875  71.580  21.886  1.00  0.00    -0.504 OA
ATOM     19  H   UNL     1      83.840  71.886  22.851  1.00  0.00     0.293 HD
ENDBRANCH  15  18
BRANCH  17  20
ATOM     20  O   UNL     1      83.995  74.402  21.913  1.00  0.00    -0.504 OA
ATOM     21  H   UNL     1      82.987  74.366  22.018  1.00  0.00     0.293 HD
ENDBRANCH  17  20
ENDBRANCH   1  12
BRANCH   2  22
ATOM     22  O   UNL     1      88.890  73.222  18.572  1.00  0.00    -0.502 OA
ATOM     23  H   UNL     1      89.577  73.554  19.238  1.00  0.00     0.293 HD
ENDBRANCH   2  22
BRANCH   6  24
ATOM     24  O   UNL     1      90.082  76.117  14.263  1.00  0.00    -0.507 OA
ATOM     25  H   UNL     1      90.778  75.569  14.746  1.00  0.00     0.293 HD
ENDBRANCH   6  24
BRANCH   8  26
ATOM     26  O   UNL     1      85.952  78.446  13.616  1.00  0.00    -0.508 OA
ATOM     27  H   UNL     1      86.409  79.137  13.033  1.00  0.00     0.293 HD
ENDBRANCH   8  26
TORSDOF 6
ENDMDL
