MODEL 1
REMARK VINA RESULT:    -3.367      0.000      0.000
REMARK INTER + INTRA:          -8.211
REMARK INTER:                  -6.516
REMARK INTRA:                  -1.695
REMARK UNBOUND:                -1.695
REMARK SMILES CCCCCCCCCCCCCCCCCC(=O)[O-]
REMARK SMILES IDX 10 1 11 2 12 3 13 4 14 5 15 6 16 7 17 8 18 9 19 10 20 11
REMARK SMILES IDX 9 12 8 13 7 14 6 15 5 16 4 17 3 18 2 19 1 20
REMARK H PARENT
REMARK Flexibility Score: inf
ROOT
ATOM      1  C   UNL     1       5.989  -6.444   5.882  1.00  0.00     0.000 C 
ENDROOT
BRANCH   1   2
ATOM      2  C   UNL     1       5.483  -7.695   6.620  1.00  0.00     0.000 C 
BRANCH   2   3
ATOM      3  C   UNL     1       5.807  -8.995   5.867  1.00  0.00     0.000 C 
BRANCH   3   4
ATOM      4  C   UNL     1       4.851  -9.259   4.691  1.00  0.00     0.000 C 
BRANCH   4   5
ATOM      5  C   UNL     1       3.392  -8.886   5.032  1.00  0.00     0.000 C 
BRANCH   5   6
ATOM      6  C   UNL     1       2.684  -8.094   3.921  1.00  0.00     0.000 C 
BRANCH   6   7
ATOM      7  C   UNL     1       3.439  -6.815   3.523  1.00  0.00     0.006 C 
BRANCH   7   8
ATOM      8  C   UNL     1       2.698  -5.546   3.959  1.00  0.00     0.053 C 
BRANCH   8   9
ATOM      9  C   UNL     1       3.629  -4.381   4.094  1.00  0.00     0.041 C 
ATOM     10  O   UNL     1       4.231  -3.928   3.085  1.00  0.00    -0.550 OA
ATOM     11  O   UNL     1       3.800  -3.767   5.330  1.00  0.00    -0.550 OA
ENDBRANCH   8   9
ENDBRANCH   7   8
ENDBRANCH   6   7
ENDBRANCH   5   6
ENDBRANCH   4   5
ENDBRANCH   3   4
ENDBRANCH   2   3
ENDBRANCH   1   2
BRANCH   1  12
ATOM     12  C   UNL     1       7.303  -6.681   5.114  1.00  0.00     0.000 C 
BRANCH  12  13
ATOM     13  C   UNL     1       7.226  -6.538   3.577  1.00  0.00    -0.000 C 
BRANCH  13  14
ATOM     14  C   UNL     1       7.538  -5.132   3.017  1.00  0.00    -0.000 C 
BRANCH  14  15
ATOM     15  C   UNL     1       8.983  -4.657   3.250  1.00  0.00    -0.000 C 
BRANCH  15  16
ATOM     16  C   UNL     1      10.026  -5.772   3.064  1.00  0.00    -0.000 C 
BRANCH  16  17
ATOM     17  C   UNL     1      10.928  -5.952   4.297  1.00  0.00    -0.000 C 
BRANCH  17  18
ATOM     18  C   UNL     1      12.308  -6.537   3.941  1.00  0.00    -0.000 C 
BRANCH  18  19
ATOM     19  C   UNL     1      13.453  -5.546   4.208  1.00  0.00    -0.003 C 
ATOM     20  C   UNL     1      13.533  -4.439   3.158  1.00  0.00     0.004 C 
ENDBRANCH  18  19
ENDBRANCH  17  18
ENDBRANCH  16  17
ENDBRANCH  15  16
ENDBRANCH  14  15
ENDBRANCH  13  14
ENDBRANCH  12  13
ENDBRANCH   1  12
TORSDOF 16
ENDMDL
MODEL 2
REMARK VINA RESULT:    -3.293      3.995      8.450
REMARK INTER + INTRA:          -8.069
REMARK INTER:                  -6.254
REMARK INTRA:                  -1.814
REMARK UNBOUND:                -1.695
REMARK SMILES CCCCCCCCCCCCCCCCCC(=O)[O-]
REMARK SMILES IDX 10 1 11 2 12 3 13 4 14 5 15 6 16 7 17 8 18 9 19 10 20 11
REMARK SMILES IDX 9 12 8 13 7 14 6 15 5 16 4 17 3 18 2 19 1 20
REMARK H PARENT
REMARK Flexibility Score: inf
ROOT
ATOM      1  C   UNL     1       7.146  -6.370   4.806  1.00  0.00     0.000 C 
ENDROOT
BRANCH   1   2
ATOM      2  C   UNL     1       7.482  -6.394   3.305  1.00  0.00     0.000 C 
BRANCH   2   3
ATOM      3  C   UNL     1       8.616  -5.424   2.940  1.00  0.00     0.000 C 
BRANCH   3   4
ATOM      4  C   UNL     1       9.744  -5.402   3.987  1.00  0.00     0.000 C 
BRANCH   4   5
ATOM      5  C   UNL     1      11.003  -6.152   3.503  1.00  0.00     0.000 C 
BRANCH   5   6
ATOM      6  C   UNL     1      12.181  -6.076   4.488  1.00  0.00     0.000 C 
BRANCH   6   7
ATOM      7  C   UNL     1      13.312  -5.157   3.998  1.00  0.00     0.006 C 
BRANCH   7   8
ATOM      8  C   UNL     1      14.572  -5.279   4.864  1.00  0.00     0.053 C 
BRANCH   8   9
ATOM      9  C   UNL     1      15.713  -5.875   4.098  1.00  0.00     0.041 C 
ATOM     10  O   UNL     1      16.732  -5.183   3.836  1.00  0.00    -0.550 OA
ATOM     11  O   UNL     1      15.670  -7.210   3.713  1.00  0.00    -0.550 OA
ENDBRANCH   8   9
ENDBRANCH   7   8
ENDBRANCH   6   7
ENDBRANCH   5   6
ENDBRANCH   4   5
ENDBRANCH   3   4
ENDBRANCH   2   3
ENDBRANCH   1   2
BRANCH   1  12
ATOM     12  C   UNL     1       6.734  -7.748   5.359  1.00  0.00     0.000 C 
BRANCH  12  13
ATOM     13  C   UNL     1       5.519  -7.761   6.313  1.00  0.00    -0.000 C 
BRANCH  13  14
ATOM     14  C   UNL     1       4.547  -8.951   6.147  1.00  0.00    -0.000 C 
BRANCH  14  15
ATOM     15  C   UNL     1       3.378  -8.691   5.182  1.00  0.00    -0.000 C 
BRANCH  15  16
ATOM     16  C   UNL     1       3.779  -8.793   3.700  1.00  0.00    -0.000 C 
BRANCH  16  17
ATOM     17  C   UNL     1       3.863  -7.421   3.012  1.00  0.00    -0.000 C 
BRANCH  17  18
ATOM     18  C   UNL     1       3.077  -6.331   3.764  1.00  0.00    -0.000 C 
BRANCH  18  19
ATOM     19  C   UNL     1       3.795  -4.972   3.752  1.00  0.00    -0.003 C 
ATOM     20  C   UNL     1       4.038  -4.419   5.156  1.00  0.00     0.004 C 
ENDBRANCH  18  19
ENDBRANCH  17  18
ENDBRANCH  16  17
ENDBRANCH  15  16
ENDBRANCH  14  15
ENDBRANCH  13  14
ENDBRANCH  12  13
ENDBRANCH   1  12
TORSDOF 16
ENDMDL
MODEL 3
REMARK VINA RESULT:    -3.228      1.817      3.506
REMARK INTER + INTRA:          -7.942
REMARK INTER:                  -6.724
REMARK INTRA:                  -1.218
REMARK UNBOUND:                -1.695
REMARK SMILES CCCCCCCCCCCCCCCCCC(=O)[O-]
REMARK SMILES IDX 10 1 11 2 12 3 13 4 14 5 15 6 16 7 17 8 18 9 19 10 20 11
REMARK SMILES IDX 9 12 8 13 7 14 6 15 5 16 4 17 3 18 2 19 1 20
REMARK H PARENT
REMARK Flexibility Score: inf
ROOT
ATOM      1  C   UNL     1       9.178  -5.614   4.388  1.00  0.00     0.000 C 
ENDROOT
BRANCH   1   2
ATOM      2  C   UNL     1       7.757  -5.877   3.862  1.00  0.00     0.000 C 
BRANCH   2   3
ATOM      3  C   UNL     1       7.125  -7.137   4.474  1.00  0.00     0.000 C 
BRANCH   3   4
ATOM      4  C   UNL     1       6.345  -6.846   5.768  1.00  0.00     0.000 C 
BRANCH   4   5
ATOM      5  C   UNL     1       5.042  -7.668   5.859  1.00  0.00     0.000 C 
BRANCH   5   6
ATOM      6  C   UNL     1       4.325  -7.836   4.509  1.00  0.00     0.000 C 
BRANCH   6   7
ATOM      7  C   UNL     1       3.223  -6.789   4.282  1.00  0.00     0.006 C 
BRANCH   7   8
ATOM      8  C   UNL     1       3.753  -5.535   3.576  1.00  0.00     0.053 C 
BRANCH   8   9
ATOM      9  C   UNL     1       3.511  -4.300   4.387  1.00  0.00     0.041 C 
ATOM     10  O   UNL     1       4.123  -4.123   5.473  1.00  0.00    -0.550 OA
ATOM     11  O   UNL     1       2.641  -3.321   3.920  1.00  0.00    -0.550 OA
ENDBRANCH   8   9
ENDBRANCH   7   8
ENDBRANCH   6   7
ENDBRANCH   5   6
ENDBRANCH   4   5
ENDBRANCH   3   4
ENDBRANCH   2   3
ENDBRANCH   1   2
BRANCH   1  12
ATOM     12  C   UNL     1      10.181  -5.252   3.277  1.00  0.00     0.000 C 
BRANCH  12  13
ATOM     13  C   UNL     1      11.471  -6.101   3.223  1.00  0.00    -0.000 C 
BRANCH  13  14
ATOM     14  C   UNL     1      12.154  -6.373   4.582  1.00  0.00    -0.000 C 
BRANCH  14  15
ATOM     15  C   UNL     1      13.438  -5.562   4.826  1.00  0.00    -0.000 C 
BRANCH  15  16
ATOM     16  C   UNL     1      13.975  -4.878   3.557  1.00  0.00    -0.000 C 
BRANCH  16  17
ATOM     17  C   UNL     1      15.370  -5.385   3.155  1.00  0.00    -0.000 C 
BRANCH  17  18
ATOM     18  C   UNL     1      16.158  -5.961   4.346  1.00  0.00    -0.000 C 
BRANCH  18  19
ATOM     19  C   UNL     1      16.830  -7.303   4.014  1.00  0.00    -0.003 C 
ATOM     20  C   UNL     1      17.623  -7.873   5.190  1.00  0.00     0.004 C 
ENDBRANCH  18  19
ENDBRANCH  17  18
ENDBRANCH  16  17
ENDBRANCH  15  16
ENDBRANCH  14  15
ENDBRANCH  13  14
ENDBRANCH  12  13
ENDBRANCH   1  12
TORSDOF 16
ENDMDL
MODEL 4
REMARK VINA RESULT:    -3.218      3.227      6.070
REMARK INTER + INTRA:          -7.924
REMARK INTER:                  -6.764
REMARK INTRA:                  -1.160
REMARK UNBOUND:                -1.695
REMARK SMILES CCCCCCCCCCCCCCCCCC(=O)[O-]
REMARK SMILES IDX 10 1 11 2 12 3 13 4 14 5 15 6 16 7 17 8 18 9 19 10 20 11
REMARK SMILES IDX 9 12 8 13 7 14 6 15 5 16 4 17 3 18 2 19 1 20
REMARK H PARENT
REMARK Flexibility Score: inf
ROOT
ATOM      1  C   UNL     1      12.605  -6.808   4.248  1.00  0.00     0.000 C 
ENDROOT
BRANCH   1   2
ATOM      2  C   UNL     1      11.721  -5.648   3.759  1.00  0.00     0.000 C 
BRANCH   2   3
ATOM      3  C   UNL     1      10.369  -6.128   3.208  1.00  0.00     0.000 C 
BRANCH   3   4
ATOM      4  C   UNL     1       9.172  -5.581   4.005  1.00  0.00     0.000 C 
BRANCH   4   5
ATOM      5  C   UNL     1       7.821  -5.961   3.361  1.00  0.00     0.000 C 
BRANCH   5   6
ATOM      6  C   UNL     1       6.667  -6.073   4.371  1.00  0.00     0.000 C 
BRANCH   6   7
ATOM      7  C   UNL     1       6.638  -7.426   5.100  1.00  0.00     0.006 C 
BRANCH   7   8
ATOM      8  C   UNL     1       5.787  -7.378   6.374  1.00  0.00     0.053 C 
BRANCH   8   9
ATOM      9  C   UNL     1       4.870  -8.558   6.471  1.00  0.00     0.041 C 
ATOM     10  O   UNL     1       4.502  -9.163   5.430  1.00  0.00    -0.550 OA
ATOM     11  O   UNL     1       4.455  -9.016   7.716  1.00  0.00    -0.550 OA
ENDBRANCH   8   9
ENDBRANCH   7   8
ENDBRANCH   6   7
ENDBRANCH   5   6
ENDBRANCH   4   5
ENDBRANCH   3   4
ENDBRANCH   2   3
ENDBRANCH   1   2
BRANCH   1  12
ATOM     12  C   UNL     1      12.887  -7.859   3.158  1.00  0.00     0.000 C 
BRANCH  12  13
ATOM     13  C   UNL     1      13.491  -9.195   3.644  1.00  0.00    -0.000 C 
BRANCH  13  14
ATOM     14  C   UNL     1      14.934  -9.490   3.176  1.00  0.00    -0.000 C 
BRANCH  14  15
ATOM     15  C   UNL     1      15.934  -9.754   4.316  1.00  0.00    -0.000 C 
BRANCH  15  16
ATOM     16  C   UNL     1      17.343  -9.211   4.025  1.00  0.00    -0.000 C 
BRANCH  16  17
ATOM     17  C   UNL     1      17.618  -7.869   4.724  1.00  0.00    -0.000 C 
BRANCH  17  18
ATOM     18  C   UNL     1      17.248  -6.658   3.847  1.00  0.00    -0.000 C 
BRANCH  18  19
ATOM     19  C   UNL     1      16.159  -5.780   4.483  1.00  0.00    -0.003 C 
ATOM     20  C   UNL     1      16.382  -5.553   5.979  1.00  0.00     0.004 C 
ENDBRANCH  18  19
ENDBRANCH  17  18
ENDBRANCH  16  17
ENDBRANCH  15  16
ENDBRANCH  14  15
ENDBRANCH  13  14
ENDBRANCH  12  13
ENDBRANCH   1  12
TORSDOF 16
ENDMDL
MODEL 5
REMARK VINA RESULT:    -3.206      4.536      9.535
REMARK INTER + INTRA:          -7.899
REMARK INTER:                  -6.983
REMARK INTRA:                  -0.915
REMARK UNBOUND:                -1.695
REMARK SMILES CCCCCCCCCCCCCCCCCC(=O)[O-]
REMARK SMILES IDX 10 1 11 2 12 3 13 4 14 5 15 6 16 7 17 8 18 9 19 10 20 11
REMARK SMILES IDX 9 12 8 13 7 14 6 15 5 16 4 17 3 18 2 19 1 20
REMARK H PARENT
REMARK Flexibility Score: inf
ROOT
ATOM      1  C   UNL     1      12.512  -6.803   3.930  1.00  0.00     0.000 C 
ENDROOT
BRANCH   1   2
ATOM      2  C   UNL     1      13.267  -7.812   3.048  1.00  0.00     0.000 C 
BRANCH   2   3
ATOM      3  C   UNL     1      13.231  -9.237   3.620  1.00  0.00     0.000 C 
BRANCH   3   4
ATOM      4  C   UNL     1      14.633  -9.802   3.905  1.00  0.00     0.000 C 
BRANCH   4   5
ATOM      5  C   UNL     1      15.751  -8.820   3.494  1.00  0.00     0.000 C 
BRANCH   5   6
ATOM      6  C   UNL     1      16.976  -8.859   4.422  1.00  0.00     0.000 C 
BRANCH   6   7
ATOM      7  C   UNL     1      17.502  -7.459   4.778  1.00  0.00     0.006 C 
BRANCH   7   8
ATOM      8  C   UNL     1      16.503  -6.355   4.409  1.00  0.00     0.053 C 
BRANCH   8   9
ATOM      9  C   UNL     1      16.074  -5.573   5.613  1.00  0.00     0.041 C 
ATOM     10  O   UNL     1      16.920  -5.225   6.478  1.00  0.00    -0.550 OA
ATOM     11  O   UNL     1      14.746  -5.190   5.756  1.00  0.00    -0.550 OA
ENDBRANCH   8   9
ENDBRANCH   7   8
ENDBRANCH   6   7
ENDBRANCH   5   6
ENDBRANCH   4   5
ENDBRANCH   3   4
ENDBRANCH   2   3
ENDBRANCH   1   2
BRANCH   1  12
ATOM     12  C   UNL     1      11.302  -6.163   3.225  1.00  0.00     0.000 C 
BRANCH  12  13
ATOM     13  C   UNL     1      10.178  -5.638   4.146  1.00  0.00    -0.000 C 
BRANCH  13  14
ATOM     14  C   UNL     1       8.737  -5.819   3.618  1.00  0.00    -0.000 C 
BRANCH  14  15
ATOM     15  C   UNL     1       7.703  -6.187   4.697  1.00  0.00    -0.000 C 
BRANCH  15  16
ATOM     16  C   UNL     1       6.303  -6.468   4.125  1.00  0.00    -0.000 C 
BRANCH  16  17
ATOM     17  C   UNL     1       5.192  -6.325   5.179  1.00  0.00    -0.000 C 
BRANCH  17  18
ATOM     18  C   UNL     1       5.615  -6.855   6.562  1.00  0.00    -0.000 C 
BRANCH  18  19
ATOM     19  C   UNL     1       5.624  -8.390   6.627  1.00  0.00    -0.003 C 
ATOM     20  C   UNL     1       4.426  -8.956   7.390  1.00  0.00     0.004 C 
ENDBRANCH  18  19
ENDBRANCH  17  18
ENDBRANCH  16  17
ENDBRANCH  15  16
ENDBRANCH  14  15
ENDBRANCH  13  14
ENDBRANCH  12  13
ENDBRANCH   1  12
TORSDOF 16
ENDMDL
MODEL 6
REMARK VINA RESULT:    -3.107      4.789      9.914
REMARK INTER + INTRA:          -7.708
REMARK INTER:                  -6.705
REMARK INTRA:                  -1.003
REMARK UNBOUND:                -1.695
REMARK SMILES CCCCCCCCCCCCCCCCCC(=O)[O-]
REMARK SMILES IDX 10 1 11 2 12 3 13 4 14 5 15 6 16 7 17 8 18 9 19 10 20 11
REMARK SMILES IDX 9 12 8 13 7 14 6 15 5 16 4 17 3 18 2 19 1 20
REMARK H PARENT
REMARK Flexibility Score: inf
ROOT
ATOM      1  C   UNL     1      11.418  -5.648   2.972  1.00  0.00     0.000 C 
ENDROOT
BRANCH   1   2
ATOM      2  C   UNL     1      12.855  -5.115   3.102  1.00  0.00     0.000 C 
BRANCH   2   3
ATOM      3  C   UNL     1      13.739  -6.013   3.982  1.00  0.00     0.000 C 
BRANCH   3   4
ATOM      4  C   UNL     1      14.459  -5.234   5.096  1.00  0.00     0.000 C 
BRANCH   4   5
ATOM      5  C   UNL     1      15.955  -5.604   5.192  1.00  0.00     0.000 C 
BRANCH   5   6
ATOM      6  C   UNL     1      16.601  -5.909   3.830  1.00  0.00     0.000 C 
BRANCH   6   7
ATOM      7  C   UNL     1      17.614  -7.063   3.894  1.00  0.00     0.006 C 
BRANCH   7   8
ATOM      8  C   UNL     1      17.092  -8.330   3.204  1.00  0.00     0.053 C 
BRANCH   8   9
ATOM      9  C   UNL     1      16.492  -9.287   4.188  1.00  0.00     0.041 C 
ATOM     10  O   UNL     1      17.157  -9.671   5.186  1.00  0.00    -0.550 OA
ATOM     11  O   UNL     1      15.182  -9.722   4.025  1.00  0.00    -0.550 OA
ENDBRANCH   8   9
ENDBRANCH   7   8
ENDBRANCH   6   7
ENDBRANCH   5   6
ENDBRANCH   4   5
ENDBRANCH   3   4
ENDBRANCH   2   3
ENDBRANCH   1   2
BRANCH   1  12
ATOM     12  C   UNL     1      10.758  -5.956   4.329  1.00  0.00     0.000 C 
BRANCH  12  13
ATOM     13  C   UNL     1       9.266  -5.578   4.460  1.00  0.00    -0.000 C 
BRANCH  13  14
ATOM     14  C   UNL     1       8.352  -6.035   3.300  1.00  0.00    -0.000 C 
BRANCH  14  15
ATOM     15  C   UNL     1       6.869  -5.664   3.471  1.00  0.00    -0.000 C 
BRANCH  15  16
ATOM     16  C   UNL     1       6.022  -6.803   4.066  1.00  0.00    -0.000 C 
BRANCH  16  17
ATOM     17  C   UNL     1       5.178  -6.349   5.268  1.00  0.00    -0.000 C 
BRANCH  17  18
ATOM     18  C   UNL     1       5.707  -6.898   6.606  1.00  0.00    -0.000 C 
BRANCH  18  19
ATOM     19  C   UNL     1       5.668  -8.433   6.670  1.00  0.00    -0.003 C 
ATOM     20  C   UNL     1       4.411  -8.963   7.359  1.00  0.00     0.004 C 
ENDBRANCH  18  19
ENDBRANCH  17  18
ENDBRANCH  16  17
ENDBRANCH  15  16
ENDBRANCH  14  15
ENDBRANCH  13  14
ENDBRANCH  12  13
ENDBRANCH   1  12
TORSDOF 16
ENDMDL
MODEL 7
REMARK VINA RESULT:    -3.100      2.772      4.843
REMARK INTER + INTRA:          -7.694
REMARK INTER:                  -6.700
REMARK INTRA:                  -0.995
REMARK UNBOUND:                -1.695
REMARK SMILES CCCCCCCCCCCCCCCCCC(=O)[O-]
REMARK SMILES IDX 10 1 11 2 12 3 13 4 14 5 15 6 16 7 17 8 18 9 19 10 20 11
REMARK SMILES IDX 9 12 8 13 7 14 6 15 5 16 4 17 3 18 2 19 1 20
REMARK H PARENT
REMARK Flexibility Score: inf
ROOT
ATOM      1  C   UNL     1       9.261  -5.144   3.836  1.00  0.00     0.000 C 
ENDROOT
BRANCH   1   2
ATOM      2  C   UNL     1       8.163  -5.853   3.026  1.00  0.00     0.000 C 
BRANCH   2   3
ATOM      3  C   UNL     1       6.809  -5.131   3.109  1.00  0.00     0.000 C 
BRANCH   3   4
ATOM      4  C   UNL     1       5.659  -6.063   3.528  1.00  0.00     0.000 C 
BRANCH   4   5
ATOM      5  C   UNL     1       4.928  -5.555   4.789  1.00  0.00     0.000 C 
BRANCH   5   6
ATOM      6  C   UNL     1       5.372  -6.258   6.083  1.00  0.00     0.000 C 
BRANCH   6   7
ATOM      7  C   UNL     1       6.358  -7.410   5.830  1.00  0.00     0.006 C 
BRANCH   7   8
ATOM      8  C   UNL     1       5.779  -8.768   6.248  1.00  0.00     0.053 C 
BRANCH   8   9
ATOM      9  C   UNL     1       4.659  -9.191   5.348  1.00  0.00     0.041 C 
ATOM     10  O   UNL     1       4.894  -9.526   4.157  1.00  0.00    -0.550 OA
ATOM     11  O   UNL     1       3.361  -9.259   5.839  1.00  0.00    -0.550 OA
ENDBRANCH   8   9
ENDBRANCH   7   8
ENDBRANCH   6   7
ENDBRANCH   5   6
ENDBRANCH   4   5
ENDBRANCH   3   4
ENDBRANCH   2   3
ENDBRANCH   1   2
BRANCH   1  12
ATOM     12  C   UNL     1      10.686  -5.530   3.398  1.00  0.00     0.000 C 
BRANCH  12  13
ATOM     13  C   UNL     1      11.575  -6.186   4.477  1.00  0.00    -0.000 C 
BRANCH  13  14
ATOM     14  C   UNL     1      13.042  -6.450   4.071  1.00  0.00    -0.000 C 
BRANCH  14  15
ATOM     15  C   UNL     1      14.016  -5.310   4.418  1.00  0.00    -0.000 C 
BRANCH  15  16
ATOM     16  C   UNL     1      15.163  -5.161   3.403  1.00  0.00    -0.000 C 
BRANCH  16  17
ATOM     17  C   UNL     1      15.998  -6.444   3.258  1.00  0.00    -0.000 C 
BRANCH  17  18
ATOM     18  C   UNL     1      16.773  -6.796   4.542  1.00  0.00    -0.000 C 
BRANCH  18  19
ATOM     19  C   UNL     1      17.746  -7.968   4.340  1.00  0.00    -0.003 C 
ATOM     20  C   UNL     1      17.362  -9.202   5.157  1.00  0.00     0.004 C 
ENDBRANCH  18  19
ENDBRANCH  17  18
ENDBRANCH  16  17
ENDBRANCH  15  16
ENDBRANCH  14  15
ENDBRANCH  13  14
ENDBRANCH  12  13
ENDBRANCH   1  12
TORSDOF 16
ENDMDL
MODEL 8
REMARK VINA RESULT:    -2.951      4.827      9.764
REMARK INTER + INTRA:          -7.406
REMARK INTER:                  -6.507
REMARK INTRA:                  -0.899
REMARK UNBOUND:                -1.695
REMARK SMILES CCCCCCCCCCCCCCCCCC(=O)[O-]
REMARK SMILES IDX 10 1 11 2 12 3 13 4 14 5 15 6 16 7 17 8 18 9 19 10 20 11
REMARK SMILES IDX 9 12 8 13 7 14 6 15 5 16 4 17 3 18 2 19 1 20
REMARK H PARENT
REMARK Flexibility Score: inf
ROOT
ATOM      1  C   UNL     1       9.720  -5.121   3.363  1.00  0.00     0.000 C 
ENDROOT
BRANCH   1   2
ATOM      2  C   UNL     1      10.941  -6.048   3.490  1.00  0.00     0.000 C 
BRANCH   2   3
ATOM      3  C   UNL     1      12.264  -5.324   3.197  1.00  0.00     0.000 C 
BRANCH   3   4
ATOM      4  C   UNL     1      13.468  -5.971   3.904  1.00  0.00     0.000 C 
BRANCH   4   5
ATOM      5  C   UNL     1      14.198  -4.980   4.836  1.00  0.00     0.000 C 
BRANCH   5   6
ATOM      6  C   UNL     1      15.327  -5.624   5.656  1.00  0.00     0.000 C 
BRANCH   6   7
ATOM      7  C   UNL     1      16.692  -5.560   4.950  1.00  0.00     0.006 C 
BRANCH   7   8
ATOM      8  C   UNL     1      16.921  -6.761   4.025  1.00  0.00     0.053 C 
BRANCH   8   9
ATOM      9  C   UNL     1      17.277  -7.994   4.797  1.00  0.00     0.041 C 
ATOM     10  O   UNL     1      17.835  -7.899   5.922  1.00  0.00    -0.550 OA
ATOM     11  O   UNL     1      16.953  -9.248   4.293  1.00  0.00    -0.550 OA
ENDBRANCH   8   9
ENDBRANCH   7   8
ENDBRANCH   6   7
ENDBRANCH   5   6
ENDBRANCH   4   5
ENDBRANCH   3   4
ENDBRANCH   2   3
ENDBRANCH   1   2
BRANCH   1  12
ATOM     12  C   UNL     1       8.460  -5.676   4.054  1.00  0.00     0.000 C 
BRANCH  12  13
ATOM     13  C   UNL     1       7.152  -5.613   3.234  1.00  0.00    -0.000 C 
BRANCH  13  14
ATOM     14  C   UNL     1       5.962  -6.416   3.806  1.00  0.00    -0.000 C 
BRANCH  14  15
ATOM     15  C   UNL     1       5.243  -5.740   4.987  1.00  0.00    -0.000 C 
BRANCH  15  16
ATOM     16  C   UNL     1       5.551  -6.398   6.343  1.00  0.00    -0.000 C 
BRANCH  16  17
ATOM     17  C   UNL     1       5.865  -7.898   6.216  1.00  0.00    -0.000 C 
BRANCH  17  18
ATOM     18  C   UNL     1       4.601  -8.776   6.282  1.00  0.00    -0.000 C 
BRANCH  18  19
ATOM     19  C   UNL     1       4.320  -9.504   4.958  1.00  0.00    -0.003 C 
ATOM     20  C   UNL     1       2.937  -9.184   4.390  1.00  0.00     0.004 C 
ENDBRANCH  18  19
ENDBRANCH  17  18
ENDBRANCH  16  17
ENDBRANCH  15  16
ENDBRANCH  14  15
ENDBRANCH  13  14
ENDBRANCH  12  13
ENDBRANCH   1  12
TORSDOF 16
ENDMDL
MODEL 9
REMARK VINA RESULT:    -2.917      4.259      8.728
REMARK INTER + INTRA:          -7.340
REMARK INTER:                  -6.124
REMARK INTRA:                  -1.217
REMARK UNBOUND:                -1.695
REMARK SMILES CCCCCCCCCCCCCCCCCC(=O)[O-]
REMARK SMILES IDX 10 1 11 2 12 3 13 4 14 5 15 6 16 7 17 8 18 9 19 10 20 11
REMARK SMILES IDX 9 12 8 13 7 14 6 15 5 16 4 17 3 18 2 19 1 20
REMARK H PARENT
REMARK Flexibility Score: inf
ROOT
ATOM      1  C   UNL     1       6.943  -5.976   4.087  1.00  0.00     0.000 C 
ENDROOT
BRANCH   1   2
ATOM      2  C   UNL     1       8.306  -6.073   3.380  1.00  0.00     0.000 C 
BRANCH   2   3
ATOM      3  C   UNL     1       9.466  -5.599   4.269  1.00  0.00     0.000 C 
BRANCH   3   4
ATOM      4  C   UNL     1      10.820  -5.607   3.538  1.00  0.00     0.000 C 
BRANCH   4   5
ATOM      5  C   UNL     1      11.887  -6.424   4.299  1.00  0.00     0.000 C 
BRANCH   5   6
ATOM      6  C   UNL     1      13.076  -5.580   4.787  1.00  0.00     0.000 C 
BRANCH   6   7
ATOM      7  C   UNL     1      14.090  -5.274   3.672  1.00  0.00     0.006 C 
BRANCH   7   8
ATOM      8  C   UNL     1      15.325  -6.180   3.750  1.00  0.00     0.053 C 
BRANCH   8   9
ATOM      9  C   UNL     1      16.456  -5.512   4.469  1.00  0.00     0.041 C 
ATOM     10  O   UNL     1      17.356  -4.914   3.821  1.00  0.00    -0.550 OA
ATOM     11  O   UNL     1      16.494  -5.512   5.859  1.00  0.00    -0.550 OA
ENDBRANCH   8   9
ENDBRANCH   7   8
ENDBRANCH   6   7
ENDBRANCH   5   6
ENDBRANCH   4   5
ENDBRANCH   3   4
ENDBRANCH   2   3
ENDBRANCH   1   2
BRANCH   1  12
ATOM     12  C   UNL     1       5.885  -5.215   3.266  1.00  0.00     0.000 C 
BRANCH  12  13
ATOM     13  C   UNL     1       4.736  -4.569   4.072  1.00  0.00    -0.000 C 
BRANCH  13  14
ATOM     14  C   UNL     1       3.307  -4.992   3.663  1.00  0.00    -0.000 C 
BRANCH  14  15
ATOM     15  C   UNL     1       3.213  -6.386   3.017  1.00  0.00    -0.000 C 
BRANCH  15  16
ATOM     16  C   UNL     1       2.174  -7.298   3.691  1.00  0.00    -0.000 C 
BRANCH  16  17
ATOM     17  C   UNL     1       2.810  -8.517   4.378  1.00  0.00    -0.000 C 
BRANCH  17  18
ATOM     18  C   UNL     1       4.341  -8.397   4.500  1.00  0.00    -0.000 C 
BRANCH  18  19
ATOM     19  C   UNL     1       4.791  -8.030   5.923  1.00  0.00    -0.003 C 
ATOM     20  C   UNL     1       6.026  -8.811   6.372  1.00  0.00     0.004 C 
ENDBRANCH  18  19
ENDBRANCH  17  18
ENDBRANCH  16  17
ENDBRANCH  15  16
ENDBRANCH  14  15
ENDBRANCH  13  14
ENDBRANCH  12  13
ENDBRANCH   1  12
TORSDOF 16
ENDMDL
