MODEL 1
REMARK VINA RESULT:    -7.736      0.000      0.000
REMARK INTER + INTRA:          -9.854
REMARK INTER:                  -9.545
REMARK INTRA:                  -0.309
REMARK UNBOUND:                -0.309
REMARK SMILES Oc1cc(O)c2cc(O)c(-c3cc(O)c(O)c(O)c3)[o+]c2c1
REMARK SMILES IDX 10 1 20 2 21 3 22 4 2 5 3 6 4 7 6 8 7 9 8 10 11 11 12 12
REMARK SMILES IDX 13 13 19 14 15 15 17 16 14 17 16 19 18 21 9 23 1 25 5 27
REMARK H PARENT 14 18 16 20 18 22 9 24 1 26 5 28
REMARK Flexibility Score: inf
ROOT
ATOM      1  C   UNL     1     -22.175 -15.508 -10.509  1.00  0.00     0.402 A 
ATOM      2  O   UNL     1     -22.766 -16.238  -9.564  1.00  0.00    -0.202 OA
ATOM      3  C   UNL     1     -22.455 -16.148  -8.275  1.00  0.00     0.368 A 
ATOM      4  C   UNL     1     -23.126 -16.947  -7.344  1.00  0.00     0.162 A 
ATOM      5  C   UNL     1     -22.811 -16.858  -5.982  1.00  0.00     0.128 A 
ATOM      6  C   UNL     1     -21.820 -15.968  -5.551  1.00  0.00     0.093 A 
ATOM      7  C   UNL     1     -21.137 -15.162  -6.474  1.00  0.00     0.136 A 
ATOM      8  C   UNL     1     -21.455 -15.250  -7.843  1.00  0.00     0.125 A 
ATOM      9  C   UNL     1     -20.802 -14.476  -8.809  1.00  0.00     0.078 A 
ATOM     10  C   UNL     1     -21.150 -14.607 -10.156  1.00  0.00     0.223 A 
ENDROOT
BRANCH   1  11
ATOM     11  C   UNL     1     -22.613 -15.691 -11.911  1.00  0.00     0.091 A 
ATOM     12  C   UNL     1     -22.354 -16.906 -12.562  1.00  0.00     0.068 A 
ATOM     13  C   UNL     1     -22.776 -17.113 -13.884  1.00  0.00     0.162 A 
ATOM     14  C   UNL     1     -23.334 -14.693 -12.589  1.00  0.00     0.068 A 
ATOM     15  C   UNL     1     -23.478 -16.102 -14.561  1.00  0.00     0.200 A 
ATOM     16  C   UNL     1     -23.761 -14.892 -13.907  1.00  0.00     0.162 A 
BRANCH  13  17
ATOM     17  O   UNL     1     -22.499 -18.321 -14.524  1.00  0.00    -0.504 OA
ATOM     18  H   UNL     1     -22.681 -19.213 -14.079  1.00  0.00     0.293 HD
ENDBRANCH  13  17
BRANCH  15  19
ATOM     19  O   UNL     1     -23.903 -16.291 -15.877  1.00  0.00    -0.502 OA
ATOM     20  H   UNL     1     -24.797 -15.948 -16.210  1.00  0.00     0.293 HD
ENDBRANCH  15  19
BRANCH  16  21
ATOM     21  O   UNL     1     -24.469 -13.875 -14.547  1.00  0.00    -0.504 OA
ATOM     22  H   UNL     1     -24.776 -13.955 -15.508  1.00  0.00     0.293 HD
ENDBRANCH  16  21
ENDBRANCH   1  11
BRANCH  10  23
ATOM     23  O   UNL     1     -20.468 -13.875 -11.128  1.00  0.00    -0.500 OA
ATOM     24  H   UNL     1     -20.900 -13.637 -12.013  1.00  0.00     0.294 HD
ENDBRANCH  10  23
BRANCH   5  25
ATOM     25  O   UNL     1     -23.475 -17.650  -5.047  1.00  0.00    -0.507 OA
ATOM     26  H   UNL     1     -23.489 -18.661  -5.125  1.00  0.00     0.293 HD
ENDBRANCH   5  25
BRANCH   7  27
ATOM     27  O   UNL     1     -20.151 -14.280  -6.032  1.00  0.00    -0.507 OA
ATOM     28  H   UNL     1     -19.210 -14.595  -5.827  1.00  0.00     0.293 HD
ENDBRANCH   7  27
TORSDOF 7
ENDMDL
MODEL 2
REMARK VINA RESULT:    -6.404      1.485      2.800
REMARK INTER + INTRA:          -8.210
REMARK INTER:                  -8.607
REMARK INTRA:                   0.396
REMARK UNBOUND:                -0.309
REMARK SMILES Oc1cc(O)c2cc(O)c(-c3cc(O)c(O)c(O)c3)[o+]c2c1
REMARK SMILES IDX 10 1 20 2 21 3 22 4 2 5 3 6 4 7 6 8 7 9 8 10 11 11 12 12
REMARK SMILES IDX 13 13 19 14 15 15 17 16 14 17 16 19 18 21 9 23 1 25 5 27
REMARK H PARENT 14 18 16 20 18 22 9 24 1 26 5 28
REMARK Flexibility Score: inf
ROOT
ATOM      1  C   UNL     1     -22.673 -16.069 -10.770  1.00  0.00     0.402 A 
ATOM      2  O   UNL     1     -21.989 -15.286  -9.938  1.00  0.00    -0.202 OA
ATOM      3  C   UNL     1     -21.997 -15.444  -8.618  1.00  0.00     0.368 A 
ATOM      4  C   UNL     1     -21.248 -14.580  -7.813  1.00  0.00     0.162 A 
ATOM      5  C   UNL     1     -21.244 -14.740  -6.421  1.00  0.00     0.128 A 
ATOM      6  C   UNL     1     -21.994 -15.765  -5.834  1.00  0.00     0.093 A 
ATOM      7  C   UNL     1     -22.753 -16.637  -6.629  1.00  0.00     0.136 A 
ATOM      8  C   UNL     1     -22.755 -16.478  -8.028  1.00  0.00     0.125 A 
ATOM      9  C   UNL     1     -23.498 -17.314  -8.869  1.00  0.00     0.078 A 
ATOM     10  C   UNL     1     -23.472 -17.109 -10.251  1.00  0.00     0.223 A 
ENDROOT
BRANCH   1  11
ATOM     11  C   UNL     1     -22.578 -15.800 -12.223  1.00  0.00     0.091 A 
ATOM     12  C   UNL     1     -23.540 -16.342 -13.089  1.00  0.00     0.068 A 
ATOM     13  C   UNL     1     -23.485 -16.086 -14.467  1.00  0.00     0.162 A 
ATOM     14  C   UNL     1     -21.577 -14.966 -12.749  1.00  0.00     0.068 A 
ATOM     15  C   UNL     1     -22.469 -15.268 -14.987  1.00  0.00     0.200 A 
ATOM     16  C   UNL     1     -21.516 -14.704 -14.122  1.00  0.00     0.162 A 
BRANCH  13  17
ATOM     17  O   UNL     1     -24.438 -16.643 -15.318  1.00  0.00    -0.504 OA
ATOM     18  H   UNL     1     -24.663 -16.223 -16.213  1.00  0.00     0.293 HD
ENDBRANCH  13  17
BRANCH  15  19
ATOM     19  O   UNL     1     -22.398 -15.005 -16.356  1.00  0.00    -0.502 OA
ATOM     20  H   UNL     1     -22.010 -14.143 -16.721  1.00  0.00     0.293 HD
ENDBRANCH  15  19
BRANCH  16  21
ATOM     21  O   UNL     1     -20.504 -13.875 -14.606  1.00  0.00    -0.504 OA
ATOM     22  H   UNL     1     -19.923 -13.319 -13.992  1.00  0.00     0.293 HD
ENDBRANCH  16  21
ENDBRANCH   1  11
BRANCH  10  23
ATOM     23  O   UNL     1     -24.249 -17.907 -11.091  1.00  0.00    -0.500 OA
ATOM     24  H   UNL     1     -23.881 -18.282 -11.957  1.00  0.00     0.294 HD
ENDBRANCH  10  23
BRANCH   5  25
ATOM     25  O   UNL     1     -20.500 -13.884  -5.611  1.00  0.00    -0.507 OA
ATOM     26  H   UNL     1     -20.138 -13.004  -5.963  1.00  0.00     0.293 HD
ENDBRANCH   5  25
BRANCH   7  27
ATOM     27  O   UNL     1     -23.497 -17.654  -6.031  1.00  0.00    -0.507 OA
ATOM     28  H   UNL     1     -24.463 -17.515  -5.758  1.00  0.00     0.293 HD
ENDBRANCH   7  27
TORSDOF 7
ENDMDL
MODEL 3
REMARK VINA RESULT:    -6.398      1.461      2.905
REMARK INTER + INTRA:          -8.203
REMARK INTER:                  -8.553
REMARK INTRA:                   0.350
REMARK UNBOUND:                -0.309
REMARK SMILES Oc1cc(O)c2cc(O)c(-c3cc(O)c(O)c(O)c3)[o+]c2c1
REMARK SMILES IDX 10 1 20 2 21 3 22 4 2 5 3 6 4 7 6 8 7 9 8 10 11 11 12 12
REMARK SMILES IDX 13 13 19 14 15 15 17 16 14 17 16 19 18 21 9 23 1 25 5 27
REMARK H PARENT 14 18 16 20 18 22 9 24 1 26 5 28
REMARK Flexibility Score: inf
ROOT
ATOM      1  C   UNL     1     -22.683 -16.069 -10.718  1.00  0.00     0.402 A 
ATOM      2  O   UNL     1     -21.963 -15.289  -9.913  1.00  0.00    -0.202 OA
ATOM      3  C   UNL     1     -21.932 -15.440  -8.592  1.00  0.00     0.368 A 
ATOM      4  C   UNL     1     -21.147 -14.581  -7.816  1.00  0.00     0.162 A 
ATOM      5  C   UNL     1     -21.102 -14.734  -6.424  1.00  0.00     0.128 A 
ATOM      6  C   UNL     1     -21.844 -15.747  -5.808  1.00  0.00     0.093 A 
ATOM      7  C   UNL     1     -22.637 -16.615  -6.574  1.00  0.00     0.136 A 
ATOM      8  C   UNL     1     -22.682 -16.463  -7.973  1.00  0.00     0.125 A 
ATOM      9  C   UNL     1     -23.461 -17.294  -8.786  1.00  0.00     0.078 A 
ATOM     10  C   UNL     1     -23.476 -17.097 -10.169  1.00  0.00     0.223 A 
ENDROOT
BRANCH   1  11
ATOM     11  C   UNL     1     -22.631 -15.808 -12.175  1.00  0.00     0.091 A 
ATOM     12  C   UNL     1     -21.606 -15.003 -12.695  1.00  0.00     0.068 A 
ATOM     13  C   UNL     1     -21.522 -14.756 -14.073  1.00  0.00     0.162 A 
ATOM     14  C   UNL     1     -23.553 -16.394 -13.058  1.00  0.00     0.068 A 
ATOM     15  C   UNL     1     -22.461 -15.330 -14.946  1.00  0.00     0.200 A 
ATOM     16  C   UNL     1     -23.475 -16.155 -14.434  1.00  0.00     0.162 A 
BRANCH  13  17
ATOM     17  O   UNL     1     -20.507 -13.941 -14.575  1.00  0.00    -0.504 OA
ATOM     18  H   UNL     1     -20.267 -13.059 -14.136  1.00  0.00     0.293 HD
ENDBRANCH  13  17
BRANCH  15  19
ATOM     19  O   UNL     1     -22.393 -15.092 -16.320  1.00  0.00    -0.502 OA
ATOM     20  H   UNL     1     -22.566 -15.820 -17.003  1.00  0.00     0.293 HD
ENDBRANCH  15  19
BRANCH  16  21
ATOM     21  O   UNL     1     -24.413 -16.752 -15.277  1.00  0.00    -0.504 OA
ATOM     22  H   UNL     1     -25.027 -17.492 -14.962  1.00  0.00     0.293 HD
ENDBRANCH  16  21
ENDBRANCH   1  11
BRANCH  10  23
ATOM     23  O   UNL     1     -24.288 -17.890 -10.980  1.00  0.00    -0.500 OA
ATOM     24  H   UNL     1     -24.688 -18.758 -10.644  1.00  0.00     0.294 HD
ENDBRANCH  10  23
BRANCH   5  25
ATOM     25  O   UNL     1     -20.323 -13.882  -5.643  1.00  0.00    -0.507 OA
ATOM     26  H   UNL     1     -20.650 -12.960  -5.377  1.00  0.00     0.293 HD
ENDBRANCH   5  25
BRANCH   7  27
ATOM     27  O   UNL     1     -23.373 -17.621  -5.948  1.00  0.00    -0.507 OA
ATOM     28  H   UNL     1     -24.093 -17.406  -5.266  1.00  0.00     0.293 HD
ENDBRANCH   7  27
TORSDOF 7
ENDMDL
MODEL 4
REMARK VINA RESULT:    -6.267      1.645      7.006
REMARK INTER + INTRA:          -8.042
REMARK INTER:                  -8.503
REMARK INTRA:                   0.461
REMARK UNBOUND:                -0.309
REMARK SMILES Oc1cc(O)c2cc(O)c(-c3cc(O)c(O)c(O)c3)[o+]c2c1
REMARK SMILES IDX 10 1 20 2 21 3 22 4 2 5 3 6 4 7 6 8 7 9 8 10 11 11 12 12
REMARK SMILES IDX 13 13 19 14 15 15 17 16 14 17 16 19 18 21 9 23 1 25 5 27
REMARK H PARENT 14 18 16 20 18 22 9 24 1 26 5 28
REMARK Flexibility Score: inf
ROOT
ATOM      1  C   UNL     1     -22.061 -15.274 -11.091  1.00  0.00     0.402 A 
ATOM      2  O   UNL     1     -23.107 -15.764 -11.755  1.00  0.00    -0.202 OA
ATOM      3  C   UNL     1     -23.297 -15.570 -13.056  1.00  0.00     0.368 A 
ATOM      4  C   UNL     1     -24.421 -16.122 -13.680  1.00  0.00     0.162 A 
ATOM      5  C   UNL     1     -24.630 -15.930 -15.052  1.00  0.00     0.128 A 
ATOM      6  C   UNL     1     -23.714 -15.181 -15.800  1.00  0.00     0.093 A 
ATOM      7  C   UNL     1     -22.584 -14.620 -15.187  1.00  0.00     0.136 A 
ATOM      8  C   UNL     1     -22.373 -14.815 -13.809  1.00  0.00     0.125 A 
ATOM      9  C   UNL     1     -21.268 -14.272 -13.143  1.00  0.00     0.078 A 
ATOM     10  C   UNL     1     -21.108 -14.489 -11.772  1.00  0.00     0.223 A 
ENDROOT
BRANCH   1  11
ATOM     11  C   UNL     1     -21.952 -15.564  -9.644  1.00  0.00     0.091 A 
ATOM     12  C   UNL     1     -20.859 -15.064  -8.920  1.00  0.00     0.068 A 
ATOM     13  C   UNL     1     -20.742 -15.307  -7.544  1.00  0.00     0.162 A 
ATOM     14  C   UNL     1     -22.949 -16.284  -8.964  1.00  0.00     0.068 A 
ATOM     15  C   UNL     1     -21.733 -16.045  -6.876  1.00  0.00     0.200 A 
ATOM     16  C   UNL     1     -22.841 -16.530  -7.591  1.00  0.00     0.162 A 
BRANCH  13  17
ATOM     17  O   UNL     1     -19.643 -14.816  -6.840  1.00  0.00    -0.504 OA
ATOM     18  H   UNL     1     -19.623 -13.870  -6.476  1.00  0.00     0.293 HD
ENDBRANCH  13  17
BRANCH  15  19
ATOM     19  O   UNL     1     -21.631 -16.299  -5.507  1.00  0.00    -0.502 OA
ATOM     20  H   UNL     1     -21.817 -17.213  -5.112  1.00  0.00     0.293 HD
ENDBRANCH  15  19
BRANCH  16  21
ATOM     21  O   UNL     1     -23.849 -17.253  -6.953  1.00  0.00    -0.504 OA
ATOM     22  H   UNL     1     -24.719 -16.824  -6.662  1.00  0.00     0.293 HD
ENDBRANCH  16  21
ENDBRANCH   1  11
BRANCH  10  23
ATOM     23  O   UNL     1     -20.035 -13.910 -11.093  1.00  0.00    -0.500 OA
ATOM     24  H   UNL     1     -19.869 -14.090 -10.110  1.00  0.00     0.294 HD
ENDBRANCH  10  23
BRANCH   5  25
ATOM     25  O   UNL     1     -25.747 -16.476 -15.682  1.00  0.00    -0.507 OA
ATOM     26  H   UNL     1     -26.067 -17.414 -15.471  1.00  0.00     0.293 HD
ENDBRANCH   5  25
BRANCH   7  27
ATOM     27  O   UNL     1     -21.679 -13.875 -15.943  1.00  0.00    -0.507 OA
ATOM     28  H   UNL     1     -21.974 -13.354 -16.762  1.00  0.00     0.293 HD
ENDBRANCH   7  27
TORSDOF 7
ENDMDL
MODEL 5
REMARK VINA RESULT:    -6.265      1.645      6.977
REMARK INTER + INTRA:          -8.039
REMARK INTER:                  -8.422
REMARK INTRA:                   0.384
REMARK UNBOUND:                -0.309
REMARK SMILES Oc1cc(O)c2cc(O)c(-c3cc(O)c(O)c(O)c3)[o+]c2c1
REMARK SMILES IDX 10 1 20 2 21 3 22 4 2 5 3 6 4 7 6 8 7 9 8 10 11 11 12 12
REMARK SMILES IDX 13 13 19 14 15 15 17 16 14 17 16 19 18 21 9 23 1 25 5 27
REMARK H PARENT 14 18 16 20 18 22 9 24 1 26 5 28
REMARK Flexibility Score: inf
ROOT
ATOM      1  C   UNL     1     -22.062 -15.205 -11.079  1.00  0.00     0.402 A 
ATOM      2  O   UNL     1     -23.111 -15.694 -11.738  1.00  0.00    -0.202 OA
ATOM      3  C   UNL     1     -23.291 -15.529 -13.044  1.00  0.00     0.368 A 
ATOM      4  C   UNL     1     -24.419 -16.078 -13.662  1.00  0.00     0.162 A 
ATOM      5  C   UNL     1     -24.618 -15.916 -15.039  1.00  0.00     0.128 A 
ATOM      6  C   UNL     1     -23.685 -15.201 -15.799  1.00  0.00     0.093 A 
ATOM      7  C   UNL     1     -22.549 -14.644 -15.193  1.00  0.00     0.136 A 
ATOM      8  C   UNL     1     -22.349 -14.808 -13.809  1.00  0.00     0.125 A 
ATOM      9  C   UNL     1     -21.240 -14.267 -13.150  1.00  0.00     0.078 A 
ATOM     10  C   UNL     1     -21.092 -14.453 -11.772  1.00  0.00     0.223 A 
ENDROOT
BRANCH   1  11
ATOM     11  C   UNL     1     -21.966 -15.461  -9.624  1.00  0.00     0.091 A 
ATOM     12  C   UNL     1     -22.957 -16.228  -8.992  1.00  0.00     0.068 A 
ATOM     13  C   UNL     1     -22.881 -16.503  -7.620  1.00  0.00     0.162 A 
ATOM     14  C   UNL     1     -20.875 -15.000  -8.868  1.00  0.00     0.068 A 
ATOM     15  C   UNL     1     -21.797 -16.020  -6.868  1.00  0.00     0.200 A 
ATOM     16  C   UNL     1     -20.790 -15.271  -7.499  1.00  0.00     0.162 A 
BRANCH  13  17
ATOM     17  O   UNL     1     -23.880 -17.254  -7.002  1.00  0.00    -0.504 OA
ATOM     18  H   UNL     1     -24.346 -16.931  -6.161  1.00  0.00     0.293 HD
ENDBRANCH  13  17
BRANCH  15  19
ATOM     19  O   UNL     1     -21.706 -16.282  -5.500  1.00  0.00    -0.502 OA
ATOM     20  H   UNL     1     -21.515 -15.554  -4.822  1.00  0.00     0.293 HD
ENDBRANCH  15  19
BRANCH  16  21
ATOM     21  O   UNL     1     -19.693 -14.791  -6.783  1.00  0.00    -0.504 OA
ATOM     22  H   UNL     1     -19.409 -15.194  -5.899  1.00  0.00     0.293 HD
ENDBRANCH  16  21
ENDBRANCH   1  11
BRANCH  10  23
ATOM     23  O   UNL     1     -20.014 -13.875 -11.101  1.00  0.00    -0.500 OA
ATOM     24  H   UNL     1     -19.229 -14.429 -10.779  1.00  0.00     0.294 HD
ENDBRANCH  10  23
BRANCH   5  25
ATOM     25  O   UNL     1     -25.739 -16.459 -15.663  1.00  0.00    -0.507 OA
ATOM     26  H   UNL     1     -26.450 -16.954 -15.136  1.00  0.00     0.293 HD
ENDBRANCH   5  25
BRANCH   7  27
ATOM     27  O   UNL     1     -21.628 -13.933 -15.961  1.00  0.00    -0.507 OA
ATOM     28  H   UNL     1     -20.642 -14.170 -15.964  1.00  0.00     0.293 HD
ENDBRANCH   7  27
TORSDOF 7
ENDMDL
MODEL 6
REMARK VINA RESULT:    -5.277      1.553      7.411
REMARK INTER + INTRA:          -6.821
REMARK INTER:                  -7.031
REMARK INTRA:                   0.211
REMARK UNBOUND:                -0.309
REMARK SMILES Oc1cc(O)c2cc(O)c(-c3cc(O)c(O)c(O)c3)[o+]c2c1
REMARK SMILES IDX 10 1 20 2 21 3 22 4 2 5 3 6 4 7 6 8 7 9 8 10 11 11 12 12
REMARK SMILES IDX 13 13 19 14 15 15 17 16 14 17 16 19 18 21 9 23 1 25 5 27
REMARK H PARENT 14 18 16 20 18 22 9 24 1 26 5 28
REMARK Flexibility Score: inf
ROOT
ATOM      1  C   UNL     1     -22.965 -16.590 -10.417  1.00  0.00     0.402 A 
ATOM      2  O   UNL     1     -22.563 -15.717 -11.339  1.00  0.00    -0.202 OA
ATOM      3  C   UNL     1     -22.969 -15.755 -12.604  1.00  0.00     0.368 A 
ATOM      4  C   UNL     1     -22.502 -14.798 -13.510  1.00  0.00     0.162 A 
ATOM      5  C   UNL     1     -22.927 -14.825 -14.845  1.00  0.00     0.128 A 
ATOM      6  C   UNL     1     -23.819 -15.814 -15.274  1.00  0.00     0.093 A 
ATOM      7  C   UNL     1     -24.294 -16.782 -14.376  1.00  0.00     0.136 A 
ATOM      8  C   UNL     1     -23.869 -16.754 -13.034  1.00  0.00     0.125 A 
ATOM      9  C   UNL     1     -24.304 -17.698 -12.098  1.00  0.00     0.078 A 
ATOM     10  C   UNL     1     -23.846 -17.630 -10.779  1.00  0.00     0.223 A 
ENDROOT
BRANCH   1  11
ATOM     11  C   UNL     1     -22.450 -16.440  -9.037  1.00  0.00     0.091 A 
ATOM     12  C   UNL     1     -21.247 -15.750  -8.822  1.00  0.00     0.068 A 
ATOM     13  C   UNL     1     -20.747 -15.575  -7.524  1.00  0.00     0.162 A 
ATOM     14  C   UNL     1     -23.167 -16.924  -7.930  1.00  0.00     0.068 A 
ATOM     15  C   UNL     1     -21.460 -16.081  -6.424  1.00  0.00     0.200 A 
ATOM     16  C   UNL     1     -22.677 -16.753  -6.632  1.00  0.00     0.162 A 
BRANCH  13  17
ATOM     17  O   UNL     1     -19.543 -14.901  -7.325  1.00  0.00    -0.504 OA
ATOM     18  H   UNL     1     -19.513 -13.899  -7.175  1.00  0.00     0.293 HD
ENDBRANCH  13  17
BRANCH  15  19
ATOM     19  O   UNL     1     -20.975 -15.919  -5.125  1.00  0.00    -0.502 OA
ATOM     20  H   UNL     1     -21.482 -16.252  -4.314  1.00  0.00     0.293 HD
ENDBRANCH  15  19
BRANCH  16  21
ATOM     21  O   UNL     1     -23.416 -17.252  -5.560  1.00  0.00    -0.504 OA
ATOM     22  H   UNL     1     -23.154 -18.101  -5.073  1.00  0.00     0.293 HD
ENDBRANCH  16  21
ENDBRANCH   1  11
BRANCH  10  23
ATOM     23  O   UNL     1     -24.236 -18.597  -9.852  1.00  0.00    -0.500 OA
ATOM     24  H   UNL     1     -24.279 -18.396  -8.861  1.00  0.00     0.294 HD
ENDBRANCH  10  23
BRANCH   5  25
ATOM     25  O   UNL     1     -22.467 -13.875 -15.755  1.00  0.00    -0.507 OA
ATOM     26  H   UNL     1     -21.836 -14.126 -16.508  1.00  0.00     0.293 HD
ENDBRANCH   5  25
BRANCH   7  27
ATOM     27  O   UNL     1     -25.183 -17.763 -14.816  1.00  0.00    -0.507 OA
ATOM     28  H   UNL     1     -25.418 -18.564 -14.241  1.00  0.00     0.293 HD
ENDBRANCH   7  27
TORSDOF 7
ENDMDL
