MODEL 1
REMARK VINA RESULT:    -2.890      0.000      0.000
REMARK INTER + INTRA:          -2.975
REMARK INTER:                  -2.975
REMARK INTRA:                   0.000
REMARK UNBOUND:                 0.000
REMARK SMILES CC1(C)[C@H]2CC[C@](C)(C2)[C@H]1O
REMARK SMILES IDX 1 1 2 2 4 3 5 4 6 5 7 6 9 7 10 8 8 9 3 10 11 11
REMARK H PARENT 11 12
REMARK Flexibility Score: inf
ROOT
ATOM      1  C   UNL     1     143.133 144.486 139.070  1.00  0.00     0.014 C 
ATOM      2  C   UNL     1     143.772 145.892 139.203  1.00  0.00    -0.006 C 
ATOM      3  C   UNL     1     143.104 146.787 140.306  1.00  0.00    -0.002 C 
ATOM      4  C   UNL     1     142.960 146.028 141.641  1.00  0.00     0.005 C 
ATOM      5  C   UNL     1     144.415 145.897 142.119  1.00  0.00     0.010 C 
ATOM      6  C   UNL     1     145.209 146.660 141.029  1.00  0.00    -0.006 C 
ATOM      7  C   UNL     1     144.221 147.754 140.677  1.00  0.00     0.013 C 
ATOM      8  C   UNL     1     145.264 145.883 139.679  1.00  0.00     0.126 C 
ATOM      9  C   UNL     1     146.570 147.178 141.503  1.00  0.00     0.014 C 
ATOM     10  C   UNL     1     143.642 146.578 137.820  1.00  0.00     0.014 C 
ENDROOT
BRANCH   8  11
ATOM     11  O   UNL     1     145.878 144.616 139.747  1.00  0.00    -0.392 OA
ATOM     12  H   UNL     1     145.221 143.912 139.534  1.00  0.00     0.211 HD
ENDBRANCH   8  11
TORSDOF 1
ENDMDL
MODEL 2
REMARK VINA RESULT:    -2.742     12.604     13.817
REMARK INTER + INTRA:          -2.822
REMARK INTER:                  -2.822
REMARK INTRA:                   0.000
REMARK UNBOUND:                 0.000
REMARK SMILES CC1(C)[C@H]2CC[C@](C)(C2)[C@H]1O
REMARK SMILES IDX 1 1 2 2 4 3 5 4 6 5 7 6 9 7 10 8 8 9 3 10 11 11
REMARK H PARENT 11 12
REMARK Flexibility Score: inf
ROOT
ATOM      1  C   UNL     1     129.635 145.961 140.754  1.00  0.00     0.014 C 
ATOM      2  C   UNL     1     129.834 145.690 139.240  1.00  0.00    -0.006 C 
ATOM      3  C   UNL     1     130.913 146.614 138.571  1.00  0.00    -0.002 C 
ATOM      4  C   UNL     1     132.222 146.639 139.387  1.00  0.00     0.005 C 
ATOM      5  C   UNL     1     132.783 145.224 139.179  1.00  0.00     0.010 C 
ATOM      6  C   UNL     1     131.758 144.582 138.211  1.00  0.00    -0.006 C 
ATOM      7  C   UNL     1     131.370 145.787 137.376  1.00  0.00     0.013 C 
ATOM      8  C   UNL     1     130.399 144.269 138.906  1.00  0.00     0.126 C 
ATOM      9  C   UNL     1     132.322 143.415 137.395  1.00  0.00     0.014 C 
ATOM     10  C   UNL     1     128.460 145.910 138.560  1.00  0.00     0.014 C 
ENDROOT
BRANCH   8  11
ATOM     11  O   UNL     1     130.478 143.370 139.988  1.00  0.00    -0.392 OA
ATOM     12  H   UNL     1     129.981 142.544 139.777  1.00  0.00     0.211 HD
ENDBRANCH   8  11
TORSDOF 1
ENDMDL
MODEL 3
REMARK VINA RESULT:    -2.739     17.716     18.735
REMARK INTER + INTRA:          -2.819
REMARK INTER:                  -2.819
REMARK INTRA:                   0.000
REMARK UNBOUND:                 0.000
REMARK SMILES CC1(C)[C@H]2CC[C@](C)(C2)[C@H]1O
REMARK SMILES IDX 1 1 2 2 4 3 5 4 6 5 7 6 9 7 10 8 8 9 3 10 11 11
REMARK H PARENT 11 12
REMARK Flexibility Score: inf
ROOT
ATOM      1  C   UNL     1     128.555 134.101 138.058  1.00  0.00     0.014 C 
ATOM      2  C   UNL     1     130.027 134.402 138.444  1.00  0.00    -0.006 C 
ATOM      3  C   UNL     1     130.604 133.431 139.534  1.00  0.00    -0.002 C 
ATOM      4  C   UNL     1     130.331 131.954 139.179  1.00  0.00     0.005 C 
ATOM      5  C   UNL     1     131.247 131.718 137.969  1.00  0.00     0.010 C 
ATOM      6  C   UNL     1     131.985 133.073 137.821  1.00  0.00    -0.006 C 
ATOM      7  C   UNL     1     132.104 133.486 139.275  1.00  0.00     0.013 C 
ATOM      8  C   UNL     1     131.055 134.200 137.280  1.00  0.00     0.126 C 
ATOM      9  C   UNL     1     133.327 132.971 137.090  1.00  0.00     0.014 C 
ATOM     10  C   UNL     1     130.066 135.860 138.966  1.00  0.00     0.014 C 
ENDROOT
BRANCH   8  11
ATOM     11  O   UNL     1     130.501 133.956 136.008  1.00  0.00    -0.392 OA
ATOM     12  H   UNL     1     131.057 133.304 135.518  1.00  0.00     0.211 HD
ENDBRANCH   8  11
TORSDOF 1
ENDMDL
MODEL 4
REMARK VINA RESULT:    -2.716      8.039      9.633
REMARK INTER + INTRA:          -2.795
REMARK INTER:                  -2.795
REMARK INTRA:                   0.000
REMARK UNBOUND:                 0.000
REMARK SMILES CC1(C)[C@H]2CC[C@](C)(C2)[C@H]1O
REMARK SMILES IDX 1 1 2 2 4 3 5 4 6 5 7 6 9 7 10 8 8 9 3 10 11 11
REMARK H PARENT 11 12
REMARK Flexibility Score: inf
ROOT
ATOM      1  C   UNL     1     147.118 135.471 138.002  1.00  0.00     0.014 C 
ATOM      2  C   UNL     1     145.753 136.093 138.396  1.00  0.00    -0.006 C 
ATOM      3  C   UNL     1     145.865 137.223 139.480  1.00  0.00    -0.002 C 
ATOM      4  C   UNL     1     146.950 138.256 139.112  1.00  0.00     0.005 C 
ATOM      5  C   UNL     1     146.338 138.980 137.903  1.00  0.00     0.010 C 
ATOM      6  C   UNL     1     144.944 138.316 137.769  1.00  0.00    -0.006 C 
ATOM      7  C   UNL     1     144.616 138.058 139.227  1.00  0.00     0.013 C 
ATOM      8  C   UNL     1     145.030 136.855 137.235  1.00  0.00     0.126 C 
ATOM      9  C   UNL     1     143.912 139.184 137.042  1.00  0.00     0.014 C 
ATOM     10  C   UNL     1     144.870 134.939 138.930  1.00  0.00     0.014 C 
ENDROOT
BRANCH   8  11
ATOM     11  O   UNL     1     145.612 136.722 135.958  1.00  0.00    -0.392 OA
ATOM     12  H   UNL     1     144.908 136.703 135.267  1.00  0.00     0.211 HD
ENDBRANCH   8  11
TORSDOF 1
ENDMDL
MODEL 5
REMARK VINA RESULT:    -2.709     12.041     13.638
REMARK INTER + INTRA:          -2.788
REMARK INTER:                  -2.788
REMARK INTRA:                   0.000
REMARK UNBOUND:                 0.000
REMARK SMILES CC1(C)[C@H]2CC[C@](C)(C2)[C@H]1O
REMARK SMILES IDX 1 1 2 2 4 3 5 4 6 5 7 6 9 7 10 8 8 9 3 10 11 11
REMARK H PARENT 11 12
REMARK Flexibility Score: inf
ROOT
ATOM      1  C   UNL     1     131.524 145.066 137.926  1.00  0.00     0.014 C 
ATOM      2  C   UNL     1     132.264 143.761 138.317  1.00  0.00    -0.006 C 
ATOM      3  C   UNL     1     131.528 142.925 139.423  1.00  0.00    -0.002 C 
ATOM      4  C   UNL     1     130.035 142.730 139.086  1.00  0.00     0.005 C 
ATOM      5  C   UNL     1     130.077 141.774 137.884  1.00  0.00     0.010 C 
ATOM      6  C   UNL     1     131.592 141.484 137.723  1.00  0.00    -0.006 C 
ATOM      7  C   UNL     1     132.037 141.511 139.173  1.00  0.00     0.013 C 
ATOM      8  C   UNL     1     132.375 142.709 137.163  1.00  0.00     0.126 C 
ATOM      9  C   UNL     1     131.897 140.168 137.002  1.00  0.00     0.014 C 
ATOM     10  C   UNL     1     133.669 144.175 138.820  1.00  0.00     0.014 C 
ENDROOT
BRANCH   8  11
ATOM     11  O   UNL     1     131.959 143.149 135.890  1.00  0.00    -0.392 OA
ATOM     12  H   UNL     1     132.727 143.158 135.270  1.00  0.00     0.211 HD
ENDBRANCH   8  11
TORSDOF 1
ENDMDL
MODEL 6
REMARK VINA RESULT:    -2.706      3.756      5.693
REMARK INTER + INTRA:          -2.785
REMARK INTER:                  -2.785
REMARK INTRA:                   0.000
REMARK UNBOUND:                 0.000
REMARK SMILES CC1(C)[C@H]2CC[C@](C)(C2)[C@H]1O
REMARK SMILES IDX 1 1 2 2 4 3 5 4 6 5 7 6 9 7 10 8 8 9 3 10 11 11
REMARK H PARENT 11 12
REMARK Flexibility Score: inf
ROOT
ATOM      1  C   UNL     1     142.709 145.728 137.910  1.00  0.00     0.014 C 
ATOM      2  C   UNL     1     141.672 144.619 138.224  1.00  0.00    -0.006 C 
ATOM      3  C   UNL     1     140.633 145.020 139.330  1.00  0.00    -0.002 C 
ATOM      4  C   UNL     1     140.014 146.405 139.049  1.00  0.00     0.005 C 
ATOM      5  C   UNL     1     139.138 146.145 137.814  1.00  0.00     0.010 C 
ATOM      6  C   UNL     1     139.311 144.623 137.580  1.00  0.00    -0.006 C 
ATOM      7  C   UNL     1     139.438 144.132 139.009  1.00  0.00     0.013 C 
ATOM      8  C   UNL     1     140.724 144.263 137.030  1.00  0.00     0.126 C 
ATOM      9  C   UNL     1     138.159 143.981 136.800  1.00  0.00     0.014 C 
ATOM     10  C   UNL     1     142.471 143.373 138.681  1.00  0.00     0.014 C 
ENDROOT
BRANCH   8  11
ATOM     11  O   UNL     1     141.048 144.853 135.792  1.00  0.00    -0.392 OA
ATOM     12  H   UNL     1     142.017 145.034 135.749  1.00  0.00     0.211 HD
ENDBRANCH   8  11
TORSDOF 1
ENDMDL
MODEL 7
REMARK VINA RESULT:    -2.701     12.739     14.041
REMARK INTER + INTRA:          -2.780
REMARK INTER:                  -2.780
REMARK INTRA:                   0.000
REMARK UNBOUND:                 0.000
REMARK SMILES CC1(C)[C@H]2CC[C@](C)(C2)[C@H]1O
REMARK SMILES IDX 1 1 2 2 4 3 5 4 6 5 7 6 9 7 10 8 8 9 3 10 11 11
REMARK H PARENT 11 12
REMARK Flexibility Score: inf
ROOT
ATOM      1  C   UNL     1     132.280 145.644 141.218  1.00  0.00     0.014 C 
ATOM      2  C   UNL     1     131.746 146.389 139.967  1.00  0.00    -0.006 C 
ATOM      3  C   UNL     1     131.991 145.618 138.621  1.00  0.00    -0.002 C 
ATOM      4  C   UNL     1     131.542 144.146 138.722  1.00  0.00     0.005 C 
ATOM      5  C   UNL     1     130.012 144.258 138.796  1.00  0.00     0.010 C 
ATOM      6  C   UNL     1     129.768 145.782 138.659  1.00  0.00    -0.006 C 
ATOM      7  C   UNL     1     130.893 146.162 137.716  1.00  0.00     0.013 C 
ATOM      8  C   UNL     1     130.190 146.569 139.936  1.00  0.00     0.126 C 
ATOM      9  C   UNL     1     128.372 146.142 138.141  1.00  0.00     0.014 C 
ATOM     10  C   UNL     1     132.459 147.763 139.923  1.00  0.00     0.014 C 
ENDROOT
BRANCH   8  11
ATOM     11  O   UNL     1     129.508 146.203 141.113  1.00  0.00    -0.392 OA
ATOM     12  H   UNL     1     128.536 146.175 140.944  1.00  0.00     0.211 HD
ENDBRANCH   8  11
TORSDOF 1
ENDMDL
MODEL 8
REMARK VINA RESULT:    -2.696     12.827     14.102
REMARK INTER + INTRA:          -2.775
REMARK INTER:                  -2.775
REMARK INTRA:                   0.000
REMARK UNBOUND:                 0.000
REMARK SMILES CC1(C)[C@H]2CC[C@](C)(C2)[C@H]1O
REMARK SMILES IDX 1 1 2 2 4 3 5 4 6 5 7 6 9 7 10 8 8 9 3 10 11 11
REMARK H PARENT 11 12
REMARK Flexibility Score: inf
ROOT
ATOM      1  C   UNL     1     133.054 145.162 139.346  1.00  0.00     0.014 C 
ATOM      2  C   UNL     1     131.794 144.599 138.639  1.00  0.00    -0.006 C 
ATOM      3  C   UNL     1     130.806 143.857 139.608  1.00  0.00    -0.002 C 
ATOM      4  C   UNL     1     130.506 144.699 140.865  1.00  0.00     0.005 C 
ATOM      5  C   UNL     1     129.659 145.855 140.309  1.00  0.00     0.010 C 
ATOM      6  C   UNL     1     129.523 145.494 138.808  1.00  0.00    -0.006 C 
ATOM      7  C   UNL     1     129.470 143.981 138.887  1.00  0.00     0.013 C 
ATOM      8  C   UNL     1     130.855 145.691 138.024  1.00  0.00     0.126 C 
ATOM      9  C   UNL     1     128.303 146.125 138.128  1.00  0.00     0.014 C 
ATOM     10  C   UNL     1     132.290 143.622 137.545  1.00  0.00     0.014 C 
ENDROOT
BRANCH   8  11
ATOM     11  O   UNL     1     131.359 147.007 138.030  1.00  0.00    -0.392 OA
ATOM     12  H   UNL     1     131.548 147.291 138.955  1.00  0.00     0.211 HD
ENDBRANCH   8  11
TORSDOF 1
ENDMDL
MODEL 9
REMARK VINA RESULT:    -2.694     13.319     14.518
REMARK INTER + INTRA:          -2.773
REMARK INTER:                  -2.773
REMARK INTRA:                   0.000
REMARK UNBOUND:                 0.000
REMARK SMILES CC1(C)[C@H]2CC[C@](C)(C2)[C@H]1O
REMARK SMILES IDX 1 1 2 2 4 3 5 4 6 5 7 6 9 7 10 8 8 9 3 10 11 11
REMARK H PARENT 11 12
REMARK Flexibility Score: inf
ROOT
ATOM      1  C   UNL     1     130.829 146.385 137.111  1.00  0.00     0.014 C 
ATOM      2  C   UNL     1     130.942 145.936 138.591  1.00  0.00    -0.006 C 
ATOM      3  C   UNL     1     129.672 146.272 139.450  1.00  0.00    -0.002 C 
ATOM      4  C   UNL     1     128.376 145.818 138.747  1.00  0.00     0.005 C 
ATOM      5  C   UNL     1     128.463 144.286 138.823  1.00  0.00     0.010 C 
ATOM      6  C   UNL     1     129.770 144.052 139.623  1.00  0.00    -0.006 C 
ATOM      7  C   UNL     1     129.737 145.238 140.567  1.00  0.00     0.013 C 
ATOM      8  C   UNL     1     131.044 144.386 138.791  1.00  0.00     0.126 C 
ATOM      9  C   UNL     1     129.828 142.694 140.330  1.00  0.00     0.014 C 
ATOM     10  C   UNL     1     132.182 146.650 139.184  1.00  0.00     0.014 C 
ENDROOT
BRANCH   8  11
ATOM     11  O   UNL     1     131.205 143.625 137.616  1.00  0.00    -0.392 OA
ATOM     12  H   UNL     1     131.272 142.668 137.842  1.00  0.00     0.211 HD
ENDBRANCH   8  11
TORSDOF 1
ENDMDL
