MODEL 1
REMARK VINA RESULT:    -5.615      0.000      0.000
REMARK INTER + INTRA:          -6.884
REMARK INTER:                  -6.599
REMARK INTRA:                  -0.285
REMARK UNBOUND:                -0.285
REMARK SMILES O=c1c(O)c(-c2ccc(O)cc2)oc2cc(O)cc(O)c12
REMARK SMILES IDX 5 1 3 2 2 3 1 4 21 5 19 6 18 7 16 8 15 9 14 10 13 11 6 12
REMARK SMILES IDX 7 13 8 14 9 15 12 16 11 17 10 18 4 20 20 22 17 24
REMARK H PARENT 10 19 4 21 20 23 17 25
REMARK Flexibility Score: inf
ROOT
ATOM      1  C   UNL     1    -105.925  44.454  54.081  1.00  0.00     0.180 A 
ATOM      2  C   UNL     1    -106.900  43.453  54.241  1.00  0.00     0.208 A 
ATOM      3  C   UNL     1    -106.708  42.466  55.220  1.00  0.00     0.238 A 
ATOM      4  O   UNL     1    -107.558  41.542  55.322  1.00  0.00    -0.285 OA
ATOM      5  C   UNL     1    -105.554  42.500  56.038  1.00  0.00     0.111 A 
ATOM      6  C   UNL     1    -105.278  41.574  57.089  1.00  0.00     0.134 A 
ATOM      7  C   UNL     1    -104.042  41.624  57.747  1.00  0.00     0.093 A 
ATOM      8  C   UNL     1    -103.102  42.605  57.439  1.00  0.00     0.123 A 
ATOM      9  C   UNL     1    -103.386  43.553  56.454  1.00  0.00     0.094 A 
ATOM     10  C   UNL     1    -104.595  43.506  55.755  1.00  0.00     0.146 A 
ATOM     11  O   UNL     1    -104.821  44.420  54.819  1.00  0.00    -0.452 OA
ENDROOT
BRANCH   1  12
ATOM     12  C   UNL     1    -106.068  45.542  53.088  1.00  0.00     0.021 A 
ATOM     13  C   UNL     1    -105.615  45.343  51.773  1.00  0.00     0.016 A 
ATOM     14  C   UNL     1    -105.720  46.365  50.825  1.00  0.00     0.047 A 
ATOM     15  C   UNL     1    -106.264  47.602  51.181  1.00  0.00     0.115 A 
ATOM     16  C   UNL     1    -106.596  46.796  53.445  1.00  0.00     0.016 A 
ATOM     17  C   UNL     1    -106.699  47.817  52.495  1.00  0.00     0.047 A 
BRANCH  15  18
ATOM     18  O   UNL     1    -106.363  48.612  50.226  1.00  0.00    -0.508 OA
ATOM     19  H   UNL     1    -105.626  49.296  50.100  1.00  0.00     0.293 HD
ENDBRANCH  15  18
ENDBRANCH   1  12
BRANCH   2  20
ATOM     20  O   UNL     1    -108.021  43.426  53.407  1.00  0.00    -0.502 OA
ATOM     21  H   UNL     1    -108.209  44.151  52.724  1.00  0.00     0.293 HD
ENDBRANCH   2  20
BRANCH   6  22
ATOM     22  O   UNL     1    -106.185  40.610  57.539  1.00  0.00    -0.507 OA
ATOM     23  H   UNL     1    -105.989  39.624  57.606  1.00  0.00     0.293 HD
ENDBRANCH   6  22
BRANCH   8  24
ATOM     24  O   UNL     1    -101.889  42.636  58.125  1.00  0.00    -0.508 OA
ATOM     25  H   UNL     1    -101.716  43.305  58.865  1.00  0.00     0.293 HD
ENDBRANCH   8  24
TORSDOF 5
ENDMDL
MODEL 2
REMARK VINA RESULT:    -5.600      0.226      1.074
REMARK INTER + INTRA:          -6.866
REMARK INTER:                  -6.581
REMARK INTRA:                  -0.285
REMARK UNBOUND:                -0.285
REMARK SMILES O=c1c(O)c(-c2ccc(O)cc2)oc2cc(O)cc(O)c12
REMARK SMILES IDX 5 1 3 2 2 3 1 4 21 5 19 6 18 7 16 8 15 9 14 10 13 11 6 12
REMARK SMILES IDX 7 13 8 14 9 15 12 16 11 17 10 18 4 20 20 22 17 24
REMARK H PARENT 10 19 4 21 20 23 17 25
REMARK Flexibility Score: inf
ROOT
ATOM      1  C   UNL     1    -105.852  44.533  53.943  1.00  0.00     0.180 A 
ATOM      2  C   UNL     1    -106.804  43.511  54.107  1.00  0.00     0.208 A 
ATOM      3  C   UNL     1    -106.609  42.555  55.117  1.00  0.00     0.238 A 
ATOM      4  O   UNL     1    -107.436  41.611  55.225  1.00  0.00    -0.285 OA
ATOM      5  C   UNL     1    -105.475  42.642  55.959  1.00  0.00     0.111 A 
ATOM      6  C   UNL     1    -105.199  41.752  57.041  1.00  0.00     0.134 A 
ATOM      7  C   UNL     1    -103.981  41.853  57.726  1.00  0.00     0.093 A 
ATOM      8  C   UNL     1    -103.060  42.852  57.412  1.00  0.00     0.123 A 
ATOM      9  C   UNL     1    -103.347  43.765  56.396  1.00  0.00     0.094 A 
ATOM     10  C   UNL     1    -104.537  43.666  55.672  1.00  0.00     0.146 A 
ATOM     11  O   UNL     1    -104.766  44.549  54.707  1.00  0.00    -0.452 OA
ENDROOT
BRANCH   1  12
ATOM     12  C   UNL     1    -106.001  45.590  52.918  1.00  0.00     0.021 A 
ATOM     13  C   UNL     1    -106.769  46.731  53.206  1.00  0.00     0.016 A 
ATOM     14  C   UNL     1    -106.941  47.732  52.245  1.00  0.00     0.047 A 
ATOM     15  C   UNL     1    -106.361  47.599  50.980  1.00  0.00     0.115 A 
ATOM     16  C   UNL     1    -105.436  45.454  51.636  1.00  0.00     0.016 A 
ATOM     17  C   UNL     1    -105.611  46.456  50.676  1.00  0.00     0.047 A 
BRANCH  15  18
ATOM     18  O   UNL     1    -106.540  48.604  50.032  1.00  0.00    -0.508 OA
ATOM     19  H   UNL     1    -106.556  49.583  50.294  1.00  0.00     0.293 HD
ENDBRANCH  15  18
ENDBRANCH   1  12
BRANCH   2  20
ATOM     20  O   UNL     1    -107.904  43.431  53.249  1.00  0.00    -0.502 OA
ATOM     21  H   UNL     1    -108.325  42.548  52.987  1.00  0.00     0.293 HD
ENDBRANCH   2  20
BRANCH   6  22
ATOM     22  O   UNL     1    -106.090  40.776  57.496  1.00  0.00    -0.507 OA
ATOM     23  H   UNL     1    -106.332  40.626  58.464  1.00  0.00     0.293 HD
ENDBRANCH   6  22
BRANCH   8  24
ATOM     24  O   UNL     1    -101.865  42.934  58.125  1.00  0.00    -0.508 OA
ATOM     25  H   UNL     1    -101.515  43.818  58.473  1.00  0.00     0.293 HD
ENDBRANCH   8  24
TORSDOF 5
ENDMDL
MODEL 3
REMARK VINA RESULT:    -4.958      1.770      6.826
REMARK INTER + INTRA:          -6.112
REMARK INTER:                  -5.868
REMARK INTRA:                  -0.245
REMARK UNBOUND:                -0.285
REMARK SMILES O=c1c(O)c(-c2ccc(O)cc2)oc2cc(O)cc(O)c12
REMARK SMILES IDX 5 1 3 2 2 3 1 4 21 5 19 6 18 7 16 8 15 9 14 10 13 11 6 12
REMARK SMILES IDX 7 13 8 14 9 15 12 16 11 17 10 18 4 20 20 22 17 24
REMARK H PARENT 10 19 4 21 20 23 17 25
REMARK Flexibility Score: inf
ROOT
ATOM      1  C   UNL     1    -105.606  44.688  54.475  1.00  0.00     0.180 A 
ATOM      2  C   UNL     1    -105.352  44.582  53.096  1.00  0.00     0.208 A 
ATOM      3  C   UNL     1    -105.631  45.680  52.267  1.00  0.00     0.238 A 
ATOM      4  O   UNL     1    -105.452  45.561  51.026  1.00  0.00    -0.285 OA
ATOM      5  C   UNL     1    -106.143  46.875  52.827  1.00  0.00     0.111 A 
ATOM      6  C   UNL     1    -106.422  48.062  52.087  1.00  0.00     0.134 A 
ATOM      7  C   UNL     1    -107.050  49.142  52.723  1.00  0.00     0.093 A 
ATOM      8  C   UNL     1    -107.347  49.101  54.084  1.00  0.00     0.123 A 
ATOM      9  C   UNL     1    -107.024  47.967  54.831  1.00  0.00     0.094 A 
ATOM     10  C   UNL     1    -106.431  46.861  54.217  1.00  0.00     0.146 A 
ATOM     11  O   UNL     1    -106.148  45.799  54.961  1.00  0.00    -0.452 OA
ENDROOT
BRANCH   1  12
ATOM     12  C   UNL     1    -105.315  43.583  55.416  1.00  0.00     0.021 A 
ATOM     13  C   UNL     1    -106.208  42.502  55.512  1.00  0.00     0.016 A 
ATOM     14  C   UNL     1    -105.964  41.459  56.410  1.00  0.00     0.047 A 
ATOM     15  C   UNL     1    -104.836  41.490  57.234  1.00  0.00     0.115 A 
ATOM     16  C   UNL     1    -104.192  43.617  56.263  1.00  0.00     0.016 A 
ATOM     17  C   UNL     1    -103.951  42.573  57.161  1.00  0.00     0.047 A 
BRANCH  15  18
ATOM     18  O   UNL     1    -104.605  40.443  58.125  1.00  0.00    -0.508 OA
ATOM     19  H   UNL     1    -103.672  40.223  58.453  1.00  0.00     0.293 HD
ENDBRANCH  15  18
ENDBRANCH   1  12
BRANCH   2  20
ATOM     20  O   UNL     1    -104.868  43.386  52.561  1.00  0.00    -0.502 OA
ATOM     21  H   UNL     1    -104.946  42.501  53.048  1.00  0.00     0.293 HD
ENDBRANCH   2  20
BRANCH   6  22
ATOM     22  O   UNL     1    -106.083  48.243  50.743  1.00  0.00    -0.507 OA
ATOM     23  H   UNL     1    -106.285  47.585  50.006  1.00  0.00     0.293 HD
ENDBRANCH   6  22
BRANCH   8  24
ATOM     24  O   UNL     1    -107.957  50.199  54.688  1.00  0.00    -0.508 OA
ATOM     25  H   UNL     1    -108.431  50.117  55.579  1.00  0.00     0.293 HD
ENDBRANCH   8  24
TORSDOF 5
ENDMDL
MODEL 4
REMARK VINA RESULT:    -4.904      2.899      4.719
REMARK INTER + INTRA:          -6.049
REMARK INTER:                  -5.752
REMARK INTRA:                  -0.296
REMARK UNBOUND:                -0.285
REMARK SMILES O=c1c(O)c(-c2ccc(O)cc2)oc2cc(O)cc(O)c12
REMARK SMILES IDX 5 1 3 2 2 3 1 4 21 5 19 6 18 7 16 8 15 9 14 10 13 11 6 12
REMARK SMILES IDX 7 13 8 14 9 15 12 16 11 17 10 18 4 20 20 22 17 24
REMARK H PARENT 10 19 4 21 20 23 17 25
REMARK Flexibility Score: inf
ROOT
ATOM      1  C   UNL     1    -106.855  48.008  53.634  1.00  0.00     0.180 A 
ATOM      2  C   UNL     1    -106.350  47.527  52.413  1.00  0.00     0.208 A 
ATOM      3  C   UNL     1    -105.788  46.242  52.368  1.00  0.00     0.238 A 
ATOM      4  O   UNL     1    -105.289  45.837  51.285  1.00  0.00    -0.285 OA
ATOM      5  C   UNL     1    -105.752  45.447  53.539  1.00  0.00     0.111 A 
ATOM      6  C   UNL     1    -105.243  44.114  53.598  1.00  0.00     0.134 A 
ATOM      7  C   UNL     1    -105.137  43.470  54.838  1.00  0.00     0.093 A 
ATOM      8  C   UNL     1    -105.581  44.083  56.008  1.00  0.00     0.123 A 
ATOM      9  C   UNL     1    -106.136  45.363  55.952  1.00  0.00     0.094 A 
ATOM     10  C   UNL     1    -106.222  46.044  54.736  1.00  0.00     0.146 A 
ATOM     11  O   UNL     1    -106.748  47.264  54.729  1.00  0.00    -0.452 OA
ENDROOT
BRANCH   1  12
ATOM     12  C   UNL     1    -107.485  49.342  53.756  1.00  0.00     0.021 A 
ATOM     13  C   UNL     1    -106.699  50.447  54.121  1.00  0.00     0.016 A 
ATOM     14  C   UNL     1    -107.277  51.712  54.262  1.00  0.00     0.047 A 
ATOM     15  C   UNL     1    -108.649  51.886  54.058  1.00  0.00     0.115 A 
ATOM     16  C   UNL     1    -108.869  49.519  53.570  1.00  0.00     0.016 A 
ATOM     17  C   UNL     1    -109.445  50.785  53.713  1.00  0.00     0.047 A 
BRANCH  15  18
ATOM     18  O   UNL     1    -109.213  53.152  54.202  1.00  0.00    -0.508 OA
ATOM     19  H   UNL     1    -109.741  53.585  53.453  1.00  0.00     0.293 HD
ENDBRANCH  15  18
ENDBRANCH   1  12
BRANCH   2  20
ATOM     20  O   UNL     1    -106.376  48.337  51.275  1.00  0.00    -0.502 OA
ATOM     21  H   UNL     1    -105.795  49.162  51.182  1.00  0.00     0.293 HD
ENDBRANCH   2  20
BRANCH   6  22
ATOM     22  O   UNL     1    -104.856  43.375  52.477  1.00  0.00    -0.507 OA
ATOM     23  H   UNL     1    -105.378  43.322  51.616  1.00  0.00     0.293 HD
ENDBRANCH   6  22
BRANCH   8  24
ATOM     24  O   UNL     1    -105.476  43.407  57.222  1.00  0.00    -0.508 OA
ATOM     25  H   UNL     1    -106.101  42.646  57.461  1.00  0.00     0.293 HD
ENDBRANCH   8  24
TORSDOF 5
ENDMDL
MODEL 5
REMARK VINA RESULT:    -4.786      1.505      3.327
REMARK INTER + INTRA:          -5.910
REMARK INTER:                  -5.726
REMARK INTRA:                  -0.184
REMARK UNBOUND:                -0.285
REMARK SMILES O=c1c(O)c(-c2ccc(O)cc2)oc2cc(O)cc(O)c12
REMARK SMILES IDX 5 1 3 2 2 3 1 4 21 5 19 6 18 7 16 8 15 9 14 10 13 11 6 12
REMARK SMILES IDX 7 13 8 14 9 15 12 16 11 17 10 18 4 20 20 22 17 24
REMARK H PARENT 10 19 4 21 20 23 17 25
REMARK Flexibility Score: inf
ROOT
ATOM      1  C   UNL     1    -106.225  44.207  53.920  1.00  0.00     0.180 A 
ATOM      2  C   UNL     1    -105.432  44.151  55.079  1.00  0.00     0.208 A 
ATOM      3  C   UNL     1    -105.499  43.012  55.896  1.00  0.00     0.238 A 
ATOM      4  O   UNL     1    -104.828  42.990  56.961  1.00  0.00    -0.285 OA
ATOM      5  C   UNL     1    -106.345  41.935  55.535  1.00  0.00     0.111 A 
ATOM      6  C   UNL     1    -106.459  40.715  56.266  1.00  0.00     0.134 A 
ATOM      7  C   UNL     1    -107.424  39.771  55.889  1.00  0.00     0.093 A 
ATOM      8  C   UNL     1    -108.230  39.975  54.770  1.00  0.00     0.123 A 
ATOM      9  C   UNL     1    -108.085  41.138  54.013  1.00  0.00     0.094 A 
ATOM     10  C   UNL     1    -107.157  42.113  54.385  1.00  0.00     0.146 A 
ATOM     11  O   UNL     1    -107.057  43.209  53.643  1.00  0.00    -0.452 OA
ENDROOT
BRANCH   1  12
ATOM     12  C   UNL     1    -106.191  45.364  52.996  1.00  0.00     0.021 A 
ATOM     13  C   UNL     1    -105.560  45.234  51.748  1.00  0.00     0.016 A 
ATOM     14  C   UNL     1    -105.497  46.319  50.869  1.00  0.00     0.047 A 
ATOM     15  C   UNL     1    -106.048  47.552  51.233  1.00  0.00     0.115 A 
ATOM     16  C   UNL     1    -106.727  46.612  53.364  1.00  0.00     0.016 A 
ATOM     17  C   UNL     1    -106.661  47.696  52.484  1.00  0.00     0.047 A 
BRANCH  15  18
ATOM     18  O   UNL     1    -105.979  48.625  50.348  1.00  0.00    -0.508 OA
ATOM     19  H   UNL     1    -105.225  49.301  50.393  1.00  0.00     0.293 HD
ENDBRANCH  15  18
ENDBRANCH   1  12
BRANCH   2  20
ATOM     20  O   UNL     1    -104.622  45.235  55.429  1.00  0.00    -0.502 OA
ATOM     21  H   UNL     1    -103.764  45.453  54.936  1.00  0.00     0.293 HD
ENDBRANCH   2  20
BRANCH   6  22
ATOM     22  O   UNL     1    -105.640  40.371  57.345  1.00  0.00    -0.507 OA
ATOM     23  H   UNL     1    -105.719  39.517  57.877  1.00  0.00     0.293 HD
ENDBRANCH   6  22
BRANCH   8  24
ATOM     24  O   UNL     1    -109.169  39.008  54.414  1.00  0.00    -0.508 OA
ATOM     25  H   UNL     1    -109.466  38.887  53.453  1.00  0.00     0.293 HD
ENDBRANCH   8  24
TORSDOF 5
ENDMDL
MODEL 6
REMARK VINA RESULT:    -4.688      4.943      6.995
REMARK INTER + INTRA:          -5.795
REMARK INTER:                  -5.510
REMARK INTRA:                  -0.285
REMARK UNBOUND:                -0.285
REMARK SMILES O=c1c(O)c(-c2ccc(O)cc2)oc2cc(O)cc(O)c12
REMARK SMILES IDX 5 1 3 2 2 3 1 4 21 5 19 6 18 7 16 8 15 9 14 10 13 11 6 12
REMARK SMILES IDX 7 13 8 14 9 15 12 16 11 17 10 18 4 20 20 22 17 24
REMARK H PARENT 10 19 4 21 20 23 17 25
REMARK Flexibility Score: inf
ROOT
ATOM      1  C   UNL     1    -107.063  48.578  53.490  1.00  0.00     0.180 A 
ATOM      2  C   UNL     1    -108.442  48.847  53.452  1.00  0.00     0.208 A 
ATOM      3  C   UNL     1    -108.976  49.796  54.339  1.00  0.00     0.238 A 
ATOM      4  O   UNL     1    -110.220  49.993  54.337  1.00  0.00    -0.285 OA
ATOM      5  C   UNL     1    -108.122  50.475  55.241  1.00  0.00     0.111 A 
ATOM      6  C   UNL     1    -108.549  51.486  56.154  1.00  0.00     0.134 A 
ATOM      7  C   UNL     1    -107.641  51.998  57.091  1.00  0.00     0.093 A 
ATOM      8  C   UNL     1    -106.310  51.585  57.103  1.00  0.00     0.123 A 
ATOM      9  C   UNL     1    -105.868  50.641  56.175  1.00  0.00     0.094 A 
ATOM     10  C   UNL     1    -106.758  50.086  55.252  1.00  0.00     0.146 A 
ATOM     11  O   UNL     1    -106.299  49.184  54.392  1.00  0.00    -0.452 OA
ENDROOT
BRANCH   1  12
ATOM     12  C   UNL     1    -106.423  47.610  52.571  1.00  0.00     0.021 A 
ATOM     13  C   UNL     1    -105.907  48.058  51.344  1.00  0.00     0.016 A 
ATOM     14  C   UNL     1    -105.317  47.158  50.452  1.00  0.00     0.047 A 
ATOM     15  C   UNL     1    -105.251  45.797  50.766  1.00  0.00     0.115 A 
ATOM     16  C   UNL     1    -106.370  46.237  52.873  1.00  0.00     0.016 A 
ATOM     17  C   UNL     1    -105.782  45.338  51.978  1.00  0.00     0.047 A 
BRANCH  15  18
ATOM     18  O   UNL     1    -104.661  44.911  49.867  1.00  0.00    -0.508 OA
ATOM     19  H   UNL     1    -104.995  43.959  49.766  1.00  0.00     0.293 HD
ENDBRANCH  15  18
ENDBRANCH   1  12
BRANCH   2  20
ATOM     20  O   UNL     1    -109.270  48.148  52.569  1.00  0.00    -0.502 OA
ATOM     21  H   UNL     1    -109.413  48.442  51.610  1.00  0.00     0.293 HD
ENDBRANCH   2  20
BRANCH   6  22
ATOM     22  O   UNL     1    -109.834  52.036  56.167  1.00  0.00    -0.507 OA
ATOM     23  H   UNL     1    -110.597  51.724  55.587  1.00  0.00     0.293 HD
ENDBRANCH   6  22
BRANCH   8  24
ATOM     24  O   UNL     1    -105.430  52.127  58.039  1.00  0.00    -0.508 OA
ATOM     25  H   UNL     1    -104.520  51.716  58.210  1.00  0.00     0.293 HD
ENDBRANCH   8  24
TORSDOF 5
ENDMDL
MODEL 7
REMARK VINA RESULT:    -4.583      1.842      6.788
REMARK INTER + INTRA:          -5.672
REMARK INTER:                  -5.438
REMARK INTRA:                  -0.234
REMARK UNBOUND:                -0.285
REMARK SMILES O=c1c(O)c(-c2ccc(O)cc2)oc2cc(O)cc(O)c12
REMARK SMILES IDX 5 1 3 2 2 3 1 4 21 5 19 6 18 7 16 8 15 9 14 10 13 11 6 12
REMARK SMILES IDX 7 13 8 14 9 15 12 16 11 17 10 18 4 20 20 22 17 24
REMARK H PARENT 10 19 4 21 20 23 17 25
REMARK Flexibility Score: inf
ROOT
ATOM      1  C   UNL     1    -107.225  43.964  54.152  1.00  0.00     0.180 A 
ATOM      2  C   UNL     1    -108.589  44.235  53.945  1.00  0.00     0.208 A 
ATOM      3  C   UNL     1    -108.955  45.187  52.979  1.00  0.00     0.238 A 
ATOM      4  O   UNL     1    -110.175  45.464  52.836  1.00  0.00    -0.285 OA
ATOM      5  C   UNL     1    -107.955  45.843  52.222  1.00  0.00     0.111 A 
ATOM      6  C   UNL     1    -108.215  46.794  51.190  1.00  0.00     0.134 A 
ATOM      7  C   UNL     1    -107.145  47.478  50.596  1.00  0.00     0.093 A 
ATOM      8  C   UNL     1    -105.827  47.198  50.950  1.00  0.00     0.123 A 
ATOM      9  C   UNL     1    -105.560  46.226  51.916  1.00  0.00     0.094 A 
ATOM     10  C   UNL     1    -106.606  45.554  52.552  1.00  0.00     0.146 A 
ATOM     11  O   UNL     1    -106.309  44.644  53.472  1.00  0.00    -0.452 OA
ENDROOT
BRANCH   1  12
ATOM     12  C   UNL     1    -106.762  42.958  55.133  1.00  0.00     0.021 A 
ATOM     13  C   UNL     1    -106.115  43.381  56.306  1.00  0.00     0.016 A 
ATOM     14  C   UNL     1    -105.650  42.446  57.236  1.00  0.00     0.047 A 
ATOM     15  C   UNL     1    -105.811  41.078  56.999  1.00  0.00     0.115 A 
ATOM     16  C   UNL     1    -106.904  41.579  54.892  1.00  0.00     0.016 A 
ATOM     17  C   UNL     1    -106.437  40.646  55.822  1.00  0.00     0.047 A 
BRANCH  15  18
ATOM     18  O   UNL     1    -105.343  40.157  57.934  1.00  0.00    -0.508 OA
ATOM     19  H   UNL     1    -105.589  40.227  58.915  1.00  0.00     0.293 HD
ENDBRANCH  15  18
ENDBRANCH   1  12
BRANCH   2  20
ATOM     20  O   UNL     1    -109.559  43.592  54.719  1.00  0.00    -0.502 OA
ATOM     21  H   UNL     1    -109.734  43.839  55.686  1.00  0.00     0.293 HD
ENDBRANCH   2  20
BRANCH   6  22
ATOM     22  O   UNL     1    -109.490  47.083  50.696  1.00  0.00    -0.507 OA
ATOM     23  H   UNL     1    -110.179  46.390  50.445  1.00  0.00     0.293 HD
ENDBRANCH   6  22
BRANCH   8  24
ATOM     24  O   UNL     1    -104.787  47.885  50.328  1.00  0.00    -0.508 OA
ATOM     25  H   UNL     1    -104.376  48.713  50.743  1.00  0.00     0.293 HD
ENDBRANCH   8  24
TORSDOF 5
ENDMDL
MODEL 8
REMARK VINA RESULT:    -4.550      2.014      7.251
REMARK INTER + INTRA:          -5.632
REMARK INTER:                  -5.343
REMARK INTRA:                  -0.289
REMARK UNBOUND:                -0.285
REMARK SMILES O=c1c(O)c(-c2ccc(O)cc2)oc2cc(O)cc(O)c12
REMARK SMILES IDX 5 1 3 2 2 3 1 4 21 5 19 6 18 7 16 8 15 9 14 10 13 11 6 12
REMARK SMILES IDX 7 13 8 14 9 15 12 16 11 17 10 18 4 20 20 22 17 24
REMARK H PARENT 10 19 4 21 20 23 17 25
REMARK Flexibility Score: inf
ROOT
ATOM      1  C   UNL     1    -106.753  44.252  53.707  1.00  0.00     0.180 A 
ATOM      2  C   UNL     1    -105.823  44.561  52.699  1.00  0.00     0.208 A 
ATOM      3  C   UNL     1    -106.083  45.641  51.841  1.00  0.00     0.238 A 
ATOM      4  O   UNL     1    -105.273  45.880  50.906  1.00  0.00    -0.285 OA
ATOM      5  C   UNL     1    -107.262  46.407  52.010  1.00  0.00     0.111 A 
ATOM      6  C   UNL     1    -107.606  47.547  51.223  1.00  0.00     0.134 A 
ATOM      7  C   UNL     1    -108.860  48.151  51.393  1.00  0.00     0.093 A 
ATOM      8  C   UNL     1    -109.750  47.697  52.364  1.00  0.00     0.123 A 
ATOM      9  C   UNL     1    -109.399  46.620  53.179  1.00  0.00     0.094 A 
ATOM     10  C   UNL     1    -108.171  45.975  53.009  1.00  0.00     0.146 A 
ATOM     11  O   UNL     1    -107.880  44.949  53.799  1.00  0.00    -0.452 OA
ENDROOT
BRANCH   1  12
ATOM     12  C   UNL     1    -106.536  43.145  54.666  1.00  0.00     0.021 A 
ATOM     13  C   UNL     1    -105.837  43.391  55.860  1.00  0.00     0.016 A 
ATOM     14  C   UNL     1    -105.603  42.355  56.770  1.00  0.00     0.047 A 
ATOM     15  C   UNL     1    -106.049  41.060  56.492  1.00  0.00     0.115 A 
ATOM     16  C   UNL     1    -106.966  41.835  54.384  1.00  0.00     0.016 A 
ATOM     17  C   UNL     1    -106.729  40.801  55.294  1.00  0.00     0.047 A 
BRANCH  15  18
ATOM     18  O   UNL     1    -105.809  40.038  57.407  1.00  0.00    -0.508 OA
ATOM     19  H   UNL     1    -104.911  39.569  57.454  1.00  0.00     0.293 HD
ENDBRANCH  15  18
ENDBRANCH   1  12
BRANCH   2  20
ATOM     20  O   UNL     1    -104.677  43.778  52.536  1.00  0.00    -0.502 OA
ATOM     21  H   UNL     1    -104.289  43.220  53.287  1.00  0.00     0.293 HD
ENDBRANCH   2  20
BRANCH   6  22
ATOM     22  O   UNL     1    -106.752  48.139  50.288  1.00  0.00    -0.507 OA
ATOM     23  H   UNL     1    -106.272  47.642  49.554  1.00  0.00     0.293 HD
ENDBRANCH   6  22
BRANCH   8  24
ATOM     24  O   UNL     1    -110.982  48.330  52.516  1.00  0.00    -0.508 OA
ATOM     25  H   UNL     1    -111.132  49.281  52.201  1.00  0.00     0.293 HD
ENDBRANCH   8  24
TORSDOF 5
ENDMDL
MODEL 9
REMARK VINA RESULT:    -4.421      2.656      6.607
REMARK INTER + INTRA:          -5.482
REMARK INTER:                  -5.232
REMARK INTRA:                  -0.249
REMARK UNBOUND:                -0.285
REMARK SMILES O=c1c(O)c(-c2ccc(O)cc2)oc2cc(O)cc(O)c12
REMARK SMILES IDX 5 1 3 2 2 3 1 4 21 5 19 6 18 7 16 8 15 9 14 10 13 11 6 12
REMARK SMILES IDX 7 13 8 14 9 15 12 16 11 17 10 18 4 20 20 22 17 24
REMARK H PARENT 10 19 4 21 20 23 17 25
REMARK Flexibility Score: inf
ROOT
ATOM      1  C   UNL     1    -106.720  45.619  53.885  1.00  0.00     0.180 A 
ATOM      2  C   UNL     1    -106.512  46.260  52.652  1.00  0.00     0.208 A 
ATOM      3  C   UNL     1    -106.414  47.660  52.620  1.00  0.00     0.238 A 
ATOM      4  O   UNL     1    -106.282  48.233  51.506  1.00  0.00    -0.285 OA
ATOM      5  C   UNL     1    -106.510  48.400  53.823  1.00  0.00     0.111 A 
ATOM      6  C   UNL     1    -106.384  49.819  53.913  1.00  0.00     0.134 A 
ATOM      7  C   UNL     1    -106.627  50.458  55.137  1.00  0.00     0.093 A 
ATOM      8  C   UNL     1    -106.925  49.725  56.284  1.00  0.00     0.123 A 
ATOM      9  C   UNL     1    -106.991  48.332  56.220  1.00  0.00     0.094 A 
ATOM     10  C   UNL     1    -106.790  47.670  55.007  1.00  0.00     0.146 A 
ATOM     11  O   UNL     1    -106.871  46.345  54.987  1.00  0.00    -0.452 OA
ENDROOT
BRANCH   1  12
ATOM     12  C   UNL     1    -106.809  44.146  54.003  1.00  0.00     0.021 A 
ATOM     13  C   UNL     1    -108.011  43.497  53.677  1.00  0.00     0.016 A 
ATOM     14  C   UNL     1    -108.124  42.109  53.801  1.00  0.00     0.047 A 
ATOM     15  C   UNL     1    -107.043  41.354  54.267  1.00  0.00     0.115 A 
ATOM     16  C   UNL     1    -105.731  43.383  54.489  1.00  0.00     0.016 A 
ATOM     17  C   UNL     1    -105.847  41.995  54.614  1.00  0.00     0.047 A 
BRANCH  15  18
ATOM     18  O   UNL     1    -107.169  39.972  54.386  1.00  0.00    -0.508 OA
ATOM     19  H   UNL     1    -106.596  39.441  55.032  1.00  0.00     0.293 HD
ENDBRANCH  15  18
ENDBRANCH   1  12
BRANCH   2  20
ATOM     20  O   UNL     1    -106.443  45.511  51.474  1.00  0.00    -0.502 OA
ATOM     21  H   UNL     1    -107.269  45.235  50.956  1.00  0.00     0.293 HD
ENDBRANCH   2  20
BRANCH   6  22
ATOM     22  O   UNL     1    -106.001  50.639  52.848  1.00  0.00    -0.507 OA
ATOM     23  H   UNL     1    -105.050  50.898  52.636  1.00  0.00     0.293 HD
ENDBRANCH   6  22
BRANCH   8  24
ATOM     24  O   UNL     1    -107.144  50.392  57.488  1.00  0.00    -0.508 OA
ATOM     25  H   UNL     1    -108.035  50.340  57.968  1.00  0.00     0.293 HD
ENDBRANCH   8  24
TORSDOF 5
ENDMDL
