MODEL 1
REMARK VINA RESULT:    -4.198      0.000      0.000
REMARK INTER + INTRA:         -14.156
REMARK INTER:                 -10.579
REMARK INTRA:                  -3.576
REMARK UNBOUND:                -3.576
REMARK SMILES CCCCCCCCCCCCCCCCCCCCCCCCCCCC(=O)[O-]
REMARK SMILES IDX 15 1 16 2 17 3 18 4 19 5 20 6 21 7 22 8 23 9 24 10 25 11
REMARK SMILES IDX 26 12 27 13 28 14 29 15 30 16 14 17 13 18 12 19 11 20 10 21
REMARK SMILES IDX 9 22 8 23 7 24 6 25 5 26 4 27 3 28 2 29 1 30
REMARK H PARENT
REMARK Flexibility Score: inf
ROOT
ATOM      1  C   UNL     1       8.105   0.290  -1.220  1.00  0.00     0.000 C 
ENDROOT
BRANCH   1   2
ATOM      2  C   UNL     1       9.119  -0.533  -2.045  1.00  0.00     0.000 C 
BRANCH   2   3
ATOM      3  C   UNL     1       9.180  -2.003  -1.597  1.00  0.00     0.000 C 
BRANCH   3   4
ATOM      4  C   UNL     1       9.456  -2.151  -0.085  1.00  0.00     0.000 C 
BRANCH   4   5
ATOM      5  C   UNL     1       8.416  -3.013   0.656  1.00  0.00     0.000 C 
BRANCH   5   6
ATOM      6  C   UNL     1       7.977  -2.468   2.029  1.00  0.00     0.000 C 
BRANCH   6   7
ATOM      7  C   UNL     1       7.399  -1.039   2.006  1.00  0.00     0.000 C 
BRANCH   7   8
ATOM      8  C   UNL     1       8.235   0.016   2.757  1.00  0.00     0.000 C 
BRANCH   8   9
ATOM      9  C   UNL     1       7.861   1.473   2.413  1.00  0.00     0.000 C 
BRANCH   9  10
ATOM     10  C   UNL     1       7.935   2.406   3.637  1.00  0.00     0.000 C 
BRANCH  10  11
ATOM     11  C   UNL     1       7.244   3.756   3.397  1.00  0.00     0.000 C 
BRANCH  11  12
ATOM     12  C   UNL     1       6.326   4.167   4.562  1.00  0.00     0.006 C 
BRANCH  12  13
ATOM     13  C   UNL     1       4.842   4.122   4.171  1.00  0.00     0.053 C 
BRANCH  13  14
ATOM     14  C   UNL     1       3.953   4.023   5.374  1.00  0.00     0.041 C 
ATOM     15  O   UNL     1       2.925   4.743   5.462  1.00  0.00    -0.550 OA
ATOM     16  O   UNL     1       4.289   3.170   6.418  1.00  0.00    -0.550 OA
ENDBRANCH  13  14
ENDBRANCH  12  13
ENDBRANCH  11  12
ENDBRANCH  10  11
ENDBRANCH   9  10
ENDBRANCH   8   9
ENDBRANCH   7   8
ENDBRANCH   6   7
ENDBRANCH   5   6
ENDBRANCH   4   5
ENDBRANCH   3   4
ENDBRANCH   2   3
ENDBRANCH   1   2
BRANCH   1  17
ATOM     17  C   UNL     1       6.773   0.539  -1.950  1.00  0.00     0.000 C 
BRANCH  17  18
ATOM     18  C   UNL     1       5.625  -0.407  -1.547  1.00  0.00     0.000 C 
BRANCH  18  19
ATOM     19  C   UNL     1       5.638  -1.780  -2.245  1.00  0.00     0.000 C 
BRANCH  19  20
ATOM     20  C   UNL     1       5.390  -2.947  -1.278  1.00  0.00     0.000 C 
BRANCH  20  21
ATOM     21  C   UNL     1       4.861  -2.439   0.069  1.00  0.00     0.000 C 
BRANCH  21  22
ATOM     22  C   UNL     1       4.481  -3.611   0.987  1.00  0.00    -0.000 C 
BRANCH  22  23
ATOM     23  C   UNL     1       3.524  -4.610   0.319  1.00  0.00    -0.000 C 
BRANCH  23  24
ATOM     24  C   UNL     1       2.057  -4.390   0.725  1.00  0.00    -0.000 C 
BRANCH  24  25
ATOM     25  C   UNL     1       1.823  -4.570   2.236  1.00  0.00    -0.000 C 
BRANCH  25  26
ATOM     26  C   UNL     1       1.323  -5.964   2.665  1.00  0.00    -0.000 C 
BRANCH  26  27
ATOM     27  C   UNL     1       2.170  -6.660   3.747  1.00  0.00    -0.000 C 
BRANCH  27  28
ATOM     28  C   UNL     1       3.569  -7.051   3.249  1.00  0.00    -0.000 C 
BRANCH  28  29
ATOM     29  C   UNL     1       4.657  -6.294   4.020  1.00  0.00    -0.003 C 
ATOM     30  C   UNL     1       4.050  -5.431   5.121  1.00  0.00     0.004 C 
ENDBRANCH  28  29
ENDBRANCH  27  28
ENDBRANCH  26  27
ENDBRANCH  25  26
ENDBRANCH  24  25
ENDBRANCH  23  24
ENDBRANCH  22  23
ENDBRANCH  21  22
ENDBRANCH  20  21
ENDBRANCH  19  20
ENDBRANCH  18  19
ENDBRANCH  17  18
ENDBRANCH   1  17
TORSDOF 26
ENDMDL
MODEL 2
REMARK VINA RESULT:    -4.097      1.456      3.059
REMARK INTER + INTRA:         -13.900
REMARK INTER:                 -10.046
REMARK INTRA:                  -3.853
REMARK UNBOUND:                -3.576
REMARK SMILES CCCCCCCCCCCCCCCCCCCCCCCCCCCC(=O)[O-]
REMARK SMILES IDX 15 1 16 2 17 3 18 4 19 5 20 6 21 7 22 8 23 9 24 10 25 11
REMARK SMILES IDX 26 12 27 13 28 14 29 15 30 16 14 17 13 18 12 19 11 20 10 21
REMARK SMILES IDX 9 22 8 23 7 24 6 25 5 26 4 27 3 28 2 29 1 30
REMARK H PARENT
REMARK Flexibility Score: inf
ROOT
ATOM      1  C   UNL     1       5.726  -0.374  -1.666  1.00  0.00     0.000 C 
ENDROOT
BRANCH   1   2
ATOM      2  C   UNL     1       5.175  -1.514  -0.780  1.00  0.00     0.000 C 
BRANCH   2   3
ATOM      3  C   UNL     1       5.614  -1.379   0.687  1.00  0.00     0.000 C 
BRANCH   3   4
ATOM      4  C   UNL     1       6.439  -2.590   1.173  1.00  0.00     0.000 C 
BRANCH   4   5
ATOM      5  C   UNL     1       7.705  -2.205   1.962  1.00  0.00     0.000 C 
BRANCH   5   6
ATOM      6  C   UNL     1       7.845  -0.704   2.279  1.00  0.00     0.000 C 
BRANCH   6   7
ATOM      7  C   UNL     1       8.978  -0.349   3.262  1.00  0.00     0.000 C 
BRANCH   7   8
ATOM      8  C   UNL     1       8.845   1.027   3.943  1.00  0.00     0.000 C 
BRANCH   8   9
ATOM      9  C   UNL     1       8.181   2.103   3.060  1.00  0.00     0.000 C 
BRANCH   9  10
ATOM     10  C   UNL     1       7.752   3.345   3.865  1.00  0.00     0.000 C 
BRANCH  10  11
ATOM     11  C   UNL     1       6.287   3.736   3.619  1.00  0.00     0.000 C 
BRANCH  11  12
ATOM     12  C   UNL     1       5.513   3.986   4.925  1.00  0.00     0.006 C 
BRANCH  12  13
ATOM     13  C   UNL     1       3.999   3.804   4.742  1.00  0.00     0.053 C 
BRANCH  13  14
ATOM     14  C   UNL     1       3.292   3.680   6.057  1.00  0.00     0.041 C 
ATOM     15  O   UNL     1       3.307   2.588   6.683  1.00  0.00    -0.550 OA
ATOM     16  O   UNL     1       2.578   4.757   6.567  1.00  0.00    -0.550 OA
ENDBRANCH  13  14
ENDBRANCH  12  13
ENDBRANCH  11  12
ENDBRANCH  10  11
ENDBRANCH   9  10
ENDBRANCH   8   9
ENDBRANCH   7   8
ENDBRANCH   6   7
ENDBRANCH   5   6
ENDBRANCH   4   5
ENDBRANCH   3   4
ENDBRANCH   2   3
ENDBRANCH   1   2
BRANCH   1  17
ATOM     17  C   UNL     1       7.109   0.136  -1.224  1.00  0.00     0.000 C 
BRANCH  17  18
ATOM     18  C   UNL     1       8.300  -0.462  -1.999  1.00  0.00     0.000 C 
BRANCH  18  19
ATOM     19  C   UNL     1       9.162  -1.458  -1.200  1.00  0.00     0.000 C 
BRANCH  19  20
ATOM     20  C   UNL     1       8.982  -2.911  -1.661  1.00  0.00     0.000 C 
BRANCH  20  21
ATOM     21  C   UNL     1       7.884  -3.017  -2.725  1.00  0.00     0.000 C 
BRANCH  21  22
ATOM     22  C   UNL     1       7.281  -4.429  -2.756  1.00  0.00    -0.000 C 
BRANCH  22  23
ATOM     23  C   UNL     1       7.263  -5.103  -1.375  1.00  0.00    -0.000 C 
BRANCH  23  24
ATOM     24  C   UNL     1       5.841  -5.434  -0.892  1.00  0.00    -0.000 C 
BRANCH  24  25
ATOM     25  C   UNL     1       5.829  -6.245   0.417  1.00  0.00    -0.000 C 
BRANCH  25  26
ATOM     26  C   UNL     1       4.605  -6.010   1.326  1.00  0.00    -0.000 C 
BRANCH  26  27
ATOM     27  C   UNL     1       3.500  -5.125   0.721  1.00  0.00    -0.000 C 
BRANCH  27  28
ATOM     28  C   UNL     1       3.119  -3.945   1.627  1.00  0.00    -0.000 C 
BRANCH  28  29
ATOM     29  C   UNL     1       2.328  -4.426   2.850  1.00  0.00    -0.003 C 
ATOM     30  C   UNL     1       1.156  -5.308   2.434  1.00  0.00     0.004 C 
ENDBRANCH  28  29
ENDBRANCH  27  28
ENDBRANCH  26  27
ENDBRANCH  25  26
ENDBRANCH  24  25
ENDBRANCH  23  24
ENDBRANCH  22  23
ENDBRANCH  21  22
ENDBRANCH  20  21
ENDBRANCH  19  20
ENDBRANCH  18  19
ENDBRANCH  17  18
ENDBRANCH   1  17
TORSDOF 26
ENDMDL
MODEL 3
REMARK VINA RESULT:    -4.095      3.022      7.620
REMARK INTER + INTRA:         -13.896
REMARK INTER:                  -9.206
REMARK INTRA:                  -4.689
REMARK UNBOUND:                -3.576
REMARK SMILES CCCCCCCCCCCCCCCCCCCCCCCCCCCC(=O)[O-]
REMARK SMILES IDX 15 1 16 2 17 3 18 4 19 5 20 6 21 7 22 8 23 9 24 10 25 11
REMARK SMILES IDX 26 12 27 13 28 14 29 15 30 16 14 17 13 18 12 19 11 20 10 21
REMARK SMILES IDX 9 22 8 23 7 24 6 25 5 26 4 27 3 28 2 29 1 30
REMARK H PARENT
REMARK Flexibility Score: inf
ROOT
ATOM      1  C   UNL     1       5.260  -1.216  -0.398  1.00  0.00     0.000 C 
ENDROOT
BRANCH   1   2
ATOM      2  C   UNL     1       4.976  -2.732  -0.309  1.00  0.00     0.000 C 
BRANCH   2   3
ATOM      3  C   UNL     1       5.142  -3.274   1.121  1.00  0.00     0.000 C 
BRANCH   3   4
ATOM      4  C   UNL     1       5.717  -4.707   1.148  1.00  0.00     0.000 C 
BRANCH   4   5
ATOM      5  C   UNL     1       5.550  -5.470  -0.179  1.00  0.00     0.000 C 
BRANCH   5   6
ATOM      6  C   UNL     1       4.772  -6.797  -0.075  1.00  0.00     0.000 C 
BRANCH   6   7
ATOM      7  C   UNL     1       3.411  -6.811  -0.798  1.00  0.00     0.000 C 
BRANCH   7   8
ATOM      8  C   UNL     1       2.198  -6.455   0.084  1.00  0.00     0.000 C 
BRANCH   8   9
ATOM      9  C   UNL     1       1.787  -4.969   0.014  1.00  0.00     0.000 C 
BRANCH   9  10
ATOM     10  C   UNL     1       1.824  -4.282   1.392  1.00  0.00     0.000 C 
BRANCH  10  11
ATOM     11  C   UNL     1       1.806  -5.283   2.556  1.00  0.00     0.000 C 
BRANCH  11  12
ATOM     12  C   UNL     1       2.784  -4.902   3.681  1.00  0.00     0.006 C 
BRANCH  12  13
ATOM     13  C   UNL     1       3.770  -6.035   3.998  1.00  0.00     0.053 C 
BRANCH  13  14
ATOM     14  C   UNL     1       3.615  -6.530   5.404  1.00  0.00     0.041 C 
ATOM     15  O   UNL     1       2.614  -7.221   5.726  1.00  0.00    -0.550 OA
ATOM     16  O   UNL     1       4.555  -6.186   6.368  1.00  0.00    -0.550 OA
ENDBRANCH  13  14
ENDBRANCH  12  13
ENDBRANCH  11  12
ENDBRANCH  10  11
ENDBRANCH   9  10
ENDBRANCH   8   9
ENDBRANCH   7   8
ENDBRANCH   6   7
ENDBRANCH   5   6
ENDBRANCH   4   5
ENDBRANCH   3   4
ENDBRANCH   2   3
ENDBRANCH   1   2
BRANCH   1  17
ATOM     17  C   UNL     1       5.305  -0.681  -1.841  1.00  0.00     0.000 C 
BRANCH  17  18
ATOM     18  C   UNL     1       6.400   0.370  -2.110  1.00  0.00     0.000 C 
BRANCH  18  19
ATOM     19  C   UNL     1       7.598   0.323  -1.144  1.00  0.00     0.000 C 
BRANCH  19  20
ATOM     20  C   UNL     1       8.879  -0.210  -1.801  1.00  0.00     0.000 C 
BRANCH  20  21
ATOM     21  C   UNL     1       8.673  -1.635  -2.327  1.00  0.00     0.000 C 
BRANCH  21  22
ATOM     22  C   UNL     1       8.633  -2.647  -1.173  1.00  0.00    -0.000 C 
BRANCH  22  23
ATOM     23  C   UNL     1      10.004  -2.858  -0.512  1.00  0.00    -0.000 C 
BRANCH  23  24
ATOM     24  C   UNL     1      10.019  -2.452   0.971  1.00  0.00    -0.000 C 
BRANCH  24  25
ATOM     25  C   UNL     1       8.617  -2.471   1.608  1.00  0.00    -0.000 C 
BRANCH  25  26
ATOM     26  C   UNL     1       8.399  -1.461   2.753  1.00  0.00    -0.000 C 
BRANCH  26  27
ATOM     27  C   UNL     1       7.611  -0.195   2.368  1.00  0.00    -0.000 C 
BRANCH  27  28
ATOM     28  C   UNL     1       8.423   1.094   2.561  1.00  0.00    -0.000 C 
BRANCH  28  29
ATOM     29  C   UNL     1       7.565   2.193   3.198  1.00  0.00    -0.003 C 
ATOM     30  C   UNL     1       8.226   2.748   4.455  1.00  0.00     0.004 C 
ENDBRANCH  28  29
ENDBRANCH  27  28
ENDBRANCH  26  27
ENDBRANCH  25  26
ENDBRANCH  24  25
ENDBRANCH  23  24
ENDBRANCH  22  23
ENDBRANCH  21  22
ENDBRANCH  20  21
ENDBRANCH  19  20
ENDBRANCH  18  19
ENDBRANCH  17  18
ENDBRANCH   1  17
TORSDOF 26
ENDMDL
MODEL 4
REMARK VINA RESULT:    -4.073      4.650      7.704
REMARK INTER + INTRA:         -13.839
REMARK INTER:                  -8.844
REMARK INTRA:                  -4.995
REMARK UNBOUND:                -3.576
REMARK SMILES CCCCCCCCCCCCCCCCCCCCCCCCCCCC(=O)[O-]
REMARK SMILES IDX 15 1 16 2 17 3 18 4 19 5 20 6 21 7 22 8 23 9 24 10 25 11
REMARK SMILES IDX 26 12 27 13 28 14 29 15 30 16 14 17 13 18 12 19 11 20 10 21
REMARK SMILES IDX 9 22 8 23 7 24 6 25 5 26 4 27 3 28 2 29 1 30
REMARK H PARENT
REMARK Flexibility Score: inf
ROOT
ATOM      1  C   UNL     1       4.516  -6.468   5.025  1.00  0.00     0.000 C 
ENDROOT
BRANCH   1   2
ATOM      2  C   UNL     1       5.251  -6.542   3.668  1.00  0.00     0.000 C 
BRANCH   2   3
ATOM      3  C   UNL     1       6.021  -5.250   3.350  1.00  0.00     0.000 C 
BRANCH   3   4
ATOM      4  C   UNL     1       6.737  -5.308   1.983  1.00  0.00     0.000 C 
BRANCH   4   5
ATOM      5  C   UNL     1       6.584  -4.024   1.145  1.00  0.00     0.000 C 
BRANCH   5   6
ATOM      6  C   UNL     1       7.307  -2.787   1.709  1.00  0.00     0.000 C 
BRANCH   6   7
ATOM      7  C   UNL     1       6.700  -1.432   1.293  1.00  0.00     0.000 C 
BRANCH   7   8
ATOM      8  C   UNL     1       5.334  -1.518   0.583  1.00  0.00     0.000 C 
BRANCH   8   9
ATOM      9  C   UNL     1       5.362  -1.057  -0.889  1.00  0.00     0.000 C 
BRANCH   9  10
ATOM     10  C   UNL     1       6.795  -0.916  -1.436  1.00  0.00     0.000 C 
BRANCH  10  11
ATOM     11  C   UNL     1       7.287  -2.184  -2.149  1.00  0.00     0.000 C 
BRANCH  11  12
ATOM     12  C   UNL     1       6.149  -3.177  -2.446  1.00  0.00     0.006 C 
BRANCH  12  13
ATOM     13  C   UNL     1       6.652  -4.626  -2.517  1.00  0.00     0.053 C 
BRANCH  13  14
ATOM     14  C   UNL     1       7.286  -4.929  -3.841  1.00  0.00     0.041 C 
ATOM     15  O   UNL     1       8.467  -4.561  -4.076  1.00  0.00    -0.550 OA
ATOM     16  O   UNL     1       6.555  -5.577  -4.829  1.00  0.00    -0.550 OA
ENDBRANCH  13  14
ENDBRANCH  12  13
ENDBRANCH  11  12
ENDBRANCH  10  11
ENDBRANCH   9  10
ENDBRANCH   8   9
ENDBRANCH   7   8
ENDBRANCH   6   7
ENDBRANCH   5   6
ENDBRANCH   4   5
ENDBRANCH   3   4
ENDBRANCH   2   3
ENDBRANCH   1   2
BRANCH   1  17
ATOM     17  C   UNL     1       3.096  -7.060   4.990  1.00  0.00     0.000 C 
BRANCH  17  18
ATOM     18  C   UNL     1       2.521  -7.288   3.579  1.00  0.00     0.000 C 
BRANCH  18  19
ATOM     19  C   UNL     1       1.099  -6.740   3.358  1.00  0.00     0.000 C 
BRANCH  19  20
ATOM     20  C   UNL     1       1.070  -5.477   2.486  1.00  0.00     0.000 C 
BRANCH  20  21
ATOM     21  C   UNL     1       2.138  -4.474   2.938  1.00  0.00     0.000 C 
BRANCH  21  22
ATOM     22  C   UNL     1       2.929  -3.935   1.737  1.00  0.00    -0.000 C 
BRANCH  22  23
ATOM     23  C   UNL     1       2.521  -4.588   0.407  1.00  0.00    -0.000 C 
BRANCH  23  24
ATOM     24  C   UNL     1       3.671  -5.370  -0.248  1.00  0.00    -0.000 C 
BRANCH  24  25
ATOM     25  C   UNL     1       3.737  -6.837   0.219  1.00  0.00    -0.000 C 
BRANCH  25  26
ATOM     26  C   UNL     1       2.895  -7.830  -0.608  1.00  0.00    -0.000 C 
BRANCH  26  27
ATOM     27  C   UNL     1       1.484  -8.108  -0.058  1.00  0.00    -0.000 C 
BRANCH  27  28
ATOM     28  C   UNL     1       0.388  -7.955  -1.124  1.00  0.00    -0.000 C 
BRANCH  28  29
ATOM     29  C   UNL     1       0.684  -6.770  -2.050  1.00  0.00    -0.003 C 
ATOM     30  C   UNL     1      -0.520  -6.443  -2.926  1.00  0.00     0.004 C 
ENDBRANCH  28  29
ENDBRANCH  27  28
ENDBRANCH  26  27
ENDBRANCH  25  26
ENDBRANCH  24  25
ENDBRANCH  23  24
ENDBRANCH  22  23
ENDBRANCH  21  22
ENDBRANCH  20  21
ENDBRANCH  19  20
ENDBRANCH  18  19
ENDBRANCH  17  18
ENDBRANCH   1  17
TORSDOF 26
ENDMDL
MODEL 5
REMARK VINA RESULT:    -4.057      3.944      5.728
REMARK INTER + INTRA:         -13.799
REMARK INTER:                  -8.532
REMARK INTRA:                  -5.267
REMARK UNBOUND:                -3.576
REMARK SMILES CCCCCCCCCCCCCCCCCCCCCCCCCCCC(=O)[O-]
REMARK SMILES IDX 15 1 16 2 17 3 18 4 19 5 20 6 21 7 22 8 23 9 24 10 25 11
REMARK SMILES IDX 26 12 27 13 28 14 29 15 30 16 14 17 13 18 12 19 11 20 10 21
REMARK SMILES IDX 9 22 8 23 7 24 6 25 5 26 4 27 3 28 2 29 1 30
REMARK H PARENT
REMARK Flexibility Score: inf
ROOT
ATOM      1  C   UNL     1       5.447  -1.624  -1.234  1.00  0.00     0.000 C 
ENDROOT
BRANCH   1   2
ATOM      2  C   UNL     1       5.582  -0.218  -1.861  1.00  0.00     0.000 C 
BRANCH   2   3
ATOM      3  C   UNL     1       7.037   0.281  -1.867  1.00  0.00     0.000 C 
BRANCH   3   4
ATOM      4  C   UNL     1       8.051  -0.846  -1.576  1.00  0.00     0.000 C 
BRANCH   4   5
ATOM      5  C   UNL     1       9.493  -0.347  -1.365  1.00  0.00     0.000 C 
BRANCH   5   6
ATOM      6  C   UNL     1       9.618   0.971  -0.575  1.00  0.00     0.000 C 
BRANCH   6   7
ATOM      7  C   UNL     1       9.562   0.818   0.957  1.00  0.00     0.000 C 
BRANCH   7   8
ATOM      8  C   UNL     1       8.198   1.145   1.597  1.00  0.00     0.000 C 
BRANCH   8   9
ATOM      9  C   UNL     1       7.518  -0.063   2.275  1.00  0.00     0.000 C 
BRANCH   9  10
ATOM     10  C   UNL     1       8.479  -1.251   2.465  1.00  0.00     0.000 C 
BRANCH  10  11
ATOM     11  C   UNL     1       7.912  -2.569   1.916  1.00  0.00     0.000 C 
BRANCH  11  12
ATOM     12  C   UNL     1       8.962  -3.394   1.151  1.00  0.00     0.006 C 
BRANCH  12  13
ATOM     13  C   UNL     1       8.377  -4.046  -0.110  1.00  0.00     0.053 C 
BRANCH  13  14
ATOM     14  C   UNL     1       9.134  -5.279  -0.499  1.00  0.00     0.041 C 
ATOM     15  O   UNL     1      10.116  -5.663   0.188  1.00  0.00    -0.550 OA
ATOM     16  O   UNL     1       8.781  -5.978  -1.647  1.00  0.00    -0.550 OA
ENDBRANCH  13  14
ENDBRANCH  12  13
ENDBRANCH  11  12
ENDBRANCH  10  11
ENDBRANCH   9  10
ENDBRANCH   8   9
ENDBRANCH   7   8
ENDBRANCH   6   7
ENDBRANCH   5   6
ENDBRANCH   4   5
ENDBRANCH   3   4
ENDBRANCH   2   3
ENDBRANCH   1   2
BRANCH   1  17
ATOM     17  C   UNL     1       4.902  -1.608   0.205  1.00  0.00     0.000 C 
BRANCH  17  18
ATOM     18  C   UNL     1       4.548  -2.992   0.781  1.00  0.00     0.000 C 
BRANCH  18  19
ATOM     19  C   UNL     1       4.790  -4.176  -0.173  1.00  0.00     0.000 C 
BRANCH  19  20
ATOM     20  C   UNL     1       3.710  -5.263  -0.068  1.00  0.00     0.000 C 
BRANCH  20  21
ATOM     21  C   UNL     1       2.320  -4.639   0.104  1.00  0.00     0.000 C 
BRANCH  21  22
ATOM     22  C   UNL     1       1.545  -5.325   1.239  1.00  0.00    -0.000 C 
BRANCH  22  23
ATOM     23  C   UNL     1       1.652  -4.574   2.576  1.00  0.00    -0.000 C 
BRANCH  23  24
ATOM     24  C   UNL     1       2.842  -5.043   3.428  1.00  0.00    -0.000 C 
BRANCH  24  25
ATOM     25  C   UNL     1       3.101  -6.557   3.308  1.00  0.00    -0.000 C 
BRANCH  25  26
ATOM     26  C   UNL     1       4.441  -7.045   3.897  1.00  0.00    -0.000 C 
BRANCH  26  27
ATOM     27  C   UNL     1       5.453  -5.933   4.231  1.00  0.00    -0.000 C 
BRANCH  27  28
ATOM     28  C   UNL     1       6.336  -5.552   3.034  1.00  0.00    -0.000 C 
BRANCH  28  29
ATOM     29  C   UNL     1       7.412  -6.616   2.785  1.00  0.00    -0.003 C 
ATOM     30  C   UNL     1       8.746  -6.202   3.398  1.00  0.00     0.004 C 
ENDBRANCH  28  29
ENDBRANCH  27  28
ENDBRANCH  26  27
ENDBRANCH  25  26
ENDBRANCH  24  25
ENDBRANCH  23  24
ENDBRANCH  22  23
ENDBRANCH  21  22
ENDBRANCH  20  21
ENDBRANCH  19  20
ENDBRANCH  18  19
ENDBRANCH  17  18
ENDBRANCH   1  17
TORSDOF 26
ENDMDL
MODEL 6
REMARK VINA RESULT:    -4.043      1.349      2.686
REMARK INTER + INTRA:         -13.764
REMARK INTER:                 -10.057
REMARK INTRA:                  -3.707
REMARK UNBOUND:                -3.576
REMARK SMILES CCCCCCCCCCCCCCCCCCCCCCCCCCCC(=O)[O-]
REMARK SMILES IDX 15 1 16 2 17 3 18 4 19 5 20 6 21 7 22 8 23 9 24 10 25 11
REMARK SMILES IDX 26 12 27 13 28 14 29 15 30 16 14 17 13 18 12 19 11 20 10 21
REMARK SMILES IDX 9 22 8 23 7 24 6 25 5 26 4 27 3 28 2 29 1 30
REMARK H PARENT
REMARK Flexibility Score: inf
ROOT
ATOM      1  C   UNL     1       8.139  -0.664  -1.555  1.00  0.00     0.000 C 
ENDROOT
BRANCH   1   2
ATOM      2  C   UNL     1       8.742  -0.590  -0.134  1.00  0.00     0.000 C 
BRANCH   2   3
ATOM      3  C   UNL     1       8.181   0.589   0.678  1.00  0.00     0.000 C 
BRANCH   3   4
ATOM      4  C   UNL     1       7.589   0.147   2.034  1.00  0.00     0.000 C 
BRANCH   4   5
ATOM      5  C   UNL     1       8.631  -0.434   3.009  1.00  0.00     0.000 C 
BRANCH   5   6
ATOM      6  C   UNL     1       9.713   0.560   3.474  1.00  0.00     0.000 C 
BRANCH   6   7
ATOM      7  C   UNL     1       9.525   1.104   4.904  1.00  0.00     0.000 C 
BRANCH   7   8
ATOM      8  C   UNL     1       8.816   2.469   4.996  1.00  0.00     0.000 C 
BRANCH   8   9
ATOM      9  C   UNL     1       9.065   3.388   3.782  1.00  0.00     0.000 C 
BRANCH   9  10
ATOM     10  C   UNL     1       7.777   3.684   2.992  1.00  0.00     0.000 C 
BRANCH  10  11
ATOM     11  C   UNL     1       6.507   3.259   3.744  1.00  0.00     0.000 C 
BRANCH  11  12
ATOM     12  C   UNL     1       5.460   4.383   3.824  1.00  0.00     0.006 C 
BRANCH  12  13
ATOM     13  C   UNL     1       4.097   3.869   4.308  1.00  0.00     0.053 C 
BRANCH  13  14
ATOM     14  C   UNL     1       4.029   3.798   5.803  1.00  0.00     0.041 C 
ATOM     15  O   UNL     1       4.793   4.509   6.506  1.00  0.00    -0.550 OA
ATOM     16  O   UNL     1       3.153   2.911   6.418  1.00  0.00    -0.550 OA
ENDBRANCH  13  14
ENDBRANCH  12  13
ENDBRANCH  11  12
ENDBRANCH  10  11
ENDBRANCH   9  10
ENDBRANCH   8   9
ENDBRANCH   7   8
ENDBRANCH   6   7
ENDBRANCH   5   6
ENDBRANCH   4   5
ENDBRANCH   3   4
ENDBRANCH   2   3
ENDBRANCH   1   2
BRANCH   1  17
ATOM     17  C   UNL     1       6.834   0.136  -1.713  1.00  0.00     0.000 C 
BRANCH  17  18
ATOM     18  C   UNL     1       5.605  -0.699  -2.122  1.00  0.00     0.000 C 
BRANCH  18  19
ATOM     19  C   UNL     1       5.433  -2.023  -1.354  1.00  0.00     0.000 C 
BRANCH  19  20
ATOM     20  C   UNL     1       4.915  -1.824   0.077  1.00  0.00     0.000 C 
BRANCH  20  21
ATOM     21  C   UNL     1       5.767  -2.607   1.083  1.00  0.00     0.000 C 
BRANCH  21  22
ATOM     22  C   UNL     1       6.572  -3.710   0.380  1.00  0.00    -0.000 C 
BRANCH  22  23
ATOM     23  C   UNL     1       6.462  -5.073   1.082  1.00  0.00    -0.000 C 
BRANCH  23  24
ATOM     24  C   UNL     1       5.026  -5.401   1.521  1.00  0.00    -0.000 C 
BRANCH  24  25
ATOM     25  C   UNL     1       4.887  -5.547   3.047  1.00  0.00    -0.000 C 
BRANCH  25  26
ATOM     26  C   UNL     1       3.484  -5.245   3.613  1.00  0.00    -0.000 C 
BRANCH  26  27
ATOM     27  C   UNL     1       2.356  -6.149   3.084  1.00  0.00    -0.000 C 
BRANCH  27  28
ATOM     28  C   UNL     1       1.261  -5.365   2.345  1.00  0.00    -0.000 C 
BRANCH  28  29
ATOM     29  C   UNL     1       1.216  -5.752   0.862  1.00  0.00    -0.003 C 
ATOM     30  C   UNL     1       1.873  -4.684  -0.005  1.00  0.00     0.004 C 
ENDBRANCH  28  29
ENDBRANCH  27  28
ENDBRANCH  26  27
ENDBRANCH  25  26
ENDBRANCH  24  25
ENDBRANCH  23  24
ENDBRANCH  22  23
ENDBRANCH  21  22
ENDBRANCH  20  21
ENDBRANCH  19  20
ENDBRANCH  18  19
ENDBRANCH  17  18
ENDBRANCH   1  17
TORSDOF 26
ENDMDL
MODEL 7
REMARK VINA RESULT:    -4.041      1.512      3.208
REMARK INTER + INTRA:         -13.760
REMARK INTER:                  -9.547
REMARK INTRA:                  -4.213
REMARK UNBOUND:                -3.576
REMARK SMILES CCCCCCCCCCCCCCCCCCCCCCCCCCCC(=O)[O-]
REMARK SMILES IDX 15 1 16 2 17 3 18 4 19 5 20 6 21 7 22 8 23 9 24 10 25 11
REMARK SMILES IDX 26 12 27 13 28 14 29 15 30 16 14 17 13 18 12 19 11 20 10 21
REMARK SMILES IDX 9 22 8 23 7 24 6 25 5 26 4 27 3 28 2 29 1 30
REMARK H PARENT
REMARK Flexibility Score: inf
ROOT
ATOM      1  C   UNL     1       5.245  -1.610  -1.277  1.00  0.00     0.000 C 
ENDROOT
BRANCH   1   2
ATOM      2  C   UNL     1       5.681  -0.256  -1.881  1.00  0.00     0.000 C 
BRANCH   2   3
ATOM      3  C   UNL     1       7.146   0.083  -1.559  1.00  0.00     0.000 C 
BRANCH   3   4
ATOM      4  C   UNL     1       8.102  -1.098  -1.833  1.00  0.00     0.000 C 
BRANCH   4   5
ATOM      5  C   UNL     1       9.272  -1.198  -0.836  1.00  0.00     0.000 C 
BRANCH   5   6
ATOM      6  C   UNL     1       9.156  -0.284   0.399  1.00  0.00     0.000 C 
BRANCH   6   7
ATOM      7  C   UNL     1       9.472  -0.966   1.745  1.00  0.00     0.000 C 
BRANCH   7   8
ATOM      8  C   UNL     1       8.696  -0.412   2.956  1.00  0.00     0.000 C 
BRANCH   8   9
ATOM      9  C   UNL     1       7.612   0.622   2.587  1.00  0.00     0.000 C 
BRANCH   9  10
ATOM     10  C   UNL     1       7.992   2.052   3.015  1.00  0.00     0.000 C 
BRANCH  10  11
ATOM     11  C   UNL     1       8.705   2.097   4.374  1.00  0.00     0.000 C 
BRANCH  11  12
ATOM     12  C   UNL     1       8.156   3.199   5.296  1.00  0.00     0.006 C 
BRANCH  12  13
ATOM     13  C   UNL     1       6.737   3.629   4.899  1.00  0.00     0.053 C 
BRANCH  13  14
ATOM     14  C   UNL     1       5.879   3.892   6.100  1.00  0.00     0.041 C 
ATOM     15  O   UNL     1       6.372   4.433   7.124  1.00  0.00    -0.550 OA
ATOM     16  O   UNL     1       4.548   3.495   6.103  1.00  0.00    -0.550 OA
ENDBRANCH  13  14
ENDBRANCH  12  13
ENDBRANCH  11  12
ENDBRANCH  10  11
ENDBRANCH   9  10
ENDBRANCH   8   9
ENDBRANCH   7   8
ENDBRANCH   6   7
ENDBRANCH   5   6
ENDBRANCH   4   5
ENDBRANCH   3   4
ENDBRANCH   2   3
ENDBRANCH   1   2
BRANCH   1  17
ATOM     17  C   UNL     1       4.979  -1.553   0.237  1.00  0.00     0.000 C 
BRANCH  17  18
ATOM     18  C   UNL     1       6.026  -2.273   1.109  1.00  0.00     0.000 C 
BRANCH  18  19
ATOM     19  C   UNL     1       6.458  -3.659   0.596  1.00  0.00     0.000 C 
BRANCH  19  20
ATOM     20  C   UNL     1       7.831  -4.094   1.126  1.00  0.00     0.000 C 
BRANCH  20  21
ATOM     21  C   UNL     1       7.766  -4.410   2.625  1.00  0.00     0.000 C 
BRANCH  21  22
ATOM     22  C   UNL     1       7.116  -5.780   2.871  1.00  0.00    -0.000 C 
BRANCH  22  23
ATOM     23  C   UNL     1       5.829  -5.692   3.706  1.00  0.00    -0.000 C 
BRANCH  23  24
ATOM     24  C   UNL     1       4.568  -6.018   2.889  1.00  0.00    -0.000 C 
BRANCH  24  25
ATOM     25  C   UNL     1       3.368  -5.128   3.265  1.00  0.00    -0.000 C 
BRANCH  25  26
ATOM     26  C   UNL     1       2.924  -4.126   2.179  1.00  0.00    -0.000 C 
BRANCH  26  27
ATOM     27  C   UNL     1       1.654  -4.521   1.404  1.00  0.00    -0.000 C 
BRANCH  27  28
ATOM     28  C   UNL     1       1.917  -4.762  -0.090  1.00  0.00    -0.000 C 
BRANCH  28  29
ATOM     29  C   UNL     1       1.533  -6.191  -0.492  1.00  0.00    -0.003 C 
ATOM     30  C   UNL     1       0.953  -6.956   0.693  1.00  0.00     0.004 C 
ENDBRANCH  28  29
ENDBRANCH  27  28
ENDBRANCH  26  27
ENDBRANCH  25  26
ENDBRANCH  24  25
ENDBRANCH  23  24
ENDBRANCH  22  23
ENDBRANCH  21  22
ENDBRANCH  20  21
ENDBRANCH  19  20
ENDBRANCH  18  19
ENDBRANCH  17  18
ENDBRANCH   1  17
TORSDOF 26
ENDMDL
MODEL 8
REMARK VINA RESULT:    -4.015      3.869      8.126
REMARK INTER + INTRA:         -13.694
REMARK INTER:                  -7.896
REMARK INTRA:                  -5.798
REMARK UNBOUND:                -3.576
REMARK SMILES CCCCCCCCCCCCCCCCCCCCCCCCCCCC(=O)[O-]
REMARK SMILES IDX 15 1 16 2 17 3 18 4 19 5 20 6 21 7 22 8 23 9 24 10 25 11
REMARK SMILES IDX 26 12 27 13 28 14 29 15 30 16 14 17 13 18 12 19 11 20 10 21
REMARK SMILES IDX 9 22 8 23 7 24 6 25 5 26 4 27 3 28 2 29 1 30
REMARK H PARENT
REMARK Flexibility Score: inf
ROOT
ATOM      1  C   UNL     1       5.661  -6.739   2.111  1.00  0.00     0.000 C 
ENDROOT
BRANCH   1   2
ATOM      2  C   UNL     1       5.303  -7.529   0.832  1.00  0.00     0.000 C 
BRANCH   2   3
ATOM      3  C   UNL     1       4.243  -6.812  -0.020  1.00  0.00     0.000 C 
BRANCH   3   4
ATOM      4  C   UNL     1       4.461  -5.285  -0.076  1.00  0.00     0.000 C 
BRANCH   4   5
ATOM      5  C   UNL     1       3.230  -4.464   0.353  1.00  0.00     0.000 C 
BRANCH   5   6
ATOM      6  C   UNL     1       3.204  -4.055   1.838  1.00  0.00     0.000 C 
BRANCH   6   7
ATOM      7  C   UNL     1       1.952  -4.506   2.615  1.00  0.00     0.000 C 
BRANCH   7   8
ATOM      8  C   UNL     1       1.049  -5.512   1.874  1.00  0.00     0.000 C 
BRANCH   8   9
ATOM      9  C   UNL     1       0.930  -6.882   2.572  1.00  0.00     0.000 C 
BRANCH   9  10
ATOM     10  C   UNL     1       2.292  -7.421   3.050  1.00  0.00     0.000 C 
BRANCH  10  11
ATOM     11  C   UNL     1       2.186  -8.236   4.347  1.00  0.00     0.000 C 
BRANCH  11  12
ATOM     12  C   UNL     1       2.514  -7.403   5.599  1.00  0.00     0.006 C 
BRANCH  12  13
ATOM     13  C   UNL     1       3.995  -7.507   5.990  1.00  0.00     0.053 C 
BRANCH  13  14
ATOM     14  C   UNL     1       4.731  -6.229   5.721  1.00  0.00     0.041 C 
ATOM     15  O   UNL     1       4.138  -5.258   5.184  1.00  0.00    -0.550 OA
ATOM     16  O   UNL     1       6.084  -6.130   6.023  1.00  0.00    -0.550 OA
ENDBRANCH  13  14
ENDBRANCH  12  13
ENDBRANCH  11  12
ENDBRANCH  10  11
ENDBRANCH   9  10
ENDBRANCH   8   9
ENDBRANCH   7   8
ENDBRANCH   6   7
ENDBRANCH   5   6
ENDBRANCH   4   5
ENDBRANCH   3   4
ENDBRANCH   2   3
ENDBRANCH   1   2
BRANCH   1  17
ATOM     17  C   UNL     1       7.057  -7.066   2.669  1.00  0.00     0.000 C 
BRANCH  17  18
ATOM     18  C   UNL     1       7.935  -5.839   2.986  1.00  0.00     0.000 C 
BRANCH  18  19
ATOM     19  C   UNL     1       7.285  -4.478   2.677  1.00  0.00     0.000 C 
BRANCH  19  20
ATOM     20  C   UNL     1       8.300  -3.326   2.628  1.00  0.00     0.000 C 
BRANCH  20  21
ATOM     21  C   UNL     1       7.765  -2.160   1.789  1.00  0.00     0.000 C 
BRANCH  21  22
ATOM     22  C   UNL     1       6.435  -2.531   1.115  1.00  0.00    -0.000 C 
BRANCH  22  23
ATOM     23  C   UNL     1       5.586  -1.304   0.748  1.00  0.00    -0.000 C 
BRANCH  23  24
ATOM     24  C   UNL     1       5.222  -1.257  -0.745  1.00  0.00    -0.000 C 
BRANCH  24  25
ATOM     25  C   UNL     1       6.358  -1.767  -1.652  1.00  0.00    -0.000 C 
BRANCH  25  26
ATOM     26  C   UNL     1       5.988  -2.953  -2.567  1.00  0.00    -0.000 C 
BRANCH  26  27
ATOM     27  C   UNL     1       7.121  -3.965  -2.817  1.00  0.00    -0.000 C 
BRANCH  27  28
ATOM     28  C   UNL     1       8.197  -3.938  -1.721  1.00  0.00    -0.000 C 
BRANCH  28  29
ATOM     29  C   UNL     1       8.106  -5.186  -0.834  1.00  0.00    -0.003 C 
ATOM     30  C   UNL     1       7.704  -6.411  -1.649  1.00  0.00     0.004 C 
ENDBRANCH  28  29
ENDBRANCH  27  28
ENDBRANCH  26  27
ENDBRANCH  25  26
ENDBRANCH  24  25
ENDBRANCH  23  24
ENDBRANCH  22  23
ENDBRANCH  21  22
ENDBRANCH  20  21
ENDBRANCH  19  20
ENDBRANCH  18  19
ENDBRANCH  17  18
ENDBRANCH   1  17
TORSDOF 26
ENDMDL
MODEL 9
REMARK VINA RESULT:    -4.012      1.819      3.993
REMARK INTER + INTRA:         -13.686
REMARK INTER:                  -8.643
REMARK INTRA:                  -5.044
REMARK UNBOUND:                -3.576
REMARK SMILES CCCCCCCCCCCCCCCCCCCCCCCCCCCC(=O)[O-]
REMARK SMILES IDX 15 1 16 2 17 3 18 4 19 5 20 6 21 7 22 8 23 9 24 10 25 11
REMARK SMILES IDX 26 12 27 13 28 14 29 15 30 16 14 17 13 18 12 19 11 20 10 21
REMARK SMILES IDX 9 22 8 23 7 24 6 25 5 26 4 27 3 28 2 29 1 30
REMARK H PARENT
REMARK Flexibility Score: inf
ROOT
ATOM      1  C   UNL     1       5.490  -1.553  -1.634  1.00  0.00     0.000 C 
ENDROOT
BRANCH   1   2
ATOM      2  C   UNL     1       6.401  -0.306  -1.584  1.00  0.00     0.000 C 
BRANCH   2   3
ATOM      3  C   UNL     1       7.885  -0.659  -1.774  1.00  0.00     0.000 C 
BRANCH   3   4
ATOM      4  C   UNL     1       8.092  -2.109  -2.263  1.00  0.00     0.000 C 
BRANCH   4   5
ATOM      5  C   UNL     1       8.917  -2.981  -1.297  1.00  0.00     0.000 C 
BRANCH   5   6
ATOM      6  C   UNL     1       8.132  -4.117  -0.613  1.00  0.00     0.000 C 
BRANCH   6   7
ATOM      7  C   UNL     1       8.062  -4.025   0.924  1.00  0.00     0.000 C 
BRANCH   7   8
ATOM      8  C   UNL     1       9.007  -2.987   1.561  1.00  0.00     0.000 C 
BRANCH   8   9
ATOM      9  C   UNL     1       8.319  -2.054   2.578  1.00  0.00     0.000 C 
BRANCH   9  10
ATOM     10  C   UNL     1       7.290  -1.117   1.918  1.00  0.00     0.000 C 
BRANCH  10  11
ATOM     11  C   UNL     1       7.604   0.368   2.151  1.00  0.00     0.000 C 
BRANCH  11  12
ATOM     12  C   UNL     1       8.770   0.581   3.133  1.00  0.00     0.006 C 
BRANCH  12  13
ATOM     13  C   UNL     1       8.572   1.832   4.000  1.00  0.00     0.053 C 
BRANCH  13  14
ATOM     14  C   UNL     1       7.885   2.930   3.244  1.00  0.00     0.041 C 
ATOM     15  O   UNL     1       8.506   3.572   2.357  1.00  0.00    -0.550 OA
ATOM     16  O   UNL     1       6.574   3.271   3.553  1.00  0.00    -0.550 OA
ENDBRANCH  13  14
ENDBRANCH  12  13
ENDBRANCH  11  12
ENDBRANCH  10  11
ENDBRANCH   9  10
ENDBRANCH   8   9
ENDBRANCH   7   8
ENDBRANCH   6   7
ENDBRANCH   5   6
ENDBRANCH   4   5
ENDBRANCH   3   4
ENDBRANCH   2   3
ENDBRANCH   1   2
BRANCH   1  17
ATOM     17  C   UNL     1       4.871  -1.920  -0.273  1.00  0.00     0.000 C 
BRANCH  17  18
ATOM     18  C   UNL     1       4.535  -3.413  -0.094  1.00  0.00     0.000 C 
BRANCH  18  19
ATOM     19  C   UNL     1       4.087  -3.813   1.325  1.00  0.00     0.000 C 
BRANCH  19  20
ATOM     20  C   UNL     1       2.581  -4.093   1.422  1.00  0.00     0.000 C 
BRANCH  20  21
ATOM     21  C   UNL     1       2.191  -4.506   2.846  1.00  0.00     0.000 C 
BRANCH  21  22
ATOM     22  C   UNL     1       2.138  -6.035   2.980  1.00  0.00    -0.000 C 
BRANCH  22  23
ATOM     23  C   UNL     1       2.802  -6.548   4.268  1.00  0.00    -0.000 C 
BRANCH  23  24
ATOM     24  C   UNL     1       3.796  -5.539   4.866  1.00  0.00    -0.000 C 
BRANCH  24  25
ATOM     25  C   UNL     1       5.242  -6.070   4.890  1.00  0.00    -0.000 C 
BRANCH  25  26
ATOM     26  C   UNL     1       6.124  -5.633   3.702  1.00  0.00    -0.000 C 
BRANCH  26  27
ATOM     27  C   UNL     1       6.557  -6.768   2.756  1.00  0.00    -0.000 C 
BRANCH  27  28
ATOM     28  C   UNL     1       5.415  -7.263   1.856  1.00  0.00    -0.000 C 
BRANCH  28  29
ATOM     29  C   UNL     1       5.712  -6.969   0.381  1.00  0.00    -0.003 C 
ATOM     30  C   UNL     1       4.456  -7.112  -0.471  1.00  0.00     0.004 C 
ENDBRANCH  28  29
ENDBRANCH  27  28
ENDBRANCH  26  27
ENDBRANCH  25  26
ENDBRANCH  24  25
ENDBRANCH  23  24
ENDBRANCH  22  23
ENDBRANCH  21  22
ENDBRANCH  20  21
ENDBRANCH  19  20
ENDBRANCH  18  19
ENDBRANCH  17  18
ENDBRANCH   1  17
TORSDOF 26
ENDMDL
