MODEL 1
REMARK VINA RESULT:    -3.744      0.000      0.000
REMARK INTER + INTRA:          -8.154
REMARK INTER:                  -6.370
REMARK INTRA:                  -1.784
REMARK UNBOUND:                -1.784
REMARK SMILES CCCCCCCCCCCCCC(=O)[O-]
REMARK SMILES IDX 8 1 9 2 10 3 11 4 12 5 13 6 14 7 15 8 16 9 7 10 6 11 5 12
REMARK SMILES IDX 4 13 3 14 2 15 1 16
REMARK H PARENT
REMARK Flexibility Score: inf
ROOT
ATOM      1  C   UNL     1       8.749   0.718  -6.931  1.00  0.00     0.000 C 
ENDROOT
BRANCH   1   2
ATOM      2  C   UNL     1       8.128  -0.411  -7.769  1.00  0.00     0.000 C 
BRANCH   2   3
ATOM      3  C   UNL     1       7.453  -1.487  -6.891  1.00  0.00     0.000 C 
BRANCH   3   4
ATOM      4  C   UNL     1       6.259  -2.184  -7.572  1.00  0.00     0.000 C 
BRANCH   4   5
ATOM      5  C   UNL     1       5.985  -3.620  -7.087  1.00  0.00     0.006 C 
BRANCH   5   6
ATOM      6  C   UNL     1       5.979  -3.778  -5.557  1.00  0.00     0.053 C 
BRANCH   6   7
ATOM      7  C   UNL     1       7.059  -4.702  -5.087  1.00  0.00     0.041 C 
ATOM      8  O   UNL     1       7.065  -5.120  -3.899  1.00  0.00    -0.550 OA
ATOM      9  O   UNL     1       8.080  -5.075  -5.954  1.00  0.00    -0.550 OA
ENDBRANCH   6   7
ENDBRANCH   5   6
ENDBRANCH   4   5
ENDBRANCH   3   4
ENDBRANCH   2   3
ENDBRANCH   1   2
BRANCH   1  10
ATOM     10  C   UNL     1       8.014   2.061  -7.100  1.00  0.00     0.000 C 
BRANCH  10  11
ATOM     11  C   UNL     1       6.976   2.093  -8.239  1.00  0.00    -0.000 C 
BRANCH  11  12
ATOM     12  C   UNL     1       5.523   2.362  -7.795  1.00  0.00    -0.000 C 
BRANCH  12  13
ATOM     13  C   UNL     1       4.624   1.114  -7.726  1.00  0.00    -0.000 C 
BRANCH  13  14
ATOM     14  C   UNL     1       3.790   1.050  -6.438  1.00  0.00    -0.000 C 
BRANCH  14  15
ATOM     15  C   UNL     1       4.407   0.070  -5.433  1.00  0.00    -0.003 C 
ATOM     16  C   UNL     1       5.493   0.745  -4.600  1.00  0.00     0.004 C 
ENDBRANCH  14  15
ENDBRANCH  13  14
ENDBRANCH  12  13
ENDBRANCH  11  12
ENDBRANCH  10  11
ENDBRANCH   1  10
TORSDOF 12
ENDMDL
MODEL 2
REMARK VINA RESULT:    -3.667      1.257      1.841
REMARK INTER + INTRA:          -8.023
REMARK INTER:                  -6.405
REMARK INTRA:                  -1.618
REMARK UNBOUND:                -1.784
REMARK SMILES CCCCCCCCCCCCCC(=O)[O-]
REMARK SMILES IDX 8 1 9 2 10 3 11 4 12 5 13 6 14 7 15 8 16 9 7 10 6 11 5 12
REMARK SMILES IDX 4 13 3 14 2 15 1 16
REMARK H PARENT
REMARK Flexibility Score: inf
ROOT
ATOM      1  C   UNL     1       6.003  -0.715  -8.686  1.00  0.00     0.000 C 
ENDROOT
BRANCH   1   2
ATOM      2  C   UNL     1       7.332  -0.637  -7.917  1.00  0.00     0.000 C 
BRANCH   2   3
ATOM      3  C   UNL     1       7.733  -1.996  -7.304  1.00  0.00     0.000 C 
BRANCH   3   4
ATOM      4  C   UNL     1       7.161  -2.233  -5.893  1.00  0.00     0.000 C 
BRANCH   4   5
ATOM      5  C   UNL     1       5.876  -3.082  -5.850  1.00  0.00     0.006 C 
BRANCH   5   6
ATOM      6  C   UNL     1       6.103  -4.583  -6.090  1.00  0.00     0.053 C 
BRANCH   6   7
ATOM      7  C   UNL     1       7.247  -5.111  -5.281  1.00  0.00     0.041 C 
ATOM      8  O   UNL     1       8.286  -5.535  -5.851  1.00  0.00    -0.550 OA
ATOM      9  O   UNL     1       7.152  -5.164  -3.895  1.00  0.00    -0.550 OA
ENDBRANCH   6   7
ENDBRANCH   5   6
ENDBRANCH   4   5
ENDBRANCH   3   4
ENDBRANCH   2   3
ENDBRANCH   1   2
BRANCH   1  10
ATOM     10  C   UNL     1       5.772   0.499  -9.605  1.00  0.00     0.000 C 
BRANCH  10  11
ATOM     11  C   UNL     1       4.712   1.500  -9.104  1.00  0.00    -0.000 C 
BRANCH  11  12
ATOM     12  C   UNL     1       5.230   2.563  -8.114  1.00  0.00    -0.000 C 
BRANCH  12  13
ATOM     13  C   UNL     1       4.696   2.427  -6.676  1.00  0.00    -0.000 C 
BRANCH  13  14
ATOM     14  C   UNL     1       3.778   1.210  -6.494  1.00  0.00    -0.000 C 
BRANCH  14  15
ATOM     15  C   UNL     1       4.387   0.207  -5.506  1.00  0.00    -0.003 C 
ATOM     16  C   UNL     1       5.537   0.833  -4.724  1.00  0.00     0.004 C 
ENDBRANCH  14  15
ENDBRANCH  13  14
ENDBRANCH  12  13
ENDBRANCH  11  12
ENDBRANCH  10  11
ENDBRANCH   1  10
TORSDOF 12
ENDMDL
MODEL 3
REMARK VINA RESULT:    -3.648      1.824      3.078
REMARK INTER + INTRA:          -7.991
REMARK INTER:                  -6.449
REMARK INTRA:                  -1.542
REMARK UNBOUND:                -1.784
REMARK SMILES CCCCCCCCCCCCCC(=O)[O-]
REMARK SMILES IDX 8 1 9 2 10 3 11 4 12 5 13 6 14 7 15 8 16 9 7 10 6 11 5 12
REMARK SMILES IDX 4 13 3 14 2 15 1 16
REMARK H PARENT
REMARK Flexibility Score: inf
ROOT
ATOM      1  C   UNL     1       5.161   1.194  -5.299  1.00  0.00     0.000 C 
ENDROOT
BRANCH   1   2
ATOM      2  C   UNL     1       6.211   0.129  -5.651  1.00  0.00     0.000 C 
BRANCH   2   3
ATOM      3  C   UNL     1       5.579  -1.259  -5.891  1.00  0.00     0.000 C 
BRANCH   3   4
ATOM      4  C   UNL     1       6.585  -2.423  -5.805  1.00  0.00     0.000 C 
BRANCH   4   5
ATOM      5  C   UNL     1       5.964  -3.792  -5.467  1.00  0.00     0.006 C 
BRANCH   5   6
ATOM      6  C   UNL     1       6.968  -4.825  -4.930  1.00  0.00     0.053 C 
BRANCH   6   7
ATOM      7  C   UNL     1       7.694  -5.525  -6.037  1.00  0.00     0.041 C 
ATOM      8  O   UNL     1       8.816  -6.056  -5.824  1.00  0.00    -0.550 OA
ATOM      9  O   UNL     1       7.146  -5.562  -7.313  1.00  0.00    -0.550 OA
ENDBRANCH   6   7
ENDBRANCH   5   6
ENDBRANCH   4   5
ENDBRANCH   3   4
ENDBRANCH   2   3
ENDBRANCH   1   2
BRANCH   1  10
ATOM     10  C   UNL     1       3.954   1.182  -6.255  1.00  0.00     0.000 C 
BRANCH  10  11
ATOM     11  C   UNL     1       4.077   2.127  -7.467  1.00  0.00    -0.000 C 
BRANCH  11  12
ATOM     12  C   UNL     1       4.284   1.428  -8.826  1.00  0.00    -0.000 C 
BRANCH  12  13
ATOM     13  C   UNL     1       5.748   1.096  -9.169  1.00  0.00    -0.000 C 
BRANCH  13  14
ATOM     14  C   UNL     1       5.948  -0.371  -9.574  1.00  0.00    -0.000 C 
BRANCH  14  15
ATOM     15  C   UNL     1       4.645  -1.165  -9.421  1.00  0.00    -0.003 C 
ATOM     16  C   UNL     1       4.921  -2.660  -9.301  1.00  0.00     0.004 C 
ENDBRANCH  14  15
ENDBRANCH  13  14
ENDBRANCH  12  13
ENDBRANCH  11  12
ENDBRANCH  10  11
ENDBRANCH   1  10
TORSDOF 12
ENDMDL
MODEL 4
REMARK VINA RESULT:    -3.607      0.911      3.056
REMARK INTER + INTRA:          -7.921
REMARK INTER:                  -6.086
REMARK INTRA:                  -1.835
REMARK UNBOUND:                -1.784
REMARK SMILES CCCCCCCCCCCCCC(=O)[O-]
REMARK SMILES IDX 8 1 9 2 10 3 11 4 12 5 13 6 14 7 15 8 16 9 7 10 6 11 5 12
REMARK SMILES IDX 4 13 3 14 2 15 1 16
REMARK H PARENT
REMARK Flexibility Score: inf
ROOT
ATOM      1  C   UNL     1       4.391   1.228  -5.969  1.00  0.00     0.000 C 
ENDROOT
BRANCH   1   2
ATOM      2  C   UNL     1       5.591   0.836  -5.091  1.00  0.00     0.000 C 
BRANCH   2   3
ATOM      3  C   UNL     1       5.947  -0.660  -5.223  1.00  0.00     0.000 C 
BRANCH   3   4
ATOM      4  C   UNL     1       5.541  -1.278  -6.575  1.00  0.00     0.000 C 
BRANCH   4   5
ATOM      5  C   UNL     1       6.099  -2.690  -6.835  1.00  0.00     0.006 C 
BRANCH   5   6
ATOM      6  C   UNL     1       5.760  -3.714  -5.740  1.00  0.00     0.053 C 
BRANCH   6   7
ATOM      7  C   UNL     1       6.967  -4.484  -5.302  1.00  0.00     0.041 C 
ATOM      8  O   UNL     1       7.878  -4.760  -6.127  1.00  0.00    -0.550 OA
ATOM      9  O   UNL     1       7.072  -4.925  -3.988  1.00  0.00    -0.550 OA
ENDBRANCH   6   7
ENDBRANCH   5   6
ENDBRANCH   4   5
ENDBRANCH   3   4
ENDBRANCH   2   3
ENDBRANCH   1   2
BRANCH   1  10
ATOM     10  C   UNL     1       4.678   2.450  -6.861  1.00  0.00     0.000 C 
BRANCH  10  11
ATOM     11  C   UNL     1       5.044   2.116  -8.321  1.00  0.00    -0.000 C 
BRANCH  11  12
ATOM     12  C   UNL     1       6.524   2.343  -8.695  1.00  0.00    -0.000 C 
BRANCH  12  13
ATOM     13  C   UNL     1       7.372   3.021  -7.603  1.00  0.00    -0.000 C 
BRANCH  13  14
ATOM     14  C   UNL     1       8.449   2.095  -7.023  1.00  0.00    -0.000 C 
BRANCH  14  15
ATOM     15  C   UNL     1       8.457   0.743  -7.746  1.00  0.00    -0.003 C 
ATOM     16  C   UNL     1       9.254  -0.297  -6.964  1.00  0.00     0.004 C 
ENDBRANCH  14  15
ENDBRANCH  13  14
ENDBRANCH  12  13
ENDBRANCH  11  12
ENDBRANCH  10  11
ENDBRANCH   1  10
TORSDOF 12
ENDMDL
MODEL 5
REMARK VINA RESULT:    -3.604      0.970      2.873
REMARK INTER + INTRA:          -7.916
REMARK INTER:                  -6.095
REMARK INTRA:                  -1.821
REMARK UNBOUND:                -1.784
REMARK SMILES CCCCCCCCCCCCCC(=O)[O-]
REMARK SMILES IDX 8 1 9 2 10 3 11 4 12 5 13 6 14 7 15 8 16 9 7 10 6 11 5 12
REMARK SMILES IDX 4 13 3 14 2 15 1 16
REMARK H PARENT
REMARK Flexibility Score: inf
ROOT
ATOM      1  C   UNL     1       4.488   0.379  -5.615  1.00  0.00     0.000 C 
ENDROOT
BRANCH   1   2
ATOM      2  C   UNL     1       5.921   0.149  -5.106  1.00  0.00     0.000 C 
BRANCH   2   3
ATOM      3  C   UNL     1       6.619  -1.020  -5.833  1.00  0.00     0.000 C 
BRANCH   3   4
ATOM      4  C   UNL     1       5.649  -1.951  -6.585  1.00  0.00     0.000 C 
BRANCH   4   5
ATOM      5  C   UNL     1       6.220  -3.340  -6.930  1.00  0.00     0.006 C 
BRANCH   5   6
ATOM      6  C   UNL     1       5.879  -4.433  -5.904  1.00  0.00     0.053 C 
BRANCH   6   7
ATOM      7  C   UNL     1       7.095  -4.908  -5.170  1.00  0.00     0.041 C 
ATOM      8  O   UNL     1       7.099  -4.953  -3.911  1.00  0.00    -0.550 OA
ATOM      9  O   UNL     1       8.235  -5.271  -5.876  1.00  0.00    -0.550 OA
ENDBRANCH   6   7
ENDBRANCH   5   6
ENDBRANCH   4   5
ENDBRANCH   3   4
ENDBRANCH   2   3
ENDBRANCH   1   2
BRANCH   1  10
ATOM     10  C   UNL     1       4.393   1.533  -6.630  1.00  0.00     0.000 C 
BRANCH  10  11
ATOM     11  C   UNL     1       3.943   1.118  -8.045  1.00  0.00    -0.000 C 
BRANCH  11  12
ATOM     12  C   UNL     1       5.072   0.627  -8.975  1.00  0.00    -0.000 C 
BRANCH  12  13
ATOM     13  C   UNL     1       6.324   1.523  -9.005  1.00  0.00    -0.000 C 
BRANCH  13  14
ATOM     14  C   UNL     1       7.632   0.721  -8.959  1.00  0.00    -0.000 C 
BRANCH  14  15
ATOM     15  C   UNL     1       8.595   1.303  -7.917  1.00  0.00    -0.003 C 
ATOM     16  C   UNL     1       7.972   2.494  -7.195  1.00  0.00     0.004 C 
ENDBRANCH  14  15
ENDBRANCH  13  14
ENDBRANCH  12  13
ENDBRANCH  11  12
ENDBRANCH  10  11
ENDBRANCH   1  10
TORSDOF 12
ENDMDL
MODEL 6
REMARK VINA RESULT:    -3.556      1.251      2.620
REMARK INTER + INTRA:          -7.835
REMARK INTER:                  -6.361
REMARK INTRA:                  -1.474
REMARK UNBOUND:                -1.784
REMARK SMILES CCCCCCCCCCCCCC(=O)[O-]
REMARK SMILES IDX 8 1 9 2 10 3 11 4 12 5 13 6 14 7 15 8 16 9 7 10 6 11 5 12
REMARK SMILES IDX 4 13 3 14 2 15 1 16
REMARK H PARENT
REMARK Flexibility Score: inf
ROOT
ATOM      1  C   UNL     1       6.293  -0.365  -5.489  1.00  0.00     0.000 C 
ENDROOT
BRANCH   1   2
ATOM      2  C   UNL     1       5.678  -1.622  -6.128  1.00  0.00     0.000 C 
BRANCH   2   3
ATOM      3  C   UNL     1       5.978  -1.715  -7.639  1.00  0.00     0.000 C 
BRANCH   3   4
ATOM      4  C   UNL     1       6.013  -3.158  -8.177  1.00  0.00     0.000 C 
BRANCH   4   5
ATOM      5  C   UNL     1       5.873  -4.253  -7.102  1.00  0.00     0.006 C 
BRANCH   5   6
ATOM      6  C   UNL     1       7.199  -4.928  -6.713  1.00  0.00     0.053 C 
BRANCH   6   7
ATOM      7  C   UNL     1       7.246  -5.270  -5.256  1.00  0.00     0.041 C 
ATOM      8  O   UNL     1       6.677  -4.529  -4.411  1.00  0.00    -0.550 OA
ATOM      9  O   UNL     1       7.946  -6.391  -4.828  1.00  0.00    -0.550 OA
ENDBRANCH   6   7
ENDBRANCH   5   6
ENDBRANCH   4   5
ENDBRANCH   3   4
ENDBRANCH   2   3
ENDBRANCH   1   2
BRANCH   1  10
ATOM     10  C   UNL     1       5.231   0.630  -4.987  1.00  0.00     0.000 C 
BRANCH  10  11
ATOM     11  C   UNL     1       4.045   0.853  -5.947  1.00  0.00    -0.000 C 
BRANCH  11  12
ATOM     12  C   UNL     1       4.086   2.171  -6.747  1.00  0.00    -0.000 C 
BRANCH  12  13
ATOM     13  C   UNL     1       4.389   2.010  -8.248  1.00  0.00    -0.000 C 
BRANCH  13  14
ATOM     14  C   UNL     1       5.894   2.002  -8.556  1.00  0.00    -0.000 C 
BRANCH  14  15
ATOM     15  C   UNL     1       6.643   2.990  -7.653  1.00  0.00    -0.003 C 
ATOM     16  C   UNL     1       7.952   2.392  -7.148  1.00  0.00     0.004 C 
ENDBRANCH  14  15
ENDBRANCH  13  14
ENDBRANCH  12  13
ENDBRANCH  11  12
ENDBRANCH  10  11
ENDBRANCH   1  10
TORSDOF 12
ENDMDL
MODEL 7
REMARK VINA RESULT:    -3.521      1.049      2.381
REMARK INTER + INTRA:          -7.775
REMARK INTER:                  -5.906
REMARK INTRA:                  -1.870
REMARK UNBOUND:                -1.784
REMARK SMILES CCCCCCCCCCCCCC(=O)[O-]
REMARK SMILES IDX 8 1 9 2 10 3 11 4 12 5 13 6 14 7 15 8 16 9 7 10 6 11 5 12
REMARK SMILES IDX 4 13 3 14 2 15 1 16
REMARK H PARENT
REMARK Flexibility Score: inf
ROOT
ATOM      1  C   UNL     1       7.911   0.669  -6.751  1.00  0.00     0.000 C 
ENDROOT
BRANCH   1   2
ATOM      2  C   UNL     1       7.682   0.298  -8.225  1.00  0.00     0.000 C 
BRANCH   2   3
ATOM      3  C   UNL     1       7.101  -1.124  -8.386  1.00  0.00     0.000 C 
BRANCH   3   4
ATOM      4  C   UNL     1       7.275  -2.009  -7.137  1.00  0.00     0.000 C 
BRANCH   4   5
ATOM      5  C   UNL     1       6.017  -2.795  -6.719  1.00  0.00     0.006 C 
BRANCH   5   6
ATOM      6  C   UNL     1       6.086  -3.391  -5.304  1.00  0.00     0.053 C 
BRANCH   6   7
ATOM      7  C   UNL     1       6.740  -4.738  -5.297  1.00  0.00     0.041 C 
ATOM      8  O   UNL     1       6.828  -5.407  -6.360  1.00  0.00    -0.550 OA
ATOM      9  O   UNL     1       7.225  -5.268  -4.107  1.00  0.00    -0.550 OA
ENDBRANCH   6   7
ENDBRANCH   5   6
ENDBRANCH   4   5
ENDBRANCH   3   4
ENDBRANCH   2   3
ENDBRANCH   1   2
BRANCH   1  10
ATOM     10  C   UNL     1       6.750   1.485  -6.153  1.00  0.00     0.000 C 
BRANCH  10  11
ATOM     11  C   UNL     1       5.829   0.698  -5.198  1.00  0.00    -0.000 C 
BRANCH  11  12
ATOM     12  C   UNL     1       4.439   0.350  -5.767  1.00  0.00    -0.000 C 
BRANCH  12  13
ATOM     13  C   UNL     1       3.889   1.353  -6.798  1.00  0.00    -0.000 C 
BRANCH  13  14
ATOM     14  C   UNL     1       3.968   0.830  -8.240  1.00  0.00    -0.000 C 
BRANCH  14  15
ATOM     15  C   UNL     1       3.872   1.982  -9.247  1.00  0.00    -0.003 C 
ATOM     16  C   UNL     1       5.125   2.851  -9.212  1.00  0.00     0.004 C 
ENDBRANCH  14  15
ENDBRANCH  13  14
ENDBRANCH  12  13
ENDBRANCH  11  12
ENDBRANCH  10  11
ENDBRANCH   1  10
TORSDOF 12
ENDMDL
MODEL 8
REMARK VINA RESULT:    -3.521      1.279      2.704
REMARK INTER + INTRA:          -7.775
REMARK INTER:                  -6.178
REMARK INTRA:                  -1.597
REMARK UNBOUND:                -1.784
REMARK SMILES CCCCCCCCCCCCCC(=O)[O-]
REMARK SMILES IDX 8 1 9 2 10 3 11 4 12 5 13 6 14 7 15 8 16 9 7 10 6 11 5 12
REMARK SMILES IDX 4 13 3 14 2 15 1 16
REMARK H PARENT
REMARK Flexibility Score: inf
ROOT
ATOM      1  C   UNL     1       6.858  -0.950  -7.988  1.00  0.00     0.000 C 
ENDROOT
BRANCH   1   2
ATOM      2  C   UNL     1       5.491  -1.313  -8.593  1.00  0.00     0.000 C 
BRANCH   2   3
ATOM      3  C   UNL     1       5.541  -2.626  -9.403  1.00  0.00     0.000 C 
BRANCH   3   4
ATOM      4  C   UNL     1       5.183  -3.878  -8.579  1.00  0.00     0.000 C 
BRANCH   4   5
ATOM      5  C   UNL     1       6.330  -4.430  -7.710  1.00  0.00     0.006 C 
BRANCH   5   6
ATOM      6  C   UNL     1       6.018  -4.467  -6.205  1.00  0.00     0.053 C 
BRANCH   6   7
ATOM      7  C   UNL     1       7.049  -5.238  -5.440  1.00  0.00     0.041 C 
ATOM      8  O   UNL     1       7.641  -6.213  -5.976  1.00  0.00    -0.550 OA
ATOM      9  O   UNL     1       7.334  -4.900  -4.123  1.00  0.00    -0.550 OA
ENDBRANCH   6   7
ENDBRANCH   5   6
ENDBRANCH   4   5
ENDBRANCH   3   4
ENDBRANCH   2   3
ENDBRANCH   1   2
BRANCH   1  10
ATOM     10  C   UNL     1       6.784  -0.654  -6.479  1.00  0.00     0.000 C 
BRANCH  10  11
ATOM     11  C   UNL     1       5.500  -1.146  -5.783  1.00  0.00    -0.000 C 
BRANCH  11  12
ATOM     12  C   UNL     1       4.642  -0.041  -5.133  1.00  0.00    -0.000 C 
BRANCH  12  13
ATOM     13  C   UNL     1       4.967   1.391  -5.597  1.00  0.00    -0.000 C 
BRANCH  13  14
ATOM     14  C   UNL     1       4.053   1.872  -6.733  1.00  0.00    -0.000 C 
BRANCH  14  15
ATOM     15  C   UNL     1       4.877   2.350  -7.934  1.00  0.00    -0.003 C 
ATOM     16  C   UNL     1       6.208   2.948  -7.487  1.00  0.00     0.004 C 
ENDBRANCH  14  15
ENDBRANCH  13  14
ENDBRANCH  12  13
ENDBRANCH  11  12
ENDBRANCH  10  11
ENDBRANCH   1  10
TORSDOF 12
ENDMDL
MODEL 9
REMARK VINA RESULT:    -3.507      1.364      2.852
REMARK INTER + INTRA:          -7.752
REMARK INTER:                  -5.828
REMARK INTRA:                  -1.924
REMARK UNBOUND:                -1.784
REMARK SMILES CCCCCCCCCCCCCC(=O)[O-]
REMARK SMILES IDX 8 1 9 2 10 3 11 4 12 5 13 6 14 7 15 8 16 9 7 10 6 11 5 12
REMARK SMILES IDX 4 13 3 14 2 15 1 16
REMARK H PARENT
REMARK Flexibility Score: inf
ROOT
ATOM      1  C   UNL     1       4.385  -0.383  -8.924  1.00  0.00     0.000 C 
ENDROOT
BRANCH   1   2
ATOM      2  C   UNL     1       5.672  -0.759  -9.677  1.00  0.00     0.000 C 
BRANCH   2   3
ATOM      3  C   UNL     1       6.094  -2.221  -9.419  1.00  0.00     0.000 C 
BRANCH   3   4
ATOM      4  C   UNL     1       5.230  -2.939  -8.364  1.00  0.00     0.000 C 
BRANCH   4   5
ATOM      5  C   UNL     1       5.895  -4.165  -7.708  1.00  0.00     0.006 C 
BRANCH   5   6
ATOM      6  C   UNL     1       5.855  -4.156  -6.171  1.00  0.00     0.053 C 
BRANCH   6   7
ATOM      7  C   UNL     1       7.115  -4.704  -5.577  1.00  0.00     0.041 C 
ATOM      8  O   UNL     1       8.175  -4.739  -6.256  1.00  0.00    -0.550 OA
ATOM      9  O   UNL     1       7.110  -5.208  -4.282  1.00  0.00    -0.550 OA
ENDBRANCH   6   7
ENDBRANCH   5   6
ENDBRANCH   4   5
ENDBRANCH   3   4
ENDBRANCH   2   3
ENDBRANCH   1   2
BRANCH   1  10
ATOM     10  C   UNL     1       4.298   1.120  -8.602  1.00  0.00     0.000 C 
BRANCH  10  11
ATOM     11  C   UNL     1       3.871   1.450  -7.158  1.00  0.00    -0.000 C 
BRANCH  11  12
ATOM     12  C   UNL     1       5.029   1.618  -6.153  1.00  0.00    -0.000 C 
BRANCH  12  13
ATOM     13  C   UNL     1       5.136   0.506  -5.094  1.00  0.00    -0.000 C 
BRANCH  13  14
ATOM     14  C   UNL     1       6.098  -0.618  -5.504  1.00  0.00    -0.000 C 
BRANCH  14  15
ATOM     15  C   UNL     1       7.229  -0.076  -6.387  1.00  0.00    -0.003 C 
ATOM     16  C   UNL     1       8.197  -1.186  -6.785  1.00  0.00     0.004 C 
ENDBRANCH  14  15
ENDBRANCH  13  14
ENDBRANCH  12  13
ENDBRANCH  11  12
ENDBRANCH  10  11
ENDBRANCH   1  10
TORSDOF 12
ENDMDL
