MODEL 1
REMARK VINA RESULT:    -4.937      0.000      0.000
REMARK INTER + INTRA:         -10.292
REMARK INTER:                  -8.978
REMARK INTRA:                  -1.314
REMARK UNBOUND:                -1.314
REMARK SMILES CCCCCCCCCCCCCCCC(=O)[O-]
REMARK SMILES IDX 9 1 10 2 11 3 12 4 13 5 14 6 15 7 16 8 17 9 18 10 8 11 7 12
REMARK SMILES IDX 6 13 5 14 4 15 3 16 2 17 1 18
REMARK H PARENT
REMARK Flexibility Score: inf
ROOT
ATOM      1  C   UNL     1      22.740 -11.226  28.223  1.00  0.00     0.000 C 
ENDROOT
BRANCH   1   2
ATOM      2  C   UNL     1      22.781  -9.736  27.835  1.00  0.00     0.000 C 
BRANCH   2   3
ATOM      3  C   UNL     1      21.662  -9.281  26.879  1.00  0.00     0.000 C 
BRANCH   3   4
ATOM      4  C   UNL     1      20.261  -9.252  27.530  1.00  0.00     0.000 C 
BRANCH   4   5
ATOM      5  C   UNL     1      20.238  -8.437  28.835  1.00  0.00     0.000 C 
BRANCH   5   6
ATOM      6  C   UNL     1      19.875  -9.289  30.067  1.00  0.00     0.006 C 
BRANCH   6   7
ATOM      7  C   UNL     1      19.462 -10.731  29.724  1.00  0.00     0.053 C 
BRANCH   7   8
ATOM      8  C   UNL     1      19.163 -11.548  30.941  1.00  0.00     0.041 C 
ATOM      9  O   UNL     1      19.934 -12.482  31.285  1.00  0.00    -0.550 OA
ATOM     10  O   UNL     1      18.030 -11.277  31.699  1.00  0.00    -0.550 OA
ENDBRANCH   7   8
ENDBRANCH   6   7
ENDBRANCH   5   6
ENDBRANCH   4   5
ENDBRANCH   3   4
ENDBRANCH   2   3
ENDBRANCH   1   2
BRANCH   1  11
ATOM     11  C   UNL     1      23.874 -12.081  27.627  1.00  0.00     0.000 C 
BRANCH  11  12
ATOM     12  C   UNL     1      25.270 -11.641  28.101  1.00  0.00    -0.000 C 
BRANCH  12  13
ATOM     13  C   UNL     1      26.390 -12.149  27.169  1.00  0.00    -0.000 C 
BRANCH  13  14
ATOM     14  C   UNL     1      25.991 -12.163  25.683  1.00  0.00    -0.000 C 
BRANCH  14  15
ATOM     15  C   UNL     1      26.200 -13.535  25.023  1.00  0.00    -0.000 C 
BRANCH  15  16
ATOM     16  C   UNL     1      25.591 -14.685  25.841  1.00  0.00    -0.000 C 
BRANCH  16  17
ATOM     17  C   UNL     1      24.306 -15.242  25.210  1.00  0.00    -0.003 C 
ATOM     18  C   UNL     1      23.309 -15.671  26.282  1.00  0.00     0.004 C 
ENDBRANCH  16  17
ENDBRANCH  15  16
ENDBRANCH  14  15
ENDBRANCH  13  14
ENDBRANCH  12  13
ENDBRANCH  11  12
ENDBRANCH   1  11
TORSDOF 14
ENDMDL
MODEL 2
REMARK VINA RESULT:    -4.892      1.573      1.995
REMARK INTER + INTRA:         -10.209
REMARK INTER:                  -8.933
REMARK INTRA:                  -1.276
REMARK UNBOUND:                -1.314
REMARK SMILES CCCCCCCCCCCCCCCC(=O)[O-]
REMARK SMILES IDX 9 1 10 2 11 3 12 4 13 5 14 6 15 7 16 8 17 9 18 10 8 11 7 12
REMARK SMILES IDX 6 13 5 14 4 15 3 16 2 17 1 18
REMARK H PARENT
REMARK Flexibility Score: inf
ROOT
ATOM      1  C   UNL     1      22.180 -10.595  28.151  1.00  0.00     0.000 C 
ENDROOT
BRANCH   1   2
ATOM      2  C   UNL     1      21.989  -9.391  27.210  1.00  0.00     0.000 C 
BRANCH   2   3
ATOM      3  C   UNL     1      20.536  -8.898  27.071  1.00  0.00     0.000 C 
BRANCH   3   4
ATOM      4  C   UNL     1      20.052  -8.042  28.261  1.00  0.00     0.000 C 
BRANCH   4   5
ATOM      5  C   UNL     1      18.974  -8.755  29.096  1.00  0.00     0.000 C 
BRANCH   5   6
ATOM      6  C   UNL     1      19.431  -9.050  30.538  1.00  0.00     0.006 C 
BRANCH   6   7
ATOM      7  C   UNL     1      20.837  -8.518  30.865  1.00  0.00     0.053 C 
BRANCH   7   8
ATOM      8  C   UNL     1      21.618  -9.452  31.735  1.00  0.00     0.041 C 
ATOM      9  O   UNL     1      21.027 -10.339  32.405  1.00  0.00    -0.550 OA
ATOM     10  O   UNL     1      23.001  -9.344  31.804  1.00  0.00    -0.550 OA
ENDBRANCH   7   8
ENDBRANCH   6   7
ENDBRANCH   5   6
ENDBRANCH   4   5
ENDBRANCH   3   4
ENDBRANCH   2   3
ENDBRANCH   1   2
BRANCH   1  11
ATOM     11  C   UNL     1      23.647 -10.944  28.465  1.00  0.00     0.000 C 
BRANCH  11  12
ATOM     12  C   UNL     1      24.214 -12.037  27.543  1.00  0.00    -0.000 C 
BRANCH  12  13
ATOM     13  C   UNL     1      25.756 -12.083  27.572  1.00  0.00    -0.000 C 
BRANCH  13  14
ATOM     14  C   UNL     1      26.353 -13.187  26.683  1.00  0.00    -0.000 C 
BRANCH  14  15
ATOM     15  C   UNL     1      25.962 -13.038  25.204  1.00  0.00    -0.000 C 
BRANCH  15  16
ATOM     16  C   UNL     1      25.264 -14.290  24.648  1.00  0.00    -0.000 C 
BRANCH  16  17
ATOM     17  C   UNL     1      25.003 -15.349  25.731  1.00  0.00    -0.003 C 
ATOM     18  C   UNL     1      23.510 -15.632  25.873  1.00  0.00     0.004 C 
ENDBRANCH  16  17
ENDBRANCH  15  16
ENDBRANCH  14  15
ENDBRANCH  13  14
ENDBRANCH  12  13
ENDBRANCH  11  12
ENDBRANCH   1  11
TORSDOF 14
ENDMDL
MODEL 3
REMARK VINA RESULT:    -4.845      1.156      2.018
REMARK INTER + INTRA:         -10.125
REMARK INTER:                  -8.947
REMARK INTRA:                  -1.178
REMARK UNBOUND:                -1.314
REMARK SMILES CCCCCCCCCCCCCCCC(=O)[O-]
REMARK SMILES IDX 9 1 10 2 11 3 12 4 13 5 14 6 15 7 16 8 17 9 18 10 8 11 7 12
REMARK SMILES IDX 6 13 5 14 4 15 3 16 2 17 1 18
REMARK H PARENT
REMARK Flexibility Score: inf
ROOT
ATOM      1  C   UNL     1      21.915  -9.374  26.960  1.00  0.00     0.000 C 
ENDROOT
BRANCH   1   2
ATOM      2  C   UNL     1      20.498  -8.842  27.245  1.00  0.00     0.000 C 
BRANCH   2   3
ATOM      3  C   UNL     1      20.274  -8.323  28.678  1.00  0.00     0.000 C 
BRANCH   3   4
ATOM      4  C   UNL     1      19.040  -8.936  29.377  1.00  0.00     0.000 C 
BRANCH   4   5
ATOM      5  C   UNL     1      19.284  -9.197  30.874  1.00  0.00     0.000 C 
BRANCH   5   6
ATOM      6  C   UNL     1      20.742  -8.934  31.298  1.00  0.00     0.006 C 
BRANCH   6   7
ATOM      7  C   UNL     1      21.519 -10.209  31.671  1.00  0.00     0.053 C 
BRANCH   7   8
ATOM      8  C   UNL     1      20.637 -11.413  31.768  1.00  0.00     0.041 C 
ATOM      9  O   UNL     1      20.466 -12.156  30.767  1.00  0.00    -0.550 OA
ATOM     10  O   UNL     1      20.003 -11.716  32.967  1.00  0.00    -0.550 OA
ENDBRANCH   7   8
ENDBRANCH   6   7
ENDBRANCH   5   6
ENDBRANCH   4   5
ENDBRANCH   3   4
ENDBRANCH   2   3
ENDBRANCH   1   2
BRANCH   1  11
ATOM     11  C   UNL     1      22.727  -9.758  28.211  1.00  0.00     0.000 C 
BRANCH  11  12
ATOM     12  C   UNL     1      22.918 -11.278  28.357  1.00  0.00    -0.000 C 
BRANCH  12  13
ATOM     13  C   UNL     1      24.367 -11.715  28.054  1.00  0.00    -0.000 C 
BRANCH  13  14
ATOM     14  C   UNL     1      24.593 -12.112  26.586  1.00  0.00    -0.000 C 
BRANCH  14  15
ATOM     15  C   UNL     1      25.591 -13.270  26.427  1.00  0.00    -0.000 C 
BRANCH  15  16
ATOM     16  C   UNL     1      25.307 -14.130  25.186  1.00  0.00    -0.000 C 
BRANCH  16  17
ATOM     17  C   UNL     1      24.925 -15.574  25.544  1.00  0.00    -0.003 C 
ATOM     18  C   UNL     1      23.454 -15.672  25.939  1.00  0.00     0.004 C 
ENDBRANCH  16  17
ENDBRANCH  15  16
ENDBRANCH  14  15
ENDBRANCH  13  14
ENDBRANCH  12  13
ENDBRANCH  11  12
ENDBRANCH   1  11
TORSDOF 14
ENDMDL
MODEL 4
REMARK VINA RESULT:    -4.792      6.512     10.618
REMARK INTER + INTRA:         -10.029
REMARK INTER:                  -8.843
REMARK INTRA:                  -1.186
REMARK UNBOUND:                -1.314
REMARK SMILES CCCCCCCCCCCCCCCC(=O)[O-]
REMARK SMILES IDX 9 1 10 2 11 3 12 4 13 5 14 6 15 7 16 8 17 9 18 10 8 11 7 12
REMARK SMILES IDX 6 13 5 14 4 15 3 16 2 17 1 18
REMARK H PARENT
REMARK Flexibility Score: inf
ROOT
ATOM      1  C   UNL     1      26.472 -15.784  24.666  1.00  0.00     0.000 C 
ENDROOT
BRANCH   1   2
ATOM      2  C   UNL     1      26.555 -15.499  23.155  1.00  0.00     0.000 C 
BRANCH   2   3
ATOM      3  C   UNL     1      27.580 -16.355  22.387  1.00  0.00     0.000 C 
BRANCH   3   4
ATOM      4  C   UNL     1      27.597 -17.839  22.812  1.00  0.00     0.000 C 
BRANCH   4   5
ATOM      5  C   UNL     1      27.898 -18.783  21.635  1.00  0.00     0.000 C 
BRANCH   5   6
ATOM      6  C   UNL     1      29.319 -19.377  21.693  1.00  0.00     0.006 C 
BRANCH   6   7
ATOM      7  C   UNL     1      29.376 -20.796  22.284  1.00  0.00     0.053 C 
BRANCH   7   8
ATOM      8  C   UNL     1      29.965 -20.823  23.659  1.00  0.00     0.041 C 
ATOM      9  O   UNL     1      29.301 -20.407  24.643  1.00  0.00    -0.550 OA
ATOM     10  O   UNL     1      31.252 -21.311  23.854  1.00  0.00    -0.550 OA
ENDBRANCH   7   8
ENDBRANCH   6   7
ENDBRANCH   5   6
ENDBRANCH   4   5
ENDBRANCH   3   4
ENDBRANCH   2   3
ENDBRANCH   1   2
BRANCH   1  11
ATOM     11  C   UNL     1      25.143 -15.377  25.329  1.00  0.00     0.000 C 
BRANCH  11  12
ATOM     12  C   UNL     1      24.892 -13.859  25.287  1.00  0.00    -0.000 C 
BRANCH  12  13
ATOM     13  C   UNL     1      24.925 -13.223  26.692  1.00  0.00    -0.000 C 
BRANCH  13  14
ATOM     14  C   UNL     1      25.986 -12.120  26.841  1.00  0.00    -0.000 C 
BRANCH  14  15
ATOM     15  C   UNL     1      26.990 -12.097  25.678  1.00  0.00    -0.000 C 
BRANCH  15  16
ATOM     16  C   UNL     1      28.410 -11.719  26.130  1.00  0.00    -0.000 C 
BRANCH  16  17
ATOM     17  C   UNL     1      29.481 -12.119  25.105  1.00  0.00    -0.003 C 
ATOM     18  C   UNL     1      28.861 -12.855  23.921  1.00  0.00     0.004 C 
ENDBRANCH  16  17
ENDBRANCH  15  16
ENDBRANCH  14  15
ENDBRANCH  13  14
ENDBRANCH  12  13
ENDBRANCH  11  12
ENDBRANCH   1  11
TORSDOF 14
ENDMDL
MODEL 5
REMARK VINA RESULT:    -4.759      7.204     11.808
REMARK INTER + INTRA:          -9.968
REMARK INTER:                  -8.653
REMARK INTRA:                  -1.315
REMARK UNBOUND:                -1.314
REMARK SMILES CCCCCCCCCCCCCCCC(=O)[O-]
REMARK SMILES IDX 9 1 10 2 11 3 12 4 13 5 14 6 15 7 16 8 17 9 18 10 8 11 7 12
REMARK SMILES IDX 6 13 5 14 4 15 3 16 2 17 1 18
REMARK H PARENT
REMARK Flexibility Score: inf
ROOT
ATOM      1  C   UNL     1      27.616 -17.624  22.697  1.00  0.00     0.000 C 
ENDROOT
BRANCH   1   2
ATOM      2  C   UNL     1      27.419 -18.442  21.407  1.00  0.00     0.000 C 
BRANCH   2   3
ATOM      3  C   UNL     1      28.436 -19.579  21.196  1.00  0.00     0.000 C 
BRANCH   3   4
ATOM      4  C   UNL     1      29.775 -19.113  20.583  1.00  0.00     0.000 C 
BRANCH   4   5
ATOM      5  C   UNL     1      30.942 -20.049  20.944  1.00  0.00     0.000 C 
BRANCH   5   6
ATOM      6  C   UNL     1      30.505 -21.241  21.818  1.00  0.00     0.006 C 
BRANCH   6   7
ATOM      7  C   UNL     1      31.152 -21.258  23.213  1.00  0.00     0.053 C 
BRANCH   7   8
ATOM      8  C   UNL     1      30.741 -20.089  24.052  1.00  0.00     0.041 C 
ATOM      9  O   UNL     1      31.558 -19.163  24.295  1.00  0.00    -0.550 OA
ATOM     10  O   UNL     1      29.452 -20.021  24.566  1.00  0.00    -0.550 OA
ENDBRANCH   7   8
ENDBRANCH   6   7
ENDBRANCH   5   6
ENDBRANCH   4   5
ENDBRANCH   3   4
ENDBRANCH   2   3
ENDBRANCH   1   2
BRANCH   1  11
ATOM     11  C   UNL     1      27.618 -16.097  22.502  1.00  0.00     0.000 C 
BRANCH  11  12
ATOM     12  C   UNL     1      26.493 -15.392  23.278  1.00  0.00    -0.000 C 
BRANCH  12  13
ATOM     13  C   UNL     1      26.329 -15.953  24.707  1.00  0.00    -0.000 C 
BRANCH  13  14
ATOM     14  C   UNL     1      26.022 -14.873  25.758  1.00  0.00    -0.000 C 
BRANCH  14  15
ATOM     15  C   UNL     1      25.281 -13.662  25.170  1.00  0.00    -0.000 C 
BRANCH  15  16
ATOM     16  C   UNL     1      26.022 -12.338  25.418  1.00  0.00    -0.000 C 
BRANCH  16  17
ATOM     17  C   UNL     1      27.547 -12.517  25.467  1.00  0.00    -0.003 C 
ATOM     18  C   UNL     1      28.197 -12.054  24.166  1.00  0.00     0.004 C 
ENDBRANCH  16  17
ENDBRANCH  15  16
ENDBRANCH  14  15
ENDBRANCH  13  14
ENDBRANCH  12  13
ENDBRANCH  11  12
ENDBRANCH   1  11
TORSDOF 14
ENDMDL
MODEL 6
REMARK VINA RESULT:    -4.726      6.353      8.897
REMARK INTER + INTRA:          -9.907
REMARK INTER:                  -8.767
REMARK INTRA:                  -1.140
REMARK UNBOUND:                -1.314
REMARK SMILES CCCCCCCCCCCCCCCC(=O)[O-]
REMARK SMILES IDX 9 1 10 2 11 3 12 4 13 5 14 6 15 7 16 8 17 9 18 10 8 11 7 12
REMARK SMILES IDX 6 13 5 14 4 15 3 16 2 17 1 18
REMARK H PARENT
REMARK Flexibility Score: inf
ROOT
ATOM      1  C   UNL     1      26.477 -15.726  24.716  1.00  0.00     0.000 C 
ENDROOT
BRANCH   1   2
ATOM      2  C   UNL     1      25.102 -15.728  25.409  1.00  0.00     0.000 C 
BRANCH   2   3
ATOM      3  C   UNL     1      24.527 -14.332  25.718  1.00  0.00     0.000 C 
BRANCH   3   4
ATOM      4  C   UNL     1      25.516 -13.400  26.452  1.00  0.00     0.000 C 
BRANCH   4   5
ATOM      5  C   UNL     1      25.987 -12.233  25.566  1.00  0.00     0.000 C 
BRANCH   5   6
ATOM      6  C   UNL     1      27.521 -12.084  25.538  1.00  0.00     0.006 C 
BRANCH   6   7
ATOM      7  C   UNL     1      28.150 -12.390  24.167  1.00  0.00     0.053 C 
BRANCH   7   8
ATOM      8  C   UNL     1      29.528 -11.825  24.029  1.00  0.00     0.041 C 
ATOM      9  O   UNL     1      30.533 -12.580  24.094  1.00  0.00    -0.550 OA
ATOM     10  O   UNL     1      29.704 -10.462  23.824  1.00  0.00    -0.550 OA
ENDBRANCH   7   8
ENDBRANCH   6   7
ENDBRANCH   5   6
ENDBRANCH   4   5
ENDBRANCH   3   4
ENDBRANCH   2   3
ENDBRANCH   1   2
BRANCH   1  11
ATOM     11  C   UNL     1      26.433 -15.516  23.191  1.00  0.00     0.000 C 
BRANCH  11  12
ATOM     12  C   UNL     1      27.516 -16.315  22.445  1.00  0.00    -0.000 C 
BRANCH  12  13
ATOM     13  C   UNL     1      27.560 -17.793  22.888  1.00  0.00    -0.000 C 
BRANCH  13  14
ATOM     14  C   UNL     1      28.015 -18.752  21.775  1.00  0.00    -0.000 C 
BRANCH  14  15
ATOM     15  C   UNL     1      29.429 -19.309  22.008  1.00  0.00    -0.000 C 
BRANCH  15  16
ATOM     16  C   UNL     1      29.776 -19.436  23.500  1.00  0.00    -0.000 C 
BRANCH  16  17
ATOM     17  C   UNL     1      29.846 -20.898  23.966  1.00  0.00    -0.003 C 
ATOM     18  C   UNL     1      31.123 -21.572  23.472  1.00  0.00     0.004 C 
ENDBRANCH  16  17
ENDBRANCH  15  16
ENDBRANCH  14  15
ENDBRANCH  13  14
ENDBRANCH  12  13
ENDBRANCH  11  12
ENDBRANCH   1  11
TORSDOF 14
ENDMDL
MODEL 7
REMARK VINA RESULT:    -4.720      3.072      7.203
REMARK INTER + INTRA:          -9.897
REMARK INTER:                  -8.329
REMARK INTRA:                  -1.568
REMARK UNBOUND:                -1.314
REMARK SMILES CCCCCCCCCCCCCCCC(=O)[O-]
REMARK SMILES IDX 9 1 10 2 11 3 12 4 13 5 14 6 15 7 16 8 17 9 18 10 8 11 7 12
REMARK SMILES IDX 6 13 5 14 4 15 3 16 2 17 1 18
REMARK H PARENT
REMARK Flexibility Score: inf
ROOT
ATOM      1  C   UNL     1      22.774  -8.975  28.401  1.00  0.00     0.000 C 
ENDROOT
BRANCH   1   2
ATOM      2  C   UNL     1      23.548 -10.066  29.163  1.00  0.00     0.000 C 
BRANCH   2   3
ATOM      3  C   UNL     1      24.042 -11.239  28.296  1.00  0.00     0.000 C 
BRANCH   3   4
ATOM      4  C   UNL     1      25.563 -11.491  28.397  1.00  0.00     0.000 C 
BRANCH   4   5
ATOM      5  C   UNL     1      26.080 -12.410  27.275  1.00  0.00     0.000 C 
BRANCH   5   6
ATOM      6  C   UNL     1      24.947 -12.986  26.403  1.00  0.00     0.006 C 
BRANCH   6   7
ATOM      7  C   UNL     1      25.445 -13.774  25.179  1.00  0.00     0.053 C 
BRANCH   7   8
ATOM      8  C   UNL     1      25.186 -15.242  25.297  1.00  0.00     0.041 C 
ATOM      9  O   UNL     1      26.093 -16.071  25.023  1.00  0.00    -0.550 OA
ATOM     10  O   UNL     1      23.940 -15.698  25.711  1.00  0.00    -0.550 OA
ENDBRANCH   7   8
ENDBRANCH   6   7
ENDBRANCH   5   6
ENDBRANCH   4   5
ENDBRANCH   3   4
ENDBRANCH   2   3
ENDBRANCH   1   2
BRANCH   1  11
ATOM     11  C   UNL     1      22.027  -9.467  27.147  1.00  0.00     0.000 C 
BRANCH  11  12
ATOM     12  C   UNL     1      20.517  -9.176  27.197  1.00  0.00    -0.000 C 
BRANCH  12  13
ATOM     13  C   UNL     1      20.118  -8.375  28.454  1.00  0.00    -0.000 C 
BRANCH  13  14
ATOM     14  C   UNL     1      19.288  -9.188  29.462  1.00  0.00    -0.000 C 
BRANCH  14  15
ATOM     15  C   UNL     1      19.460 -10.706  29.289  1.00  0.00    -0.000 C 
BRANCH  15  16
ATOM     16  C   UNL     1      20.205 -11.354  30.467  1.00  0.00    -0.000 C 
BRANCH  16  17
ATOM     17  C   UNL     1      20.150 -10.499  31.741  1.00  0.00    -0.003 C 
ATOM     18  C   UNL     1      21.553 -10.128  32.214  1.00  0.00     0.004 C 
ENDBRANCH  16  17
ENDBRANCH  15  16
ENDBRANCH  14  15
ENDBRANCH  13  14
ENDBRANCH  12  13
ENDBRANCH  11  12
ENDBRANCH   1  11
TORSDOF 14
ENDMDL
MODEL 8
REMARK VINA RESULT:    -4.672      7.093     10.278
REMARK INTER + INTRA:          -9.809
REMARK INTER:                  -8.449
REMARK INTRA:                  -1.361
REMARK UNBOUND:                -1.314
REMARK SMILES CCCCCCCCCCCCCCCC(=O)[O-]
REMARK SMILES IDX 9 1 10 2 11 3 12 4 13 5 14 6 15 7 16 8 17 9 18 10 8 11 7 12
REMARK SMILES IDX 6 13 5 14 4 15 3 16 2 17 1 18
REMARK H PARENT
REMARK Flexibility Score: inf
ROOT
ATOM      1  C   UNL     1      25.073 -15.779  25.371  1.00  0.00     0.000 C 
ENDROOT
BRANCH   1   2
ATOM      2  C   UNL     1      26.489 -15.734  24.770  1.00  0.00     0.000 C 
BRANCH   2   3
ATOM      3  C   UNL     1      26.553 -15.349  23.280  1.00  0.00     0.000 C 
BRANCH   3   4
ATOM      4  C   UNL     1      27.120 -16.463  22.372  1.00  0.00     0.000 C 
BRANCH   4   5
ATOM      5  C   UNL     1      27.636 -17.669  23.177  1.00  0.00     0.000 C 
BRANCH   5   6
ATOM      6  C   UNL     1      28.481 -18.638  22.328  1.00  0.00     0.006 C 
BRANCH   6   7
ATOM      7  C   UNL     1      29.231 -19.697  23.155  1.00  0.00     0.053 C 
BRANCH   7   8
ATOM      8  C   UNL     1      30.697 -19.726  22.859  1.00  0.00     0.041 C 
ATOM      9  O   UNL     1      31.150 -20.497  21.973  1.00  0.00    -0.550 OA
ATOM     10  O   UNL     1      31.565 -18.899  23.561  1.00  0.00    -0.550 OA
ENDBRANCH   7   8
ENDBRANCH   6   7
ENDBRANCH   5   6
ENDBRANCH   4   5
ENDBRANCH   3   4
ENDBRANCH   2   3
ENDBRANCH   1   2
BRANCH   1  11
ATOM     11  C   UNL     1      24.530 -14.420  25.851  1.00  0.00     0.000 C 
BRANCH  11  12
ATOM     12  C   UNL     1      25.608 -13.545  26.514  1.00  0.00    -0.000 C 
BRANCH  12  13
ATOM     13  C   UNL     1      25.808 -12.205  25.774  1.00  0.00    -0.000 C 
BRANCH  13  14
ATOM     14  C   UNL     1      27.113 -12.144  24.961  1.00  0.00    -0.000 C 
BRANCH  14  15
ATOM     15  C   UNL     1      28.366 -12.078  25.849  1.00  0.00    -0.000 C 
BRANCH  15  16
ATOM     16  C   UNL     1      29.669 -12.151  25.037  1.00  0.00    -0.000 C 
BRANCH  16  17
ATOM     17  C   UNL     1      29.421 -12.139  23.521  1.00  0.00    -0.003 C 
ATOM     18  C   UNL     1      29.751 -13.493  22.899  1.00  0.00     0.004 C 
ENDBRANCH  16  17
ENDBRANCH  15  16
ENDBRANCH  14  15
ENDBRANCH  13  14
ENDBRANCH  12  13
ENDBRANCH  11  12
ENDBRANCH   1  11
TORSDOF 14
ENDMDL
MODEL 9
REMARK VINA RESULT:    -4.603      3.693      7.866
REMARK INTER + INTRA:          -9.685
REMARK INTER:                  -8.402
REMARK INTRA:                  -1.283
REMARK UNBOUND:                -1.314
REMARK SMILES CCCCCCCCCCCCCCCC(=O)[O-]
REMARK SMILES IDX 9 1 10 2 11 3 12 4 13 5 14 6 15 7 16 8 17 9 18 10 8 11 7 12
REMARK SMILES IDX 6 13 5 14 4 15 3 16 2 17 1 18
REMARK H PARENT
REMARK Flexibility Score: inf
ROOT
ATOM      1  C   UNL     1      23.257 -10.363  28.887  1.00  0.00     0.000 C 
ENDROOT
BRANCH   1   2
ATOM      2  C   UNL     1      23.208 -11.640  28.029  1.00  0.00     0.000 C 
BRANCH   2   3
ATOM      3  C   UNL     1      24.506 -11.961  27.264  1.00  0.00     0.000 C 
BRANCH   3   4
ATOM      4  C   UNL     1      24.648 -13.449  26.875  1.00  0.00     0.000 C 
BRANCH   4   5
ATOM      5  C   UNL     1      25.700 -13.669  25.774  1.00  0.00     0.000 C 
BRANCH   5   6
ATOM      6  C   UNL     1      26.367 -12.358  25.312  1.00  0.00     0.006 C 
BRANCH   6   7
ATOM      7  C   UNL     1      27.903 -12.383  25.387  1.00  0.00     0.053 C 
BRANCH   7   8
ATOM      8  C   UNL     1      28.442 -11.477  26.448  1.00  0.00     0.041 C 
ATOM      9  O   UNL     1      28.738 -10.284  26.175  1.00  0.00    -0.550 OA
ATOM     10  O   UNL     1      28.616 -11.950  27.743  1.00  0.00    -0.550 OA
ENDBRANCH   7   8
ENDBRANCH   6   7
ENDBRANCH   5   6
ENDBRANCH   4   5
ENDBRANCH   3   4
ENDBRANCH   2   3
ENDBRANCH   1   2
BRANCH   1  11
ATOM     11  C   UNL     1      22.672  -9.107  28.215  1.00  0.00     0.000 C 
BRANCH  11  12
ATOM     12  C   UNL     1      22.010  -9.408  26.858  1.00  0.00    -0.000 C 
BRANCH  12  13
ATOM     13  C   UNL     1      20.513  -9.032  26.844  1.00  0.00    -0.000 C 
BRANCH  13  14
ATOM     14  C   UNL     1      20.134  -7.986  27.906  1.00  0.00    -0.000 C 
BRANCH  14  15
ATOM     15  C   UNL     1      19.000  -8.458  28.830  1.00  0.00    -0.000 C 
BRANCH  15  16
ATOM     16  C   UNL     1      19.421  -9.632  29.729  1.00  0.00    -0.000 C 
BRANCH  16  17
ATOM     17  C   UNL     1      19.563  -9.224  31.203  1.00  0.00    -0.003 C 
ATOM     18  C   UNL     1      20.847  -8.432  31.433  1.00  0.00     0.004 C 
ENDBRANCH  16  17
ENDBRANCH  15  16
ENDBRANCH  14  15
ENDBRANCH  13  14
ENDBRANCH  12  13
ENDBRANCH  11  12
ENDBRANCH   1  11
TORSDOF 14
ENDMDL
