MODEL 1
REMARK VINA RESULT:    -1.277      0.000      0.000
REMARK INTER + INTRA:          -0.881
REMARK INTER:                  -2.918
REMARK INTRA:                   2.037
REMARK UNBOUND:                 2.037
REMARK SMILES CCCCCCCCCCCCCCCCCCCCCCCC(=O)[O-]
REMARK SMILES IDX 13 1 14 2 15 3 16 4 17 5 18 6 19 7 20 8 21 9 22 10 23 11
REMARK SMILES IDX 24 12 25 13 26 14 12 15 11 16 10 17 9 18 8 19 7 20 6 21 5 22
REMARK SMILES IDX 4 23 3 24 2 25 1 26
REMARK H PARENT
REMARK Flexibility Score: inf
ROOT
ATOM      1  C   UNL     1      -9.057 -18.937  11.900  1.00  0.00     0.000 C 
ENDROOT
BRANCH   1   2
ATOM      2  C   UNL     1      -9.854 -18.749  10.596  1.00  0.00     0.000 C 
BRANCH   2   3
ATOM      3  C   UNL     1      -9.319 -17.595   9.731  1.00  0.00     0.000 C 
BRANCH   3   4
ATOM      4  C   UNL     1      -9.607 -16.214  10.344  1.00  0.00     0.000 C 
BRANCH   4   5
ATOM      5  C   UNL     1     -10.908 -16.190  11.164  1.00  0.00     0.000 C 
BRANCH   5   6
ATOM      6  C   UNL     1     -10.810 -17.012  12.462  1.00  0.00     0.000 C 
BRANCH   6   7
ATOM      7  C   UNL     1     -10.738 -16.180  13.758  1.00  0.00     0.000 C 
BRANCH   7   8
ATOM      8  C   UNL     1     -11.473 -16.788  14.969  1.00  0.00     0.000 C 
BRANCH   8   9
ATOM      9  C   UNL     1     -11.235 -18.294  15.190  1.00  0.00     0.000 C 
BRANCH   9  10
ATOM     10  C   UNL     1      -9.759 -18.716  15.316  1.00  0.00     0.006 C 
BRANCH  10  11
ATOM     11  C   UNL     1      -8.894 -17.731  16.122  1.00  0.00     0.053 C 
BRANCH  11  12
ATOM     12  C   UNL     1      -8.180 -16.745  15.248  1.00  0.00     0.041 C 
ATOM     13  O   UNL     1      -7.877 -15.606  15.693  1.00  0.00    -0.550 OA
ATOM     14  O   UNL     1      -7.885 -17.067  13.929  1.00  0.00    -0.550 OA
ENDBRANCH  11  12
ENDBRANCH  10  11
ENDBRANCH   9  10
ENDBRANCH   8   9
ENDBRANCH   7   8
ENDBRANCH   6   7
ENDBRANCH   5   6
ENDBRANCH   4   5
ENDBRANCH   3   4
ENDBRANCH   2   3
ENDBRANCH   1   2
BRANCH   1  15
ATOM     15  C   UNL     1      -7.931 -19.990  11.840  1.00  0.00     0.000 C 
BRANCH  15  16
ATOM     16  C   UNL     1      -7.936 -21.030  12.976  1.00  0.00     0.000 C 
BRANCH  16  17
ATOM     17  C   UNL     1      -7.879 -22.479  12.462  1.00  0.00     0.000 C 
BRANCH  17  18
ATOM     18  C   UNL     1      -9.270 -23.123  12.333  1.00  0.00    -0.000 C 
BRANCH  18  19
ATOM     19  C   UNL     1     -10.110 -23.124  13.623  1.00  0.00    -0.000 C 
BRANCH  19  20
ATOM     20  C   UNL     1      -9.312 -22.661  14.855  1.00  0.00    -0.000 C 
BRANCH  20  21
ATOM     21  C   UNL     1     -10.175 -22.575  16.123  1.00  0.00    -0.000 C 
BRANCH  21  22
ATOM     22  C   UNL     1     -11.642 -22.962  15.868  1.00  0.00    -0.000 C 
BRANCH  22  23
ATOM     23  C   UNL     1     -12.398 -21.898  15.054  1.00  0.00    -0.000 C 
BRANCH  23  24
ATOM     24  C   UNL     1     -13.844 -21.699  15.543  1.00  0.00    -0.000 C 
BRANCH  24  25
ATOM     25  C   UNL     1     -14.769 -22.852  15.125  1.00  0.00    -0.003 C 
ATOM     26  C   UNL     1     -15.899 -23.099  16.124  1.00  0.00     0.004 C 
ENDBRANCH  24  25
ENDBRANCH  23  24
ENDBRANCH  22  23
ENDBRANCH  21  22
ENDBRANCH  20  21
ENDBRANCH  19  20
ENDBRANCH  18  19
ENDBRANCH  17  18
ENDBRANCH  16  17
ENDBRANCH  15  16
ENDBRANCH   1  15
TORSDOF 22
ENDMDL
MODEL 2
REMARK VINA RESULT:    -1.233      1.812      2.455
REMARK INTER + INTRA:          -0.781
REMARK INTER:                   0.816
REMARK INTRA:                  -1.597
REMARK UNBOUND:                 2.037
REMARK SMILES CCCCCCCCCCCCCCCCCCCCCCCC(=O)[O-]
REMARK SMILES IDX 13 1 14 2 15 3 16 4 17 5 18 6 19 7 20 8 21 9 22 10 23 11
REMARK SMILES IDX 24 12 25 13 26 14 12 15 11 16 10 17 9 18 8 19 7 20 6 21 5 22
REMARK SMILES IDX 4 23 3 24 2 25 1 26
REMARK H PARENT
REMARK Flexibility Score: inf
ROOT
ATOM      1  C   UNL     1      -9.979 -18.357   9.509  1.00  0.00     0.000 C 
ENDROOT
BRANCH   1   2
ATOM      2  C   UNL     1      -9.717 -16.856   9.729  1.00  0.00     0.000 C 
BRANCH   2   3
ATOM      3  C   UNL     1      -8.225 -16.530   9.907  1.00  0.00     0.000 C 
BRANCH   3   4
ATOM      4  C   UNL     1      -7.889 -16.054  11.330  1.00  0.00     0.000 C 
BRANCH   4   5
ATOM      5  C   UNL     1      -8.333 -17.056  12.410  1.00  0.00     0.000 C 
BRANCH   5   6
ATOM      6  C   UNL     1      -8.486 -16.408  13.798  1.00  0.00     0.000 C 
BRANCH   6   7
ATOM      7  C   UNL     1      -9.929 -16.360  14.341  1.00  0.00     0.000 C 
BRANCH   7   8
ATOM      8  C   UNL     1     -10.650 -17.721  14.406  1.00  0.00     0.000 C 
BRANCH   8   9
ATOM      9  C   UNL     1     -10.818 -18.304  15.822  1.00  0.00     0.000 C 
BRANCH   9  10
ATOM     10  C   UNL     1     -10.400 -19.779  15.980  1.00  0.00     0.006 C 
BRANCH  10  11
ATOM     11  C   UNL     1      -8.880 -19.987  16.107  1.00  0.00     0.053 C 
BRANCH  11  12
ATOM     12  C   UNL     1      -8.286 -20.633  14.892  1.00  0.00     0.041 C 
ATOM     13  O   UNL     1      -8.186 -19.987  13.815  1.00  0.00    -0.550 OA
ATOM     14  O   UNL     1      -7.878 -21.960  14.936  1.00  0.00    -0.550 OA
ENDBRANCH  11  12
ENDBRANCH  10  11
ENDBRANCH   9  10
ENDBRANCH   8   9
ENDBRANCH   7   8
ENDBRANCH   6   7
ENDBRANCH   5   6
ENDBRANCH   4   5
ENDBRANCH   3   4
ENDBRANCH   2   3
ENDBRANCH   1   2
BRANCH   1  15
ATOM     15  C   UNL     1      -9.044 -19.311  10.281  1.00  0.00     0.000 C 
BRANCH  15  16
ATOM     16  C   UNL     1      -8.829 -20.693   9.635  1.00  0.00     0.000 C 
BRANCH  16  17
ATOM     17  C   UNL     1      -7.876 -21.589  10.444  1.00  0.00     0.000 C 
BRANCH  17  18
ATOM     18  C   UNL     1      -8.601 -22.748  11.152  1.00  0.00    -0.000 C 
BRANCH  18  19
ATOM     19  C   UNL     1     -10.130 -22.600  11.243  1.00  0.00    -0.000 C 
BRANCH  19  20
ATOM     20  C   UNL     1     -10.594 -22.013  12.588  1.00  0.00    -0.000 C 
BRANCH  20  21
ATOM     21  C   UNL     1     -10.269 -22.928  13.779  1.00  0.00    -0.000 C 
BRANCH  21  22
ATOM     22  C   UNL     1     -11.450 -23.074  14.753  1.00  0.00    -0.000 C 
BRANCH  22  23
ATOM     23  C   UNL     1     -12.810 -23.078  14.033  1.00  0.00    -0.000 C 
BRANCH  23  24
ATOM     24  C   UNL     1     -13.608 -21.785  14.274  1.00  0.00    -0.000 C 
BRANCH  24  25
ATOM     25  C   UNL     1     -15.061 -22.060  14.689  1.00  0.00    -0.003 C 
ATOM     26  C   UNL     1     -15.182 -22.584  16.120  1.00  0.00     0.004 C 
ENDBRANCH  24  25
ENDBRANCH  23  24
ENDBRANCH  22  23
ENDBRANCH  21  22
ENDBRANCH  20  21
ENDBRANCH  19  20
ENDBRANCH  18  19
ENDBRANCH  17  18
ENDBRANCH  16  17
ENDBRANCH  15  16
ENDBRANCH   1  15
TORSDOF 22
ENDMDL
MODEL 3
REMARK VINA RESULT:    -0.448      1.637      3.083
REMARK INTER + INTRA:           1.013
REMARK INTER:                   2.581
REMARK INTRA:                  -1.568
REMARK UNBOUND:                 2.037
REMARK SMILES CCCCCCCCCCCCCCCCCCCCCCCC(=O)[O-]
REMARK SMILES IDX 13 1 14 2 15 3 16 4 17 5 18 6 19 7 20 8 21 9 22 10 23 11
REMARK SMILES IDX 24 12 25 13 26 14 12 15 11 16 10 17 9 18 8 19 7 20 6 21 5 22
REMARK SMILES IDX 4 23 3 24 2 25 1 26
REMARK H PARENT
REMARK Flexibility Score: inf
ROOT
ATOM      1  C   UNL     1      -9.892 -16.973   9.295  1.00  0.00     0.000 C 
ENDROOT
BRANCH   1   2
ATOM      2  C   UNL     1      -9.320 -15.840  10.166  1.00  0.00     0.000 C 
BRANCH   2   3
ATOM      3  C   UNL     1      -8.066 -16.265  10.950  1.00  0.00     0.000 C 
BRANCH   3   4
ATOM      4  C   UNL     1      -8.308 -16.320  12.468  1.00  0.00     0.000 C 
BRANCH   4   5
ATOM      5  C   UNL     1      -9.730 -16.785  12.824  1.00  0.00     0.000 C 
BRANCH   5   6
ATOM      6  C   UNL     1     -10.289 -16.088  14.078  1.00  0.00     0.000 C 
BRANCH   6   7
ATOM      7  C   UNL     1     -11.540 -16.749  14.691  1.00  0.00     0.000 C 
BRANCH   7   8
ATOM      8  C   UNL     1     -11.596 -18.285  14.568  1.00  0.00     0.000 C 
BRANCH   8   9
ATOM      9  C   UNL     1     -11.228 -19.058  15.849  1.00  0.00     0.000 C 
BRANCH   9  10
ATOM     10  C   UNL     1     -10.297 -20.268  15.642  1.00  0.00     0.006 C 
BRANCH  10  11
ATOM     11  C   UNL     1      -8.848 -20.027  16.100  1.00  0.00     0.053 C 
BRANCH  11  12
ATOM     12  C   UNL     1      -8.194 -18.896  15.366  1.00  0.00     0.041 C 
ATOM     13  O   UNL     1      -7.963 -17.807  15.955  1.00  0.00    -0.550 OA
ATOM     14  O   UNL     1      -7.875 -19.029  14.020  1.00  0.00    -0.550 OA
ENDBRANCH  11  12
ENDBRANCH  10  11
ENDBRANCH   9  10
ENDBRANCH   8   9
ENDBRANCH   7   8
ENDBRANCH   6   7
ENDBRANCH   5   6
ENDBRANCH   4   5
ENDBRANCH   3   4
ENDBRANCH   2   3
ENDBRANCH   1   2
BRANCH   1  15
ATOM     15  C   UNL     1      -9.192 -18.340   9.445  1.00  0.00     0.000 C 
BRANCH  15  16
ATOM     16  C   UNL     1      -9.109 -19.185   8.160  1.00  0.00     0.000 C 
BRANCH  16  17
ATOM     17  C   UNL     1      -7.875 -20.103   8.126  1.00  0.00     0.000 C 
BRANCH  17  18
ATOM     18  C   UNL     1      -8.011 -21.322   9.056  1.00  0.00    -0.000 C 
BRANCH  18  19
ATOM     19  C   UNL     1      -8.804 -21.068  10.350  1.00  0.00    -0.000 C 
BRANCH  19  20
ATOM     20  C   UNL     1      -7.962 -21.287  11.619  1.00  0.00    -0.000 C 
BRANCH  20  21
ATOM     21  C   UNL     1      -7.905 -22.762  12.047  1.00  0.00    -0.000 C 
BRANCH  21  22
ATOM     22  C   UNL     1      -8.923 -23.097  13.151  1.00  0.00    -0.000 C 
BRANCH  22  23
ATOM     23  C   UNL     1     -10.236 -22.312  12.999  1.00  0.00    -0.000 C 
BRANCH  23  24
ATOM     24  C   UNL     1     -11.434 -23.037  13.638  1.00  0.00    -0.000 C 
BRANCH  24  25
ATOM     25  C   UNL     1     -12.737 -22.233  13.522  1.00  0.00    -0.003 C 
ATOM     26  C   UNL     1     -13.549 -22.227  14.817  1.00  0.00     0.004 C 
ENDBRANCH  24  25
ENDBRANCH  23  24
ENDBRANCH  22  23
ENDBRANCH  21  22
ENDBRANCH  20  21
ENDBRANCH  19  20
ENDBRANCH  18  19
ENDBRANCH  17  18
ENDBRANCH  16  17
ENDBRANCH  15  16
ENDBRANCH   1  15
TORSDOF 22
ENDMDL
MODEL 4
REMARK VINA RESULT:    -0.252      1.911      3.314
REMARK INTER + INTRA:           1.462
REMARK INTER:                   0.900
REMARK INTRA:                   0.561
REMARK UNBOUND:                 2.037
REMARK SMILES CCCCCCCCCCCCCCCCCCCCCCCC(=O)[O-]
REMARK SMILES IDX 13 1 14 2 15 3 16 4 17 5 18 6 19 7 20 8 21 9 22 10 23 11
REMARK SMILES IDX 24 12 25 13 26 14 12 15 11 16 10 17 9 18 8 19 7 20 6 21 5 22
REMARK SMILES IDX 4 23 3 24 2 25 1 26
REMARK H PARENT
REMARK Flexibility Score: inf
ROOT
ATOM      1  C   UNL     1      -9.468 -16.824   8.569  1.00  0.00     0.000 C 
ENDROOT
BRANCH   1   2
ATOM      2  C   UNL     1      -9.566 -15.697   9.613  1.00  0.00     0.000 C 
BRANCH   2   3
ATOM      3  C   UNL     1     -10.583 -16.002  10.727  1.00  0.00     0.000 C 
BRANCH   3   4
ATOM      4  C   UNL     1     -10.131 -17.154  11.640  1.00  0.00     0.000 C 
BRANCH   4   5
ATOM      5  C   UNL     1      -9.757 -16.677  13.053  1.00  0.00     0.000 C 
BRANCH   5   6
ATOM      6  C   UNL     1      -8.322 -17.064  13.453  1.00  0.00     0.000 C 
BRANCH   6   7
ATOM      7  C   UNL     1      -7.878 -16.578  14.847  1.00  0.00     0.000 C 
BRANCH   7   8
ATOM      8  C   UNL     1      -9.018 -16.110  15.772  1.00  0.00     0.000 C 
BRANCH   8   9
ATOM      9  C   UNL     1     -10.066 -17.187  16.114  1.00  0.00     0.000 C 
BRANCH   9  10
ATOM     10  C   UNL     1     -11.532 -16.783  15.861  1.00  0.00     0.006 C 
BRANCH  10  11
ATOM     11  C   UNL     1     -12.531 -17.946  15.990  1.00  0.00     0.053 C 
BRANCH  11  12
ATOM     12  C   UNL     1     -11.915 -19.272  15.662  1.00  0.00     0.041 C 
ATOM     13  O   UNL     1     -12.509 -20.340  15.966  1.00  0.00    -0.550 OA
ATOM     14  O   UNL     1     -10.666 -19.330  15.057  1.00  0.00    -0.550 OA
ENDBRANCH  11  12
ENDBRANCH  10  11
ENDBRANCH   9  10
ENDBRANCH   8   9
ENDBRANCH   7   8
ENDBRANCH   6   7
ENDBRANCH   5   6
ENDBRANCH   4   5
ENDBRANCH   3   4
ENDBRANCH   2   3
ENDBRANCH   1   2
BRANCH   1  15
ATOM     15  C   UNL     1      -9.391 -18.253   9.145  1.00  0.00     0.000 C 
BRANCH  15  16
ATOM     16  C   UNL     1      -8.340 -19.173   8.493  1.00  0.00     0.000 C 
BRANCH  16  17
ATOM     17  C   UNL     1      -7.893 -20.319   9.416  1.00  0.00     0.000 C 
BRANCH  17  18
ATOM     18  C   UNL     1      -8.869 -20.564  10.581  1.00  0.00    -0.000 C 
BRANCH  18  19
ATOM     19  C   UNL     1      -8.315 -20.225  11.976  1.00  0.00    -0.000 C 
BRANCH  19  20
ATOM     20  C   UNL     1      -8.070 -21.474  12.841  1.00  0.00    -0.000 C 
BRANCH  20  21
ATOM     21  C   UNL     1      -8.942 -21.499  14.107  1.00  0.00    -0.000 C 
BRANCH  21  22
ATOM     22  C   UNL     1      -9.341 -22.926  14.522  1.00  0.00    -0.000 C 
BRANCH  22  23
ATOM     23  C   UNL     1     -10.799 -23.013  15.002  1.00  0.00    -0.000 C 
BRANCH  23  24
ATOM     24  C   UNL     1     -11.805 -23.001  13.837  1.00  0.00    -0.000 C 
BRANCH  24  25
ATOM     25  C   UNL     1     -13.259 -23.125  14.315  1.00  0.00    -0.003 C 
ATOM     26  C   UNL     1     -14.119 -21.923  13.924  1.00  0.00     0.004 C 
ENDBRANCH  24  25
ENDBRANCH  23  24
ENDBRANCH  22  23
ENDBRANCH  21  22
ENDBRANCH  20  21
ENDBRANCH  19  20
ENDBRANCH  18  19
ENDBRANCH  17  18
ENDBRANCH  16  17
ENDBRANCH  15  16
ENDBRANCH   1  15
TORSDOF 22
ENDMDL
MODEL 5
REMARK VINA RESULT:    -0.148      2.091      3.497
REMARK INTER + INTRA:           1.698
REMARK INTER:                   0.954
REMARK INTRA:                   0.744
REMARK UNBOUND:                 2.037
REMARK SMILES CCCCCCCCCCCCCCCCCCCCCCCC(=O)[O-]
REMARK SMILES IDX 13 1 14 2 15 3 16 4 17 5 18 6 19 7 20 8 21 9 22 10 23 11
REMARK SMILES IDX 24 12 25 13 26 14 12 15 11 16 10 17 9 18 8 19 7 20 6 21 5 22
REMARK SMILES IDX 4 23 3 24 2 25 1 26
REMARK H PARENT
REMARK Flexibility Score: inf
ROOT
ATOM      1  C   UNL     1      -9.698 -17.444  11.210  1.00  0.00     0.000 C 
ENDROOT
BRANCH   1   2
ATOM      2  C   UNL     1     -10.768 -17.289  12.307  1.00  0.00     0.000 C 
BRANCH   2   3
ATOM      3  C   UNL     1     -11.534 -15.959  12.209  1.00  0.00     0.000 C 
BRANCH   3   4
ATOM      4  C   UNL     1     -12.290 -15.615  13.504  1.00  0.00     0.000 C 
BRANCH   4   5
ATOM      5  C   UNL     1     -11.501 -15.997  14.769  1.00  0.00     0.000 C 
BRANCH   5   6
ATOM      6  C   UNL     1     -11.853 -17.403  15.289  1.00  0.00     0.000 C 
BRANCH   6   7
ATOM      7  C   UNL     1     -10.644 -18.323  15.553  1.00  0.00     0.000 C 
BRANCH   7   8
ATOM      8  C   UNL     1      -9.438 -18.106  14.618  1.00  0.00     0.000 C 
BRANCH   8   9
ATOM      9  C   UNL     1      -8.058 -18.265  15.284  1.00  0.00     0.000 C 
BRANCH   9  10
ATOM     10  C   UNL     1      -7.876 -19.544  16.124  1.00  0.00     0.006 C 
BRANCH  10  11
ATOM     11  C   UNL     1      -9.015 -20.566  15.960  1.00  0.00     0.053 C 
BRANCH  11  12
ATOM     12  C   UNL     1      -8.560 -21.832  15.300  1.00  0.00     0.041 C 
ATOM     13  O   UNL     1      -8.054 -21.801  14.148  1.00  0.00    -0.550 OA
ATOM     14  O   UNL     1      -8.730 -23.053  15.942  1.00  0.00    -0.550 OA
ENDBRANCH  11  12
ENDBRANCH  10  11
ENDBRANCH   9  10
ENDBRANCH   8   9
ENDBRANCH   7   8
ENDBRANCH   6   7
ENDBRANCH   5   6
ENDBRANCH   4   5
ENDBRANCH   3   4
ENDBRANCH   2   3
ENDBRANCH   1   2
BRANCH   1  15
ATOM     15  C   UNL     1      -9.766 -18.757  10.402  1.00  0.00     0.000 C 
BRANCH  15  16
ATOM     16  C   UNL     1      -8.448 -19.189   9.732  1.00  0.00     0.000 C 
BRANCH  16  17
ATOM     17  C   UNL     1      -8.202 -20.705   9.817  1.00  0.00     0.000 C 
BRANCH  17  18
ATOM     18  C   UNL     1      -7.982 -21.194  11.260  1.00  0.00    -0.000 C 
BRANCH  18  19
ATOM     19  C   UNL     1      -8.133 -22.713  11.462  1.00  0.00    -0.000 C 
BRANCH  19  20
ATOM     20  C   UNL     1      -9.467 -23.097  12.126  1.00  0.00    -0.000 C 
BRANCH  20  21
ATOM     21  C   UNL     1     -10.672 -22.384  11.493  1.00  0.00    -0.000 C 
BRANCH  21  22
ATOM     22  C   UNL     1     -11.705 -21.928  12.538  1.00  0.00    -0.000 C 
BRANCH  22  23
ATOM     23  C   UNL     1     -12.909 -22.881  12.630  1.00  0.00    -0.000 C 
BRANCH  23  24
ATOM     24  C   UNL     1     -13.574 -22.859  14.018  1.00  0.00    -0.000 C 
BRANCH  24  25
ATOM     25  C   UNL     1     -12.927 -21.836  14.963  1.00  0.00    -0.003 C 
ATOM     26  C   UNL     1     -13.891 -21.320  16.031  1.00  0.00     0.004 C 
ENDBRANCH  24  25
ENDBRANCH  23  24
ENDBRANCH  22  23
ENDBRANCH  21  22
ENDBRANCH  20  21
ENDBRANCH  19  20
ENDBRANCH  18  19
ENDBRANCH  17  18
ENDBRANCH  16  17
ENDBRANCH  15  16
ENDBRANCH   1  15
TORSDOF 22
ENDMDL
MODEL 6
REMARK VINA RESULT:     0.185      1.326      2.212
REMARK INTER + INTRA:           2.460
REMARK INTER:                   0.897
REMARK INTRA:                   1.563
REMARK UNBOUND:                 2.037
REMARK SMILES CCCCCCCCCCCCCCCCCCCCCCCC(=O)[O-]
REMARK SMILES IDX 13 1 14 2 15 3 16 4 17 5 18 6 19 7 20 8 21 9 22 10 23 11
REMARK SMILES IDX 24 12 25 13 26 14 12 15 11 16 10 17 9 18 8 19 7 20 6 21 5 22
REMARK SMILES IDX 4 23 3 24 2 25 1 26
REMARK H PARENT
REMARK Flexibility Score: inf
ROOT
ATOM      1  C   UNL     1      -8.649 -19.124  13.003  1.00  0.00     0.000 C 
ENDROOT
BRANCH   1   2
ATOM      2  C   UNL     1      -8.700 -19.805  11.623  1.00  0.00     0.000 C 
BRANCH   2   3
ATOM      3  C   UNL     1      -7.875 -19.061  10.560  1.00  0.00     0.000 C 
BRANCH   3   4
ATOM      4  C   UNL     1      -8.743 -18.513   9.415  1.00  0.00     0.000 C 
BRANCH   4   5
ATOM      5  C   UNL     1     -10.239 -18.811   9.610  1.00  0.00     0.000 C 
BRANCH   5   6
ATOM      6  C   UNL     1     -10.939 -17.782  10.516  1.00  0.00     0.000 C 
BRANCH   6   7
ATOM      7  C   UNL     1     -10.069 -17.218  11.658  1.00  0.00     0.000 C 
BRANCH   7   8
ATOM      8  C   UNL     1     -10.606 -15.933  12.317  1.00  0.00     0.000 C 
BRANCH   8   9
ATOM      9  C   UNL     1     -11.522 -16.156  13.536  1.00  0.00     0.000 C 
BRANCH   9  10
ATOM     10  C   UNL     1     -11.193 -17.398  14.387  1.00  0.00     0.006 C 
BRANCH  10  11
ATOM     11  C   UNL     1     -10.539 -17.072  15.742  1.00  0.00     0.053 C 
BRANCH  11  12
ATOM     12  C   UNL     1      -9.066 -16.822  15.623  1.00  0.00     0.041 C 
ATOM     13  O   UNL     1      -8.243 -17.633  16.123  1.00  0.00    -0.550 OA
ATOM     14  O   UNL     1      -8.602 -15.672  14.996  1.00  0.00    -0.550 OA
ENDBRANCH  11  12
ENDBRANCH  10  11
ENDBRANCH   9  10
ENDBRANCH   8   9
ENDBRANCH   7   8
ENDBRANCH   6   7
ENDBRANCH   5   6
ENDBRANCH   4   5
ENDBRANCH   3   4
ENDBRANCH   2   3
ENDBRANCH   1   2
BRANCH   1  15
ATOM     15  C   UNL     1      -7.877 -19.897  14.093  1.00  0.00     0.000 C 
BRANCH  15  16
ATOM     16  C   UNL     1      -8.751 -20.610  15.143  1.00  0.00     0.000 C 
BRANCH  16  17
ATOM     17  C   UNL     1      -8.339 -22.074  15.369  1.00  0.00     0.000 C 
BRANCH  17  18
ATOM     18  C   UNL     1      -8.648 -22.977  14.161  1.00  0.00    -0.000 C 
BRANCH  18  19
ATOM     19  C   UNL     1     -10.142 -23.118  13.821  1.00  0.00    -0.000 C 
BRANCH  19  20
ATOM     20  C   UNL     1     -10.684 -21.931  13.006  1.00  0.00    -0.000 C 
BRANCH  20  21
ATOM     21  C   UNL     1     -12.054 -22.221  12.373  1.00  0.00    -0.000 C 
BRANCH  21  22
ATOM     22  C   UNL     1     -13.046 -22.846  13.368  1.00  0.00    -0.000 C 
BRANCH  22  23
ATOM     23  C   UNL     1     -12.487 -22.902  14.800  1.00  0.00    -0.000 C 
BRANCH  23  24
ATOM     24  C   UNL     1     -13.464 -22.321  15.838  1.00  0.00    -0.000 C 
BRANCH  24  25
ATOM     25  C   UNL     1     -14.845 -22.017  15.238  1.00  0.00    -0.003 C 
ATOM     26  C   UNL     1     -15.961 -22.859  15.856  1.00  0.00     0.004 C 
ENDBRANCH  24  25
ENDBRANCH  23  24
ENDBRANCH  22  23
ENDBRANCH  21  22
ENDBRANCH  20  21
ENDBRANCH  19  20
ENDBRANCH  18  19
ENDBRANCH  17  18
ENDBRANCH  16  17
ENDBRANCH  15  16
ENDBRANCH   1  15
TORSDOF 22
ENDMDL
