MODEL 1
REMARK VINA RESULT:    -4.327      0.000      0.000
REMARK INTER + INTRA:          -9.211
REMARK INTER:                  -7.362
REMARK INTRA:                  -1.849
REMARK UNBOUND:                -1.849
REMARK SMILES CCCCCCCCCCCCCC(=O)[O-]
REMARK SMILES IDX 8 1 9 2 10 3 11 4 12 5 13 6 14 7 15 8 16 9 7 10 6 11 5 12
REMARK SMILES IDX 4 13 3 14 2 15 1 16
REMARK H PARENT
REMARK Flexibility Score: inf
ROOT
ATOM      1  C   UNL     1      61.008  17.340  39.817  1.00  0.00     0.000 C 
ENDROOT
BRANCH   1   2
ATOM      2  C   UNL     1      60.661  16.611  38.509  1.00  0.00     0.000 C 
BRANCH   2   3
ATOM      3  C   UNL     1      61.481  15.324  38.313  1.00  0.00     0.000 C 
BRANCH   3   4
ATOM      4  C   UNL     1      61.900  14.689  39.657  1.00  0.00     0.000 C 
BRANCH   4   5
ATOM      5  C   UNL     1      63.403  14.356  39.735  1.00  0.00     0.006 C 
BRANCH   5   6
ATOM      6  C   UNL     1      63.775  13.008  39.101  1.00  0.00     0.053 C 
BRANCH   6   7
ATOM      7  C   UNL     1      62.819  11.923  39.494  1.00  0.00     0.041 C 
ATOM      8  O   UNL     1      62.063  11.403  38.632  1.00  0.00    -0.550 OA
ATOM      9  O   UNL     1      62.775  11.472  40.807  1.00  0.00    -0.550 OA
ENDBRANCH   6   7
ENDBRANCH   5   6
ENDBRANCH   4   5
ENDBRANCH   3   4
ENDBRANCH   2   3
ENDBRANCH   1   2
BRANCH   1  10
ATOM     10  C   UNL     1      61.477  18.787  39.582  1.00  0.00     0.000 C 
BRANCH  10  11
ATOM     11  C   UNL     1      62.929  19.014  40.032  1.00  0.00    -0.000 C 
BRANCH  11  12
ATOM     12  C   UNL     1      63.890  17.948  39.479  1.00  0.00    -0.000 C 
BRANCH  12  13
ATOM     13  C   UNL     1      64.151  18.105  37.971  1.00  0.00    -0.000 C 
BRANCH  13  14
ATOM     14  C   UNL     1      65.007  16.990  37.338  1.00  0.00    -0.000 C 
BRANCH  14  15
ATOM     15  C   UNL     1      64.484  16.454  35.994  1.00  0.00    -0.003 C 
ATOM     16  C   UNL     1      64.309  14.935  35.985  1.00  0.00     0.004 C 
ENDBRANCH  14  15
ENDBRANCH  13  14
ENDBRANCH  12  13
ENDBRANCH  11  12
ENDBRANCH  10  11
ENDBRANCH   1  10
TORSDOF 12
ENDMDL
MODEL 2
REMARK VINA RESULT:    -4.304      1.174      1.857
REMARK INTER + INTRA:          -9.173
REMARK INTER:                  -7.696
REMARK INTRA:                  -1.476
REMARK UNBOUND:                -1.849
REMARK SMILES CCCCCCCCCCCCCC(=O)[O-]
REMARK SMILES IDX 8 1 9 2 10 3 11 4 12 5 13 6 14 7 15 8 16 9 7 10 6 11 5 12
REMARK SMILES IDX 4 13 3 14 2 15 1 16
REMARK H PARENT
REMARK Flexibility Score: inf
ROOT
ATOM      1  C   UNL     1      63.114  18.927  39.799  1.00  0.00     0.000 C 
ENDROOT
BRANCH   1   2
ATOM      2  C   UNL     1      63.438  17.730  40.706  1.00  0.00     0.000 C 
BRANCH   2   3
ATOM      3  C   UNL     1      62.583  16.493  40.383  1.00  0.00     0.000 C 
BRANCH   3   4
ATOM      4  C   UNL     1      63.447  15.275  39.987  1.00  0.00     0.000 C 
BRANCH   4   5
ATOM      5  C   UNL     1      62.658  13.952  39.945  1.00  0.00     0.006 C 
BRANCH   5   6
ATOM      6  C   UNL     1      63.462  12.764  39.397  1.00  0.00     0.053 C 
BRANCH   6   7
ATOM      7  C   UNL     1      62.708  11.475  39.521  1.00  0.00     0.041 C 
ATOM      8  O   UNL     1      62.053  11.028  38.543  1.00  0.00    -0.550 OA
ATOM      9  O   UNL     1      62.743  10.756  40.709  1.00  0.00    -0.550 OA
ENDBRANCH   6   7
ENDBRANCH   5   6
ENDBRANCH   4   5
ENDBRANCH   3   4
ENDBRANCH   2   3
ENDBRANCH   1   2
BRANCH   1  10
ATOM     10  C   UNL     1      62.037  18.601  38.749  1.00  0.00     0.000 C 
BRANCH  10  11
ATOM     11  C   UNL     1      62.614  18.497  37.328  1.00  0.00    -0.000 C 
BRANCH  11  12
ATOM     12  C   UNL     1      64.150  18.580  37.309  1.00  0.00    -0.000 C 
BRANCH  12  13
ATOM     13  C   UNL     1      64.820  17.197  37.236  1.00  0.00    -0.000 C 
BRANCH  13  14
ATOM     14  C   UNL     1      64.647  16.458  35.894  1.00  0.00    -0.000 C 
BRANCH  14  15
ATOM     15  C   UNL     1      64.299  14.965  36.015  1.00  0.00    -0.003 C 
ATOM     16  C   UNL     1      62.824  14.720  36.337  1.00  0.00     0.004 C 
ENDBRANCH  14  15
ENDBRANCH  13  14
ENDBRANCH  12  13
ENDBRANCH  11  12
ENDBRANCH  10  11
ENDBRANCH   1  10
TORSDOF 12
ENDMDL
MODEL 3
REMARK VINA RESULT:    -4.301      2.791      4.598
REMARK INTER + INTRA:          -9.167
REMARK INTER:                  -7.268
REMARK INTRA:                  -1.900
REMARK UNBOUND:                -1.849
REMARK SMILES CCCCCCCCCCCCCC(=O)[O-]
REMARK SMILES IDX 8 1 9 2 10 3 11 4 12 5 13 6 14 7 15 8 16 9 7 10 6 11 5 12
REMARK SMILES IDX 4 13 3 14 2 15 1 16
REMARK H PARENT
REMARK Flexibility Score: inf
ROOT
ATOM      1  C   UNL     1      60.487  18.677  38.203  1.00  0.00     0.000 C 
ENDROOT
BRANCH   1   2
ATOM      2  C   UNL     1      61.029  18.920  39.620  1.00  0.00     0.000 C 
BRANCH   2   3
ATOM      3  C   UNL     1      62.519  19.302  39.627  1.00  0.00     0.000 C 
BRANCH   3   4
ATOM      4  C   UNL     1      63.426  18.109  40.001  1.00  0.00     0.000 C 
BRANCH   4   5
ATOM      5  C   UNL     1      64.388  17.691  38.872  1.00  0.00     0.006 C 
BRANCH   5   6
ATOM      6  C   UNL     1      64.009  18.250  37.493  1.00  0.00     0.053 C 
BRANCH   6   7
ATOM      7  C   UNL     1      64.820  17.628  36.397  1.00  0.00     0.041 C 
ATOM      8  O   UNL     1      64.264  16.899  35.534  1.00  0.00    -0.550 OA
ATOM      9  O   UNL     1      66.186  17.869  36.315  1.00  0.00    -0.550 OA
ENDBRANCH   6   7
ENDBRANCH   5   6
ENDBRANCH   4   5
ENDBRANCH   3   4
ENDBRANCH   2   3
ENDBRANCH   1   2
BRANCH   1  10
ATOM     10  C   UNL     1      59.942  17.250  38.014  1.00  0.00     0.000 C 
BRANCH  10  11
ATOM     11  C   UNL     1      60.302  16.322  39.185  1.00  0.00    -0.000 C 
BRANCH  11  12
ATOM     12  C   UNL     1      61.152  15.119  38.744  1.00  0.00    -0.000 C 
BRANCH  12  13
ATOM     13  C   UNL     1      62.018  14.552  39.882  1.00  0.00    -0.000 C 
BRANCH  13  14
ATOM     14  C   UNL     1      63.439  14.121  39.467  1.00  0.00    -0.000 C 
BRANCH  14  15
ATOM     15  C   UNL     1      63.745  14.253  37.965  1.00  0.00    -0.003 C 
ATOM     16  C   UNL     1      65.237  14.139  37.648  1.00  0.00     0.004 C 
ENDBRANCH  14  15
ENDBRANCH  13  14
ENDBRANCH  12  13
ENDBRANCH  11  12
ENDBRANCH  10  11
ENDBRANCH   1  10
TORSDOF 12
ENDMDL
MODEL 4
REMARK VINA RESULT:    -4.210     10.802     13.457
REMARK INTER + INTRA:          -9.013
REMARK INTER:                  -7.647
REMARK INTRA:                  -1.366
REMARK UNBOUND:                -1.849
REMARK SMILES CCCCCCCCCCCCCC(=O)[O-]
REMARK SMILES IDX 8 1 9 2 10 3 11 4 12 5 13 6 14 7 15 8 16 9 7 10 6 11 5 12
REMARK SMILES IDX 4 13 3 14 2 15 1 16
REMARK H PARENT
REMARK Flexibility Score: inf
ROOT
ATOM      1  C   UNL     1      74.553   7.632  32.134  1.00  0.00     0.000 C 
ENDROOT
BRANCH   1   2
ATOM      2  C   UNL     1      74.736   6.291  32.861  1.00  0.00     0.000 C 
BRANCH   2   3
ATOM      3  C   UNL     1      73.410   5.535  33.054  1.00  0.00     0.000 C 
BRANCH   3   4
ATOM      4  C   UNL     1      72.736   5.876  34.401  1.00  0.00     0.000 C 
BRANCH   4   5
ATOM      5  C   UNL     1      71.207   5.683  34.387  1.00  0.00     0.006 C 
BRANCH   5   6
ATOM      6  C   UNL     1      70.485   6.507  33.310  1.00  0.00     0.053 C 
BRANCH   6   7
ATOM      7  C   UNL     1      69.000   6.514  33.516  1.00  0.00     0.041 C 
ATOM      8  O   UNL     1      68.254   7.139  32.717  1.00  0.00    -0.550 OA
ATOM      9  O   UNL     1      68.438   5.817  34.578  1.00  0.00    -0.550 OA
ENDBRANCH   6   7
ENDBRANCH   5   6
ENDBRANCH   4   5
ENDBRANCH   3   4
ENDBRANCH   2   3
ENDBRANCH   1   2
BRANCH   1  10
ATOM     10  C   UNL     1      73.476   7.570  31.037  1.00  0.00     0.000 C 
BRANCH  10  11
ATOM     11  C   UNL     1      72.595   8.829  31.005  1.00  0.00    -0.000 C 
BRANCH  11  12
ATOM     12  C   UNL     1      72.359   9.418  32.406  1.00  0.00    -0.000 C 
BRANCH  12  13
ATOM     13  C   UNL     1      71.276  10.510  32.419  1.00  0.00    -0.000 C 
BRANCH  13  14
ATOM     14  C   UNL     1      70.025  10.178  33.257  1.00  0.00    -0.000 C 
BRANCH  14  15
ATOM     15  C   UNL     1      68.786  11.035  32.943  1.00  0.00    -0.003 C 
ATOM     16  C   UNL     1      68.679  11.409  31.465  1.00  0.00     0.004 C 
ENDBRANCH  14  15
ENDBRANCH  13  14
ENDBRANCH  12  13
ENDBRANCH  11  12
ENDBRANCH  10  11
ENDBRANCH   1  10
TORSDOF 12
ENDMDL
MODEL 5
REMARK VINA RESULT:    -4.202     11.181     13.838
REMARK INTER + INTRA:          -8.999
REMARK INTER:                  -7.787
REMARK INTRA:                  -1.212
REMARK UNBOUND:                -1.849
REMARK SMILES CCCCCCCCCCCCCC(=O)[O-]
REMARK SMILES IDX 8 1 9 2 10 3 11 4 12 5 13 6 14 7 15 8 16 9 7 10 6 11 5 12
REMARK SMILES IDX 4 13 3 14 2 15 1 16
REMARK H PARENT
REMARK Flexibility Score: inf
ROOT
ATOM      1  C   UNL     1      71.322   6.296  33.067  1.00  0.00     0.000 C 
ENDROOT
BRANCH   1   2
ATOM      2  C   UNL     1      70.417   7.516  33.303  1.00  0.00     0.000 C 
BRANCH   2   3
ATOM      3  C   UNL     1      68.938   7.225  32.997  1.00  0.00     0.000 C 
BRANCH   3   4
ATOM      4  C   UNL     1      68.008   8.355  33.490  1.00  0.00     0.000 C 
BRANCH   4   5
ATOM      5  C   UNL     1      68.668   9.747  33.463  1.00  0.00     0.006 C 
BRANCH   5   6
ATOM      6  C   UNL     1      68.207  10.633  32.296  1.00  0.00     0.053 C 
BRANCH   6   7
ATOM      7  C   UNL     1      69.340  11.424  31.714  1.00  0.00     0.041 C 
ATOM      8  O   UNL     1      69.107  12.376  30.925  1.00  0.00    -0.550 OA
ATOM      9  O   UNL     1      70.652  11.122  32.059  1.00  0.00    -0.550 OA
ENDBRANCH   6   7
ENDBRANCH   5   6
ENDBRANCH   4   5
ENDBRANCH   3   4
ENDBRANCH   2   3
ENDBRANCH   1   2
BRANCH   1  10
ATOM     10  C   UNL     1      72.299   6.048  34.230  1.00  0.00     0.000 C 
BRANCH  10  11
ATOM     11  C   UNL     1      73.376   5.009  33.882  1.00  0.00    -0.000 C 
BRANCH  11  12
ATOM     12  C   UNL     1      73.999   5.250  32.496  1.00  0.00    -0.000 C 
BRANCH  12  13
ATOM     13  C   UNL     1      75.184   6.230  32.537  1.00  0.00    -0.000 C 
BRANCH  13  14
ATOM     14  C   UNL     1      75.134   7.358  31.487  1.00  0.00    -0.000 C 
BRANCH  14  15
ATOM     15  C   UNL     1      73.995   8.373  31.679  1.00  0.00    -0.003 C 
ATOM     16  C   UNL     1      73.019   8.405  30.502  1.00  0.00     0.004 C 
ENDBRANCH  14  15
ENDBRANCH  13  14
ENDBRANCH  12  13
ENDBRANCH  11  12
ENDBRANCH  10  11
ENDBRANCH   1  10
TORSDOF 12
ENDMDL
MODEL 6
REMARK VINA RESULT:    -4.199     10.672     13.758
REMARK INTER + INTRA:          -8.994
REMARK INTER:                  -7.364
REMARK INTRA:                  -1.630
REMARK UNBOUND:                -1.849
REMARK SMILES CCCCCCCCCCCCCC(=O)[O-]
REMARK SMILES IDX 8 1 9 2 10 3 11 4 12 5 13 6 14 7 15 8 16 9 7 10 6 11 5 12
REMARK SMILES IDX 4 13 3 14 2 15 1 16
REMARK H PARENT
REMARK Flexibility Score: inf
ROOT
ATOM      1  C   UNL     1      72.711   6.514  31.008  1.00  0.00     0.000 C 
ENDROOT
BRANCH   1   2
ATOM      2  C   UNL     1      72.861   8.025  30.768  1.00  0.00     0.000 C 
BRANCH   2   3
ATOM      3  C   UNL     1      73.520   8.751  31.954  1.00  0.00     0.000 C 
BRANCH   3   4
ATOM      4  C   UNL     1      72.482   9.458  32.853  1.00  0.00     0.000 C 
BRANCH   4   5
ATOM      5  C   UNL     1      71.296  10.053  32.070  1.00  0.00     0.006 C 
BRANCH   5   6
ATOM      6  C   UNL     1      70.159  10.574  32.961  1.00  0.00     0.053 C 
BRANCH   6   7
ATOM      7  C   UNL     1      68.969  10.999  32.156  1.00  0.00     0.041 C 
ATOM      8  O   UNL     1      67.841  10.484  32.373  1.00  0.00    -0.550 OA
ATOM      9  O   UNL     1      69.100  11.978  31.178  1.00  0.00    -0.550 OA
ENDBRANCH   6   7
ENDBRANCH   5   6
ENDBRANCH   4   5
ENDBRANCH   3   4
ENDBRANCH   2   3
ENDBRANCH   1   2
BRANCH   1  10
ATOM     10  C   UNL     1      73.513   6.025  32.227  1.00  0.00     0.000 C 
BRANCH  10  11
ATOM     11  C   UNL     1      72.664   5.180  33.189  1.00  0.00    -0.000 C 
BRANCH  11  12
ATOM     12  C   UNL     1      71.932   6.037  34.237  1.00  0.00    -0.000 C 
BRANCH  12  13
ATOM     13  C   UNL     1      70.402   5.913  34.144  1.00  0.00    -0.000 C 
BRANCH  13  14
ATOM     14  C   UNL     1      69.732   6.853  33.121  1.00  0.00    -0.000 C 
BRANCH  14  15
ATOM     15  C   UNL     1      68.204   6.969  33.249  1.00  0.00    -0.003 C 
ATOM     16  C   UNL     1      67.630   6.092  34.362  1.00  0.00     0.004 C 
ENDBRANCH  14  15
ENDBRANCH  13  14
ENDBRANCH  12  13
ENDBRANCH  11  12
ENDBRANCH  10  11
ENDBRANCH   1  10
TORSDOF 12
ENDMDL
MODEL 7
REMARK VINA RESULT:    -4.199     10.904     13.465
REMARK INTER + INTRA:          -8.993
REMARK INTER:                  -7.504
REMARK INTRA:                  -1.489
REMARK UNBOUND:                -1.849
REMARK SMILES CCCCCCCCCCCCCC(=O)[O-]
REMARK SMILES IDX 8 1 9 2 10 3 11 4 12 5 13 6 14 7 15 8 16 9 7 10 6 11 5 12
REMARK SMILES IDX 4 13 3 14 2 15 1 16
REMARK H PARENT
REMARK Flexibility Score: inf
ROOT
ATOM      1  C   UNL     1      70.838   7.211  32.831  1.00  0.00     0.000 C 
ENDROOT
BRANCH   1   2
ATOM      2  C   UNL     1      69.700   6.471  33.551  1.00  0.00     0.000 C 
BRANCH   2   3
ATOM      3  C   UNL     1      68.310   7.009  33.171  1.00  0.00     0.000 C 
BRANCH   3   4
ATOM      4  C   UNL     1      68.018   8.380  33.820  1.00  0.00     0.000 C 
BRANCH   4   5
ATOM      5  C   UNL     1      68.188   9.565  32.850  1.00  0.00     0.006 C 
BRANCH   5   6
ATOM      6  C   UNL     1      69.254  10.580  33.288  1.00  0.00     0.053 C 
BRANCH   6   7
ATOM      7  C   UNL     1      69.826  11.328  32.122  1.00  0.00     0.041 C 
ATOM      8  O   UNL     1      71.057  11.587  32.078  1.00  0.00    -0.550 OA
ATOM      9  O   UNL     1      69.004  11.721  31.073  1.00  0.00    -0.550 OA
ENDBRANCH   6   7
ENDBRANCH   5   6
ENDBRANCH   4   5
ENDBRANCH   3   4
ENDBRANCH   2   3
ENDBRANCH   1   2
BRANCH   1  10
ATOM     10  C   UNL     1      71.876   7.795  33.806  1.00  0.00     0.000 C 
BRANCH  10  11
ATOM     11  C   UNL     1      72.892   8.710  33.104  1.00  0.00    -0.000 C 
BRANCH  11  12
ATOM     12  C   UNL     1      72.858   8.562  31.573  1.00  0.00    -0.000 C 
BRANCH  12  13
ATOM     13  C   UNL     1      73.943   7.610  31.043  1.00  0.00    -0.000 C 
BRANCH  13  14
ATOM     14  C   UNL     1      75.081   7.300  32.036  1.00  0.00    -0.000 C 
BRANCH  14  15
ATOM     15  C   UNL     1      75.127   5.847  32.539  1.00  0.00    -0.003 C 
ATOM     16  C   UNL     1      73.884   5.044  32.155  1.00  0.00     0.004 C 
ENDBRANCH  14  15
ENDBRANCH  13  14
ENDBRANCH  12  13
ENDBRANCH  11  12
ENDBRANCH  10  11
ENDBRANCH   1  10
TORSDOF 12
ENDMDL
MODEL 8
REMARK VINA RESULT:    -4.168      1.528      3.498
REMARK INTER + INTRA:          -8.941
REMARK INTER:                  -7.350
REMARK INTRA:                  -1.591
REMARK UNBOUND:                -1.849
REMARK SMILES CCCCCCCCCCCCCC(=O)[O-]
REMARK SMILES IDX 8 1 9 2 10 3 11 4 12 5 13 6 14 7 15 8 16 9 7 10 6 11 5 12
REMARK SMILES IDX 4 13 3 14 2 15 1 16
REMARK H PARENT
REMARK Flexibility Score: inf
ROOT
ATOM      1  C   UNL     1      64.176  15.504  35.884  1.00  0.00     0.000 C 
ENDROOT
BRANCH   1   2
ATOM      2  C   UNL     1      64.532  14.803  37.205  1.00  0.00     0.000 C 
BRANCH   2   3
ATOM      3  C   UNL     1      63.289  14.442  38.037  1.00  0.00     0.000 C 
BRANCH   3   4
ATOM      4  C   UNL     1      63.660  13.933  39.447  1.00  0.00     0.000 C 
BRANCH   4   5
ATOM      5  C   UNL     1      62.699  12.853  39.982  1.00  0.00     0.006 C 
BRANCH   5   6
ATOM      6  C   UNL     1      62.940  11.457  39.390  1.00  0.00     0.053 C 
BRANCH   6   7
ATOM      7  C   UNL     1      61.792  11.007  38.537  1.00  0.00     0.041 C 
ATOM      8  O   UNL     1      60.886  11.820  38.215  1.00  0.00    -0.550 OA
ATOM      9  O   UNL     1      61.732   9.696  38.083  1.00  0.00    -0.550 OA
ENDBRANCH   6   7
ENDBRANCH   5   6
ENDBRANCH   4   5
ENDBRANCH   3   4
ENDBRANCH   2   3
ENDBRANCH   1   2
BRANCH   1  10
ATOM     10  C   UNL     1      64.977  16.800  35.667  1.00  0.00     0.000 C 
BRANCH  10  11
ATOM     11  C   UNL     1      65.004  17.692  36.918  1.00  0.00    -0.000 C 
BRANCH  11  12
ATOM     12  C   UNL     1      63.733  18.547  37.058  1.00  0.00    -0.000 C 
BRANCH  12  13
ATOM     13  C   UNL     1      63.218  18.616  38.507  1.00  0.00    -0.000 C 
BRANCH  13  14
ATOM     14  C   UNL     1      64.012  17.768  39.521  1.00  0.00    -0.000 C 
BRANCH  14  15
ATOM     15  C   UNL     1      63.221  17.340  40.769  1.00  0.00    -0.003 C 
ATOM     16  C   UNL     1      61.777  16.950  40.455  1.00  0.00     0.004 C 
ENDBRANCH  14  15
ENDBRANCH  13  14
ENDBRANCH  12  13
ENDBRANCH  11  12
ENDBRANCH  10  11
ENDBRANCH   1  10
TORSDOF 12
ENDMDL
MODEL 9
REMARK VINA RESULT:    -4.136      3.144      5.213
REMARK INTER + INTRA:          -8.886
REMARK INTER:                  -7.382
REMARK INTRA:                  -1.504
REMARK UNBOUND:                -1.849
REMARK SMILES CCCCCCCCCCCCCC(=O)[O-]
REMARK SMILES IDX 8 1 9 2 10 3 11 4 12 5 13 6 14 7 15 8 16 9 7 10 6 11 5 12
REMARK SMILES IDX 4 13 3 14 2 15 1 16
REMARK H PARENT
REMARK Flexibility Score: inf
ROOT
ATOM      1  C   UNL     1      62.421  13.440  38.803  1.00  0.00     0.000 C 
ENDROOT
BRANCH   1   2
ATOM      2  C   UNL     1      63.873  13.885  39.043  1.00  0.00     0.000 C 
BRANCH   2   3
ATOM      3  C   UNL     1      64.567  14.361  37.756  1.00  0.00     0.000 C 
BRANCH   3   4
ATOM      4  C   UNL     1      63.577  15.018  36.769  1.00  0.00     0.000 C 
BRANCH   4   5
ATOM      5  C   UNL     1      63.721  16.551  36.685  1.00  0.00     0.006 C 
BRANCH   5   6
ATOM      6  C   UNL     1      64.726  17.025  35.625  1.00  0.00     0.053 C 
BRANCH   6   7
ATOM      7  C   UNL     1      65.943  17.641  36.247  1.00  0.00     0.041 C 
ATOM      8  O   UNL     1      66.261  17.358  37.432  1.00  0.00    -0.550 OA
ATOM      9  O   UNL     1      66.737  18.513  35.513  1.00  0.00    -0.550 OA
ENDBRANCH   6   7
ENDBRANCH   5   6
ENDBRANCH   4   5
ENDBRANCH   3   4
ENDBRANCH   2   3
ENDBRANCH   1   2
BRANCH   1  10
ATOM     10  C   UNL     1      61.438  14.052  39.817  1.00  0.00     0.000 C 
BRANCH  10  11
ATOM     11  C   UNL     1      60.929  15.435  39.382  1.00  0.00    -0.000 C 
BRANCH  11  12
ATOM     12  C   UNL     1      61.144  16.509  40.463  1.00  0.00    -0.000 C 
BRANCH  12  13
ATOM     13  C   UNL     1      62.563  17.102  40.441  1.00  0.00    -0.000 C 
BRANCH  13  14
ATOM     14  C   UNL     1      62.695  18.448  39.699  1.00  0.00    -0.000 C 
BRANCH  14  15
ATOM     15  C   UNL     1      61.362  19.142  39.371  1.00  0.00    -0.003 C 
ATOM     16  C   UNL     1      60.877  18.859  37.949  1.00  0.00     0.004 C 
ENDBRANCH  14  15
ENDBRANCH  13  14
ENDBRANCH  12  13
ENDBRANCH  11  12
ENDBRANCH  10  11
ENDBRANCH   1  10
TORSDOF 12
ENDMDL
