MODEL 1
REMARK VINA RESULT:    -3.537      0.000      0.000
REMARK INTER + INTRA:          -8.991
REMARK INTER:                  -6.432
REMARK INTRA:                  -2.560
REMARK UNBOUND:                -2.560
REMARK SMILES CCCCCCCCCCCCCCCC(=O)[O-]
REMARK SMILES IDX 9 1 10 2 11 3 12 4 13 5 14 6 15 7 16 8 17 9 18 10 8 11 7 12
REMARK SMILES IDX 6 13 5 14 4 15 3 16 2 17 1 18
REMARK H PARENT
REMARK Flexibility Score: inf
ROOT
ATOM      1  C   UNL     1      24.340  -2.149  34.616  1.00  0.00     0.000 C 
ENDROOT
BRANCH   1   2
ATOM      2  C   UNL     1      25.247  -1.623  33.495  1.00  0.00     0.000 C 
BRANCH   2   3
ATOM      3  C   UNL     1      25.107  -0.101  33.341  1.00  0.00     0.000 C 
BRANCH   3   4
ATOM      4  C   UNL     1      26.212   0.681  34.072  1.00  0.00     0.000 C 
BRANCH   4   5
ATOM      5  C   UNL     1      25.851   1.142  35.496  1.00  0.00     0.000 C 
BRANCH   5   6
ATOM      6  C   UNL     1      26.411   0.217  36.586  1.00  0.00     0.006 C 
BRANCH   6   7
ATOM      7  C   UNL     1      27.655  -0.524  36.089  1.00  0.00     0.053 C 
BRANCH   7   8
ATOM      8  C   UNL     1      27.624  -1.954  36.531  1.00  0.00     0.041 C 
ATOM      9  O   UNL     1      27.700  -2.881  35.683  1.00  0.00    -0.550 OA
ATOM     10  O   UNL     1      27.462  -2.261  37.876  1.00  0.00    -0.550 OA
ENDBRANCH   7   8
ENDBRANCH   6   7
ENDBRANCH   5   6
ENDBRANCH   4   5
ENDBRANCH   3   4
ENDBRANCH   2   3
ENDBRANCH   1   2
BRANCH   1  11
ATOM     11  C   UNL     1      22.999  -1.401  34.634  1.00  0.00     0.000 C 
BRANCH  11  12
ATOM     12  C   UNL     1      22.747  -0.665  35.960  1.00  0.00    -0.000 C 
BRANCH  12  13
ATOM     13  C   UNL     1      22.245   0.773  35.750  1.00  0.00    -0.000 C 
BRANCH  13  14
ATOM     14  C   UNL     1      21.720   1.013  34.326  1.00  0.00    -0.000 C 
BRANCH  14  15
ATOM     15  C   UNL     1      22.281   2.300  33.694  1.00  0.00    -0.000 C 
BRANCH  15  16
ATOM     16  C   UNL     1      22.512   2.161  32.181  1.00  0.00    -0.000 C 
BRANCH  16  17
ATOM     17  C   UNL     1      23.572   3.140  31.653  1.00  0.00    -0.003 C 
ATOM     18  C   UNL     1      24.422   3.695  32.792  1.00  0.00     0.004 C 
ENDBRANCH  16  17
ENDBRANCH  15  16
ENDBRANCH  14  15
ENDBRANCH  13  14
ENDBRANCH  12  13
ENDBRANCH  11  12
ENDBRANCH   1  11
TORSDOF 14
ENDMDL
MODEL 2
REMARK VINA RESULT:    -3.481      2.081      4.146
REMARK INTER + INTRA:          -8.890
REMARK INTER:                  -6.911
REMARK INTRA:                  -1.978
REMARK UNBOUND:                -2.560
REMARK SMILES CCCCCCCCCCCCCCCC(=O)[O-]
REMARK SMILES IDX 9 1 10 2 11 3 12 4 13 5 14 6 15 7 16 8 17 9 18 10 8 11 7 12
REMARK SMILES IDX 6 13 5 14 4 15 3 16 2 17 1 18
REMARK H PARENT
REMARK Flexibility Score: inf
ROOT
ATOM      1  C   UNL     1      26.777   0.520  35.075  1.00  0.00     0.000 C 
ENDROOT
BRANCH   1   2
ATOM      2  C   UNL     1      26.797   1.028  36.522  1.00  0.00     0.000 C 
BRANCH   2   3
ATOM      3  C   UNL     1      26.416  -0.091  37.504  1.00  0.00     0.000 C 
BRANCH   3   4
ATOM      4  C   UNL     1      26.453  -1.490  36.864  1.00  0.00     0.000 C 
BRANCH   4   5
ATOM      5  C   UNL     1      27.722  -2.310  37.162  1.00  0.00     0.000 C 
BRANCH   5   6
ATOM      6  C   UNL     1      28.754  -2.249  36.026  1.00  0.00     0.006 C 
BRANCH   6   7
ATOM      7  C   UNL     1      29.257  -3.649  35.667  1.00  0.00     0.053 C 
BRANCH   7   8
ATOM      8  C   UNL     1      28.708  -4.080  34.343  1.00  0.00     0.041 C 
ATOM      9  O   UNL     1      27.501  -4.423  34.238  1.00  0.00    -0.550 OA
ATOM     10  O   UNL     1      29.543  -4.150  33.235  1.00  0.00    -0.550 OA
ENDBRANCH   7   8
ENDBRANCH   6   7
ENDBRANCH   5   6
ENDBRANCH   4   5
ENDBRANCH   3   4
ENDBRANCH   2   3
ENDBRANCH   1   2
BRANCH   1  11
ATOM     11  C   UNL     1      25.802   1.340  34.218  1.00  0.00     0.000 C 
BRANCH  11  12
ATOM     12  C   UNL     1      24.902   0.459  33.336  1.00  0.00    -0.000 C 
BRANCH  12  13
ATOM     13  C   UNL     1      25.191  -1.042  33.512  1.00  0.00    -0.000 C 
BRANCH  13  14
ATOM     14  C   UNL     1      24.099  -1.762  34.319  1.00  0.00    -0.000 C 
BRANCH  14  15
ATOM     15  C   UNL     1      22.872  -0.871  34.586  1.00  0.00    -0.000 C 
BRANCH  15  16
ATOM     16  C   UNL     1      22.589  -0.690  36.085  1.00  0.00    -0.000 C 
BRANCH  16  17
ATOM     17  C   UNL     1      23.044   0.679  36.611  1.00  0.00    -0.003 C 
ATOM     18  C   UNL     1      22.023   1.260  37.585  1.00  0.00     0.004 C 
ENDBRANCH  16  17
ENDBRANCH  15  16
ENDBRANCH  14  15
ENDBRANCH  13  14
ENDBRANCH  12  13
ENDBRANCH  11  12
ENDBRANCH   1  11
TORSDOF 14
ENDMDL
MODEL 3
REMARK VINA RESULT:    -3.420      1.412      2.909
REMARK INTER + INTRA:          -8.778
REMARK INTER:                  -6.381
REMARK INTRA:                  -2.397
REMARK UNBOUND:                -2.560
REMARK SMILES CCCCCCCCCCCCCCCC(=O)[O-]
REMARK SMILES IDX 9 1 10 2 11 3 12 4 13 5 14 6 15 7 16 8 17 9 18 10 8 11 7 12
REMARK SMILES IDX 6 13 5 14 4 15 3 16 2 17 1 18
REMARK H PARENT
REMARK Flexibility Score: inf
ROOT
ATOM      1  C   UNL     1      22.554   0.804  37.211  1.00  0.00     0.000 C 
ENDROOT
BRANCH   1   2
ATOM      2  C   UNL     1      22.800   1.962  36.236  1.00  0.00     0.000 C 
BRANCH   2   3
ATOM      3  C   UNL     1      24.202   2.560  36.433  1.00  0.00     0.000 C 
BRANCH   3   4
ATOM      4  C   UNL     1      24.796   2.256  37.820  1.00  0.00     0.000 C 
BRANCH   4   5
ATOM      5  C   UNL     1      26.280   1.843  37.817  1.00  0.00     0.000 C 
BRANCH   5   6
ATOM      6  C   UNL     1      26.619   0.837  36.708  1.00  0.00     0.006 C 
BRANCH   6   7
ATOM      7  C   UNL     1      26.334  -0.596  37.162  1.00  0.00     0.053 C 
BRANCH   7   8
ATOM      8  C   UNL     1      27.395  -1.526  36.662  1.00  0.00     0.041 C 
ATOM      9  O   UNL     1      28.006  -1.274  35.591  1.00  0.00    -0.550 OA
ATOM     10  O   UNL     1      27.674  -2.698  37.355  1.00  0.00    -0.550 OA
ENDBRANCH   7   8
ENDBRANCH   6   7
ENDBRANCH   5   6
ENDBRANCH   4   5
ENDBRANCH   3   4
ENDBRANCH   2   3
ENDBRANCH   1   2
BRANCH   1  11
ATOM     11  C   UNL     1      22.562  -0.545  36.477  1.00  0.00     0.000 C 
BRANCH  11  12
ATOM     12  C   UNL     1      22.857  -0.401  34.975  1.00  0.00    -0.000 C 
BRANCH  12  13
ATOM     13  C   UNL     1      23.712  -1.557  34.428  1.00  0.00    -0.000 C 
BRANCH  13  14
ATOM     14  C   UNL     1      24.984  -1.065  33.718  1.00  0.00    -0.000 C 
BRANCH  14  15
ATOM     15  C   UNL     1      25.048   0.469  33.608  1.00  0.00    -0.000 C 
BRANCH  15  16
ATOM     16  C   UNL     1      25.578   0.941  32.245  1.00  0.00    -0.000 C 
BRANCH  16  17
ATOM     17  C   UNL     1      24.502   1.646  31.406  1.00  0.00    -0.003 C 
ATOM     18  C   UNL     1      23.420   2.250  32.295  1.00  0.00     0.004 C 
ENDBRANCH  16  17
ENDBRANCH  15  16
ENDBRANCH  14  15
ENDBRANCH  13  14
ENDBRANCH  12  13
ENDBRANCH  11  12
ENDBRANCH   1  11
TORSDOF 14
ENDMDL
MODEL 4
REMARK VINA RESULT:    -3.419      4.518      8.122
REMARK INTER + INTRA:          -8.777
REMARK INTER:                  -7.613
REMARK INTRA:                  -1.164
REMARK UNBOUND:                -2.560
REMARK SMILES CCCCCCCCCCCCCCCC(=O)[O-]
REMARK SMILES IDX 9 1 10 2 11 3 12 4 13 5 14 6 15 7 16 8 17 9 18 10 8 11 7 12
REMARK SMILES IDX 6 13 5 14 4 15 3 16 2 17 1 18
REMARK H PARENT
REMARK Flexibility Score: inf
ROOT
ATOM      1  C   UNL     1      28.448  -3.967  34.560  1.00  0.00     0.000 C 
ENDROOT
BRANCH   1   2
ATOM      2  C   UNL     1      29.219  -3.221  35.656  1.00  0.00     0.000 C 
BRANCH   2   3
ATOM      3  C   UNL     1      28.261  -2.460  36.584  1.00  0.00     0.000 C 
BRANCH   3   4
ATOM      4  C   UNL     1      26.975  -2.000  35.873  1.00  0.00     0.000 C 
BRANCH   4   5
ATOM      5  C   UNL     1      25.938  -1.313  36.782  1.00  0.00     0.000 C 
BRANCH   5   6
ATOM      6  C   UNL     1      24.988  -0.384  36.012  1.00  0.00     0.006 C 
BRANCH   6   7
ATOM      7  C   UNL     1      23.527  -0.752  36.279  1.00  0.00     0.053 C 
BRANCH   7   8
ATOM      8  C   UNL     1      22.876  -1.255  35.028  1.00  0.00     0.041 C 
ATOM      9  O   UNL     1      21.736  -0.837  34.694  1.00  0.00    -0.550 OA
ATOM     10  O   UNL     1      23.508  -2.224  34.259  1.00  0.00    -0.550 OA
ENDBRANCH   7   8
ENDBRANCH   6   7
ENDBRANCH   5   6
ENDBRANCH   4   5
ENDBRANCH   3   4
ENDBRANCH   2   3
ENDBRANCH   1   2
BRANCH   1  11
ATOM     11  C   UNL     1      29.062  -5.351  34.301  1.00  0.00     0.000 C 
BRANCH  11  12
ATOM     12  C   UNL     1      30.014  -5.361  33.094  1.00  0.00    -0.000 C 
BRANCH  12  13
ATOM     13  C   UNL     1      31.494  -5.384  33.510  1.00  0.00    -0.000 C 
BRANCH  13  14
ATOM     14  C   UNL     1      32.413  -4.746  32.455  1.00  0.00    -0.000 C 
BRANCH  14  15
ATOM     15  C   UNL     1      33.253  -3.587  33.022  1.00  0.00    -0.000 C 
BRANCH  15  16
ATOM     16  C   UNL     1      32.434  -2.653  33.927  1.00  0.00    -0.000 C 
BRANCH  16  17
ATOM     17  C   UNL     1      32.960  -2.618  35.370  1.00  0.00    -0.003 C 
ATOM     18  C   UNL     1      34.258  -3.408  35.500  1.00  0.00     0.004 C 
ENDBRANCH  16  17
ENDBRANCH  15  16
ENDBRANCH  14  15
ENDBRANCH  13  14
ENDBRANCH  12  13
ENDBRANCH  11  12
ENDBRANCH   1  11
TORSDOF 14
ENDMDL
MODEL 5
REMARK VINA RESULT:    -3.357      4.092      5.630
REMARK INTER + INTRA:          -8.663
REMARK INTER:                  -7.348
REMARK INTRA:                  -1.315
REMARK UNBOUND:                -2.560
REMARK SMILES CCCCCCCCCCCCCCCC(=O)[O-]
REMARK SMILES IDX 9 1 10 2 11 3 12 4 13 5 14 6 15 7 16 8 17 9 18 10 8 11 7 12
REMARK SMILES IDX 6 13 5 14 4 15 3 16 2 17 1 18
REMARK H PARENT
REMARK Flexibility Score: inf
ROOT
ATOM      1  C   UNL     1      28.053  -1.673  35.905  1.00  0.00     0.000 C 
ENDROOT
BRANCH   1   2
ATOM      2  C   UNL     1      28.644  -3.083  35.782  1.00  0.00     0.000 C 
BRANCH   2   3
ATOM      3  C   UNL     1      28.028  -3.838  34.594  1.00  0.00     0.000 C 
BRANCH   3   4
ATOM      4  C   UNL     1      28.790  -5.128  34.242  1.00  0.00     0.000 C 
BRANCH   4   5
ATOM      5  C   UNL     1      29.874  -4.969  33.160  1.00  0.00     0.000 C 
BRANCH   5   6
ATOM      6  C   UNL     1      31.263  -4.671  33.743  1.00  0.00     0.006 C 
BRANCH   6   7
ATOM      7  C   UNL     1      32.204  -4.125  32.666  1.00  0.00     0.053 C 
BRANCH   7   8
ATOM      8  C   UNL     1      33.531  -4.814  32.729  1.00  0.00     0.041 C 
ATOM      9  O   UNL     1      33.872  -5.438  33.768  1.00  0.00    -0.550 OA
ATOM     10  O   UNL     1      34.411  -4.725  31.658  1.00  0.00    -0.550 OA
ENDBRANCH   7   8
ENDBRANCH   6   7
ENDBRANCH   5   6
ENDBRANCH   4   5
ENDBRANCH   3   4
ENDBRANCH   2   3
ENDBRANCH   1   2
BRANCH   1  11
ATOM     11  C   UNL     1      26.962  -1.627  36.985  1.00  0.00     0.000 C 
BRANCH  11  12
ATOM     12  C   UNL     1      26.242  -0.269  37.044  1.00  0.00    -0.000 C 
BRANCH  12  13
ATOM     13  C   UNL     1      24.796  -0.345  36.527  1.00  0.00    -0.000 C 
BRANCH  13  14
ATOM     14  C   UNL     1      24.518  -1.635  35.737  1.00  0.00    -0.000 C 
BRANCH  14  15
ATOM     15  C   UNL     1      24.598  -1.427  34.214  1.00  0.00    -0.000 C 
BRANCH  15  16
ATOM     16  C   UNL     1      24.399   0.041  33.808  1.00  0.00    -0.000 C 
BRANCH  16  17
ATOM     17  C   UNL     1      25.514   0.554  32.884  1.00  0.00    -0.003 C 
ATOM     18  C   UNL     1      26.529   1.388  33.659  1.00  0.00     0.004 C 
ENDBRANCH  16  17
ENDBRANCH  15  16
ENDBRANCH  14  15
ENDBRANCH  13  14
ENDBRANCH  12  13
ENDBRANCH  11  12
ENDBRANCH   1  11
TORSDOF 14
ENDMDL
MODEL 6
REMARK VINA RESULT:    -3.341      1.495      3.850
REMARK INTER + INTRA:          -8.635
REMARK INTER:                  -6.128
REMARK INTRA:                  -2.507
REMARK UNBOUND:                -2.560
REMARK SMILES CCCCCCCCCCCCCCCC(=O)[O-]
REMARK SMILES IDX 9 1 10 2 11 3 12 4 13 5 14 6 15 7 16 8 17 9 18 10 8 11 7 12
REMARK SMILES IDX 6 13 5 14 4 15 3 16 2 17 1 18
REMARK H PARENT
REMARK Flexibility Score: inf
ROOT
ATOM      1  C   UNL     1      22.731   2.762  35.460  1.00  0.00     0.000 C 
ENDROOT
BRANCH   1   2
ATOM      2  C   UNL     1      22.151   1.365  35.712  1.00  0.00     0.000 C 
BRANCH   2   3
ATOM      3  C   UNL     1      23.015   0.581  36.712  1.00  0.00     0.000 C 
BRANCH   3   4
ATOM      4  C   UNL     1      23.323  -0.853  36.245  1.00  0.00     0.000 C 
BRANCH   4   5
ATOM      5  C   UNL     1      23.279  -1.065  34.720  1.00  0.00     0.000 C 
BRANCH   5   6
ATOM      6  C   UNL     1      23.957  -2.370  34.277  1.00  0.00     0.006 C 
BRANCH   6   7
ATOM      7  C   UNL     1      25.335  -2.093  33.670  1.00  0.00     0.053 C 
BRANCH   7   8
ATOM      8  C   UNL     1      26.417  -2.601  34.571  1.00  0.00     0.041 C 
ATOM      9  O   UNL     1      27.155  -3.552  34.201  1.00  0.00    -0.550 OA
ATOM     10  O   UNL     1      26.577  -2.057  35.839  1.00  0.00    -0.550 OA
ENDBRANCH   7   8
ENDBRANCH   6   7
ENDBRANCH   5   6
ENDBRANCH   4   5
ENDBRANCH   3   4
ENDBRANCH   2   3
ENDBRANCH   1   2
BRANCH   1  11
ATOM     11  C   UNL     1      22.451   3.223  34.022  1.00  0.00     0.000 C 
BRANCH  11  12
ATOM     12  C   UNL     1      22.151   2.053  33.071  1.00  0.00    -0.000 C 
BRANCH  12  13
ATOM     13  C   UNL     1      22.753   2.260  31.671  1.00  0.00    -0.000 C 
BRANCH  13  14
ATOM     14  C   UNL     1      24.276   2.469  31.709  1.00  0.00    -0.000 C 
BRANCH  14  15
ATOM     15  C   UNL     1      25.040   1.196  32.116  1.00  0.00    -0.000 C 
BRANCH  15  16
ATOM     16  C   UNL     1      26.269   1.499  32.987  1.00  0.00    -0.000 C 
BRANCH  16  17
ATOM     17  C   UNL     1      25.959   1.430  34.490  1.00  0.00    -0.003 C 
ATOM     18  C   UNL     1      26.430   2.692  35.206  1.00  0.00     0.004 C 
ENDBRANCH  16  17
ENDBRANCH  15  16
ENDBRANCH  14  15
ENDBRANCH  13  14
ENDBRANCH  12  13
ENDBRANCH  11  12
ENDBRANCH   1  11
TORSDOF 14
ENDMDL
MODEL 7
REMARK VINA RESULT:    -3.332      2.498      4.938
REMARK INTER + INTRA:          -8.619
REMARK INTER:                  -6.344
REMARK INTRA:                  -2.275
REMARK UNBOUND:                -2.560
REMARK SMILES CCCCCCCCCCCCCCCC(=O)[O-]
REMARK SMILES IDX 9 1 10 2 11 3 12 4 13 5 14 6 15 7 16 8 17 9 18 10 8 11 7 12
REMARK SMILES IDX 6 13 5 14 4 15 3 16 2 17 1 18
REMARK H PARENT
REMARK Flexibility Score: inf
ROOT
ATOM      1  C   UNL     1      22.518  -0.518  36.118  1.00  0.00     0.000 C 
ENDROOT
BRANCH   1   2
ATOM      2  C   UNL     1      22.353   0.967  36.469  1.00  0.00     0.000 C 
BRANCH   2   3
ATOM      3  C   UNL     1      23.336   1.835  35.668  1.00  0.00     0.000 C 
BRANCH   3   4
ATOM      4  C   UNL     1      24.407   2.499  36.551  1.00  0.00     0.000 C 
BRANCH   4   5
ATOM      5  C   UNL     1      24.206   2.319  38.067  1.00  0.00     0.000 C 
BRANCH   5   6
ATOM      6  C   UNL     1      25.254   3.066  38.904  1.00  0.00     0.006 C 
BRANCH   6   7
ATOM      7  C   UNL     1      26.673   2.691  38.466  1.00  0.00     0.053 C 
BRANCH   7   8
ATOM      8  C   UNL     1      27.380   1.952  39.559  1.00  0.00     0.041 C 
ATOM      9  O   UNL     1      28.500   2.351  39.973  1.00  0.00    -0.550 OA
ATOM     10  O   UNL     1      26.824   0.792  40.085  1.00  0.00    -0.550 OA
ENDBRANCH   7   8
ENDBRANCH   6   7
ENDBRANCH   5   6
ENDBRANCH   4   5
ENDBRANCH   3   4
ENDBRANCH   2   3
ENDBRANCH   1   2
BRANCH   1  11
ATOM     11  C   UNL     1      23.074  -0.688  34.696  1.00  0.00     0.000 C 
BRANCH  11  12
ATOM     12  C   UNL     1      23.848  -2.004  34.516  1.00  0.00    -0.000 C 
BRANCH  12  13
ATOM     13  C   UNL     1      25.322  -1.774  34.139  1.00  0.00    -0.000 C 
BRANCH  13  14
ATOM     14  C   UNL     1      25.784  -0.334  34.416  1.00  0.00    -0.000 C 
BRANCH  14  15
ATOM     15  C   UNL     1      26.815  -0.250  35.557  1.00  0.00    -0.000 C 
BRANCH  15  16
ATOM     16  C   UNL     1      26.242  -0.716  36.904  1.00  0.00    -0.000 C 
BRANCH  16  17
ATOM     17  C   UNL     1      27.051  -1.864  37.525  1.00  0.00    -0.003 C 
ATOM     18  C   UNL     1      28.117  -2.370  36.558  1.00  0.00     0.004 C 
ENDBRANCH  16  17
ENDBRANCH  15  16
ENDBRANCH  14  15
ENDBRANCH  13  14
ENDBRANCH  12  13
ENDBRANCH  11  12
ENDBRANCH   1  11
TORSDOF 14
ENDMDL
MODEL 8
REMARK VINA RESULT:    -3.329      8.395     10.058
REMARK INTER + INTRA:          -8.614
REMARK INTER:                  -6.859
REMARK INTRA:                  -1.754
REMARK UNBOUND:                -2.560
REMARK SMILES CCCCCCCCCCCCCCCC(=O)[O-]
REMARK SMILES IDX 9 1 10 2 11 3 12 4 13 5 14 6 15 7 16 8 17 9 18 10 8 11 7 12
REMARK SMILES IDX 6 13 5 14 4 15 3 16 2 17 1 18
REMARK H PARENT
REMARK Flexibility Score: inf
ROOT
ATOM      1  C   UNL     1      22.192   6.321  41.312  1.00  0.00     0.000 C 
ENDROOT
BRANCH   1   2
ATOM      2  C   UNL     1      21.272   5.107  41.132  1.00  0.00     0.000 C 
BRANCH   2   3
ATOM      3  C   UNL     1      21.955   4.018  40.290  1.00  0.00     0.000 C 
BRANCH   3   4
ATOM      4  C   UNL     1      23.401   4.376  39.904  1.00  0.00     0.000 C 
BRANCH   4   5
ATOM      5  C   UNL     1      24.400   3.205  39.962  1.00  0.00     0.000 C 
BRANCH   5   6
ATOM      6  C   UNL     1      25.553   3.449  40.945  1.00  0.00     0.006 C 
BRANCH   6   7
ATOM      7  C   UNL     1      25.053   3.430  42.392  1.00  0.00     0.053 C 
BRANCH   7   8
ATOM      8  C   UNL     1      24.665   2.042  42.795  1.00  0.00     0.041 C 
ATOM      9  O   UNL     1      25.454   1.081  42.598  1.00  0.00    -0.550 OA
ATOM     10  O   UNL     1      23.411   1.804  43.343  1.00  0.00    -0.550 OA
ENDBRANCH   7   8
ENDBRANCH   6   7
ENDBRANCH   5   6
ENDBRANCH   4   5
ENDBRANCH   3   4
ENDBRANCH   2   3
ENDBRANCH   1   2
BRANCH   1  11
ATOM     11  C   UNL     1      22.695   6.420  42.760  1.00  0.00     0.000 C 
BRANCH  11  12
ATOM     12  C   UNL     1      21.680   5.878  43.779  1.00  0.00    -0.000 C 
BRANCH  12  13
ATOM     13  C   UNL     1      21.172   6.966  44.741  1.00  0.00    -0.000 C 
BRANCH  13  14
ATOM     14  C   UNL     1      19.650   6.901  44.952  1.00  0.00    -0.000 C 
BRANCH  14  15
ATOM     15  C   UNL     1      19.082   5.484  44.755  1.00  0.00    -0.000 C 
BRANCH  15  16
ATOM     16  C   UNL     1      17.829   5.469  43.866  1.00  0.00    -0.000 C 
BRANCH  16  17
ATOM     17  C   UNL     1      18.032   6.228  42.546  1.00  0.00    -0.003 C 
ATOM     18  C   UNL     1      16.959   7.295  42.355  1.00  0.00     0.004 C 
ENDBRANCH  16  17
ENDBRANCH  15  16
ENDBRANCH  14  15
ENDBRANCH  13  14
ENDBRANCH  12  13
ENDBRANCH  11  12
ENDBRANCH   1  11
TORSDOF 14
ENDMDL
MODEL 9
REMARK VINA RESULT:    -3.302      3.907      5.655
REMARK INTER + INTRA:          -8.564
REMARK INTER:                  -6.666
REMARK INTRA:                  -1.898
REMARK UNBOUND:                -2.560
REMARK SMILES CCCCCCCCCCCCCCCC(=O)[O-]
REMARK SMILES IDX 9 1 10 2 11 3 12 4 13 5 14 6 15 7 16 8 17 9 18 10 8 11 7 12
REMARK SMILES IDX 6 13 5 14 4 15 3 16 2 17 1 18
REMARK H PARENT
REMARK Flexibility Score: inf
ROOT
ATOM      1  C   UNL     1      23.387   1.779  35.858  1.00  0.00     0.000 C 
ENDROOT
BRANCH   1   2
ATOM      2  C   UNL     1      24.642   2.455  36.424  1.00  0.00     0.000 C 
BRANCH   2   3
ATOM      3  C   UNL     1      24.884   2.037  37.883  1.00  0.00     0.000 C 
BRANCH   3   4
ATOM      4  C   UNL     1      24.896   3.230  38.856  1.00  0.00     0.000 C 
BRANCH   4   5
ATOM      5  C   UNL     1      23.531   3.573  39.482  1.00  0.00     0.000 C 
BRANCH   5   6
ATOM      6  C   UNL     1      23.297   2.873  40.828  1.00  0.00     0.006 C 
BRANCH   6   7
ATOM      7  C   UNL     1      24.548   2.942  41.707  1.00  0.00     0.053 C 
BRANCH   7   8
ATOM      8  C   UNL     1      24.575   1.799  42.673  1.00  0.00     0.041 C 
ATOM      9  O   UNL     1      25.484   0.930  42.602  1.00  0.00    -0.550 OA
ATOM     10  O   UNL     1      23.567   1.666  43.619  1.00  0.00    -0.550 OA
ENDBRANCH   7   8
ENDBRANCH   6   7
ENDBRANCH   5   6
ENDBRANCH   4   5
ENDBRANCH   3   4
ENDBRANCH   2   3
ENDBRANCH   1   2
BRANCH   1  11
ATOM     11  C   UNL     1      22.714   0.895  36.918  1.00  0.00     0.000 C 
BRANCH  11  12
ATOM     12  C   UNL     1      22.503  -0.551  36.438  1.00  0.00    -0.000 C 
BRANCH  12  13
ATOM     13  C   UNL     1      22.560  -0.678  34.907  1.00  0.00    -0.000 C 
BRANCH  13  14
ATOM     14  C   UNL     1      23.569  -1.741  34.440  1.00  0.00    -0.000 C 
BRANCH  14  15
ATOM     15  C   UNL     1      24.924  -1.134  34.031  1.00  0.00    -0.000 C 
BRANCH  15  16
ATOM     16  C   UNL     1      26.094  -1.695  34.853  1.00  0.00    -0.000 C 
BRANCH  16  17
ATOM     17  C   UNL     1      26.652  -0.676  35.857  1.00  0.00    -0.003 C 
ATOM     18  C   UNL     1      26.515  -1.184  37.289  1.00  0.00     0.004 C 
ENDBRANCH  16  17
ENDBRANCH  15  16
ENDBRANCH  14  15
ENDBRANCH  13  14
ENDBRANCH  12  13
ENDBRANCH  11  12
ENDBRANCH   1  11
TORSDOF 14
ENDMDL
