MODEL 1
REMARK VINA RESULT:    -3.908      0.000      0.000
REMARK INTER + INTRA:          -7.956
REMARK INTER:                  -7.107
REMARK INTRA:                  -0.849
REMARK UNBOUND:                -0.849
REMARK SMILES CCCCCCCCCCCCCCCC(=O)[O-]
REMARK SMILES IDX 9 1 10 2 11 3 12 4 13 5 14 6 15 7 16 8 17 9 18 10 8 11 7 12
REMARK SMILES IDX 6 13 5 14 4 15 3 16 2 17 1 18
REMARK H PARENT
REMARK Flexibility Score: inf
ROOT
ATOM      1  C   UNL     1      -9.294  -8.339  -6.491  1.00  0.00     0.000 C 
ENDROOT
BRANCH   1   2
ATOM      2  C   UNL     1     -10.652  -8.065  -5.821  1.00  0.00     0.000 C 
BRANCH   2   3
ATOM      3  C   UNL     1     -11.846  -8.512  -6.683  1.00  0.00     0.000 C 
BRANCH   3   4
ATOM      4  C   UNL     1     -12.604  -9.704  -6.075  1.00  0.00     0.000 C 
BRANCH   4   5
ATOM      5  C   UNL     1     -14.112  -9.431  -5.934  1.00  0.00     0.000 C 
BRANCH   5   6
ATOM      6  C   UNL     1     -14.431  -7.938  -5.736  1.00  0.00     0.006 C 
BRANCH   6   7
ATOM      7  C   UNL     1     -15.872  -7.543  -6.097  1.00  0.00     0.053 C 
BRANCH   7   8
ATOM      8  C   UNL     1     -16.188  -7.828  -7.533  1.00  0.00     0.041 C 
ATOM      9  O   UNL     1     -15.824  -7.026  -8.434  1.00  0.00    -0.550 OA
ATOM     10  O   UNL     1     -16.910  -8.964  -7.875  1.00  0.00    -0.550 OA
ENDBRANCH   7   8
ENDBRANCH   6   7
ENDBRANCH   5   6
ENDBRANCH   4   5
ENDBRANCH   3   4
ENDBRANCH   2   3
ENDBRANCH   1   2
BRANCH   1  11
ATOM     11  C   UNL     1      -9.057  -9.803  -6.907  1.00  0.00     0.000 C 
BRANCH  11  12
ATOM     12  C   UNL     1      -7.650 -10.308  -6.546  1.00  0.00    -0.000 C 
BRANCH  12  13
ATOM     13  C   UNL     1      -6.902 -10.887  -7.759  1.00  0.00    -0.000 C 
BRANCH  13  14
ATOM     14  C   UNL     1      -5.380 -10.914  -7.558  1.00  0.00    -0.000 C 
BRANCH  14  15
ATOM     15  C   UNL     1      -4.676  -9.995  -8.564  1.00  0.00    -0.000 C 
BRANCH  15  16
ATOM     16  C   UNL     1      -4.859  -8.518  -8.184  1.00  0.00    -0.000 C 
BRANCH  16  17
ATOM     17  C   UNL     1      -4.484  -8.234  -6.721  1.00  0.00    -0.003 C 
ATOM     18  C   UNL     1      -3.679  -6.946  -6.556  1.00  0.00     0.004 C 
ENDBRANCH  16  17
ENDBRANCH  15  16
ENDBRANCH  14  15
ENDBRANCH  13  14
ENDBRANCH  12  13
ENDBRANCH  11  12
ENDBRANCH   1  11
TORSDOF 14
ENDMDL
MODEL 2
REMARK VINA RESULT:    -3.811      4.170      8.942
REMARK INTER + INTRA:          -7.779
REMARK INTER:                  -6.591
REMARK INTRA:                  -1.188
REMARK UNBOUND:                -0.849
REMARK SMILES CCCCCCCCCCCCCCCC(=O)[O-]
REMARK SMILES IDX 9 1 10 2 11 3 12 4 13 5 14 6 15 7 16 8 17 9 18 10 8 11 7 12
REMARK SMILES IDX 6 13 5 14 4 15 3 16 2 17 1 18
REMARK H PARENT
REMARK Flexibility Score: inf
ROOT
ATOM      1  C   UNL     1      -8.111  -8.338  -6.460  1.00  0.00     0.000 C 
ENDROOT
BRANCH   1   2
ATOM      2  C   UNL     1      -7.643  -9.738  -6.021  1.00  0.00     0.000 C 
BRANCH   2   3
ATOM      3  C   UNL     1      -7.690 -10.768  -7.162  1.00  0.00     0.000 C 
BRANCH   3   4
ATOM      4  C   UNL     1      -6.365 -10.854  -7.939  1.00  0.00     0.000 C 
BRANCH   4   5
ATOM      5  C   UNL     1      -5.146 -10.989  -7.010  1.00  0.00     0.000 C 
BRANCH   5   6
ATOM      6  C   UNL     1      -4.032  -9.978  -7.340  1.00  0.00     0.006 C 
BRANCH   6   7
ATOM      7  C   UNL     1      -4.524  -8.538  -7.554  1.00  0.00     0.053 C 
BRANCH   7   8
ATOM      8  C   UNL     1      -4.199  -7.657  -6.387  1.00  0.00     0.041 C 
ATOM      9  O   UNL     1      -3.440  -6.663  -6.535  1.00  0.00    -0.550 OA
ATOM     10  O   UNL     1      -4.710  -7.951  -5.130  1.00  0.00    -0.550 OA
ENDBRANCH   7   8
ENDBRANCH   6   7
ENDBRANCH   5   6
ENDBRANCH   4   5
ENDBRANCH   3   4
ENDBRANCH   2   3
ENDBRANCH   1   2
BRANCH   1  11
ATOM     11  C   UNL     1      -9.585  -8.018  -6.150  1.00  0.00     0.000 C 
BRANCH  11  12
ATOM     12  C   UNL     1     -10.555  -8.586  -7.199  1.00  0.00    -0.000 C 
BRANCH  12  13
ATOM     13  C   UNL     1     -11.975  -8.784  -6.644  1.00  0.00    -0.000 C 
BRANCH  13  14
ATOM     14  C   UNL     1     -12.254  -7.919  -5.406  1.00  0.00    -0.000 C 
BRANCH  14  15
ATOM     15  C   UNL     1     -13.460  -7.000  -5.639  1.00  0.00    -0.000 C 
BRANCH  15  16
ATOM     16  C   UNL     1     -13.981  -7.127  -7.078  1.00  0.00    -0.000 C 
BRANCH  16  17
ATOM     17  C   UNL     1     -15.461  -7.536  -7.136  1.00  0.00    -0.003 C 
ATOM     18  C   UNL     1     -16.155  -7.063  -8.412  1.00  0.00     0.004 C 
ENDBRANCH  16  17
ENDBRANCH  15  16
ENDBRANCH  14  15
ENDBRANCH  13  14
ENDBRANCH  12  13
ENDBRANCH  11  12
ENDBRANCH   1  11
TORSDOF 14
ENDMDL
MODEL 3
REMARK VINA RESULT:    -3.694      4.043      9.115
REMARK INTER + INTRA:          -7.566
REMARK INTER:                  -6.302
REMARK INTRA:                  -1.264
REMARK UNBOUND:                -0.849
REMARK SMILES CCCCCCCCCCCCCCCC(=O)[O-]
REMARK SMILES IDX 9 1 10 2 11 3 12 4 13 5 14 6 15 7 16 8 17 9 18 10 8 11 7 12
REMARK SMILES IDX 6 13 5 14 4 15 3 16 2 17 1 18
REMARK H PARENT
REMARK Flexibility Score: inf
ROOT
ATOM      1  C   UNL     1     -11.945  -8.265  -6.964  1.00  0.00     0.000 C 
ENDROOT
BRANCH   1   2
ATOM      2  C   UNL     1     -10.536  -8.203  -6.347  1.00  0.00     0.000 C 
BRANCH   2   3
ATOM      3  C   UNL     1      -9.541  -9.155  -7.034  1.00  0.00     0.000 C 
BRANCH   3   4
ATOM      4  C   UNL     1      -9.341 -10.467  -6.257  1.00  0.00     0.000 C 
BRANCH   4   5
ATOM      5  C   UNL     1      -7.878 -10.944  -6.273  1.00  0.00     0.000 C 
BRANCH   5   6
ATOM      6  C   UNL     1      -6.961 -10.021  -7.096  1.00  0.00     0.006 C 
BRANCH   6   7
ATOM      7  C   UNL     1      -5.881 -10.756  -7.906  1.00  0.00     0.053 C 
BRANCH   7   8
ATOM      8  C   UNL     1      -4.942  -9.805  -8.581  1.00  0.00     0.041 C 
ATOM      9  O   UNL     1      -4.105 -10.228  -9.420  1.00  0.00    -0.550 OA
ATOM     10  O   UNL     1      -4.971  -8.453  -8.260  1.00  0.00    -0.550 OA
ENDBRANCH   7   8
ENDBRANCH   6   7
ENDBRANCH   5   6
ENDBRANCH   4   5
ENDBRANCH   3   4
ENDBRANCH   2   3
ENDBRANCH   1   2
BRANCH   1  11
ATOM     11  C   UNL     1     -13.066  -8.660  -5.986  1.00  0.00     0.000 C 
BRANCH  11  12
ATOM     12  C   UNL     1     -13.463 -10.142  -6.097  1.00  0.00    -0.000 C 
BRANCH  12  13
ATOM     13  C   UNL     1     -14.779 -10.457  -5.366  1.00  0.00    -0.000 C 
BRANCH  13  14
ATOM     14  C   UNL     1     -15.868 -10.989  -6.308  1.00  0.00    -0.000 C 
BRANCH  14  15
ATOM     15  C   UNL     1     -16.671  -9.838  -6.925  1.00  0.00    -0.000 C 
BRANCH  15  16
ATOM     16  C   UNL     1     -16.904  -8.717  -5.901  1.00  0.00    -0.000 C 
BRANCH  16  17
ATOM     17  C   UNL     1     -16.557  -7.327  -6.457  1.00  0.00    -0.003 C 
ATOM     18  C   UNL     1     -16.087  -7.372  -7.911  1.00  0.00     0.004 C 
ENDBRANCH  16  17
ENDBRANCH  15  16
ENDBRANCH  14  15
ENDBRANCH  13  14
ENDBRANCH  12  13
ENDBRANCH  11  12
ENDBRANCH   1  11
TORSDOF 14
ENDMDL
MODEL 4
REMARK VINA RESULT:    -3.572      1.152      2.237
REMARK INTER + INTRA:          -7.344
REMARK INTER:                  -6.109
REMARK INTRA:                  -1.235
REMARK UNBOUND:                -0.849
REMARK SMILES CCCCCCCCCCCCCCCC(=O)[O-]
REMARK SMILES IDX 9 1 10 2 11 3 12 4 13 5 14 6 15 7 16 8 17 9 18 10 8 11 7 12
REMARK SMILES IDX 6 13 5 14 4 15 3 16 2 17 1 18
REMARK H PARENT
REMARK Flexibility Score: inf
ROOT
ATOM      1  C   UNL     1     -11.215  -8.583  -6.878  1.00  0.00     0.000 C 
ENDROOT
BRANCH   1   2
ATOM      2  C   UNL     1     -12.083  -9.040  -5.691  1.00  0.00     0.000 C 
BRANCH   2   3
ATOM      3  C   UNL     1     -13.037 -10.191  -6.057  1.00  0.00     0.000 C 
BRANCH   3   4
ATOM      4  C   UNL     1     -14.392 -10.091  -5.337  1.00  0.00     0.000 C 
BRANCH   4   5
ATOM      5  C   UNL     1     -15.582 -10.258  -6.297  1.00  0.00     0.000 C 
BRANCH   5   6
ATOM      6  C   UNL     1     -16.580  -9.089  -6.218  1.00  0.00     0.006 C 
BRANCH   6   7
ATOM      7  C   UNL     1     -15.929  -7.696  -6.237  1.00  0.00     0.053 C 
BRANCH   7   8
ATOM      8  C   UNL     1     -15.455  -7.319  -7.607  1.00  0.00     0.041 C 
ATOM      9  O   UNL     1     -16.260  -7.305  -8.575  1.00  0.00    -0.550 OA
ATOM     10  O   UNL     1     -14.117  -7.014  -7.820  1.00  0.00    -0.550 OA
ENDBRANCH   7   8
ENDBRANCH   6   7
ENDBRANCH   5   6
ENDBRANCH   4   5
ENDBRANCH   3   4
ENDBRANCH   2   3
ENDBRANCH   1   2
BRANCH   1  11
ATOM     11  C   UNL     1      -9.789  -9.162  -6.903  1.00  0.00     0.000 C 
BRANCH  11  12
ATOM     12  C   UNL     1      -8.718  -8.135  -6.497  1.00  0.00    -0.000 C 
BRANCH  12  13
ATOM     13  C   UNL     1      -7.573  -8.766  -5.686  1.00  0.00    -0.000 C 
BRANCH  13  14
ATOM     14  C   UNL     1      -7.580 -10.300  -5.745  1.00  0.00    -0.000 C 
BRANCH  14  15
ATOM     15  C   UNL     1      -6.272 -10.833  -6.342  1.00  0.00    -0.000 C 
BRANCH  15  16
ATOM     16  C   UNL     1      -6.255 -10.669  -7.869  1.00  0.00    -0.000 C 
BRANCH  16  17
ATOM     17  C   UNL     1      -4.931 -10.086  -8.386  1.00  0.00    -0.003 C 
ATOM     18  C   UNL     1      -4.868  -8.564  -8.266  1.00  0.00     0.004 C 
ENDBRANCH  16  17
ENDBRANCH  15  16
ENDBRANCH  14  15
ENDBRANCH  13  14
ENDBRANCH  12  13
ENDBRANCH  11  12
ENDBRANCH   1  11
TORSDOF 14
ENDMDL
MODEL 5
REMARK VINA RESULT:    -3.569      4.171      9.190
REMARK INTER + INTRA:          -7.339
REMARK INTER:                  -6.301
REMARK INTRA:                  -1.038
REMARK UNBOUND:                -0.849
REMARK SMILES CCCCCCCCCCCCCCCC(=O)[O-]
REMARK SMILES IDX 9 1 10 2 11 3 12 4 13 5 14 6 15 7 16 8 17 9 18 10 8 11 7 12
REMARK SMILES IDX 6 13 5 14 4 15 3 16 2 17 1 18
REMARK H PARENT
REMARK Flexibility Score: inf
ROOT
ATOM      1  C   UNL     1      -9.915  -9.218  -6.752  1.00  0.00     0.000 C 
ENDROOT
BRANCH   1   2
ATOM      2  C   UNL     1      -8.635 -10.072  -6.812  1.00  0.00     0.000 C 
BRANCH   2   3
ATOM      3  C   UNL     1      -7.539  -9.575  -5.853  1.00  0.00     0.000 C 
BRANCH   3   4
ATOM      4  C   UNL     1      -6.825  -8.315  -6.370  1.00  0.00     0.000 C 
BRANCH   4   5
ATOM      5  C   UNL     1      -5.405  -8.167  -5.796  1.00  0.00     0.000 C 
BRANCH   5   6
ATOM      6  C   UNL     1      -4.309  -8.427  -6.846  1.00  0.00     0.006 C 
BRANCH   6   7
ATOM      7  C   UNL     1      -4.840  -8.772  -8.246  1.00  0.00     0.053 C 
BRANCH   7   8
ATOM      8  C   UNL     1      -4.598 -10.207  -8.599  1.00  0.00     0.041 C 
ATOM      9  O   UNL     1      -5.027 -11.125  -7.851  1.00  0.00    -0.550 OA
ATOM     10  O   UNL     1      -3.872 -10.531  -9.738  1.00  0.00    -0.550 OA
ENDBRANCH   7   8
ENDBRANCH   6   7
ENDBRANCH   5   6
ENDBRANCH   4   5
ENDBRANCH   3   4
ENDBRANCH   2   3
ENDBRANCH   1   2
BRANCH   1  11
ATOM     11  C   UNL     1     -10.430  -8.916  -5.333  1.00  0.00     0.000 C 
BRANCH  11  12
ATOM     12  C   UNL     1     -11.863  -8.357  -5.322  1.00  0.00    -0.000 C 
BRANCH  12  13
ATOM     13  C   UNL     1     -12.577  -8.537  -6.673  1.00  0.00    -0.000 C 
BRANCH  13  14
ATOM     14  C   UNL     1     -13.416  -7.313  -7.067  1.00  0.00    -0.000 C 
BRANCH  14  15
ATOM     15  C   UNL     1     -14.805  -7.369  -6.419  1.00  0.00    -0.000 C 
BRANCH  15  16
ATOM     16  C   UNL     1     -15.889  -7.675  -7.463  1.00  0.00    -0.000 C 
BRANCH  16  17
ATOM     17  C   UNL     1     -16.625  -8.994  -7.181  1.00  0.00    -0.003 C 
ATOM     18  C   UNL     1     -16.178  -9.654  -5.877  1.00  0.00     0.004 C 
ENDBRANCH  16  17
ENDBRANCH  15  16
ENDBRANCH  14  15
ENDBRANCH  13  14
ENDBRANCH  12  13
ENDBRANCH  11  12
ENDBRANCH   1  11
TORSDOF 14
ENDMDL
MODEL 6
REMARK VINA RESULT:    -3.514      4.568      9.207
REMARK INTER + INTRA:          -7.240
REMARK INTER:                  -5.953
REMARK INTRA:                  -1.287
REMARK UNBOUND:                -0.849
REMARK SMILES CCCCCCCCCCCCCCCC(=O)[O-]
REMARK SMILES IDX 9 1 10 2 11 3 12 4 13 5 14 6 15 7 16 8 17 9 18 10 8 11 7 12
REMARK SMILES IDX 6 13 5 14 4 15 3 16 2 17 1 18
REMARK H PARENT
REMARK Flexibility Score: inf
ROOT
ATOM      1  C   UNL     1      -6.361  -9.482  -7.234  1.00  0.00     0.000 C 
ENDROOT
BRANCH   1   2
ATOM      2  C   UNL     1      -5.682 -10.711  -7.866  1.00  0.00     0.000 C 
BRANCH   2   3
ATOM      3  C   UNL     1      -4.535 -10.335  -8.821  1.00  0.00     0.000 C 
BRANCH   3   4
ATOM      4  C   UNL     1      -3.166 -10.832  -8.329  1.00  0.00     0.000 C 
BRANCH   4   5
ATOM      5  C   UNL     1      -3.119 -11.008  -6.800  1.00  0.00     0.000 C 
BRANCH   5   6
ATOM      6  C   UNL     1      -2.264  -9.934  -6.104  1.00  0.00     0.006 C 
BRANCH   6   7
ATOM      7  C   UNL     1      -3.061  -8.967  -5.214  1.00  0.00     0.053 C 
BRANCH   7   8
ATOM      8  C   UNL     1      -3.117  -7.588  -5.796  1.00  0.00     0.041 C 
ATOM      9  O   UNL     1      -3.774  -7.370  -6.848  1.00  0.00    -0.550 OA
ATOM     10  O   UNL     1      -2.419  -6.549  -5.193  1.00  0.00    -0.550 OA
ENDBRANCH   7   8
ENDBRANCH   6   7
ENDBRANCH   5   6
ENDBRANCH   4   5
ENDBRANCH   3   4
ENDBRANCH   2   3
ENDBRANCH   1   2
BRANCH   1  11
ATOM     11  C   UNL     1      -6.708  -9.626  -5.741  1.00  0.00     0.000 C 
BRANCH  11  12
ATOM     12  C   UNL     1      -8.222  -9.715  -5.484  1.00  0.00    -0.000 C 
BRANCH  12  13
ATOM     13  C   UNL     1      -9.041  -9.748  -6.785  1.00  0.00    -0.000 C 
BRANCH  13  14
ATOM     14  C   UNL     1      -9.916  -8.499  -6.966  1.00  0.00    -0.000 C 
BRANCH  14  15
ATOM     15  C   UNL     1     -10.965  -8.397  -5.852  1.00  0.00    -0.000 C 
BRANCH  15  16
ATOM     16  C   UNL     1     -12.361  -8.770  -6.373  1.00  0.00    -0.000 C 
BRANCH  16  17
ATOM     17  C   UNL     1     -13.362  -7.610  -6.263  1.00  0.00    -0.003 C 
ATOM     18  C   UNL     1     -13.811  -7.086  -7.626  1.00  0.00     0.004 C 
ENDBRANCH  16  17
ENDBRANCH  15  16
ENDBRANCH  14  15
ENDBRANCH  13  14
ENDBRANCH  12  13
ENDBRANCH  11  12
ENDBRANCH   1  11
TORSDOF 14
ENDMDL
MODEL 7
REMARK VINA RESULT:    -3.503      4.184      9.436
REMARK INTER + INTRA:          -7.219
REMARK INTER:                  -6.549
REMARK INTRA:                  -0.669
REMARK UNBOUND:                -0.849
REMARK SMILES CCCCCCCCCCCCCCCC(=O)[O-]
REMARK SMILES IDX 9 1 10 2 11 3 12 4 13 5 14 6 15 7 16 8 17 9 18 10 8 11 7 12
REMARK SMILES IDX 6 13 5 14 4 15 3 16 2 17 1 18
REMARK H PARENT
REMARK Flexibility Score: inf
ROOT
ATOM      1  C   UNL     1     -12.128  -8.142  -6.909  1.00  0.00     0.000 C 
ENDROOT
BRANCH   1   2
ATOM      2  C   UNL     1     -10.774  -8.543  -7.522  1.00  0.00     0.000 C 
BRANCH   2   3
ATOM      3  C   UNL     1      -9.611  -8.443  -6.520  1.00  0.00     0.000 C 
BRANCH   3   4
ATOM      4  C   UNL     1      -8.587  -9.578  -6.683  1.00  0.00     0.000 C 
BRANCH   4   5
ATOM      5  C   UNL     1      -7.395  -9.439  -5.720  1.00  0.00     0.000 C 
BRANCH   5   6
ATOM      6  C   UNL     1      -6.109 -10.086  -6.266  1.00  0.00     0.006 C 
BRANCH   6   7
ATOM      7  C   UNL     1      -6.099 -10.289  -7.790  1.00  0.00     0.053 C 
BRANCH   7   8
ATOM      8  C   UNL     1      -4.971  -9.553  -8.445  1.00  0.00     0.041 C 
ATOM      9  O   UNL     1      -4.318 -10.092  -9.377  1.00  0.00    -0.550 OA
ATOM     10  O   UNL     1      -4.619  -8.283  -8.004  1.00  0.00    -0.550 OA
ENDBRANCH   7   8
ENDBRANCH   6   7
ENDBRANCH   5   6
ENDBRANCH   4   5
ENDBRANCH   3   4
ENDBRANCH   2   3
ENDBRANCH   1   2
BRANCH   1  11
ATOM     11  C   UNL     1     -12.060  -7.636  -5.456  1.00  0.00     0.000 C 
BRANCH  11  12
ATOM     12  C   UNL     1     -13.232  -6.711  -5.089  1.00  0.00    -0.000 C 
BRANCH  12  13
ATOM     13  C   UNL     1     -14.563  -7.469  -4.954  1.00  0.00    -0.000 C 
BRANCH  13  14
ATOM     14  C   UNL     1     -15.421  -7.391  -6.225  1.00  0.00    -0.000 C 
BRANCH  14  15
ATOM     15  C   UNL     1     -16.903  -7.622  -5.903  1.00  0.00    -0.000 C 
BRANCH  15  16
ATOM     16  C   UNL     1     -17.203  -9.118  -5.730  1.00  0.00    -0.000 C 
BRANCH  16  17
ATOM     17  C   UNL     1     -16.526  -9.985  -6.803  1.00  0.00    -0.003 C 
ATOM     18  C   UNL     1     -17.267  -9.958  -8.139  1.00  0.00     0.004 C 
ENDBRANCH  16  17
ENDBRANCH  15  16
ENDBRANCH  14  15
ENDBRANCH  13  14
ENDBRANCH  12  13
ENDBRANCH  11  12
ENDBRANCH   1  11
TORSDOF 14
ENDMDL
MODEL 8
REMARK VINA RESULT:    -3.446      4.079      9.178
REMARK INTER + INTRA:          -7.116
REMARK INTER:                  -6.110
REMARK INTRA:                  -1.005
REMARK UNBOUND:                -0.849
REMARK SMILES CCCCCCCCCCCCCCCC(=O)[O-]
REMARK SMILES IDX 9 1 10 2 11 3 12 4 13 5 14 6 15 7 16 8 17 9 18 10 8 11 7 12
REMARK SMILES IDX 6 13 5 14 4 15 3 16 2 17 1 18
REMARK H PARENT
REMARK Flexibility Score: inf
ROOT
ATOM      1  C   UNL     1     -10.186  -9.402  -6.610  1.00  0.00     0.000 C 
ENDROOT
BRANCH   1   2
ATOM      2  C   UNL     1      -9.698 -10.601  -5.778  1.00  0.00     0.000 C 
BRANCH   2   3
ATOM      3  C   UNL     1      -8.196 -10.881  -5.955  1.00  0.00     0.000 C 
BRANCH   3   4
ATOM      4  C   UNL     1      -7.565 -10.045  -7.081  1.00  0.00     0.000 C 
BRANCH   4   5
ATOM      5  C   UNL     1      -6.477 -10.818  -7.849  1.00  0.00     0.000 C 
BRANCH   5   6
ATOM      6  C   UNL     1      -5.085 -10.174  -7.715  1.00  0.00     0.006 C 
BRANCH   6   7
ATOM      7  C   UNL     1      -5.072  -8.647  -7.886  1.00  0.00     0.053 C 
BRANCH   7   8
ATOM      8  C   UNL     1      -4.536  -7.953  -6.671  1.00  0.00     0.041 C 
ATOM      9  O   UNL     1      -4.935  -8.284  -5.524  1.00  0.00    -0.550 OA
ATOM     10  O   UNL     1      -3.619  -6.919  -6.809  1.00  0.00    -0.550 OA
ENDBRANCH   7   8
ENDBRANCH   6   7
ENDBRANCH   5   6
ENDBRANCH   4   5
ENDBRANCH   3   4
ENDBRANCH   2   3
ENDBRANCH   1   2
BRANCH   1  11
ATOM     11  C   UNL     1     -11.682  -9.070  -6.459  1.00  0.00     0.000 C 
BRANCH  11  12
ATOM     12  C   UNL     1     -12.203  -8.137  -7.565  1.00  0.00    -0.000 C 
BRANCH  12  13
ATOM     13  C   UNL     1     -13.310  -7.193  -7.068  1.00  0.00    -0.000 C 
BRANCH  13  14
ATOM     14  C   UNL     1     -13.678  -7.434  -5.597  1.00  0.00    -0.000 C 
BRANCH  14  15
ATOM     15  C   UNL     1     -15.197  -7.552  -5.423  1.00  0.00    -0.000 C 
BRANCH  15  16
ATOM     16  C   UNL     1     -15.900  -7.681  -6.783  1.00  0.00    -0.000 C 
BRANCH  16  17
ATOM     17  C   UNL     1     -16.631  -9.022  -6.945  1.00  0.00    -0.003 C 
ATOM     18  C   UNL     1     -15.878 -10.188  -6.305  1.00  0.00     0.004 C 
ENDBRANCH  16  17
ENDBRANCH  15  16
ENDBRANCH  14  15
ENDBRANCH  13  14
ENDBRANCH  12  13
ENDBRANCH  11  12
ENDBRANCH   1  11
TORSDOF 14
ENDMDL
MODEL 9
REMARK VINA RESULT:    -3.258      3.999      8.284
REMARK INTER + INTRA:          -6.774
REMARK INTER:                  -5.633
REMARK INTRA:                  -1.141
REMARK UNBOUND:                -0.849
REMARK SMILES CCCCCCCCCCCCCCCC(=O)[O-]
REMARK SMILES IDX 9 1 10 2 11 3 12 4 13 5 14 6 15 7 16 8 17 9 18 10 8 11 7 12
REMARK SMILES IDX 6 13 5 14 4 15 3 16 2 17 1 18
REMARK H PARENT
REMARK Flexibility Score: inf
ROOT
ATOM      1  C   UNL     1      -8.184  -6.626  -5.431  1.00  0.00     0.000 C 
ENDROOT
BRANCH   1   2
ATOM      2  C   UNL     1      -6.793  -6.260  -4.883  1.00  0.00     0.000 C 
BRANCH   2   3
ATOM      3  C   UNL     1      -5.821  -7.452  -4.875  1.00  0.00     0.000 C 
BRANCH   3   4
ATOM      4  C   UNL     1      -4.657  -7.276  -5.864  1.00  0.00     0.000 C 
BRANCH   4   5
ATOM      5  C   UNL     1      -3.490  -8.237  -5.576  1.00  0.00     0.000 C 
BRANCH   5   6
ATOM      6  C   UNL     1      -3.323  -9.313  -6.665  1.00  0.00     0.006 C 
BRANCH   6   7
ATOM      7  C   UNL     1      -4.456 -10.351  -6.711  1.00  0.00     0.053 C 
BRANCH   7   8
ATOM      8  C   UNL     1      -5.157 -10.357  -8.034  1.00  0.00     0.041 C 
ATOM      9  O   UNL     1      -6.307 -10.857  -8.140  1.00  0.00    -0.550 OA
ATOM     10  O   UNL     1      -4.526  -9.837  -9.158  1.00  0.00    -0.550 OA
ENDBRANCH   7   8
ENDBRANCH   6   7
ENDBRANCH   5   6
ENDBRANCH   4   5
ENDBRANCH   3   4
ENDBRANCH   2   3
ENDBRANCH   1   2
BRANCH   1  11
ATOM     11  C   UNL     1      -8.621  -8.081  -5.180  1.00  0.00     0.000 C 
BRANCH  11  12
ATOM     12  C   UNL     1      -8.569  -8.949  -6.448  1.00  0.00    -0.000 C 
BRANCH  12  13
ATOM     13  C   UNL     1      -9.596 -10.094  -6.421  1.00  0.00    -0.000 C 
BRANCH  13  14
ATOM     14  C   UNL     1     -10.813  -9.779  -5.541  1.00  0.00    -0.000 C 
BRANCH  14  15
ATOM     15  C   UNL     1     -12.071  -9.574  -6.395  1.00  0.00    -0.000 C 
BRANCH  15  16
ATOM     16  C   UNL     1     -12.058  -8.196  -7.073  1.00  0.00    -0.000 C 
BRANCH  16  17
ATOM     17  C   UNL     1     -13.229  -7.307  -6.627  1.00  0.00    -0.003 C 
ATOM     18  C   UNL     1     -13.023  -6.710  -5.236  1.00  0.00     0.004 C 
ENDBRANCH  16  17
ENDBRANCH  15  16
ENDBRANCH  14  15
ENDBRANCH  13  14
ENDBRANCH  12  13
ENDBRANCH  11  12
ENDBRANCH   1  11
TORSDOF 14
ENDMDL
