MODEL 1
REMARK VINA RESULT:    -5.291      0.000      0.000
REMARK INTER + INTRA:          -6.529
REMARK INTER:                  -6.219
REMARK INTRA:                  -0.311
REMARK UNBOUND:                -0.311
REMARK SMILES O=c1cc(-c2ccc(O)c(O)c2)oc2cc(O)cc(O)c12
REMARK SMILES IDX 4 1 3 2 2 3 1 4 21 5 19 6 18 7 16 8 15 9 14 10 13 11 5 12
REMARK SMILES IDX 6 13 7 14 8 15 12 16 10 17 9 18 11 20 20 22 17 24
REMARK H PARENT 9 19 11 21 20 23 17 25
REMARK Flexibility Score: inf
ROOT
ATOM      1  C   UNL     1     -33.560   9.925 -36.070  1.00  0.00     0.138 A 
ATOM      2  C   UNL     1     -32.610   9.417 -36.967  1.00  0.00     0.100 A 
ATOM      3  C   UNL     1     -32.941   9.282 -38.317  1.00  0.00     0.197 A 
ATOM      4  O   UNL     1     -32.050   8.883 -39.110  1.00  0.00    -0.289 OA
ATOM      5  C   UNL     1     -34.239   9.628 -38.762  1.00  0.00     0.107 A 
ATOM      6  C   UNL     1     -34.701   9.493 -40.105  1.00  0.00     0.134 A 
ATOM      7  C   UNL     1     -35.969   9.977 -40.451  1.00  0.00     0.093 A 
ATOM      8  C   UNL     1     -36.814  10.536 -39.489  1.00  0.00     0.123 A 
ATOM      9  C   UNL     1     -36.393  10.623 -38.164  1.00  0.00     0.094 A 
ATOM     10  C   UNL     1     -35.121  10.180 -37.794  1.00  0.00     0.146 A 
ATOM     11  O   UNL     1     -34.753  10.295 -36.523  1.00  0.00    -0.456 OA
ENDROOT
BRANCH   1  12
ATOM     12  C   UNL     1     -33.261  10.090 -34.624  1.00  0.00     0.021 A 
ATOM     13  C   UNL     1     -32.277   9.316 -33.980  1.00  0.00     0.016 A 
ATOM     14  C   UNL     1     -32.024   9.485 -32.615  1.00  0.00     0.051 A 
ATOM     15  C   UNL     1     -32.753  10.420 -31.871  1.00  0.00     0.157 A 
ATOM     16  C   UNL     1     -33.998  11.017 -33.865  1.00  0.00     0.062 A 
ATOM     17  C   UNL     1     -33.744  11.186 -32.497  1.00  0.00     0.158 A 
BRANCH  15  18
ATOM     18  O   UNL     1     -32.503  10.590 -30.511  1.00  0.00    -0.504 OA
ATOM     19  H   UNL     1     -31.657  10.237 -30.079  1.00  0.00     0.293 HD
ENDBRANCH  15  18
BRANCH  17  20
ATOM     20  O   UNL     1     -34.471  12.114 -31.753  1.00  0.00    -0.504 OA
ATOM     21  H   UNL     1     -35.037  12.825 -32.200  1.00  0.00     0.293 HD
ENDBRANCH  17  20
ENDBRANCH   1  12
BRANCH   6  22
ATOM     22  O   UNL     1     -33.970   8.875 -41.123  1.00  0.00    -0.507 OA
ATOM     23  H   UNL     1     -32.968   8.762 -41.127  1.00  0.00     0.293 HD
ENDBRANCH   6  22
BRANCH   8  24
ATOM     24  O   UNL     1     -38.080  11.001 -39.840  1.00  0.00    -0.508 OA
ATOM     25  H   UNL     1     -38.721  11.367 -39.147  1.00  0.00     0.293 HD
ENDBRANCH   8  24
TORSDOF 5
ENDMDL
MODEL 2
REMARK VINA RESULT:    -3.252      1.639      7.020
REMARK INTER + INTRA:          -4.133
REMARK INTER:                  -3.847
REMARK INTRA:                  -0.286
REMARK UNBOUND:                -0.311
REMARK SMILES O=c1cc(-c2ccc(O)c(O)c2)oc2cc(O)cc(O)c12
REMARK SMILES IDX 4 1 3 2 2 3 1 4 21 5 19 6 18 7 16 8 15 9 14 10 13 11 5 12
REMARK SMILES IDX 6 13 7 14 8 15 12 16 10 17 9 18 11 20 20 22 17 24
REMARK H PARENT 9 19 11 21 20 23 17 25
REMARK Flexibility Score: inf
ROOT
ATOM      1  C   UNL     1     -33.671  10.705 -36.037  1.00  0.00     0.138 A 
ATOM      2  C   UNL     1     -32.484   9.970 -35.915  1.00  0.00     0.100 A 
ATOM      3  C   UNL     1     -31.852   9.882 -34.673  1.00  0.00     0.197 A 
ATOM      4  O   UNL     1     -30.823   9.165 -34.579  1.00  0.00    -0.289 OA
ATOM      5  C   UNL     1     -32.397  10.561 -33.557  1.00  0.00     0.107 A 
ATOM      6  C   UNL     1     -31.817  10.577 -32.253  1.00  0.00     0.134 A 
ATOM      7  C   UNL     1     -32.507  11.186 -31.198  1.00  0.00     0.093 A 
ATOM      8  C   UNL     1     -33.727  11.832 -31.413  1.00  0.00     0.123 A 
ATOM      9  C   UNL     1     -34.275  11.869 -32.694  1.00  0.00     0.094 A 
ATOM     10  C   UNL     1     -33.627  11.241 -33.760  1.00  0.00     0.146 A 
ATOM     11  O   UNL     1     -34.191  11.286 -34.962  1.00  0.00    -0.456 OA
ENDROOT
BRANCH   1  12
ATOM     12  C   UNL     1     -34.384  10.831 -37.334  1.00  0.00     0.021 A 
ATOM     13  C   UNL     1     -35.200  11.941 -37.625  1.00  0.00     0.016 A 
ATOM     14  C   UNL     1     -35.867  12.028 -38.850  1.00  0.00     0.051 A 
ATOM     15  C   UNL     1     -35.738  11.008 -39.800  1.00  0.00     0.157 A 
ATOM     16  C   UNL     1     -34.271   9.805 -38.289  1.00  0.00     0.062 A 
ATOM     17  C   UNL     1     -34.940   9.893 -39.518  1.00  0.00     0.158 A 
BRANCH  15  18
ATOM     18  O   UNL     1     -36.402  11.093 -41.022  1.00  0.00    -0.504 OA
ATOM     19  H   UNL     1     -37.413  11.077 -41.079  1.00  0.00     0.293 HD
ENDBRANCH  15  18
BRANCH  17  20
ATOM     20  O   UNL     1     -34.816   8.877 -40.464  1.00  0.00    -0.504 OA
ATOM     21  H   UNL     1     -34.862   9.069 -41.458  1.00  0.00     0.293 HD
ENDBRANCH  17  20
ENDBRANCH   1  12
BRANCH   6  22
ATOM     22  O   UNL     1     -30.565  10.034 -31.949  1.00  0.00    -0.507 OA
ATOM     23  H   UNL     1     -30.408   9.270 -31.310  1.00  0.00     0.293 HD
ENDBRANCH   6  22
BRANCH   8  24
ATOM     24  O   UNL     1     -34.399  12.450 -30.361  1.00  0.00    -0.508 OA
ATOM     25  H   UNL     1     -33.899  12.906 -29.607  1.00  0.00     0.293 HD
ENDBRANCH   8  24
TORSDOF 5
ENDMDL
MODEL 3
REMARK VINA RESULT:    -2.425      2.195      3.234
REMARK INTER + INTRA:          -3.161
REMARK INTER:                  -2.855
REMARK INTRA:                  -0.305
REMARK UNBOUND:                -0.311
REMARK SMILES O=c1cc(-c2ccc(O)c(O)c2)oc2cc(O)cc(O)c12
REMARK SMILES IDX 4 1 3 2 2 3 1 4 21 5 19 6 18 7 16 8 15 9 14 10 13 11 5 12
REMARK SMILES IDX 6 13 7 14 8 15 12 16 10 17 9 18 11 20 20 22 17 24
REMARK H PARENT 9 19 11 21 20 23 17 25
REMARK Flexibility Score: inf
ROOT
ATOM      1  C   UNL     1     -32.702  11.192 -33.332  1.00  0.00     0.138 A 
ATOM      2  C   UNL     1     -31.715  10.312 -33.797  1.00  0.00     0.100 A 
ATOM      3  C   UNL     1     -31.757   9.867 -35.120  1.00  0.00     0.197 A 
ATOM      4  O   UNL     1     -30.824   9.128 -35.528  1.00  0.00    -0.289 OA
ATOM      5  C   UNL     1     -32.811  10.280 -35.969  1.00  0.00     0.107 A 
ATOM      6  C   UNL     1     -32.979   9.857 -37.321  1.00  0.00     0.134 A 
ATOM      7  C   UNL     1     -33.995  10.424 -38.100  1.00  0.00     0.093 A 
ATOM      8  C   UNL     1     -34.887  11.353 -37.557  1.00  0.00     0.123 A 
ATOM      9  C   UNL     1     -34.765  11.731 -36.222  1.00  0.00     0.094 A 
ATOM     10  C   UNL     1     -33.740  11.210 -35.428  1.00  0.00     0.146 A 
ATOM     11  O   UNL     1     -33.649  11.608 -34.164  1.00  0.00    -0.456 OA
ENDROOT
BRANCH   1  12
ATOM     12  C   UNL     1     -32.705  11.697 -31.934  1.00  0.00     0.021 A 
ATOM     13  C   UNL     1     -31.513  11.857 -31.203  1.00  0.00     0.016 A 
ATOM     14  C   UNL     1     -31.546  12.324 -29.886  1.00  0.00     0.051 A 
ATOM     15  C   UNL     1     -32.768  12.630 -29.276  1.00  0.00     0.157 A 
ATOM     16  C   UNL     1     -33.929  11.993 -31.308  1.00  0.00     0.062 A 
ATOM     17  C   UNL     1     -33.962  12.462 -29.987  1.00  0.00     0.158 A 
BRANCH  15  18
ATOM     18  O   UNL     1     -32.804  13.096 -27.963  1.00  0.00    -0.504 OA
ATOM     19  H   UNL     1     -32.458  12.537 -27.192  1.00  0.00     0.293 HD
ENDBRANCH  15  18
BRANCH  17  20
ATOM     20  O   UNL     1     -35.178  12.764 -29.375  1.00  0.00    -0.504 OA
ATOM     21  H   UNL     1     -35.259  12.842 -28.369  1.00  0.00     0.293 HD
ENDBRANCH  17  20
ENDBRANCH   1  12
BRANCH   6  22
ATOM     22  O   UNL     1     -32.197   8.875 -37.935  1.00  0.00    -0.507 OA
ATOM     23  H   UNL     1     -31.400   8.424 -37.511  1.00  0.00     0.293 HD
ENDBRANCH   6  22
BRANCH   8  24
ATOM     24  O   UNL     1     -35.905  11.899 -38.335  1.00  0.00    -0.508 OA
ATOM     25  H   UNL     1     -36.383  12.749 -38.063  1.00  0.00     0.293 HD
ENDBRANCH   8  24
TORSDOF 5
ENDMDL
