MODEL 1
REMARK VINA RESULT:    -4.126      0.000      0.000
REMARK INTER + INTRA:         -13.653
REMARK INTER:                 -10.879
REMARK INTRA:                  -2.774
REMARK UNBOUND:                -2.774
REMARK SMILES CCCCCCCCCCCCCCCCCCCCCCCCCCCCCC(=O)[O-]
REMARK SMILES IDX 16 1 17 2 18 3 19 4 20 5 21 6 22 7 23 8 24 9 25 10 26 11
REMARK SMILES IDX 27 12 28 13 29 14 30 15 31 16 32 17 15 18 14 19 13 20 12 21
REMARK SMILES IDX 11 22 10 23 9 24 8 25 7 26 6 27 5 28 4 29 3 30 2 31 1 32
REMARK H PARENT
REMARK Flexibility Score: inf
ROOT
ATOM      1  C   UNL     1      -7.271   1.909   2.535  1.00  0.00     0.000 C 
ENDROOT
BRANCH   1   2
ATOM      2  C   UNL     1      -8.028   0.696   3.108  1.00  0.00     0.000 C 
BRANCH   2   3
ATOM      3  C   UNL     1      -7.338  -0.643   2.799  1.00  0.00     0.000 C 
BRANCH   3   4
ATOM      4  C   UNL     1      -6.933  -1.419   4.067  1.00  0.00     0.000 C 
BRANCH   4   5
ATOM      5  C   UNL     1      -6.921  -2.953   3.931  1.00  0.00     0.000 C 
BRANCH   5   6
ATOM      6  C   UNL     1      -5.845  -3.627   4.797  1.00  0.00     0.000 C 
BRANCH   6   7
ATOM      7  C   UNL     1      -6.434  -4.402   5.991  1.00  0.00     0.000 C 
BRANCH   7   8
ATOM      8  C   UNL     1      -7.213  -3.549   7.009  1.00  0.00     0.000 C 
BRANCH   8   9
ATOM      9  C   UNL     1      -6.340  -3.050   8.170  1.00  0.00     0.000 C 
BRANCH   9  10
ATOM     10  C   UNL     1      -5.991  -1.565   7.994  1.00  0.00     0.000 C 
BRANCH  10  11
ATOM     11  C   UNL     1      -7.219  -0.645   8.105  1.00  0.00     0.000 C 
BRANCH  11  12
ATOM     12  C   UNL     1      -7.469   0.265   6.884  1.00  0.00     0.000 C 
BRANCH  12  13
ATOM     13  C   UNL     1      -6.635   1.558   6.853  1.00  0.00     0.006 C 
BRANCH  13  14
ATOM     14  C   UNL     1      -5.289   1.383   6.138  1.00  0.00     0.053 C 
BRANCH  14  15
ATOM     15  C   UNL     1      -4.163   1.393   7.123  1.00  0.00     0.041 C 
ATOM     16  O   UNL     1      -4.172   2.206   8.085  1.00  0.00    -0.550 OA
ATOM     17  O   UNL     1      -3.090   0.522   6.966  1.00  0.00    -0.550 OA
ENDBRANCH  14  15
ENDBRANCH  13  14
ENDBRANCH  12  13
ENDBRANCH  11  12
ENDBRANCH  10  11
ENDBRANCH   9  10
ENDBRANCH   8   9
ENDBRANCH   7   8
ENDBRANCH   6   7
ENDBRANCH   5   6
ENDBRANCH   4   5
ENDBRANCH   3   4
ENDBRANCH   2   3
ENDBRANCH   1   2
BRANCH   1  18
ATOM     18  C   UNL     1      -8.022   2.706   1.453  1.00  0.00     0.000 C 
BRANCH  18  19
ATOM     19  C   UNL     1      -7.089   3.564   0.580  1.00  0.00     0.000 C 
BRANCH  19  20
ATOM     20  C   UNL     1      -7.853   4.613  -0.244  1.00  0.00     0.000 C 
BRANCH  20  21
ATOM     21  C   UNL     1      -7.972   4.233  -1.728  1.00  0.00     0.000 C 
BRANCH  21  22
ATOM     22  C   UNL     1      -7.206   2.938  -2.023  1.00  0.00     0.000 C 
BRANCH  22  23
ATOM     23  C   UNL     1      -7.881   2.145  -3.153  1.00  0.00     0.000 C 
BRANCH  23  24
ATOM     24  C   UNL     1      -6.874   1.386  -4.034  1.00  0.00    -0.000 C 
BRANCH  24  25
ATOM     25  C   UNL     1      -7.505   0.502  -5.123  1.00  0.00    -0.000 C 
BRANCH  25  26
ATOM     26  C   UNL     1      -6.829  -0.875  -5.241  1.00  0.00    -0.000 C 
BRANCH  26  27
ATOM     27  C   UNL     1      -5.351  -0.843  -4.804  1.00  0.00    -0.000 C 
BRANCH  27  28
ATOM     28  C   UNL     1      -4.362  -1.315  -5.890  1.00  0.00    -0.000 C 
BRANCH  28  29
ATOM     29  C   UNL     1      -3.976  -0.225  -6.910  1.00  0.00    -0.000 C 
BRANCH  29  30
ATOM     30  C   UNL     1      -4.388  -0.592  -8.348  1.00  0.00    -0.000 C 
BRANCH  30  31
ATOM     31  C   UNL     1      -5.807  -0.118  -8.693  1.00  0.00    -0.003 C 
ATOM     32  C   UNL     1      -6.024   1.364  -8.396  1.00  0.00     0.004 C 
ENDBRANCH  30  31
ENDBRANCH  29  30
ENDBRANCH  28  29
ENDBRANCH  27  28
ENDBRANCH  26  27
ENDBRANCH  25  26
ENDBRANCH  24  25
ENDBRANCH  23  24
ENDBRANCH  22  23
ENDBRANCH  21  22
ENDBRANCH  20  21
ENDBRANCH  19  20
ENDBRANCH  18  19
ENDBRANCH   1  18
TORSDOF 28
ENDMDL
MODEL 2
REMARK VINA RESULT:    -3.937      1.365      2.859
REMARK INTER + INTRA:         -13.156
REMARK INTER:                 -11.361
REMARK INTRA:                  -1.795
REMARK UNBOUND:                -2.774
REMARK SMILES CCCCCCCCCCCCCCCCCCCCCCCCCCCCCC(=O)[O-]
REMARK SMILES IDX 16 1 17 2 18 3 19 4 20 5 21 6 22 7 23 8 24 9 25 10 26 11
REMARK SMILES IDX 27 12 28 13 29 14 30 15 31 16 32 17 15 18 14 19 13 20 12 21
REMARK SMILES IDX 11 22 10 23 9 24 8 25 7 26 6 27 5 28 4 29 3 30 2 31 1 32
REMARK H PARENT
REMARK Flexibility Score: inf
ROOT
ATOM      1  C   UNL     1      -6.700  -0.838   4.452  1.00  0.00     0.000 C 
ENDROOT
BRANCH   1   2
ATOM      2  C   UNL     1      -7.533  -2.094   4.773  1.00  0.00     0.000 C 
BRANCH   2   3
ATOM      3  C   UNL     1      -7.009  -3.358   4.070  1.00  0.00     0.000 C 
BRANCH   3   4
ATOM      4  C   UNL     1      -5.762  -3.953   4.751  1.00  0.00     0.000 C 
BRANCH   4   5
ATOM      5  C   UNL     1      -5.660  -3.720   6.270  1.00  0.00     0.000 C 
BRANCH   5   6
ATOM      6  C   UNL     1      -4.452  -2.857   6.668  1.00  0.00     0.000 C 
BRANCH   6   7
ATOM      7  C   UNL     1      -4.299  -2.705   8.192  1.00  0.00     0.000 C 
BRANCH   7   8
ATOM      8  C   UNL     1      -5.569  -2.994   9.013  1.00  0.00     0.000 C 
BRANCH   8   9
ATOM      9  C   UNL     1      -6.189  -1.732   9.629  1.00  0.00     0.000 C 
BRANCH   9  10
ATOM     10  C   UNL     1      -6.519  -0.698   8.543  1.00  0.00     0.000 C 
BRANCH  10  11
ATOM     11  C   UNL     1      -6.839   0.693   9.117  1.00  0.00     0.000 C 
BRANCH  11  12
ATOM     12  C   UNL     1      -5.615   1.502   9.596  1.00  0.00     0.000 C 
BRANCH  12  13
ATOM     13  C   UNL     1      -4.304   0.704   9.698  1.00  0.00     0.006 C 
BRANCH  13  14
ATOM     14  C   UNL     1      -3.159   1.331   8.894  1.00  0.00     0.053 C 
BRANCH  14  15
ATOM     15  C   UNL     1      -3.494   1.364   7.436  1.00  0.00     0.041 C 
ATOM     16  O   UNL     1      -3.508   0.297   6.766  1.00  0.00    -0.550 OA
ATOM     17  O   UNL     1      -3.769   2.575   6.809  1.00  0.00    -0.550 OA
ENDBRANCH  14  15
ENDBRANCH  13  14
ENDBRANCH  12  13
ENDBRANCH  11  12
ENDBRANCH  10  11
ENDBRANCH   9  10
ENDBRANCH   8   9
ENDBRANCH   7   8
ENDBRANCH   6   7
ENDBRANCH   5   6
ENDBRANCH   4   5
ENDBRANCH   3   4
ENDBRANCH   2   3
ENDBRANCH   1   2
BRANCH   1  18
ATOM     18  C   UNL     1      -7.061  -0.123   3.138  1.00  0.00     0.000 C 
BRANCH  18  19
ATOM     19  C   UNL     1      -7.368   1.373   3.330  1.00  0.00     0.000 C 
BRANCH  19  20
ATOM     20  C   UNL     1      -8.125   1.978   2.137  1.00  0.00     0.000 C 
BRANCH  20  21
ATOM     21  C   UNL     1      -7.217   2.806   1.215  1.00  0.00     0.000 C 
BRANCH  21  22
ATOM     22  C   UNL     1      -8.031   3.460   0.092  1.00  0.00     0.000 C 
BRANCH  22  23
ATOM     23  C   UNL     1      -7.112   3.969  -1.029  1.00  0.00     0.000 C 
BRANCH  23  24
ATOM     24  C   UNL     1      -7.654   3.655  -2.434  1.00  0.00    -0.000 C 
BRANCH  24  25
ATOM     25  C   UNL     1      -7.920   2.164  -2.706  1.00  0.00    -0.000 C 
BRANCH  25  26
ATOM     26  C   UNL     1      -7.552   1.745  -4.140  1.00  0.00    -0.000 C 
BRANCH  26  27
ATOM     27  C   UNL     1      -6.434   0.684  -4.174  1.00  0.00    -0.000 C 
BRANCH  27  28
ATOM     28  C   UNL     1      -6.560  -0.327  -5.332  1.00  0.00    -0.000 C 
BRANCH  28  29
ATOM     29  C   UNL     1      -5.704   0.018  -6.567  1.00  0.00    -0.000 C 
BRANCH  29  30
ATOM     30  C   UNL     1      -4.201  -0.221  -6.326  1.00  0.00    -0.000 C 
BRANCH  30  31
ATOM     31  C   UNL     1      -3.676  -1.460  -7.066  1.00  0.00    -0.003 C 
ATOM     32  C   UNL     1      -2.748  -1.106  -8.227  1.00  0.00     0.004 C 
ENDBRANCH  30  31
ENDBRANCH  29  30
ENDBRANCH  28  29
ENDBRANCH  27  28
ENDBRANCH  26  27
ENDBRANCH  25  26
ENDBRANCH  24  25
ENDBRANCH  23  24
ENDBRANCH  22  23
ENDBRANCH  21  22
ENDBRANCH  20  21
ENDBRANCH  19  20
ENDBRANCH  18  19
ENDBRANCH   1  18
TORSDOF 28
ENDMDL
MODEL 3
REMARK VINA RESULT:    -3.846      4.417     12.355
REMARK INTER + INTRA:         -12.916
REMARK INTER:                 -10.500
REMARK INTRA:                  -2.416
REMARK UNBOUND:                -2.774
REMARK SMILES CCCCCCCCCCCCCCCCCCCCCCCCCCCCCC(=O)[O-]
REMARK SMILES IDX 16 1 17 2 18 3 19 4 20 5 21 6 22 7 23 8 24 9 25 10 26 11
REMARK SMILES IDX 27 12 28 13 29 14 30 15 31 16 32 17 15 18 14 19 13 20 12 21
REMARK SMILES IDX 11 22 10 23 9 24 8 25 7 26 6 27 5 28 4 29 3 30 2 31 1 32
REMARK H PARENT
REMARK Flexibility Score: inf
ROOT
ATOM      1  C   UNL     1      -8.116   0.526   2.987  1.00  0.00     0.000 C 
ENDROOT
BRANCH   1   2
ATOM      2  C   UNL     1      -7.926   1.346   1.698  1.00  0.00     0.000 C 
BRANCH   2   3
ATOM      3  C   UNL     1      -7.512   2.803   1.967  1.00  0.00     0.000 C 
BRANCH   3   4
ATOM      4  C   UNL     1      -7.539   3.682   0.703  1.00  0.00     0.000 C 
BRANCH   4   5
ATOM      5  C   UNL     1      -8.043   2.989  -0.577  1.00  0.00     0.000 C 
BRANCH   5   6
ATOM      6  C   UNL     1      -7.440   3.581  -1.861  1.00  0.00     0.000 C 
BRANCH   6   7
ATOM      7  C   UNL     1      -8.116   3.052  -3.140  1.00  0.00     0.000 C 
BRANCH   7   8
ATOM      8  C   UNL     1      -7.891   1.556  -3.432  1.00  0.00     0.000 C 
BRANCH   8   9
ATOM      9  C   UNL     1      -6.750   1.302  -4.427  1.00  0.00     0.000 C 
BRANCH   9  10
ATOM     10  C   UNL     1      -6.100  -0.066  -4.177  1.00  0.00     0.000 C 
BRANCH  10  11
ATOM     11  C   UNL     1      -5.718  -0.794  -5.477  1.00  0.00     0.000 C 
BRANCH  11  12
ATOM     12  C   UNL     1      -4.250  -0.619  -5.920  1.00  0.00     0.000 C 
BRANCH  12  13
ATOM     13  C   UNL     1      -4.030  -0.563  -7.442  1.00  0.00     0.006 C 
BRANCH  13  14
ATOM     14  C   UNL     1      -2.645  -1.067  -7.864  1.00  0.00     0.053 C 
BRANCH  14  15
ATOM     15  C   UNL     1      -2.147  -0.311  -9.055  1.00  0.00     0.041 C 
ATOM     16  O   UNL     1      -0.911  -0.125  -9.215  1.00  0.00    -0.550 OA
ATOM     17  O   UNL     1      -3.048   0.210  -9.977  1.00  0.00    -0.550 OA
ENDBRANCH  14  15
ENDBRANCH  13  14
ENDBRANCH  12  13
ENDBRANCH  11  12
ENDBRANCH  10  11
ENDBRANCH   9  10
ENDBRANCH   8   9
ENDBRANCH   7   8
ENDBRANCH   6   7
ENDBRANCH   5   6
ENDBRANCH   4   5
ENDBRANCH   3   4
ENDBRANCH   2   3
ENDBRANCH   1   2
BRANCH   1  18
ATOM     18  C   UNL     1      -7.003   0.678   4.039  1.00  0.00     0.000 C 
BRANCH  18  19
ATOM     19  C   UNL     1      -6.995  -0.458   5.077  1.00  0.00     0.000 C 
BRANCH  19  20
ATOM     20  C   UNL     1      -6.208  -1.688   4.598  1.00  0.00     0.000 C 
BRANCH  20  21
ATOM     21  C   UNL     1      -6.975  -3.003   4.805  1.00  0.00     0.000 C 
BRANCH  21  22
ATOM     22  C   UNL     1      -6.136  -4.005   5.607  1.00  0.00     0.000 C 
BRANCH  22  23
ATOM     23  C   UNL     1      -6.503  -3.960   7.098  1.00  0.00     0.000 C 
BRANCH  23  24
ATOM     24  C   UNL     1      -6.174  -2.607   7.753  1.00  0.00    -0.000 C 
BRANCH  24  25
ATOM     25  C   UNL     1      -5.088  -2.663   8.842  1.00  0.00    -0.000 C 
BRANCH  25  26
ATOM     26  C   UNL     1      -4.022  -1.565   8.678  1.00  0.00    -0.000 C 
BRANCH  26  27
ATOM     27  C   UNL     1      -4.033  -0.940   7.269  1.00  0.00    -0.000 C 
BRANCH  27  28
ATOM     28  C   UNL     1      -3.192   0.347   7.144  1.00  0.00    -0.000 C 
BRANCH  28  29
ATOM     29  C   UNL     1      -4.027   1.640   7.052  1.00  0.00    -0.000 C 
BRANCH  29  30
ATOM     30  C   UNL     1      -4.929   1.846   8.283  1.00  0.00    -0.000 C 
BRANCH  30  31
ATOM     31  C   UNL     1      -6.423   1.763   7.939  1.00  0.00    -0.003 C 
ATOM     32  C   UNL     1      -7.167   0.729   8.784  1.00  0.00     0.004 C 
ENDBRANCH  30  31
ENDBRANCH  29  30
ENDBRANCH  28  29
ENDBRANCH  27  28
ENDBRANCH  26  27
ENDBRANCH  25  26
ENDBRANCH  24  25
ENDBRANCH  23  24
ENDBRANCH  22  23
ENDBRANCH  21  22
ENDBRANCH  20  21
ENDBRANCH  19  20
ENDBRANCH  18  19
ENDBRANCH   1  18
TORSDOF 28
ENDMDL
MODEL 4
REMARK VINA RESULT:    -3.734      4.076     12.247
REMARK INTER + INTRA:         -12.621
REMARK INTER:                 -10.592
REMARK INTRA:                  -2.028
REMARK UNBOUND:                -2.774
REMARK SMILES CCCCCCCCCCCCCCCCCCCCCCCCCCCCCC(=O)[O-]
REMARK SMILES IDX 16 1 17 2 18 3 19 4 20 5 21 6 22 7 23 8 24 9 25 10 26 11
REMARK SMILES IDX 27 12 28 13 29 14 30 15 31 16 32 17 15 18 14 19 13 20 12 21
REMARK SMILES IDX 11 22 10 23 9 24 8 25 7 26 6 27 5 28 4 29 3 30 2 31 1 32
REMARK H PARENT
REMARK Flexibility Score: inf
ROOT
ATOM      1  C   UNL     1      -8.083   0.680   3.190  1.00  0.00     0.000 C 
ENDROOT
BRANCH   1   2
ATOM      2  C   UNL     1      -7.627   1.628   2.065  1.00  0.00     0.000 C 
BRANCH   2   3
ATOM      3  C   UNL     1      -8.073   3.083   2.288  1.00  0.00     0.000 C 
BRANCH   3   4
ATOM      4  C   UNL     1      -8.124   3.904   0.986  1.00  0.00     0.000 C 
BRANCH   4   5
ATOM      5  C   UNL     1      -8.085   3.085  -0.318  1.00  0.00     0.000 C 
BRANCH   5   6
ATOM      6  C   UNL     1      -7.039   3.598  -1.321  1.00  0.00     0.000 C 
BRANCH   6   7
ATOM      7  C   UNL     1      -7.356   3.201  -2.774  1.00  0.00     0.000 C 
BRANCH   7   8
ATOM      8  C   UNL     1      -7.495   1.688  -3.027  1.00  0.00     0.000 C 
BRANCH   8   9
ATOM      9  C   UNL     1      -6.853   1.237  -4.347  1.00  0.00     0.000 C 
BRANCH   9  10
ATOM     10  C   UNL     1      -5.647   0.324  -4.085  1.00  0.00     0.000 C 
BRANCH  10  11
ATOM     11  C   UNL     1      -5.394  -0.676  -5.227  1.00  0.00     0.000 C 
BRANCH  11  12
ATOM     12  C   UNL     1      -4.526  -0.142  -6.386  1.00  0.00     0.000 C 
BRANCH  12  13
ATOM     13  C   UNL     1      -3.530  -1.156  -6.976  1.00  0.00     0.006 C 
BRANCH  13  14
ATOM     14  C   UNL     1      -4.148  -2.031  -8.072  1.00  0.00     0.053 C 
BRANCH  14  15
ATOM     15  C   UNL     1      -4.758  -3.264  -7.482  1.00  0.00     0.041 C 
ATOM     16  O   UNL     1      -5.996  -3.472  -7.593  1.00  0.00    -0.550 OA
ATOM     17  O   UNL     1      -3.966  -4.172  -6.790  1.00  0.00    -0.550 OA
ENDBRANCH  14  15
ENDBRANCH  13  14
ENDBRANCH  12  13
ENDBRANCH  11  12
ENDBRANCH  10  11
ENDBRANCH   9  10
ENDBRANCH   8   9
ENDBRANCH   7   8
ENDBRANCH   6   7
ENDBRANCH   5   6
ENDBRANCH   4   5
ENDBRANCH   3   4
ENDBRANCH   2   3
ENDBRANCH   1   2
BRANCH   1  18
ATOM     18  C   UNL     1      -7.613   1.059   4.606  1.00  0.00     0.000 C 
BRANCH  18  19
ATOM     19  C   UNL     1      -7.516  -0.150   5.552  1.00  0.00     0.000 C 
BRANCH  19  20
ATOM     20  C   UNL     1      -6.261  -0.999   5.296  1.00  0.00     0.000 C 
BRANCH  20  21
ATOM     21  C   UNL     1      -6.577  -2.337   4.610  1.00  0.00     0.000 C 
BRANCH  21  22
ATOM     22  C   UNL     1      -5.818  -3.488   5.282  1.00  0.00     0.000 C 
BRANCH  22  23
ATOM     23  C   UNL     1      -6.785  -4.589   5.744  1.00  0.00     0.000 C 
BRANCH  23  24
ATOM     24  C   UNL     1      -7.690  -4.139   6.905  1.00  0.00    -0.000 C 
BRANCH  24  25
ATOM     25  C   UNL     1      -7.487  -4.912   8.220  1.00  0.00    -0.000 C 
BRANCH  25  26
ATOM     26  C   UNL     1      -7.213  -3.987   9.418  1.00  0.00    -0.000 C 
BRANCH  26  27
ATOM     27  C   UNL     1      -5.818  -3.333   9.349  1.00  0.00    -0.000 C 
BRANCH  27  28
ATOM     28  C   UNL     1      -5.844  -1.831   8.999  1.00  0.00    -0.000 C 
BRANCH  28  29
ATOM     29  C   UNL     1      -4.520  -1.094   9.284  1.00  0.00    -0.000 C 
BRANCH  29  30
ATOM     30  C   UNL     1      -3.575  -1.091   8.067  1.00  0.00    -0.000 C 
BRANCH  30  31
ATOM     31  C   UNL     1      -3.810   0.112   7.143  1.00  0.00    -0.003 C 
ATOM     32  C   UNL     1      -2.896   1.293   7.466  1.00  0.00     0.004 C 
ENDBRANCH  30  31
ENDBRANCH  29  30
ENDBRANCH  28  29
ENDBRANCH  27  28
ENDBRANCH  26  27
ENDBRANCH  25  26
ENDBRANCH  24  25
ENDBRANCH  23  24
ENDBRANCH  22  23
ENDBRANCH  21  22
ENDBRANCH  20  21
ENDBRANCH  19  20
ENDBRANCH  18  19
ENDBRANCH   1  18
TORSDOF 28
ENDMDL
MODEL 5
REMARK VINA RESULT:    -3.490      6.389      9.695
REMARK INTER + INTRA:         -11.975
REMARK INTER:                  -9.276
REMARK INTRA:                  -2.699
REMARK UNBOUND:                -2.774
REMARK SMILES CCCCCCCCCCCCCCCCCCCCCCCCCCCCCC(=O)[O-]
REMARK SMILES IDX 16 1 17 2 18 3 19 4 20 5 21 6 22 7 23 8 24 9 25 10 26 11
REMARK SMILES IDX 27 12 28 13 29 14 30 15 31 16 32 17 15 18 14 19 13 20 12 21
REMARK SMILES IDX 11 22 10 23 9 24 8 25 7 26 6 27 5 28 4 29 3 30 2 31 1 32
REMARK H PARENT
REMARK Flexibility Score: inf
ROOT
ATOM      1  C   UNL     1      -2.619   0.955   7.718  1.00  0.00     0.000 C 
ENDROOT
BRANCH   1   2
ATOM      2  C   UNL     1      -3.954   0.448   7.140  1.00  0.00     0.000 C 
BRANCH   2   3
ATOM      3  C   UNL     1      -4.073  -1.085   7.157  1.00  0.00     0.000 C 
BRANCH   3   4
ATOM      4  C   UNL     1      -3.626  -1.710   8.492  1.00  0.00     0.000 C 
BRANCH   4   5
ATOM      5  C   UNL     1      -4.675  -2.587   9.200  1.00  0.00     0.000 C 
BRANCH   5   6
ATOM      6  C   UNL     1      -5.862  -2.956   8.295  1.00  0.00     0.000 C 
BRANCH   6   7
ATOM      7  C   UNL     1      -6.480  -4.322   8.645  1.00  0.00     0.000 C 
BRANCH   7   8
ATOM      8  C   UNL     1      -7.663  -4.276   9.630  1.00  0.00     0.000 C 
BRANCH   8   9
ATOM      9  C   UNL     1      -8.089  -5.666  10.124  1.00  0.00     0.000 C 
BRANCH   9  10
ATOM     10  C   UNL     1      -8.061  -6.687   8.978  1.00  0.00     0.000 C 
BRANCH  10  11
ATOM     11  C   UNL     1      -7.056  -7.828   9.216  1.00  0.00     0.000 C 
BRANCH  11  12
ATOM     12  C   UNL     1      -7.111  -8.976   8.187  1.00  0.00     0.000 C 
BRANCH  12  13
ATOM     13  C   UNL     1      -7.297 -10.381   8.786  1.00  0.00     0.006 C 
BRANCH  13  14
ATOM     14  C   UNL     1      -6.240 -10.723   9.844  1.00  0.00     0.053 C 
BRANCH  14  15
ATOM     15  C   UNL     1      -4.868 -10.700   9.246  1.00  0.00     0.041 C 
ATOM     16  O   UNL     1      -4.392 -11.739   8.715  1.00  0.00    -0.550 OA
ATOM     17  O   UNL     1      -4.104  -9.540   9.296  1.00  0.00    -0.550 OA
ENDBRANCH  14  15
ENDBRANCH  13  14
ENDBRANCH  12  13
ENDBRANCH  11  12
ENDBRANCH  10  11
ENDBRANCH   9  10
ENDBRANCH   8   9
ENDBRANCH   7   8
ENDBRANCH   6   7
ENDBRANCH   5   6
ENDBRANCH   4   5
ENDBRANCH   3   4
ENDBRANCH   2   3
ENDBRANCH   1   2
BRANCH   1  18
ATOM     18  C   UNL     1      -2.731   2.119   8.718  1.00  0.00     0.000 C 
BRANCH  18  19
ATOM     19  C   UNL     1      -3.883   1.943   9.722  1.00  0.00     0.000 C 
BRANCH  19  20
ATOM     20  C   UNL     1      -4.969   3.020   9.568  1.00  0.00     0.000 C 
BRANCH  20  21
ATOM     21  C   UNL     1      -6.363   2.524   9.982  1.00  0.00     0.000 C 
BRANCH  21  22
ATOM     22  C   UNL     1      -6.844   1.407   9.048  1.00  0.00     0.000 C 
BRANCH  22  23
ATOM     23  C   UNL     1      -7.545   1.989   7.811  1.00  0.00     0.000 C 
BRANCH  23  24
ATOM     24  C   UNL     1      -6.775   1.717   6.506  1.00  0.00    -0.000 C 
BRANCH  24  25
ATOM     25  C   UNL     1      -7.636   1.739   5.231  1.00  0.00    -0.000 C 
BRANCH  25  26
ATOM     26  C   UNL     1      -8.125   0.340   4.817  1.00  0.00    -0.000 C 
BRANCH  26  27
ATOM     27  C   UNL     1      -8.099   0.137   3.290  1.00  0.00    -0.000 C 
BRANCH  27  28
ATOM     28  C   UNL     1      -7.354  -1.135   2.836  1.00  0.00    -0.000 C 
BRANCH  28  29
ATOM     29  C   UNL     1      -8.097  -2.449   3.151  1.00  0.00    -0.000 C 
BRANCH  29  30
ATOM     30  C   UNL     1      -7.519  -3.170   4.383  1.00  0.00    -0.000 C 
BRANCH  30  31
ATOM     31  C   UNL     1      -5.986  -3.090   4.447  1.00  0.00    -0.003 C 
ATOM     32  C   UNL     1      -5.367  -4.233   5.250  1.00  0.00     0.004 C 
ENDBRANCH  30  31
ENDBRANCH  29  30
ENDBRANCH  28  29
ENDBRANCH  27  28
ENDBRANCH  26  27
ENDBRANCH  25  26
ENDBRANCH  24  25
ENDBRANCH  23  24
ENDBRANCH  22  23
ENDBRANCH  21  22
ENDBRANCH  20  21
ENDBRANCH  19  20
ENDBRANCH  18  19
ENDBRANCH   1  18
TORSDOF 28
ENDMDL
MODEL 6
REMARK VINA RESULT:    -3.386     10.408     15.528
REMARK INTER + INTRA:         -11.702
REMARK INTER:                  -9.449
REMARK INTRA:                  -2.253
REMARK UNBOUND:                -2.774
REMARK SMILES CCCCCCCCCCCCCCCCCCCCCCCCCCCCCC(=O)[O-]
REMARK SMILES IDX 16 1 17 2 18 3 19 4 20 5 21 6 22 7 23 8 24 9 25 10 26 11
REMARK SMILES IDX 27 12 28 13 29 14 30 15 31 16 32 17 15 18 14 19 13 20 12 21
REMARK SMILES IDX 11 22 10 23 9 24 8 25 7 26 6 27 5 28 4 29 3 30 2 31 1 32
REMARK H PARENT
REMARK Flexibility Score: inf
ROOT
ATOM      1  C   UNL     1      -3.982  -9.755 -10.125  1.00  0.00     0.000 C 
ENDROOT
BRANCH   1   2
ATOM      2  C   UNL     1      -2.704  -9.854  -9.271  1.00  0.00     0.000 C 
BRANCH   2   3
ATOM      3  C   UNL     1      -2.019 -11.228  -9.373  1.00  0.00     0.000 C 
BRANCH   3   4
ATOM      4  C   UNL     1      -0.482 -11.133  -9.409  1.00  0.00     0.000 C 
BRANCH   4   5
ATOM      5  C   UNL     1       0.181 -10.587  -8.131  1.00  0.00     0.000 C 
BRANCH   5   6
ATOM      6  C   UNL     1       1.290  -9.561  -8.417  1.00  0.00     0.000 C 
BRANCH   6   7
ATOM      7  C   UNL     1       1.983  -9.055  -7.139  1.00  0.00     0.000 C 
BRANCH   7   8
ATOM      8  C   UNL     1       1.648  -9.836  -5.855  1.00  0.00     0.000 C 
BRANCH   8   9
ATOM      9  C   UNL     1       2.868 -10.538  -5.241  1.00  0.00     0.000 C 
BRANCH   9  10
ATOM     10  C   UNL     1       3.115 -11.896  -5.913  1.00  0.00     0.000 C 
BRANCH  10  11
ATOM     11  C   UNL     1       4.433 -11.941  -6.706  1.00  0.00     0.000 C 
BRANCH  11  12
ATOM     12  C   UNL     1       5.322 -10.688  -6.571  1.00  0.00     0.000 C 
BRANCH  12  13
ATOM     13  C   UNL     1       6.735 -10.823  -7.167  1.00  0.00     0.006 C 
BRANCH  13  14
ATOM     14  C   UNL     1       7.003  -9.823  -8.299  1.00  0.00     0.053 C 
BRANCH  14  15
ATOM     15  C   UNL     1       8.363  -9.215  -8.155  1.00  0.00     0.041 C 
ATOM     16  O   UNL     1       8.570  -8.329  -7.283  1.00  0.00    -0.550 OA
ATOM     17  O   UNL     1       9.396  -9.609  -8.997  1.00  0.00    -0.550 OA
ENDBRANCH  14  15
ENDBRANCH  13  14
ENDBRANCH  12  13
ENDBRANCH  11  12
ENDBRANCH  10  11
ENDBRANCH   9  10
ENDBRANCH   8   9
ENDBRANCH   7   8
ENDBRANCH   6   7
ENDBRANCH   5   6
ENDBRANCH   4   5
ENDBRANCH   3   4
ENDBRANCH   2   3
ENDBRANCH   1   2
BRANCH   1  18
ATOM     18  C   UNL     1      -5.233  -9.248  -9.386  1.00  0.00     0.000 C 
BRANCH  18  19
ATOM     19  C   UNL     1      -5.124  -7.774  -8.957  1.00  0.00     0.000 C 
BRANCH  19  20
ATOM     20  C   UNL     1      -5.213  -7.597  -7.433  1.00  0.00     0.000 C 
BRANCH  20  21
ATOM     21  C   UNL     1      -6.543  -8.102  -6.851  1.00  0.00     0.000 C 
BRANCH  21  22
ATOM     22  C   UNL     1      -7.723  -7.296  -7.407  1.00  0.00     0.000 C 
BRANCH  22  23
ATOM     23  C   UNL     1      -7.519  -5.791  -7.175  1.00  0.00     0.000 C 
BRANCH  23  24
ATOM     24  C   UNL     1      -7.919  -4.939  -8.392  1.00  0.00    -0.000 C 
BRANCH  24  25
ATOM     25  C   UNL     1      -7.170  -3.601  -8.519  1.00  0.00    -0.000 C 
BRANCH  25  26
ATOM     26  C   UNL     1      -5.673  -3.721  -8.184  1.00  0.00    -0.000 C 
BRANCH  26  27
ATOM     27  C   UNL     1      -4.893  -2.431  -8.505  1.00  0.00    -0.000 C 
BRANCH  27  28
ATOM     28  C   UNL     1      -3.794  -2.087  -7.478  1.00  0.00    -0.000 C 
BRANCH  28  29
ATOM     29  C   UNL     1      -4.297  -1.292  -6.257  1.00  0.00    -0.000 C 
BRANCH  29  30
ATOM     30  C   UNL     1      -5.210  -0.117  -6.657  1.00  0.00    -0.000 C 
BRANCH  30  31
ATOM     31  C   UNL     1      -5.963   0.478  -5.458  1.00  0.00    -0.003 C 
ATOM     32  C   UNL     1      -5.254   0.224  -4.129  1.00  0.00     0.004 C 
ENDBRANCH  30  31
ENDBRANCH  29  30
ENDBRANCH  28  29
ENDBRANCH  27  28
ENDBRANCH  26  27
ENDBRANCH  25  26
ENDBRANCH  24  25
ENDBRANCH  23  24
ENDBRANCH  22  23
ENDBRANCH  21  22
ENDBRANCH  20  21
ENDBRANCH  19  20
ENDBRANCH  18  19
ENDBRANCH   1  18
TORSDOF 28
ENDMDL
MODEL 7
REMARK VINA RESULT:    -3.349     12.465     17.803
REMARK INTER + INTRA:         -11.604
REMARK INTER:                  -9.693
REMARK INTRA:                  -1.910
REMARK UNBOUND:                -2.774
REMARK SMILES CCCCCCCCCCCCCCCCCCCCCCCCCCCCCC(=O)[O-]
REMARK SMILES IDX 16 1 17 2 18 3 19 4 20 5 21 6 22 7 23 8 24 9 25 10 26 11
REMARK SMILES IDX 27 12 28 13 29 14 30 15 31 16 32 17 15 18 14 19 13 20 12 21
REMARK SMILES IDX 11 22 10 23 9 24 8 25 7 26 6 27 5 28 4 29 3 30 2 31 1 32
REMARK H PARENT
REMARK Flexibility Score: inf
ROOT
ATOM      1  C   UNL     1       2.902 -10.307  -5.340  1.00  0.00     0.000 C 
ENDROOT
BRANCH   1   2
ATOM      2  C   UNL     1       1.603  -9.849  -6.030  1.00  0.00     0.000 C 
BRANCH   2   3
ATOM      3  C   UNL     1       1.810  -9.467  -7.506  1.00  0.00     0.000 C 
BRANCH   3   4
ATOM      4  C   UNL     1       0.829 -10.180  -8.456  1.00  0.00     0.000 C 
BRANCH   4   5
ATOM      5  C   UNL     1       0.126 -11.421  -7.875  1.00  0.00     0.000 C 
BRANCH   5   6
ATOM      6  C   UNL     1      -1.168 -11.785  -8.621  1.00  0.00     0.000 C 
BRANCH   6   7
ATOM      7  C   UNL     1      -1.687 -10.643  -9.514  1.00  0.00     0.000 C 
BRANCH   7   8
ATOM      8  C   UNL     1      -2.880  -9.853  -8.945  1.00  0.00     0.000 C 
BRANCH   8   9
ATOM      9  C   UNL     1      -3.906  -9.456 -10.016  1.00  0.00     0.000 C 
BRANCH   9  10
ATOM     10  C   UNL     1      -5.063  -8.660  -9.398  1.00  0.00     0.000 C 
BRANCH  10  11
ATOM     11  C   UNL     1      -4.922  -8.482  -7.876  1.00  0.00     0.000 C 
BRANCH  11  12
ATOM     12  C   UNL     1      -5.152  -7.047  -7.359  1.00  0.00     0.000 C 
BRANCH  12  13
ATOM     13  C   UNL     1      -5.655  -6.046  -8.414  1.00  0.00     0.006 C 
BRANCH  13  14
ATOM     14  C   UNL     1      -5.982  -4.669  -7.823  1.00  0.00     0.053 C 
BRANCH  14  15
ATOM     15  C   UNL     1      -4.770  -3.791  -7.826  1.00  0.00     0.041 C 
ATOM     16  O   UNL     1      -4.041  -3.715  -6.801  1.00  0.00    -0.550 OA
ATOM     17  O   UNL     1      -4.456  -3.039  -8.952  1.00  0.00    -0.550 OA
ENDBRANCH  14  15
ENDBRANCH  13  14
ENDBRANCH  12  13
ENDBRANCH  11  12
ENDBRANCH  10  11
ENDBRANCH   9  10
ENDBRANCH   8   9
ENDBRANCH   7   8
ENDBRANCH   6   7
ENDBRANCH   5   6
ENDBRANCH   4   5
ENDBRANCH   3   4
ENDBRANCH   2   3
ENDBRANCH   1   2
BRANCH   1  18
ATOM     18  C   UNL     1       3.368 -11.732  -5.687  1.00  0.00     0.000 C 
BRANCH  18  19
ATOM     19  C   UNL     1       4.895 -11.845  -5.846  1.00  0.00     0.000 C 
BRANCH  19  20
ATOM     20  C   UNL     1       5.463 -10.807  -6.826  1.00  0.00     0.000 C 
BRANCH  20  21
ATOM     21  C   UNL     1       5.025 -11.056  -8.278  1.00  0.00     0.000 C 
BRANCH  21  22
ATOM     22  C   UNL     1       6.167 -10.749  -9.253  1.00  0.00     0.000 C 
BRANCH  22  23
ATOM     23  C   UNL     1       6.647  -9.297  -9.099  1.00  0.00     0.000 C 
BRANCH  23  24
ATOM     24  C   UNL     1       8.179  -9.179  -9.027  1.00  0.00    -0.000 C 
BRANCH  24  25
ATOM     25  C   UNL     1       8.731  -7.764  -9.273  1.00  0.00    -0.000 C 
BRANCH  25  26
ATOM     26  C   UNL     1      10.007  -7.473  -8.465  1.00  0.00    -0.000 C 
BRANCH  26  27
ATOM     27  C   UNL     1       9.776  -6.421  -7.361  1.00  0.00    -0.000 C 
BRANCH  27  28
ATOM     28  C   UNL     1      10.535  -5.097  -7.585  1.00  0.00    -0.000 C 
BRANCH  28  29
ATOM     29  C   UNL     1      11.487  -4.713  -6.434  1.00  0.00    -0.000 C 
BRANCH  29  30
ATOM     30  C   UNL     1      11.016  -3.458  -5.676  1.00  0.00    -0.000 C 
BRANCH  30  31
ATOM     31  C   UNL     1      10.972  -3.670  -4.155  1.00  0.00    -0.003 C 
ATOM     32  C   UNL     1      10.925  -2.357  -3.376  1.00  0.00     0.004 C 
ENDBRANCH  30  31
ENDBRANCH  29  30
ENDBRANCH  28  29
ENDBRANCH  27  28
ENDBRANCH  26  27
ENDBRANCH  25  26
ENDBRANCH  24  25
ENDBRANCH  23  24
ENDBRANCH  22  23
ENDBRANCH  21  22
ENDBRANCH  20  21
ENDBRANCH  19  20
ENDBRANCH  18  19
ENDBRANCH   1  18
TORSDOF 28
ENDMDL
MODEL 8
REMARK VINA RESULT:    -3.318      9.376     14.849
REMARK INTER + INTRA:         -11.522
REMARK INTER:                  -9.584
REMARK INTRA:                  -1.938
REMARK UNBOUND:                -2.774
REMARK SMILES CCCCCCCCCCCCCCCCCCCCCCCCCCCCCC(=O)[O-]
REMARK SMILES IDX 16 1 17 2 18 3 19 4 20 5 21 6 22 7 23 8 24 9 25 10 26 11
REMARK SMILES IDX 27 12 28 13 29 14 30 15 31 16 32 17 15 18 14 19 13 20 12 21
REMARK SMILES IDX 11 22 10 23 9 24 8 25 7 26 6 27 5 28 4 29 3 30 2 31 1 32
REMARK H PARENT
REMARK Flexibility Score: inf
ROOT
ATOM      1  C   UNL     1      -5.192  -7.628  -8.913  1.00  0.00     0.000 C 
ENDROOT
BRANCH   1   2
ATOM      2  C   UNL     1      -5.616  -7.211  -7.492  1.00  0.00     0.000 C 
BRANCH   2   3
ATOM      3  C   UNL     1      -6.631  -6.056  -7.482  1.00  0.00     0.000 C 
BRANCH   3   4
ATOM      4  C   UNL     1      -6.599  -5.214  -8.771  1.00  0.00     0.000 C 
BRANCH   4   5
ATOM      5  C   UNL     1      -6.378  -3.703  -8.573  1.00  0.00     0.000 C 
BRANCH   5   6
ATOM      6  C   UNL     1      -7.664  -2.950  -8.194  1.00  0.00     0.000 C 
BRANCH   6   7
ATOM      7  C   UNL     1      -7.754  -2.639  -6.688  1.00  0.00     0.000 C 
BRANCH   7   8
ATOM      8  C   UNL     1      -8.125  -1.186  -6.338  1.00  0.00     0.000 C 
BRANCH   8   9
ATOM      9  C   UNL     1      -7.677  -0.774  -4.928  1.00  0.00     0.000 C 
BRANCH   9  10
ATOM     10  C   UNL     1      -6.544   0.260  -4.994  1.00  0.00     0.000 C 
BRANCH  10  11
ATOM     11  C   UNL     1      -5.151  -0.365  -4.801  1.00  0.00     0.000 C 
BRANCH  11  12
ATOM     12  C   UNL     1      -4.454  -0.827  -6.097  1.00  0.00     0.000 C 
BRANCH  12  13
ATOM     13  C   UNL     1      -4.787   0.003  -7.349  1.00  0.00     0.006 C 
BRANCH  13  14
ATOM     14  C   UNL     1      -3.604   0.124  -8.318  1.00  0.00     0.053 C 
BRANCH  14  15
ATOM     15  C   UNL     1      -2.947  -1.206  -8.516  1.00  0.00     0.041 C 
ATOM     16  O   UNL     1      -1.794  -1.417  -8.052  1.00  0.00    -0.550 OA
ATOM     17  O   UNL     1      -3.595  -2.206  -9.232  1.00  0.00    -0.550 OA
ENDBRANCH  14  15
ENDBRANCH  13  14
ENDBRANCH  12  13
ENDBRANCH  11  12
ENDBRANCH  10  11
ENDBRANCH   9  10
ENDBRANCH   8   9
ENDBRANCH   7   8
ENDBRANCH   6   7
ENDBRANCH   5   6
ENDBRANCH   4   5
ENDBRANCH   3   4
ENDBRANCH   2   3
ENDBRANCH   1   2
BRANCH   1  18
ATOM     18  C   UNL     1      -5.069  -9.143  -9.150  1.00  0.00     0.000 C 
BRANCH  18  19
ATOM     19  C   UNL     1      -3.936  -9.511 -10.125  1.00  0.00     0.000 C 
BRANCH  19  20
ATOM     20  C   UNL     1      -2.653  -9.946  -9.400  1.00  0.00     0.000 C 
BRANCH  20  21
ATOM     21  C   UNL     1      -2.231 -11.382  -9.747  1.00  0.00     0.000 C 
BRANCH  21  22
ATOM     22  C   UNL     1      -1.477 -12.027  -8.577  1.00  0.00     0.000 C 
BRANCH  22  23
ATOM     23  C   UNL     1      -0.652 -10.981  -7.812  1.00  0.00     0.000 C 
BRANCH  23  24
ATOM     24  C   UNL     1       0.828 -11.377  -7.669  1.00  0.00    -0.000 C 
BRANCH  24  25
ATOM     25  C   UNL     1       1.789 -10.203  -7.410  1.00  0.00    -0.000 C 
BRANCH  25  26
ATOM     26  C   UNL     1       1.912  -9.852  -5.916  1.00  0.00    -0.000 C 
BRANCH  26  27
ATOM     27  C   UNL     1       2.976 -10.704  -5.198  1.00  0.00    -0.000 C 
BRANCH  27  28
ATOM     28  C   UNL     1       3.908 -11.482  -6.150  1.00  0.00    -0.000 C 
BRANCH  28  29
ATOM     29  C   UNL     1       5.338 -10.912  -6.239  1.00  0.00    -0.000 C 
BRANCH  29  30
ATOM     30  C   UNL     1       5.672 -10.378  -7.644  1.00  0.00    -0.000 C 
BRANCH  30  31
ATOM     31  C   UNL     1       7.087 -10.764  -8.100  1.00  0.00    -0.003 C 
ATOM     32  C   UNL     1       8.116 -10.669  -6.976  1.00  0.00     0.004 C 
ENDBRANCH  30  31
ENDBRANCH  29  30
ENDBRANCH  28  29
ENDBRANCH  27  28
ENDBRANCH  26  27
ENDBRANCH  25  26
ENDBRANCH  24  25
ENDBRANCH  23  24
ENDBRANCH  22  23
ENDBRANCH  21  22
ENDBRANCH  20  21
ENDBRANCH  19  20
ENDBRANCH  18  19
ENDBRANCH   1  18
TORSDOF 28
ENDMDL
