MODEL 1
REMARK VINA RESULT:    -5.185      0.000      0.000
REMARK INTER + INTRA:         -11.197
REMARK INTER:                 -10.035
REMARK INTRA:                  -1.162
REMARK UNBOUND:                -1.162
REMARK SMILES CCCCCCCCCCCCCCCCCC(=O)[O-]
REMARK SMILES IDX 10 1 11 2 12 3 13 4 14 5 15 6 16 7 17 8 18 9 19 10 20 11
REMARK SMILES IDX 9 12 8 13 7 14 6 15 5 16 4 17 3 18 2 19 1 20
REMARK H PARENT
REMARK Flexibility Score: inf
ROOT
ATOM      1  C   UNL     1      -1.233   4.069  16.053  1.00  0.00     0.000 C 
ENDROOT
BRANCH   1   2
ATOM      2  C   UNL     1      -1.272   5.259  17.025  1.00  0.00     0.000 C 
BRANCH   2   3
ATOM      3  C   UNL     1       0.133   5.721  17.447  1.00  0.00     0.000 C 
BRANCH   3   4
ATOM      4  C   UNL     1       0.491   7.114  16.901  1.00  0.00     0.000 C 
BRANCH   4   5
ATOM      5  C   UNL     1       1.256   8.025  17.883  1.00  0.00     0.000 C 
BRANCH   5   6
ATOM      6  C   UNL     1       0.494   8.380  19.173  1.00  0.00     0.000 C 
BRANCH   6   7
ATOM      7  C   UNL     1       0.951   7.550  20.384  1.00  0.00     0.006 C 
BRANCH   7   8
ATOM      8  C   UNL     1      -0.217   6.811  21.050  1.00  0.00     0.053 C 
BRANCH   8   9
ATOM      9  C   UNL     1       0.008   6.632  22.520  1.00  0.00     0.041 C 
ATOM     10  O   UNL     1       1.176   6.645  22.990  1.00  0.00    -0.550 OA
ATOM     11  O   UNL     1      -1.071   6.414  23.367  1.00  0.00    -0.550 OA
ENDBRANCH   8   9
ENDBRANCH   7   8
ENDBRANCH   6   7
ENDBRANCH   5   6
ENDBRANCH   4   5
ENDBRANCH   3   4
ENDBRANCH   2   3
ENDBRANCH   1   2
BRANCH   1  12
ATOM     12  C   UNL     1      -1.613   2.743  16.730  1.00  0.00     0.000 C 
BRANCH  12  13
ATOM     13  C   UNL     1      -3.114   2.694  17.039  1.00  0.00    -0.000 C 
BRANCH  13  14
ATOM     14  C   UNL     1      -3.933   3.297  15.887  1.00  0.00    -0.000 C 
BRANCH  14  15
ATOM     15  C   UNL     1      -5.389   3.607  16.282  1.00  0.00    -0.000 C 
BRANCH  15  16
ATOM     16  C   UNL     1      -6.176   4.437  15.251  1.00  0.00    -0.000 C 
BRANCH  16  17
ATOM     17  C   UNL     1      -5.641   5.873  15.107  1.00  0.00    -0.000 C 
BRANCH  17  18
ATOM     18  C   UNL     1      -5.505   6.597  16.458  1.00  0.00    -0.000 C 
BRANCH  18  19
ATOM     19  C   UNL     1      -6.827   7.140  17.033  1.00  0.00    -0.003 C 
ATOM     20  C   UNL     1      -6.897   7.050  18.557  1.00  0.00     0.004 C 
ENDBRANCH  18  19
ENDBRANCH  17  18
ENDBRANCH  16  17
ENDBRANCH  15  16
ENDBRANCH  14  15
ENDBRANCH  13  14
ENDBRANCH  12  13
ENDBRANCH   1  12
TORSDOF 16
ENDMDL
MODEL 2
REMARK VINA RESULT:    -5.122      2.216      3.496
REMARK INTER + INTRA:         -11.075
REMARK INTER:                  -9.833
REMARK INTRA:                  -1.242
REMARK UNBOUND:                -1.162
REMARK SMILES CCCCCCCCCCCCCCCCCC(=O)[O-]
REMARK SMILES IDX 10 1 11 2 12 3 13 4 14 5 15 6 16 7 17 8 18 9 19 10 20 11
REMARK SMILES IDX 9 12 8 13 7 14 6 15 5 16 4 17 3 18 2 19 1 20
REMARK H PARENT
REMARK Flexibility Score: inf
ROOT
ATOM      1  C   UNL     1      -2.888   5.243  15.499  1.00  0.00     0.000 C 
ENDROOT
BRANCH   1   2
ATOM      2  C   UNL     1      -2.027   3.973  15.590  1.00  0.00     0.000 C 
BRANCH   2   3
ATOM      3  C   UNL     1      -1.058   4.003  16.784  1.00  0.00     0.000 C 
BRANCH   3   4
ATOM      4  C   UNL     1      -0.331   5.351  16.928  1.00  0.00     0.000 C 
BRANCH   4   5
ATOM      5  C   UNL     1      -0.203   5.874  18.374  1.00  0.00     0.000 C 
BRANCH   5   6
ATOM      6  C   UNL     1       0.415   7.278  18.508  1.00  0.00     0.000 C 
BRANCH   6   7
ATOM      7  C   UNL     1       0.464   7.771  19.964  1.00  0.00     0.006 C 
BRANCH   7   8
ATOM      8  C   UNL     1      -0.309   6.846  20.912  1.00  0.00     0.053 C 
BRANCH   8   9
ATOM      9  C   UNL     1       0.413   6.656  22.211  1.00  0.00     0.041 C 
ATOM     10  O   UNL     1      -0.222   6.327  23.248  1.00  0.00    -0.550 OA
ATOM     11  O   UNL     1       1.782   6.879  22.285  1.00  0.00    -0.550 OA
ENDBRANCH   8   9
ENDBRANCH   7   8
ENDBRANCH   6   7
ENDBRANCH   5   6
ENDBRANCH   4   5
ENDBRANCH   3   4
ENDBRANCH   2   3
ENDBRANCH   1   2
BRANCH   1  12
ATOM     12  C   UNL     1      -3.943   5.320  16.614  1.00  0.00     0.000 C 
BRANCH  12  13
ATOM     13  C   UNL     1      -5.152   4.435  16.289  1.00  0.00    -0.000 C 
BRANCH  13  14
ATOM     14  C   UNL     1      -6.363   5.287  15.878  1.00  0.00    -0.000 C 
BRANCH  14  15
ATOM     15  C   UNL     1      -6.516   5.420  14.352  1.00  0.00    -0.000 C 
BRANCH  15  16
ATOM     16  C   UNL     1      -6.457   4.089  13.578  1.00  0.00    -0.000 C 
BRANCH  16  17
ATOM     17  C   UNL     1      -5.680   4.201  12.255  1.00  0.00    -0.000 C 
BRANCH  17  18
ATOM     18  C   UNL     1      -5.722   5.619  11.657  1.00  0.00    -0.000 C 
BRANCH  18  19
ATOM     19  C   UNL     1      -6.170   5.683  10.185  1.00  0.00    -0.003 C 
ATOM     20  C   UNL     1      -7.354   4.766   9.880  1.00  0.00     0.004 C 
ENDBRANCH  18  19
ENDBRANCH  17  18
ENDBRANCH  16  17
ENDBRANCH  15  16
ENDBRANCH  14  15
ENDBRANCH  13  14
ENDBRANCH  12  13
ENDBRANCH   1  12
TORSDOF 16
ENDMDL
MODEL 3
REMARK VINA RESULT:    -4.990      4.475      6.626
REMARK INTER + INTRA:         -10.819
REMARK INTER:                  -8.210
REMARK INTRA:                  -2.609
REMARK UNBOUND:                -1.162
REMARK SMILES CCCCCCCCCCCCCCCCCC(=O)[O-]
REMARK SMILES IDX 10 1 11 2 12 3 13 4 14 5 15 6 16 7 17 8 18 9 19 10 20 11
REMARK SMILES IDX 9 12 8 13 7 14 6 15 5 16 4 17 3 18 2 19 1 20
REMARK H PARENT
REMARK Flexibility Score: inf
ROOT
ATOM      1  C   UNL     1      -8.403   5.475  14.627  1.00  0.00     0.000 C 
ENDROOT
BRANCH   1   2
ATOM      2  C   UNL     1      -8.084   6.952  14.348  1.00  0.00     0.000 C 
BRANCH   2   3
ATOM      3  C   UNL     1      -6.982   7.501  15.270  1.00  0.00     0.000 C 
BRANCH   3   4
ATOM      4  C   UNL     1      -6.877   6.731  16.598  1.00  0.00     0.000 C 
BRANCH   4   5
ATOM      5  C   UNL     1      -5.475   6.179  16.925  1.00  0.00     0.000 C 
BRANCH   5   6
ATOM      6  C   UNL     1      -5.354   4.645  16.897  1.00  0.00     0.000 C 
BRANCH   6   7
ATOM      7  C   UNL     1      -4.141   4.156  16.087  1.00  0.00     0.006 C 
BRANCH   7   8
ATOM      8  C   UNL     1      -3.555   2.858  16.656  1.00  0.00     0.053 C 
BRANCH   8   9
ATOM      9  C   UNL     1      -2.058   2.859  16.606  1.00  0.00     0.041 C 
ATOM     10  O   UNL     1      -1.401   1.993  17.244  1.00  0.00    -0.550 OA
ATOM     11  O   UNL     1      -1.386   3.838  15.887  1.00  0.00    -0.550 OA
ENDBRANCH   8   9
ENDBRANCH   7   8
ENDBRANCH   6   7
ENDBRANCH   5   6
ENDBRANCH   4   5
ENDBRANCH   3   4
ENDBRANCH   2   3
ENDBRANCH   1   2
BRANCH   1  12
ATOM     12  C   UNL     1      -8.027   4.559  13.452  1.00  0.00     0.000 C 
BRANCH  12  13
ATOM     13  C   UNL     1      -6.552   4.150  13.523  1.00  0.00    -0.000 C 
BRANCH  13  14
ATOM     14  C   UNL     1      -5.924   4.106  12.121  1.00  0.00    -0.000 C 
BRANCH  14  15
ATOM     15  C   UNL     1      -6.778   4.819  11.057  1.00  0.00    -0.000 C 
BRANCH  15  16
ATOM     16  C   UNL     1      -6.199   6.154  10.551  1.00  0.00    -0.000 C 
BRANCH  16  17
ATOM     17  C   UNL     1      -4.678   6.097  10.324  1.00  0.00    -0.000 C 
BRANCH  17  18
ATOM     18  C   UNL     1      -3.914   7.160  11.136  1.00  0.00    -0.000 C 
BRANCH  18  19
ATOM     19  C   UNL     1      -4.564   7.531  12.481  1.00  0.00    -0.003 C 
ATOM     20  C   UNL     1      -3.741   7.080  13.687  1.00  0.00     0.004 C 
ENDBRANCH  18  19
ENDBRANCH  17  18
ENDBRANCH  16  17
ENDBRANCH  15  16
ENDBRANCH  14  15
ENDBRANCH  13  14
ENDBRANCH  12  13
ENDBRANCH   1  12
TORSDOF 16
ENDMDL
MODEL 4
REMARK VINA RESULT:    -4.956      1.565      3.392
REMARK INTER + INTRA:         -10.754
REMARK INTER:                  -9.172
REMARK INTRA:                  -1.582
REMARK UNBOUND:                -1.162
REMARK SMILES CCCCCCCCCCCCCCCCCC(=O)[O-]
REMARK SMILES IDX 10 1 11 2 12 3 13 4 14 5 15 6 16 7 17 8 18 9 19 10 20 11
REMARK SMILES IDX 9 12 8 13 7 14 6 15 5 16 4 17 3 18 2 19 1 20
REMARK H PARENT
REMARK Flexibility Score: inf
ROOT
ATOM      1  C   UNL     1      -5.468   3.918  15.705  1.00  0.00     0.000 C 
ENDROOT
BRANCH   1   2
ATOM      2  C   UNL     1      -4.214   3.931  16.593  1.00  0.00     0.000 C 
BRANCH   2   3
ATOM      3  C   UNL     1      -3.011   3.245  15.925  1.00  0.00     0.000 C 
BRANCH   3   4
ATOM      4  C   UNL     1      -1.792   4.174  15.793  1.00  0.00     0.000 C 
BRANCH   4   5
ATOM      5  C   UNL     1      -0.876   4.232  17.033  1.00  0.00     0.000 C 
BRANCH   5   6
ATOM      6  C   UNL     1      -0.446   5.646  17.461  1.00  0.00     0.000 C 
BRANCH   6   7
ATOM      7  C   UNL     1       0.221   5.673  18.847  1.00  0.00     0.006 C 
BRANCH   7   8
ATOM      8  C   UNL     1      -0.230   6.880  19.679  1.00  0.00     0.053 C 
BRANCH   8   9
ATOM      9  C   UNL     1       0.245   6.783  21.097  1.00  0.00     0.041 C 
ATOM     10  O   UNL     1      -0.585   6.717  22.042  1.00  0.00    -0.550 OA
ATOM     11  O   UNL     1       1.605   6.803  21.377  1.00  0.00    -0.550 OA
ENDBRANCH   8   9
ENDBRANCH   7   8
ENDBRANCH   6   7
ENDBRANCH   5   6
ENDBRANCH   4   5
ENDBRANCH   3   4
ENDBRANCH   2   3
ENDBRANCH   1   2
BRANCH   1  12
ATOM     12  C   UNL     1      -5.254   4.655  14.373  1.00  0.00     0.000 C 
BRANCH  12  13
ATOM     13  C   UNL     1      -6.104   4.035  13.259  1.00  0.00    -0.000 C 
BRANCH  13  14
ATOM     14  C   UNL     1      -7.590   4.383  13.441  1.00  0.00    -0.000 C 
BRANCH  14  15
ATOM     15  C   UNL     1      -7.862   5.899  13.404  1.00  0.00    -0.000 C 
BRANCH  15  16
ATOM     16  C   UNL     1      -8.871   6.401  14.453  1.00  0.00    -0.000 C 
BRANCH  16  17
ATOM     17  C   UNL     1      -8.254   6.541  15.856  1.00  0.00    -0.000 C 
BRANCH  17  18
ATOM     18  C   UNL     1      -7.033   7.477  15.880  1.00  0.00    -0.000 C 
BRANCH  18  19
ATOM     19  C   UNL     1      -6.100   7.286  17.090  1.00  0.00    -0.003 C 
ATOM     20  C   UNL     1      -6.853   7.199  18.417  1.00  0.00     0.004 C 
ENDBRANCH  18  19
ENDBRANCH  17  18
ENDBRANCH  16  17
ENDBRANCH  15  16
ENDBRANCH  14  15
ENDBRANCH  13  14
ENDBRANCH  12  13
ENDBRANCH   1  12
TORSDOF 16
ENDMDL
MODEL 5
REMARK VINA RESULT:    -4.945      2.691      5.070
REMARK INTER + INTRA:         -10.733
REMARK INTER:                  -8.545
REMARK INTRA:                  -2.188
REMARK UNBOUND:                -1.162
REMARK SMILES CCCCCCCCCCCCCCCCCC(=O)[O-]
REMARK SMILES IDX 10 1 11 2 12 3 13 4 14 5 15 6 16 7 17 8 18 9 19 10 20 11
REMARK SMILES IDX 9 12 8 13 7 14 6 15 5 16 4 17 3 18 2 19 1 20
REMARK H PARENT
REMARK Flexibility Score: inf
ROOT
ATOM      1  C   UNL     1      -5.077   3.939  13.678  1.00  0.00     0.000 C 
ENDROOT
BRANCH   1   2
ATOM      2  C   UNL     1      -4.589   5.062  14.607  1.00  0.00     0.000 C 
BRANCH   2   3
ATOM      3  C   UNL     1      -4.758   4.709  16.095  1.00  0.00     0.000 C 
BRANCH   3   4
ATOM      4  C   UNL     1      -4.909   3.197  16.336  1.00  0.00     0.000 C 
BRANCH   4   5
ATOM      5  C   UNL     1      -3.726   2.531  17.068  1.00  0.00     0.000 C 
BRANCH   5   6
ATOM      6  C   UNL     1      -2.387   2.564  16.310  1.00  0.00     0.000 C 
BRANCH   6   7
ATOM      7  C   UNL     1      -1.281   3.300  17.083  1.00  0.00     0.006 C 
BRANCH   7   8
ATOM      8  C   UNL     1      -0.879   4.614  16.400  1.00  0.00     0.053 C 
BRANCH   8   9
ATOM      9  C   UNL     1      -0.110   5.506  17.326  1.00  0.00     0.041 C 
ATOM     10  O   UNL     1      -0.139   5.306  18.569  1.00  0.00    -0.550 OA
ATOM     11  O   UNL     1       0.608   6.581  16.819  1.00  0.00    -0.550 OA
ENDBRANCH   8   9
ENDBRANCH   7   8
ENDBRANCH   6   7
ENDBRANCH   5   6
ENDBRANCH   4   5
ENDBRANCH   3   4
ENDBRANCH   2   3
ENDBRANCH   1   2
BRANCH   1  12
ATOM     12  C   UNL     1      -6.083   4.438  12.629  1.00  0.00     0.000 C 
BRANCH  12  13
ATOM     13  C   UNL     1      -7.523   4.272  13.126  1.00  0.00    -0.000 C 
BRANCH  13  14
ATOM     14  C   UNL     1      -8.112   5.622  13.568  1.00  0.00    -0.000 C 
BRANCH  14  15
ATOM     15  C   UNL     1      -8.248   5.747  15.097  1.00  0.00    -0.000 C 
BRANCH  15  16
ATOM     16  C   UNL     1      -8.120   7.182  15.642  1.00  0.00    -0.000 C 
BRANCH  16  17
ATOM     17  C   UNL     1      -6.677   7.713  15.594  1.00  0.00    -0.000 C 
BRANCH  17  18
ATOM     18  C   UNL     1      -6.199   8.266  16.948  1.00  0.00    -0.000 C 
BRANCH  18  19
ATOM     19  C   UNL     1      -6.934   7.691  18.173  1.00  0.00    -0.003 C 
ATOM     20  C   UNL     1      -6.290   6.415  18.712  1.00  0.00     0.004 C 
ENDBRANCH  18  19
ENDBRANCH  17  18
ENDBRANCH  16  17
ENDBRANCH  15  16
ENDBRANCH  14  15
ENDBRANCH  13  14
ENDBRANCH  12  13
ENDBRANCH   1  12
TORSDOF 16
ENDMDL
MODEL 6
REMARK VINA RESULT:    -4.945      3.383      7.580
REMARK INTER + INTRA:         -10.732
REMARK INTER:                  -9.461
REMARK INTRA:                  -1.271
REMARK UNBOUND:                -1.162
REMARK SMILES CCCCCCCCCCCCCCCCCC(=O)[O-]
REMARK SMILES IDX 10 1 11 2 12 3 13 4 14 5 15 6 16 7 17 8 18 9 19 10 20 11
REMARK SMILES IDX 9 12 8 13 7 14 6 15 5 16 4 17 3 18 2 19 1 20
REMARK H PARENT
REMARK Flexibility Score: inf
ROOT
ATOM      1  C   UNL     1      -0.980   4.673  16.061  1.00  0.00     0.000 C 
ENDROOT
BRANCH   1   2
ATOM      2  C   UNL     1      -1.666   3.415  16.618  1.00  0.00     0.000 C 
BRANCH   2   3
ATOM      3  C   UNL     1      -2.908   3.012  15.805  1.00  0.00     0.000 C 
BRANCH   3   4
ATOM      4  C   UNL     1      -4.161   2.834  16.679  1.00  0.00     0.000 C 
BRANCH   4   5
ATOM      5  C   UNL     1      -5.328   3.788  16.350  1.00  0.00     0.000 C 
BRANCH   5   6
ATOM      6  C   UNL     1      -5.419   5.040  17.242  1.00  0.00     0.000 C 
BRANCH   6   7
ATOM      7  C   UNL     1      -5.613   6.335  16.435  1.00  0.00     0.006 C 
BRANCH   7   8
ATOM      8  C   UNL     1      -5.988   6.052  14.974  1.00  0.00     0.053 C 
BRANCH   8   9
ATOM      9  C   UNL     1      -4.947   6.565  14.027  1.00  0.00     0.041 C 
ATOM     10  O   UNL     1      -5.288   7.146  12.963  1.00  0.00    -0.550 OA
ATOM     11  O   UNL     1      -3.600   6.369  14.301  1.00  0.00    -0.550 OA
ENDBRANCH   8   9
ENDBRANCH   7   8
ENDBRANCH   6   7
ENDBRANCH   5   6
ENDBRANCH   4   5
ENDBRANCH   3   4
ENDBRANCH   2   3
ENDBRANCH   1   2
BRANCH   1  12
ATOM     12  C   UNL     1      -0.647   5.696  17.158  1.00  0.00     0.000 C 
BRANCH  12  13
ATOM     13  C   UNL     1       0.789   6.213  17.009  1.00  0.00    -0.000 C 
BRANCH  13  14
ATOM     14  C   UNL     1       0.804   7.727  16.742  1.00  0.00    -0.000 C 
BRANCH  14  15
ATOM     15  C   UNL     1       1.418   8.536  17.899  1.00  0.00    -0.000 C 
BRANCH  15  16
ATOM     16  C   UNL     1       0.681   8.401  19.245  1.00  0.00    -0.000 C 
BRANCH  16  17
ATOM     17  C   UNL     1       1.641   8.277  20.441  1.00  0.00    -0.000 C 
BRANCH  17  18
ATOM     18  C   UNL     1       1.312   7.077  21.347  1.00  0.00    -0.000 C 
BRANCH  18  19
ATOM     19  C   UNL     1      -0.191   6.780  21.503  1.00  0.00    -0.003 C 
ATOM     20  C   UNL     1      -0.611   6.566  22.956  1.00  0.00     0.004 C 
ENDBRANCH  18  19
ENDBRANCH  17  18
ENDBRANCH  16  17
ENDBRANCH  15  16
ENDBRANCH  14  15
ENDBRANCH  13  14
ENDBRANCH  12  13
ENDBRANCH   1  12
TORSDOF 16
ENDMDL
MODEL 7
REMARK VINA RESULT:    -4.885      2.625      5.642
REMARK INTER + INTRA:         -10.616
REMARK INTER:                  -8.575
REMARK INTRA:                  -2.040
REMARK UNBOUND:                -1.162
REMARK SMILES CCCCCCCCCCCCCCCCCC(=O)[O-]
REMARK SMILES IDX 10 1 11 2 12 3 13 4 14 5 15 6 16 7 17 8 18 9 19 10 20 11
REMARK SMILES IDX 9 12 8 13 7 14 6 15 5 16 4 17 3 18 2 19 1 20
REMARK H PARENT
REMARK Flexibility Score: inf
ROOT
ATOM      1  C   UNL     1      -5.748   6.602  16.856  1.00  0.00     0.000 C 
ENDROOT
BRANCH   1   2
ATOM      2  C   UNL     1      -5.543   5.153  17.324  1.00  0.00     0.000 C 
BRANCH   2   3
ATOM      3  C   UNL     1      -5.686   4.138  16.176  1.00  0.00     0.000 C 
BRANCH   3   4
ATOM      4  C   UNL     1      -4.902   2.839  16.428  1.00  0.00     0.000 C 
BRANCH   4   5
ATOM      5  C   UNL     1      -3.368   2.998  16.466  1.00  0.00     0.000 C 
BRANCH   5   6
ATOM      6  C   UNL     1      -2.801   4.088  15.539  1.00  0.00     0.000 C 
BRANCH   6   7
ATOM      7  C   UNL     1      -1.291   4.308  15.729  1.00  0.00     0.006 C 
BRANCH   7   8
ATOM      8  C   UNL     1      -0.888   4.290  17.209  1.00  0.00     0.053 C 
BRANCH   8   9
ATOM      9  C   UNL     1      -0.242   5.577  17.622  1.00  0.00     0.041 C 
ATOM     10  O   UNL     1      -0.338   5.984  18.810  1.00  0.00    -0.550 OA
ATOM     11  O   UNL     1       0.436   6.347  16.685  1.00  0.00    -0.550 OA
ENDBRANCH   8   9
ENDBRANCH   7   8
ENDBRANCH   6   7
ENDBRANCH   5   6
ENDBRANCH   4   5
ENDBRANCH   3   4
ENDBRANCH   2   3
ENDBRANCH   1   2
BRANCH   1  12
ATOM     12  C   UNL     1      -7.212   7.055  16.964  1.00  0.00     0.000 C 
BRANCH  12  13
ATOM     13  C   UNL     1      -7.821   7.280  15.575  1.00  0.00    -0.000 C 
BRANCH  13  14
ATOM     14  C   UNL     1      -9.071   6.409  15.374  1.00  0.00    -0.000 C 
BRANCH  14  15
ATOM     15  C   UNL     1      -8.868   5.297  14.329  1.00  0.00    -0.000 C 
BRANCH  15  16
ATOM     16  C   UNL     1      -8.970   5.759  12.864  1.00  0.00    -0.000 C 
BRANCH  16  17
ATOM     17  C   UNL     1      -7.923   5.095  11.953  1.00  0.00    -0.000 C 
BRANCH  17  18
ATOM     18  C   UNL     1      -6.876   4.286  12.740  1.00  0.00    -0.000 C 
BRANCH  18  19
ATOM     19  C   UNL     1      -5.459   4.888  12.731  1.00  0.00    -0.003 C 
ATOM     20  C   UNL     1      -5.456   6.412  12.842  1.00  0.00     0.004 C 
ENDBRANCH  18  19
ENDBRANCH  17  18
ENDBRANCH  16  17
ENDBRANCH  15  16
ENDBRANCH  14  15
ENDBRANCH  13  14
ENDBRANCH  12  13
ENDBRANCH   1  12
TORSDOF 16
ENDMDL
MODEL 8
REMARK VINA RESULT:    -4.869      4.208      8.041
REMARK INTER + INTRA:         -10.584
REMARK INTER:                  -8.770
REMARK INTRA:                  -1.814
REMARK UNBOUND:                -1.162
REMARK SMILES CCCCCCCCCCCCCCCCCC(=O)[O-]
REMARK SMILES IDX 10 1 11 2 12 3 13 4 14 5 15 6 16 7 17 8 18 9 19 10 20 11
REMARK SMILES IDX 9 12 8 13 7 14 6 15 5 16 4 17 3 18 2 19 1 20
REMARK H PARENT
REMARK Flexibility Score: inf
ROOT
ATOM      1  C   UNL     1      -5.388   4.363  17.085  1.00  0.00     0.000 C 
ENDROOT
BRANCH   1   2
ATOM      2  C   UNL     1      -5.107   5.872  17.011  1.00  0.00     0.000 C 
BRANCH   2   3
ATOM      3  C   UNL     1      -6.132   6.701  17.803  1.00  0.00     0.000 C 
BRANCH   3   4
ATOM      4  C   UNL     1      -7.366   7.080  16.967  1.00  0.00     0.000 C 
BRANCH   4   5
ATOM      5  C   UNL     1      -7.146   7.079  15.440  1.00  0.00     0.000 C 
BRANCH   5   6
ATOM      6  C   UNL     1      -8.239   6.365  14.623  1.00  0.00     0.000 C 
BRANCH   6   7
ATOM      7  C   UNL     1      -7.896   4.896  14.322  1.00  0.00     0.006 C 
BRANCH   7   8
ATOM      8  C   UNL     1      -7.573   4.674  12.839  1.00  0.00     0.053 C 
BRANCH   8   9
ATOM      9  C   UNL     1      -6.095   4.672  12.590  1.00  0.00     0.041 C 
ATOM     10  O   UNL     1      -5.473   3.584  12.469  1.00  0.00    -0.550 OA
ATOM     11  O   UNL     1      -5.399   5.872  12.527  1.00  0.00    -0.550 OA
ENDBRANCH   8   9
ENDBRANCH   7   8
ENDBRANCH   6   7
ENDBRANCH   5   6
ENDBRANCH   4   5
ENDBRANCH   3   4
ENDBRANCH   2   3
ENDBRANCH   1   2
BRANCH   1  12
ATOM     12  C   UNL     1      -4.780   3.592  15.902  1.00  0.00     0.000 C 
BRANCH  12  13
ATOM     13  C   UNL     1      -3.483   4.254  15.423  1.00  0.00    -0.000 C 
BRANCH  13  14
ATOM     14  C   UNL     1      -2.287   3.304  15.590  1.00  0.00    -0.000 C 
BRANCH  14  15
ATOM     15  C   UNL     1      -1.262   3.803  16.626  1.00  0.00    -0.000 C 
BRANCH  15  16
ATOM     16  C   UNL     1      -1.401   5.288  17.010  1.00  0.00    -0.000 C 
BRANCH  16  17
ATOM     17  C   UNL     1      -0.162   5.834  17.741  1.00  0.00    -0.000 C 
BRANCH  17  18
ATOM     18  C   UNL     1       0.715   6.726  16.844  1.00  0.00    -0.000 C 
BRANCH  18  19
ATOM     19  C   UNL     1       1.011   8.123  17.420  1.00  0.00    -0.003 C 
ATOM     20  C   UNL     1       2.182   8.819  16.728  1.00  0.00     0.004 C 
ENDBRANCH  18  19
ENDBRANCH  17  18
ENDBRANCH  16  17
ENDBRANCH  15  16
ENDBRANCH  14  15
ENDBRANCH  13  14
ENDBRANCH  12  13
ENDBRANCH   1  12
TORSDOF 16
ENDMDL
MODEL 9
REMARK VINA RESULT:    -4.847      3.700      6.398
REMARK INTER + INTRA:         -10.543
REMARK INTER:                  -7.524
REMARK INTRA:                  -3.019
REMARK UNBOUND:                -1.162
REMARK SMILES CCCCCCCCCCCCCCCCCC(=O)[O-]
REMARK SMILES IDX 10 1 11 2 12 3 13 4 14 5 15 6 16 7 17 8 18 9 19 10 20 11
REMARK SMILES IDX 9 12 8 13 7 14 6 15 5 16 4 17 3 18 2 19 1 20
REMARK H PARENT
REMARK Flexibility Score: inf
ROOT
ATOM      1  C   UNL     1      -7.916   4.922  12.944  1.00  0.00     0.000 C 
ENDROOT
BRANCH   1   2
ATOM      2  C   UNL     1      -6.710   4.585  12.052  1.00  0.00     0.000 C 
BRANCH   2   3
ATOM      3  C   UNL     1      -5.527   4.015  12.853  1.00  0.00     0.000 C 
BRANCH   3   4
ATOM      4  C   UNL     1      -5.847   3.842  14.348  1.00  0.00     0.000 C 
BRANCH   4   5
ATOM      5  C   UNL     1      -4.646   3.451  15.233  1.00  0.00     0.000 C 
BRANCH   5   6
ATOM      6  C   UNL     1      -4.552   4.200  16.575  1.00  0.00     0.000 C 
BRANCH   6   7
ATOM      7  C   UNL     1      -3.447   5.269  16.587  1.00  0.00     0.006 C 
BRANCH   7   8
ATOM      8  C   UNL     1      -2.248   4.866  15.718  1.00  0.00     0.053 C 
BRANCH   8   9
ATOM      9  C   UNL     1      -1.158   4.243  16.536  1.00  0.00     0.041 C 
ATOM     10  O   UNL     1      -1.222   3.026  16.857  1.00  0.00    -0.550 OA
ATOM     11  O   UNL     1      -0.089   5.014  16.974  1.00  0.00    -0.550 OA
ENDBRANCH   8   9
ENDBRANCH   7   8
ENDBRANCH   6   7
ENDBRANCH   5   6
ENDBRANCH   4   5
ENDBRANCH   3   4
ENDBRANCH   2   3
ENDBRANCH   1   2
BRANCH   1  12
ATOM     12  C   UNL     1      -8.598   6.239  12.539  1.00  0.00     0.000 C 
BRANCH  12  13
ATOM     13  C   UNL     1      -9.000   7.051  13.775  1.00  0.00    -0.000 C 
BRANCH  13  14
ATOM     14  C   UNL     1      -9.037   6.164  15.029  1.00  0.00    -0.000 C 
BRANCH  14  15
ATOM     15  C   UNL     1      -8.260   6.765  16.215  1.00  0.00    -0.000 C 
BRANCH  15  16
ATOM     16  C   UNL     1      -6.730   6.778  16.047  1.00  0.00    -0.000 C 
BRANCH  16  17
ATOM     17  C   UNL     1      -6.128   8.190  16.155  1.00  0.00    -0.000 C 
BRANCH  17  18
ATOM     18  C   UNL     1      -5.531   8.687  14.826  1.00  0.00    -0.000 C 
BRANCH  18  19
ATOM     19  C   UNL     1      -5.304   7.588  13.771  1.00  0.00    -0.003 C 
ATOM     20  C   UNL     1      -3.825   7.323  13.493  1.00  0.00     0.004 C 
ENDBRANCH  18  19
ENDBRANCH  17  18
ENDBRANCH  16  17
ENDBRANCH  15  16
ENDBRANCH  14  15
ENDBRANCH  13  14
ENDBRANCH  12  13
ENDBRANCH   1  12
TORSDOF 16
ENDMDL
