MODEL 1
REMARK VINA RESULT:     1.822      0.000      0.000
REMARK INTER + INTRA:           2.446
REMARK INTER:                   4.805
REMARK INTRA:                  -2.358
REMARK UNBOUND:                -2.358
REMARK SMILES CCCCCCCCCCCCCCCCCCCCCCCCCCCCCC(=O)[O-]
REMARK SMILES IDX 16 1 17 2 18 3 19 4 20 5 21 6 22 7 23 8 24 9 25 10 26 11
REMARK SMILES IDX 27 12 28 13 29 14 30 15 31 16 32 17 15 18 14 19 13 20 12 21
REMARK SMILES IDX 11 22 10 23 9 24 8 25 7 26 6 27 5 28 4 29 3 30 2 31 1 32
REMARK H PARENT
REMARK Flexibility Score: inf
ROOT
ATOM      1  C   UNL     1      60.579  26.549  23.467  1.00  0.00     0.000 C 
ENDROOT
BRANCH   1   2
ATOM      2  C   UNL     1      59.371  27.040  22.640  1.00  0.00     0.000 C 
BRANCH   2   3
ATOM      3  C   UNL     1      58.200  27.556  23.499  1.00  0.00     0.000 C 
BRANCH   3   4
ATOM      4  C   UNL     1      57.494  26.483  24.349  1.00  0.00     0.000 C 
BRANCH   4   5
ATOM      5  C   UNL     1      58.124  26.224  25.734  1.00  0.00     0.000 C 
BRANCH   5   6
ATOM      6  C   UNL     1      58.261  24.741  26.124  1.00  0.00     0.000 C 
BRANCH   6   7
ATOM      7  C   UNL     1      58.199  23.797  24.911  1.00  0.00     0.000 C 
BRANCH   7   8
ATOM      8  C   UNL     1      58.902  22.449  25.178  1.00  0.00     0.000 C 
BRANCH   8   9
ATOM      9  C   UNL     1      59.813  21.981  24.027  1.00  0.00     0.000 C 
BRANCH   9  10
ATOM     10  C   UNL     1      59.242  22.192  22.611  1.00  0.00     0.000 C 
BRANCH  10  11
ATOM     11  C   UNL     1      58.395  21.021  22.074  1.00  0.00     0.000 C 
BRANCH  11  12
ATOM     12  C   UNL     1      56.948  20.972  22.599  1.00  0.00     0.000 C 
BRANCH  12  13
ATOM     13  C   UNL     1      56.378  22.356  22.982  1.00  0.00     0.006 C 
BRANCH  13  14
ATOM     14  C   UNL     1      54.904  22.548  22.587  1.00  0.00     0.053 C 
BRANCH  14  15
ATOM     15  C   UNL     1      53.965  22.205  23.703  1.00  0.00     0.041 C 
ATOM     16  O   UNL     1      53.396  23.119  24.358  1.00  0.00    -0.550 OA
ATOM     17  O   UNL     1      53.764  20.876  24.058  1.00  0.00    -0.550 OA
ENDBRANCH  14  15
ENDBRANCH  13  14
ENDBRANCH  12  13
ENDBRANCH  11  12
ENDBRANCH  10  11
ENDBRANCH   9  10
ENDBRANCH   8   9
ENDBRANCH   7   8
ENDBRANCH   6   7
ENDBRANCH   5   6
ENDBRANCH   4   5
ENDBRANCH   3   4
ENDBRANCH   2   3
ENDBRANCH   1   2
BRANCH   1  18
ATOM     18  C   UNL     1      61.645  25.858  22.597  1.00  0.00     0.000 C 
BRANCH  18  19
ATOM     19  C   UNL     1      63.049  26.468  22.774  1.00  0.00     0.000 C 
BRANCH  19  20
ATOM     20  C   UNL     1      63.979  25.660  23.698  1.00  0.00     0.000 C 
BRANCH  20  21
ATOM     21  C   UNL     1      64.021  26.220  25.132  1.00  0.00     0.000 C 
BRANCH  21  22
ATOM     22  C   UNL     1      63.212  25.366  26.125  1.00  0.00     0.000 C 
BRANCH  22  23
ATOM     23  C   UNL     1      62.109  24.504  25.482  1.00  0.00     0.000 C 
BRANCH  23  24
ATOM     24  C   UNL     1      62.291  22.990  25.720  1.00  0.00    -0.000 C 
BRANCH  24  25
ATOM     25  C   UNL     1      63.773  22.585  25.788  1.00  0.00    -0.000 C 
BRANCH  25  26
ATOM     26  C   UNL     1      64.025  21.157  25.278  1.00  0.00    -0.000 C 
BRANCH  26  27
ATOM     27  C   UNL     1      64.120  21.081  23.746  1.00  0.00    -0.000 C 
BRANCH  27  28
ATOM     28  C   UNL     1      63.376  22.254  23.091  1.00  0.00    -0.000 C 
BRANCH  28  29
ATOM     29  C   UNL     1      64.125  22.833  21.881  1.00  0.00    -0.000 C 
BRANCH  29  30
ATOM     30  C   UNL     1      63.433  22.519  20.546  1.00  0.00    -0.000 C 
BRANCH  30  31
ATOM     31  C   UNL     1      62.197  21.639  20.761  1.00  0.00    -0.003 C 
ATOM     32  C   UNL     1      61.055  22.055  19.835  1.00  0.00     0.004 C 
ENDBRANCH  30  31
ENDBRANCH  29  30
ENDBRANCH  28  29
ENDBRANCH  27  28
ENDBRANCH  26  27
ENDBRANCH  25  26
ENDBRANCH  24  25
ENDBRANCH  23  24
ENDBRANCH  22  23
ENDBRANCH  21  22
ENDBRANCH  20  21
ENDBRANCH  19  20
ENDBRANCH  18  19
ENDBRANCH   1  18
TORSDOF 28
ENDMDL
MODEL 2
REMARK VINA RESULT:     2.190      2.464      5.573
REMARK INTER + INTRA:           3.417
REMARK INTER:                   7.001
REMARK INTRA:                  -3.584
REMARK UNBOUND:                -2.358
REMARK SMILES CCCCCCCCCCCCCCCCCCCCCCCCCCCCCC(=O)[O-]
REMARK SMILES IDX 16 1 17 2 18 3 19 4 20 5 21 6 22 7 23 8 24 9 25 10 26 11
REMARK SMILES IDX 27 12 28 13 29 14 30 15 31 16 32 17 15 18 14 19 13 20 12 21
REMARK SMILES IDX 11 22 10 23 9 24 8 25 7 26 6 27 5 28 4 29 3 30 2 31 1 32
REMARK H PARENT
REMARK Flexibility Score: inf
ROOT
ATOM      1  C   UNL     1      62.341  22.065  23.431  1.00  0.00     0.000 C 
ENDROOT
BRANCH   1   2
ATOM      2  C   UNL     1      62.889  21.261  22.230  1.00  0.00     0.000 C 
BRANCH   2   3
ATOM      3  C   UNL     1      63.038  22.095  20.943  1.00  0.00     0.000 C 
BRANCH   3   4
ATOM      4  C   UNL     1      61.712  22.528  20.290  1.00  0.00     0.000 C 
BRANCH   4   5
ATOM      5  C   UNL     1      60.521  21.575  20.530  1.00  0.00     0.000 C 
BRANCH   5   6
ATOM      6  C   UNL     1      59.514  22.042  21.596  1.00  0.00     0.000 C 
BRANCH   6   7
ATOM      7  C   UNL     1      58.780  20.875  22.278  1.00  0.00     0.000 C 
BRANCH   7   8
ATOM      8  C   UNL     1      58.581  21.108  23.790  1.00  0.00     0.000 C 
BRANCH   8   9
ATOM      9  C   UNL     1      57.713  22.336  24.125  1.00  0.00     0.000 C 
BRANCH   9  10
ATOM     10  C   UNL     1      56.203  22.162  23.869  1.00  0.00     0.000 C 
BRANCH  10  11
ATOM     11  C   UNL     1      55.787  22.227  22.385  1.00  0.00     0.000 C 
BRANCH  11  12
ATOM     12  C   UNL     1      56.329  23.444  21.613  1.00  0.00     0.000 C 
BRANCH  12  13
ATOM     13  C   UNL     1      55.490  23.817  20.370  1.00  0.00     0.006 C 
BRANCH  13  14
ATOM     14  C   UNL     1      56.322  23.981  19.088  1.00  0.00     0.053 C 
BRANCH  14  15
ATOM     15  C   UNL     1      55.554  24.657  17.992  1.00  0.00     0.041 C 
ATOM     16  O   UNL     1      55.009  23.973  17.084  1.00  0.00    -0.550 OA
ATOM     17  O   UNL     1      55.491  26.044  17.941  1.00  0.00    -0.550 OA
ENDBRANCH  14  15
ENDBRANCH  13  14
ENDBRANCH  12  13
ENDBRANCH  11  12
ENDBRANCH  10  11
ENDBRANCH   9  10
ENDBRANCH   8   9
ENDBRANCH   7   8
ENDBRANCH   6   7
ENDBRANCH   5   6
ENDBRANCH   4   5
ENDBRANCH   3   4
ENDBRANCH   2   3
ENDBRANCH   1   2
BRANCH   1  18
ATOM     18  C   UNL     1      62.644  21.385  24.779  1.00  0.00     0.000 C 
BRANCH  18  19
ATOM     19  C   UNL     1      63.663  22.168  25.628  1.00  0.00     0.000 C 
BRANCH  19  20
ATOM     20  C   UNL     1      63.217  23.596  25.996  1.00  0.00     0.000 C 
BRANCH  20  21
ATOM     21  C   UNL     1      64.119  24.677  25.372  1.00  0.00     0.000 C 
BRANCH  21  22
ATOM     22  C   UNL     1      63.314  25.785  24.669  1.00  0.00     0.000 C 
BRANCH  22  23
ATOM     23  C   UNL     1      63.307  25.698  23.131  1.00  0.00     0.000 C 
BRANCH  23  24
ATOM     24  C   UNL     1      61.906  25.462  22.530  1.00  0.00    -0.000 C 
BRANCH  24  25
ATOM     25  C   UNL     1      60.782  25.754  23.540  1.00  0.00    -0.000 C 
BRANCH  25  26
ATOM     26  C   UNL     1      60.283  24.491  24.260  1.00  0.00    -0.000 C 
BRANCH  26  27
ATOM     27  C   UNL     1      59.812  24.771  25.695  1.00  0.00    -0.000 C 
BRANCH  27  28
ATOM     28  C   UNL     1      58.278  24.775  25.778  1.00  0.00    -0.000 C 
BRANCH  28  29
ATOM     29  C   UNL     1      57.682  26.189  25.706  1.00  0.00    -0.000 C 
BRANCH  29  30
ATOM     30  C   UNL     1      57.220  26.570  24.291  1.00  0.00    -0.000 C 
BRANCH  30  31
ATOM     31  C   UNL     1      57.297  28.086  24.077  1.00  0.00    -0.003 C 
ATOM     32  C   UNL     1      58.471  28.457  23.173  1.00  0.00     0.004 C 
ENDBRANCH  30  31
ENDBRANCH  29  30
ENDBRANCH  28  29
ENDBRANCH  27  28
ENDBRANCH  26  27
ENDBRANCH  25  26
ENDBRANCH  24  25
ENDBRANCH  23  24
ENDBRANCH  22  23
ENDBRANCH  21  22
ENDBRANCH  20  21
ENDBRANCH  19  20
ENDBRANCH  18  19
ENDBRANCH   1  18
TORSDOF 28
ENDMDL
MODEL 3
REMARK VINA RESULT:     3.243      4.531      6.439
REMARK INTER + INTRA:           6.193
REMARK INTER:                   8.798
REMARK INTRA:                  -2.604
REMARK UNBOUND:                -2.358
REMARK SMILES CCCCCCCCCCCCCCCCCCCCCCCCCCCCCC(=O)[O-]
REMARK SMILES IDX 16 1 17 2 18 3 19 4 20 5 21 6 22 7 23 8 24 9 25 10 26 11
REMARK SMILES IDX 27 12 28 13 29 14 30 15 31 16 32 17 15 18 14 19 13 20 12 21
REMARK SMILES IDX 11 22 10 23 9 24 8 25 7 26 6 27 5 28 4 29 3 30 2 31 1 32
REMARK H PARENT
REMARK Flexibility Score: inf
ROOT
ATOM      1  C   UNL     1      60.697  22.320  21.200  1.00  0.00     0.000 C 
ENDROOT
BRANCH   1   2
ATOM      2  C   UNL     1      59.299  21.662  21.166  1.00  0.00     0.000 C 
BRANCH   2   3
ATOM      3  C   UNL     1      58.946  20.891  22.453  1.00  0.00     0.000 C 
BRANCH   3   4
ATOM      4  C   UNL     1      57.562  21.212  23.046  1.00  0.00     0.000 C 
BRANCH   4   5
ATOM      5  C   UNL     1      57.048  22.643  22.775  1.00  0.00     0.000 C 
BRANCH   5   6
ATOM      6  C   UNL     1      55.550  22.747  22.437  1.00  0.00     0.000 C 
BRANCH   6   7
ATOM      7  C   UNL     1      55.241  23.865  21.428  1.00  0.00     0.000 C 
BRANCH   7   8
ATOM      8  C   UNL     1      56.308  23.970  20.319  1.00  0.00     0.000 C 
BRANCH   8   9
ATOM      9  C   UNL     1      55.728  24.223  18.914  1.00  0.00     0.000 C 
BRANCH   9  10
ATOM     10  C   UNL     1      55.482  25.704  18.563  1.00  0.00     0.000 C 
BRANCH  10  11
ATOM     11  C   UNL     1      55.304  25.991  17.059  1.00  0.00     0.000 C 
BRANCH  11  12
ATOM     12  C   UNL     1      55.129  27.478  16.698  1.00  0.00     0.000 C 
BRANCH  12  13
ATOM     13  C   UNL     1      53.788  28.080  17.175  1.00  0.00     0.006 C 
BRANCH  13  14
ATOM     14  C   UNL     1      53.283  29.237  16.297  1.00  0.00     0.053 C 
BRANCH  14  15
ATOM     15  C   UNL     1      54.327  30.293  16.091  1.00  0.00     0.041 C 
ATOM     16  O   UNL     1      54.820  30.901  17.079  1.00  0.00    -0.550 OA
ATOM     17  O   UNL     1      54.711  30.647  14.804  1.00  0.00    -0.550 OA
ENDBRANCH  14  15
ENDBRANCH  13  14
ENDBRANCH  12  13
ENDBRANCH  11  12
ENDBRANCH  10  11
ENDBRANCH   9  10
ENDBRANCH   8   9
ENDBRANCH   7   8
ENDBRANCH   6   7
ENDBRANCH   5   6
ENDBRANCH   4   5
ENDBRANCH   3   4
ENDBRANCH   2   3
ENDBRANCH   1   2
BRANCH   1  18
ATOM     18  C   UNL     1      61.472  22.118  19.884  1.00  0.00     0.000 C 
BRANCH  18  19
ATOM     19  C   UNL     1      62.749  21.275  20.066  1.00  0.00     0.000 C 
BRANCH  19  20
ATOM     20  C   UNL     1      63.987  22.086  20.491  1.00  0.00     0.000 C 
BRANCH  20  21
ATOM     21  C   UNL     1      64.106  22.229  22.020  1.00  0.00     0.000 C 
BRANCH  21  22
ATOM     22  C   UNL     1      63.902  20.893  22.756  1.00  0.00     0.000 C 
BRANCH  22  23
ATOM     23  C   UNL     1      63.030  20.983  24.023  1.00  0.00     0.000 C 
BRANCH  23  24
ATOM     24  C   UNL     1      63.833  20.876  25.336  1.00  0.00    -0.000 C 
BRANCH  24  25
ATOM     25  C   UNL     1      64.023  22.243  26.016  1.00  0.00    -0.000 C 
BRANCH  25  26
ATOM     26  C   UNL     1      63.203  23.359  25.351  1.00  0.00    -0.000 C 
BRANCH  26  27
ATOM     27  C   UNL     1      61.920  23.697  26.125  1.00  0.00    -0.000 C 
BRANCH  27  28
ATOM     28  C   UNL     1      60.673  23.290  25.325  1.00  0.00    -0.000 C 
BRANCH  28  29
ATOM     29  C   UNL     1      60.681  23.839  23.890  1.00  0.00    -0.000 C 
BRANCH  29  30
ATOM     30  C   UNL     1      60.543  25.367  23.836  1.00  0.00    -0.000 C 
BRANCH  30  31
ATOM     31  C   UNL     1      61.671  25.992  23.006  1.00  0.00    -0.003 C 
ATOM     32  C   UNL     1      62.815  25.003  22.795  1.00  0.00     0.004 C 
ENDBRANCH  30  31
ENDBRANCH  29  30
ENDBRANCH  28  29
ENDBRANCH  27  28
ENDBRANCH  26  27
ENDBRANCH  25  26
ENDBRANCH  24  25
ENDBRANCH  23  24
ENDBRANCH  22  23
ENDBRANCH  21  22
ENDBRANCH  20  21
ENDBRANCH  19  20
ENDBRANCH  18  19
ENDBRANCH   1  18
TORSDOF 28
ENDMDL
MODEL 4
REMARK VINA RESULT:     3.523      5.690      9.737
REMARK INTER + INTRA:           6.930
REMARK INTER:                   9.199
REMARK INTRA:                  -2.269
REMARK UNBOUND:                -2.358
REMARK SMILES CCCCCCCCCCCCCCCCCCCCCCCCCCCCCC(=O)[O-]
REMARK SMILES IDX 16 1 17 2 18 3 19 4 20 5 21 6 22 7 23 8 24 9 25 10 26 11
REMARK SMILES IDX 27 12 28 13 29 14 30 15 31 16 32 17 15 18 14 19 13 20 12 21
REMARK SMILES IDX 11 22 10 23 9 24 8 25 7 26 6 27 5 28 4 29 3 30 2 31 1 32
REMARK H PARENT
REMARK Flexibility Score: inf
ROOT
ATOM      1  C   UNL     1      56.130  22.373  23.470  1.00  0.00     0.000 C 
ENDROOT
BRANCH   1   2
ATOM      2  C   UNL     1      57.472  22.398  24.236  1.00  0.00     0.000 C 
BRANCH   2   3
ATOM      3  C   UNL     1      58.682  22.761  23.353  1.00  0.00     0.000 C 
BRANCH   3   4
ATOM      4  C   UNL     1      59.994  22.044  23.721  1.00  0.00     0.000 C 
BRANCH   4   5
ATOM      5  C   UNL     1      60.649  22.509  25.040  1.00  0.00     0.000 C 
BRANCH   5   6
ATOM      6  C   UNL     1      60.571  24.023  25.309  1.00  0.00     0.000 C 
BRANCH   6   7
ATOM      7  C   UNL     1      61.818  24.567  26.026  1.00  0.00     0.000 C 
BRANCH   7   8
ATOM      8  C   UNL     1      62.629  25.538  25.142  1.00  0.00     0.000 C 
BRANCH   8   9
ATOM      9  C   UNL     1      62.316  25.424  23.638  1.00  0.00     0.000 C 
BRANCH   9  10
ATOM     10  C   UNL     1      63.538  25.525  22.704  1.00  0.00     0.000 C 
BRANCH  10  11
ATOM     11  C   UNL     1      63.928  24.207  22.004  1.00  0.00     0.000 C 
BRANCH  11  12
ATOM     12  C   UNL     1      63.574  22.928  22.786  1.00  0.00     0.000 C 
BRANCH  12  13
ATOM     13  C   UNL     1      63.135  21.750  21.886  1.00  0.00     0.006 C 
BRANCH  13  14
ATOM     14  C   UNL     1      63.252  22.045  20.382  1.00  0.00     0.053 C 
BRANCH  14  15
ATOM     15  C   UNL     1      61.923  22.343  19.754  1.00  0.00     0.041 C 
ATOM     16  O   UNL     1      60.887  22.417  20.467  1.00  0.00    -0.550 OA
ATOM     17  O   UNL     1      61.822  22.479  18.375  1.00  0.00    -0.550 OA
ENDBRANCH  14  15
ENDBRANCH  13  14
ENDBRANCH  12  13
ENDBRANCH  11  12
ENDBRANCH  10  11
ENDBRANCH   9  10
ENDBRANCH   8   9
ENDBRANCH   7   8
ENDBRANCH   6   7
ENDBRANCH   5   6
ENDBRANCH   4   5
ENDBRANCH   3   4
ENDBRANCH   2   3
ENDBRANCH   1   2
BRANCH   1  18
ATOM     18  C   UNL     1      56.295  22.746  21.985  1.00  0.00     0.000 C 
BRANCH  18  19
ATOM     19  C   UNL     1      55.375  23.905  21.555  1.00  0.00     0.000 C 
BRANCH  19  20
ATOM     20  C   UNL     1      55.870  24.681  20.320  1.00  0.00     0.000 C 
BRANCH  20  21
ATOM     21  C   UNL     1      55.893  23.816  19.046  1.00  0.00     0.000 C 
BRANCH  21  22
ATOM     22  C   UNL     1      55.509  24.609  17.785  1.00  0.00     0.000 C 
BRANCH  22  23
ATOM     23  C   UNL     1      55.532  26.141  17.956  1.00  0.00     0.000 C 
BRANCH  23  24
ATOM     24  C   UNL     1      54.890  26.904  16.779  1.00  0.00    -0.000 C 
BRANCH  24  25
ATOM     25  C   UNL     1      53.926  28.005  17.255  1.00  0.00    -0.000 C 
BRANCH  25  26
ATOM     26  C   UNL     1      53.081  28.593  16.114  1.00  0.00    -0.000 C 
BRANCH  26  27
ATOM     27  C   UNL     1      53.440  30.053  15.798  1.00  0.00    -0.000 C 
BRANCH  27  28
ATOM     28  C   UNL     1      54.961  30.266  15.841  1.00  0.00    -0.000 C 
BRANCH  28  29
ATOM     29  C   UNL     1      55.350  31.718  16.154  1.00  0.00    -0.000 C 
BRANCH  29  30
ATOM     30  C   UNL     1      56.395  32.279  15.178  1.00  0.00    -0.000 C 
BRANCH  30  31
ATOM     31  C   UNL     1      56.350  33.811  15.145  1.00  0.00    -0.003 C 
ATOM     32  C   UNL     1      57.683  34.392  14.677  1.00  0.00     0.004 C 
ENDBRANCH  30  31
ENDBRANCH  29  30
ENDBRANCH  28  29
ENDBRANCH  27  28
ENDBRANCH  26  27
ENDBRANCH  25  26
ENDBRANCH  24  25
ENDBRANCH  23  24
ENDBRANCH  22  23
ENDBRANCH  21  22
ENDBRANCH  20  21
ENDBRANCH  19  20
ENDBRANCH  18  19
ENDBRANCH   1  18
TORSDOF 28
ENDMDL
MODEL 5
REMARK VINA RESULT:     3.658      3.289      7.071
REMARK INTER + INTRA:           7.287
REMARK INTER:                   2.495
REMARK INTRA:                   4.792
REMARK UNBOUND:                -2.358
REMARK SMILES CCCCCCCCCCCCCCCCCCCCCCCCCCCCCC(=O)[O-]
REMARK SMILES IDX 16 1 17 2 18 3 19 4 20 5 21 6 22 7 23 8 24 9 25 10 26 11
REMARK SMILES IDX 27 12 28 13 29 14 30 15 31 16 32 17 15 18 14 19 13 20 12 21
REMARK SMILES IDX 11 22 10 23 9 24 8 25 7 26 6 27 5 28 4 29 3 30 2 31 1 32
REMARK H PARENT
REMARK Flexibility Score: inf
ROOT
ATOM      1  C   UNL     1      63.214  22.461  26.109  1.00  0.00     0.000 C 
ENDROOT
BRANCH   1   2
ATOM      2  C   UNL     1      63.709  23.914  25.938  1.00  0.00     0.000 C 
BRANCH   2   3
ATOM      3  C   UNL     1      62.645  24.866  25.358  1.00  0.00     0.000 C 
BRANCH   3   4
ATOM      4  C   UNL     1      63.192  25.958  24.419  1.00  0.00     0.000 C 
BRANCH   4   5
ATOM      5  C   UNL     1      62.936  25.719  22.915  1.00  0.00     0.000 C 
BRANCH   5   6
ATOM      6  C   UNL     1      63.790  24.610  22.275  1.00  0.00     0.000 C 
BRANCH   6   7
ATOM      7  C   UNL     1      63.757  23.295  23.072  1.00  0.00     0.000 C 
BRANCH   7   8
ATOM      8  C   UNL     1      62.680  22.319  22.554  1.00  0.00     0.000 C 
BRANCH   8   9
ATOM      9  C   UNL     1      61.890  22.847  21.341  1.00  0.00     0.000 C 
BRANCH   9  10
ATOM     10  C   UNL     1      60.357  22.735  21.458  1.00  0.00     0.000 C 
BRANCH  10  11
ATOM     11  C   UNL     1      59.756  21.442  20.872  1.00  0.00     0.000 C 
BRANCH  11  12
ATOM     12  C   UNL     1      60.075  21.194  19.385  1.00  0.00     0.000 C 
BRANCH  12  13
ATOM     13  C   UNL     1      61.580  21.290  19.047  1.00  0.00     0.006 C 
BRANCH  13  14
ATOM     14  C   UNL     1      61.950  22.530  18.218  1.00  0.00     0.053 C 
BRANCH  14  15
ATOM     15  C   UNL     1      63.393  22.906  18.367  1.00  0.00     0.041 C 
ATOM     16  O   UNL     1      63.936  22.902  19.504  1.00  0.00    -0.550 OA
ATOM     17  O   UNL     1      64.122  23.318  17.258  1.00  0.00    -0.550 OA
ENDBRANCH  14  15
ENDBRANCH  13  14
ENDBRANCH  12  13
ENDBRANCH  11  12
ENDBRANCH  10  11
ENDBRANCH   9  10
ENDBRANCH   8   9
ENDBRANCH   7   8
ENDBRANCH   6   7
ENDBRANCH   5   6
ENDBRANCH   4   5
ENDBRANCH   3   4
ENDBRANCH   2   3
ENDBRANCH   1   2
BRANCH   1  18
ATOM     18  C   UNL     1      61.677  22.360  26.109  1.00  0.00     0.000 C 
BRANCH  18  19
ATOM     19  C   UNL     1      61.169  20.965  25.695  1.00  0.00     0.000 C 
BRANCH  19  20
ATOM     20  C   UNL     1      60.422  20.938  24.349  1.00  0.00     0.000 C 
BRANCH  20  21
ATOM     21  C   UNL     1      58.891  20.932  24.522  1.00  0.00     0.000 C 
BRANCH  21  22
ATOM     22  C   UNL     1      58.420  21.863  25.652  1.00  0.00     0.000 C 
BRANCH  22  23
ATOM     23  C   UNL     1      59.403  22.995  26.006  1.00  0.00     0.000 C 
BRANCH  23  24
ATOM     24  C   UNL     1      59.053  24.347  25.349  1.00  0.00    -0.000 C 
BRANCH  24  25
ATOM     25  C   UNL     1      58.916  24.233  23.821  1.00  0.00    -0.000 C 
BRANCH  25  26
ATOM     26  C   UNL     1      57.907  23.156  23.391  1.00  0.00    -0.000 C 
BRANCH  26  27
ATOM     27  C   UNL     1      56.456  23.658  23.409  1.00  0.00    -0.000 C 
BRANCH  27  28
ATOM     28  C   UNL     1      55.633  23.000  22.291  1.00  0.00    -0.000 C 
BRANCH  28  29
ATOM     29  C   UNL     1      55.293  21.532  22.588  1.00  0.00    -0.000 C 
BRANCH  29  30
ATOM     30  C   UNL     1      54.814  21.311  24.030  1.00  0.00    -0.000 C 
BRANCH  30  31
ATOM     31  C   UNL     1      53.344  20.877  24.062  1.00  0.00    -0.003 C 
ATOM     32  C   UNL     1      52.443  22.013  24.541  1.00  0.00     0.004 C 
ENDBRANCH  30  31
ENDBRANCH  29  30
ENDBRANCH  28  29
ENDBRANCH  27  28
ENDBRANCH  26  27
ENDBRANCH  25  26
ENDBRANCH  24  25
ENDBRANCH  23  24
ENDBRANCH  22  23
ENDBRANCH  21  22
ENDBRANCH  20  21
ENDBRANCH  19  20
ENDBRANCH  18  19
ENDBRANCH   1  18
TORSDOF 28
ENDMDL
MODEL 6
REMARK VINA RESULT:     3.939      5.633      9.944
REMARK INTER + INTRA:           8.028
REMARK INTER:                   9.984
REMARK INTRA:                  -1.956
REMARK UNBOUND:                -2.358
REMARK SMILES CCCCCCCCCCCCCCCCCCCCCCCCCCCCCC(=O)[O-]
REMARK SMILES IDX 16 1 17 2 18 3 19 4 20 5 21 6 22 7 23 8 24 9 25 10 26 11
REMARK SMILES IDX 27 12 28 13 29 14 30 15 31 16 32 17 15 18 14 19 13 20 12 21
REMARK SMILES IDX 11 22 10 23 9 24 8 25 7 26 6 27 5 28 4 29 3 30 2 31 1 32
REMARK H PARENT
REMARK Flexibility Score: inf
ROOT
ATOM      1  C   UNL     1      56.392  21.319  23.501  1.00  0.00     0.000 C 
ENDROOT
BRANCH   1   2
ATOM      2  C   UNL     1      57.774  20.902  22.952  1.00  0.00     0.000 C 
BRANCH   2   3
ATOM      3  C   UNL     1      58.953  21.641  23.615  1.00  0.00     0.000 C 
BRANCH   3   4
ATOM      4  C   UNL     1      59.637  22.701  22.731  1.00  0.00     0.000 C 
BRANCH   4   5
ATOM      5  C   UNL     1      60.460  22.140  21.552  1.00  0.00     0.000 C 
BRANCH   5   6
ATOM      6  C   UNL     1      61.848  21.589  21.928  1.00  0.00     0.000 C 
BRANCH   6   7
ATOM      7  C   UNL     1      62.798  21.490  20.723  1.00  0.00     0.000 C 
BRANCH   7   8
ATOM      8  C   UNL     1      63.878  22.592  20.731  1.00  0.00     0.000 C 
BRANCH   8   9
ATOM      9  C   UNL     1      64.016  23.322  22.081  1.00  0.00     0.000 C 
BRANCH   9  10
ATOM     10  C   UNL     1      63.684  24.827  22.049  1.00  0.00     0.000 C 
BRANCH  10  11
ATOM     11  C   UNL     1      63.734  25.530  23.421  1.00  0.00     0.000 C 
BRANCH  11  12
ATOM     12  C   UNL     1      62.419  25.486  24.221  1.00  0.00     0.000 C 
BRANCH  12  13
ATOM     13  C   UNL     1      62.622  25.326  25.744  1.00  0.00     0.006 C 
BRANCH  13  14
ATOM     14  C   UNL     1      63.564  24.172  26.125  1.00  0.00     0.053 C 
BRANCH  14  15
ATOM     15  C   UNL     1      62.941  22.828  25.896  1.00  0.00     0.041 C 
ATOM     16  O   UNL     1      61.729  22.739  25.560  1.00  0.00    -0.550 OA
ATOM     17  O   UNL     1      63.682  21.673  26.110  1.00  0.00    -0.550 OA
ENDBRANCH  14  15
ENDBRANCH  13  14
ENDBRANCH  12  13
ENDBRANCH  11  12
ENDBRANCH  10  11
ENDBRANCH   9  10
ENDBRANCH   8   9
ENDBRANCH   7   8
ENDBRANCH   6   7
ENDBRANCH   5   6
ENDBRANCH   4   5
ENDBRANCH   3   4
ENDBRANCH   2   3
ENDBRANCH   1   2
BRANCH   1  18
ATOM     18  C   UNL     1      55.548  22.073  22.455  1.00  0.00     0.000 C 
BRANCH  18  19
ATOM     19  C   UNL     1      56.078  23.491  22.169  1.00  0.00     0.000 C 
BRANCH  19  20
ATOM     20  C   UNL     1      55.551  24.112  20.862  1.00  0.00     0.000 C 
BRANCH  20  21
ATOM     21  C   UNL     1      56.300  23.599  19.618  1.00  0.00     0.000 C 
BRANCH  21  22
ATOM     22  C   UNL     1      55.797  24.246  18.316  1.00  0.00     0.000 C 
BRANCH  22  23
ATOM     23  C   UNL     1      55.187  25.650  18.489  1.00  0.00     0.000 C 
BRANCH  23  24
ATOM     24  C   UNL     1      55.465  26.597  17.302  1.00  0.00    -0.000 C 
BRANCH  24  25
ATOM     25  C   UNL     1      54.284  27.542  17.021  1.00  0.00    -0.000 C 
BRANCH  25  26
ATOM     26  C   UNL     1      54.616  28.614  15.971  1.00  0.00    -0.000 C 
BRANCH  26  27
ATOM     27  C   UNL     1      53.528  29.692  15.857  1.00  0.00    -0.000 C 
BRANCH  27  28
ATOM     28  C   UNL     1      54.037  30.905  15.064  1.00  0.00    -0.000 C 
BRANCH  28  29
ATOM     29  C   UNL     1      55.111  31.702  15.819  1.00  0.00    -0.000 C 
BRANCH  29  30
ATOM     30  C   UNL     1      55.699  32.850  14.986  1.00  0.00    -0.000 C 
BRANCH  30  31
ATOM     31  C   UNL     1      57.225  32.901  15.119  1.00  0.00    -0.003 C 
ATOM     32  C   UNL     1      57.753  34.316  14.896  1.00  0.00     0.004 C 
ENDBRANCH  30  31
ENDBRANCH  29  30
ENDBRANCH  28  29
ENDBRANCH  27  28
ENDBRANCH  26  27
ENDBRANCH  25  26
ENDBRANCH  24  25
ENDBRANCH  23  24
ENDBRANCH  22  23
ENDBRANCH  21  22
ENDBRANCH  20  21
ENDBRANCH  19  20
ENDBRANCH  18  19
ENDBRANCH   1  18
TORSDOF 28
ENDMDL
MODEL 7
REMARK VINA RESULT:     4.087      5.927      8.001
REMARK INTER + INTRA:           8.418
REMARK INTER:                  10.539
REMARK INTRA:                  -2.121
REMARK UNBOUND:                -2.358
REMARK SMILES CCCCCCCCCCCCCCCCCCCCCCCCCCCCCC(=O)[O-]
REMARK SMILES IDX 16 1 17 2 18 3 19 4 20 5 21 6 22 7 23 8 24 9 25 10 26 11
REMARK SMILES IDX 27 12 28 13 29 14 30 15 31 16 32 17 15 18 14 19 13 20 12 21
REMARK SMILES IDX 11 22 10 23 9 24 8 25 7 26 6 27 5 28 4 29 3 30 2 31 1 32
REMARK H PARENT
REMARK Flexibility Score: inf
ROOT
ATOM      1  C   UNL     1      56.852  21.237  23.513  1.00  0.00     0.000 C 
ENDROOT
BRANCH   1   2
ATOM      2  C   UNL     1      56.704  22.713  23.082  1.00  0.00     0.000 C 
BRANCH   2   3
ATOM      3  C   UNL     1      55.724  22.922  21.911  1.00  0.00     0.000 C 
BRANCH   3   4
ATOM      4  C   UNL     1      55.861  24.270  21.179  1.00  0.00     0.000 C 
BRANCH   4   5
ATOM      5  C   UNL     1      55.991  24.172  19.644  1.00  0.00     0.000 C 
BRANCH   5   6
ATOM      6  C   UNL     1      55.017  25.061  18.848  1.00  0.00     0.000 C 
BRANCH   6   7
ATOM      7  C   UNL     1      55.487  25.320  17.406  1.00  0.00     0.000 C 
BRANCH   7   8
ATOM      8  C   UNL     1      55.954  26.775  17.192  1.00  0.00     0.000 C 
BRANCH   8   9
ATOM      9  C   UNL     1      55.025  27.602  16.283  1.00  0.00     0.000 C 
BRANCH   9  10
ATOM     10  C   UNL     1      53.844  28.285  17.000  1.00  0.00     0.000 C 
BRANCH  10  11
ATOM     11  C   UNL     1      53.161  29.409  16.195  1.00  0.00     0.000 C 
BRANCH  11  12
ATOM     12  C   UNL     1      54.086  30.166  15.225  1.00  0.00     0.000 C 
BRANCH  12  13
ATOM     13  C   UNL     1      55.092  31.105  15.928  1.00  0.00     0.006 C 
BRANCH  13  14
ATOM     14  C   UNL     1      55.317  32.434  15.190  1.00  0.00     0.053 C 
BRANCH  14  15
ATOM     15  C   UNL     1      56.762  32.832  15.159  1.00  0.00     0.041 C 
ATOM     16  O   UNL     1      57.664  31.957  15.265  1.00  0.00    -0.550 OA
ATOM     17  O   UNL     1      57.112  34.174  15.071  1.00  0.00    -0.550 OA
ENDBRANCH  14  15
ENDBRANCH  13  14
ENDBRANCH  12  13
ENDBRANCH  11  12
ENDBRANCH  10  11
ENDBRANCH   9  10
ENDBRANCH   8   9
ENDBRANCH   7   8
ENDBRANCH   6   7
ENDBRANCH   5   6
ENDBRANCH   4   5
ENDBRANCH   3   4
ENDBRANCH   2   3
ENDBRANCH   1   2
BRANCH   1  18
ATOM     18  C   UNL     1      58.303  20.875  23.880  1.00  0.00     0.000 C 
BRANCH  18  19
ATOM     19  C   UNL     1      59.315  21.291  22.795  1.00  0.00     0.000 C 
BRANCH  19  20
ATOM     20  C   UNL     1      60.788  21.060  23.181  1.00  0.00     0.000 C 
BRANCH  20  21
ATOM     21  C   UNL     1      61.012  21.089  24.705  1.00  0.00     0.000 C 
BRANCH  21  22
ATOM     22  C   UNL     1      61.414  22.484  25.216  1.00  0.00     0.000 C 
BRANCH  22  23
ATOM     23  C   UNL     1      60.238  23.363  25.683  1.00  0.00     0.000 C 
BRANCH  23  24
ATOM     24  C   UNL     1      60.012  24.611  24.805  1.00  0.00    -0.000 C 
BRANCH  24  25
ATOM     25  C   UNL     1      60.810  24.552  23.492  1.00  0.00    -0.000 C 
BRANCH  25  26
ATOM     26  C   UNL     1      61.857  25.672  23.379  1.00  0.00    -0.000 C 
BRANCH  26  27
ATOM     27  C   UNL     1      63.299  25.144  23.405  1.00  0.00    -0.000 C 
BRANCH  27  28
ATOM     28  C   UNL     1      63.761  24.741  21.996  1.00  0.00    -0.000 C 
BRANCH  28  29
ATOM     29  C   UNL     1      63.267  23.346  21.584  1.00  0.00    -0.000 C 
BRANCH  29  30
ATOM     30  C   UNL     1      61.934  23.385  20.824  1.00  0.00    -0.000 C 
BRANCH  30  31
ATOM     31  C   UNL     1      61.734  22.110  19.997  1.00  0.00    -0.003 C 
ATOM     32  C   UNL     1      63.013  21.726  19.256  1.00  0.00     0.004 C 
ENDBRANCH  30  31
ENDBRANCH  29  30
ENDBRANCH  28  29
ENDBRANCH  27  28
ENDBRANCH  26  27
ENDBRANCH  25  26
ENDBRANCH  24  25
ENDBRANCH  23  24
ENDBRANCH  22  23
ENDBRANCH  21  22
ENDBRANCH  20  21
ENDBRANCH  19  20
ENDBRANCH  18  19
ENDBRANCH   1  18
TORSDOF 28
ENDMDL
MODEL 8
REMARK VINA RESULT:     4.773      6.573     10.116
REMARK INTER + INTRA:          10.229
REMARK INTER:                  11.940
REMARK INTRA:                  -1.711
REMARK UNBOUND:                -2.358
REMARK SMILES CCCCCCCCCCCCCCCCCCCCCCCCCCCCCC(=O)[O-]
REMARK SMILES IDX 16 1 17 2 18 3 19 4 20 5 21 6 22 7 23 8 24 9 25 10 26 11
REMARK SMILES IDX 27 12 28 13 29 14 30 15 31 16 32 17 15 18 14 19 13 20 12 21
REMARK SMILES IDX 11 22 10 23 9 24 8 25 7 26 6 27 5 28 4 29 3 30 2 31 1 32
REMARK H PARENT
REMARK Flexibility Score: inf
ROOT
ATOM      1  C   UNL     1      56.367  23.917  19.361  1.00  0.00     0.000 C 
ENDROOT
BRANCH   1   2
ATOM      2  C   UNL     1      55.687  23.913  20.748  1.00  0.00     0.000 C 
BRANCH   2   3
ATOM      3  C   UNL     1      56.184  22.789  21.678  1.00  0.00     0.000 C 
BRANCH   3   4
ATOM      4  C   UNL     1      55.874  22.996  23.173  1.00  0.00     0.000 C 
BRANCH   4   5
ATOM      5  C   UNL     1      57.000  22.573  24.140  1.00  0.00     0.000 C 
BRANCH   5   6
ATOM      6  C   UNL     1      58.128  21.739  23.506  1.00  0.00     0.000 C 
BRANCH   6   7
ATOM      7  C   UNL     1      59.530  22.258  23.868  1.00  0.00     0.000 C 
BRANCH   7   8
ATOM      8  C   UNL     1      59.886  23.562  23.124  1.00  0.00     0.000 C 
BRANCH   8   9
ATOM      9  C   UNL     1      61.301  24.089  23.429  1.00  0.00     0.000 C 
BRANCH   9  10
ATOM     10  C   UNL     1      62.154  24.431  22.191  1.00  0.00     0.000 C 
BRANCH  10  11
ATOM     11  C   UNL     1      63.607  23.918  22.245  1.00  0.00     0.000 C 
BRANCH  11  12
ATOM     12  C   UNL     1      63.751  22.405  22.492  1.00  0.00     0.000 C 
BRANCH  12  13
ATOM     13  C   UNL     1      62.702  21.549  21.747  1.00  0.00     0.006 C 
BRANCH  13  14
ATOM     14  C   UNL     1      62.978  21.405  20.242  1.00  0.00     0.053 C 
BRANCH  14  15
ATOM     15  C   UNL     1      61.868  21.964  19.403  1.00  0.00     0.041 C 
ATOM     16  O   UNL     1      60.667  21.788  19.739  1.00  0.00    -0.550 OA
ATOM     17  O   UNL     1      62.161  22.629  18.218  1.00  0.00    -0.550 OA
ENDBRANCH  14  15
ENDBRANCH  13  14
ENDBRANCH  12  13
ENDBRANCH  11  12
ENDBRANCH  10  11
ENDBRANCH   9  10
ENDBRANCH   8   9
ENDBRANCH   7   8
ENDBRANCH   6   7
ENDBRANCH   5   6
ENDBRANCH   4   5
ENDBRANCH   3   4
ENDBRANCH   2   3
ENDBRANCH   1   2
BRANCH   1  18
ATOM     18  C   UNL     1      55.443  24.464  18.256  1.00  0.00     0.000 C 
BRANCH  18  19
ATOM     19  C   UNL     1      55.471  26.001  18.160  1.00  0.00     0.000 C 
BRANCH  19  20
ATOM     20  C   UNL     1      55.079  26.556  16.778  1.00  0.00     0.000 C 
BRANCH  20  21
ATOM     21  C   UNL     1      55.139  28.094  16.718  1.00  0.00     0.000 C 
BRANCH  21  22
ATOM     22  C   UNL     1      53.762  28.730  16.460  1.00  0.00     0.000 C 
BRANCH  22  23
ATOM     23  C   UNL     1      53.800  30.043  15.655  1.00  0.00     0.000 C 
BRANCH  23  24
ATOM     24  C   UNL     1      54.891  31.027  16.126  1.00  0.00    -0.000 C 
BRANCH  24  25
ATOM     25  C   UNL     1      55.479  31.845  14.963  1.00  0.00    -0.000 C 
BRANCH  25  26
ATOM     26  C   UNL     1      55.952  33.242  15.396  1.00  0.00    -0.000 C 
BRANCH  26  27
ATOM     27  C   UNL     1      57.404  33.533  14.987  1.00  0.00    -0.000 C 
BRANCH  27  28
ATOM     28  C   UNL     1      58.336  32.392  15.424  1.00  0.00    -0.000 C 
BRANCH  28  29
ATOM     29  C   UNL     1      59.617  32.315  14.582  1.00  0.00    -0.000 C 
BRANCH  29  30
ATOM     30  C   UNL     1      60.693  31.420  15.214  1.00  0.00    -0.000 C 
BRANCH  30  31
ATOM     31  C   UNL     1      61.942  31.350  14.326  1.00  0.00    -0.003 C 
ATOM     32  C   UNL     1      61.951  32.478  13.297  1.00  0.00     0.004 C 
ENDBRANCH  30  31
ENDBRANCH  29  30
ENDBRANCH  28  29
ENDBRANCH  27  28
ENDBRANCH  26  27
ENDBRANCH  25  26
ENDBRANCH  24  25
ENDBRANCH  23  24
ENDBRANCH  22  23
ENDBRANCH  21  22
ENDBRANCH  20  21
ENDBRANCH  19  20
ENDBRANCH  18  19
ENDBRANCH   1  18
TORSDOF 28
ENDMDL
