MODEL 1
REMARK VINA RESULT:    -3.646      0.000      0.000
REMARK INTER + INTRA:          -6.526
REMARK INTER:                  -5.778
REMARK INTRA:                  -0.748
REMARK UNBOUND:                -0.748
REMARK SMILES CCCCCCCCCCCC(=O)[O-]
REMARK SMILES IDX 7 1 8 2 9 3 10 4 11 5 12 6 13 7 14 8 6 9 5 10 4 11 3 12 2 13
REMARK SMILES IDX 1 14
REMARK H PARENT
REMARK Flexibility Score: inf
ROOT
ATOM      1  C   UNL     1      17.925 -12.175 186.452  1.00  0.00     0.000 C 
ENDROOT
BRANCH   1   2
ATOM      2  C   UNL     1      19.198 -11.914 187.273  1.00  0.00     0.000 C 
BRANCH   2   3
ATOM      3  C   UNL     1      19.124 -10.612 188.091  1.00  0.00     0.000 C 
BRANCH   3   4
ATOM      4  C   UNL     1      20.124  -9.532 187.625  1.00  0.00     0.006 C 
BRANCH   4   5
ATOM      5  C   UNL     1      19.905  -9.131 186.161  1.00  0.00     0.053 C 
BRANCH   5   6
ATOM      6  C   UNL     1      18.582  -8.452 185.997  1.00  0.00     0.041 C 
ATOM      7  O   UNL     1      18.289  -7.455 186.709  1.00  0.00    -0.550 OA
ATOM      8  O   UNL     1      17.693  -8.888 185.023  1.00  0.00    -0.550 OA
ENDBRANCH   5   6
ENDBRANCH   4   5
ENDBRANCH   3   4
ENDBRANCH   2   3
ENDBRANCH   1   2
BRANCH   1   9
ATOM      9  C   UNL     1      17.471 -13.642 186.516  1.00  0.00     0.000 C 
BRANCH   9  10
ATOM     10  C   UNL     1      18.607 -14.594 186.921  1.00  0.00    -0.000 C 
BRANCH  10  11
ATOM     11  C   UNL     1      18.049 -15.919 187.453  1.00  0.00    -0.000 C 
BRANCH  11  12
ATOM     12  C   UNL     1      16.521 -15.871 187.559  1.00  0.00    -0.000 C 
BRANCH  12  13
ATOM     13  C   UNL     1      16.067 -15.963 189.020  1.00  0.00    -0.003 C 
ATOM     14  C   UNL     1      14.921 -14.996 189.304  1.00  0.00     0.004 C 
ENDBRANCH  12  13
ENDBRANCH  11  12
ENDBRANCH  10  11
ENDBRANCH   9  10
ENDBRANCH   1   9
TORSDOF 10
ENDMDL
MODEL 2
REMARK VINA RESULT:    -3.557      2.292      3.902
REMARK INTER + INTRA:          -6.385
REMARK INTER:                  -5.411
REMARK INTRA:                  -0.973
REMARK UNBOUND:                -0.748
REMARK SMILES CCCCCCCCCCCC(=O)[O-]
REMARK SMILES IDX 7 1 8 2 9 3 10 4 11 5 12 6 13 7 14 8 6 9 5 10 4 11 3 12 2 13
REMARK SMILES IDX 1 14
REMARK H PARENT
REMARK Flexibility Score: inf
ROOT
ATOM      1  C   UNL     1      17.428 -15.243 186.539  1.00  0.00     0.000 C 
ENDROOT
BRANCH   1   2
ATOM      2  C   UNL     1      18.592 -14.317 186.928  1.00  0.00     0.000 C 
BRANCH   2   3
ATOM      3  C   UNL     1      18.225 -12.825 186.833  1.00  0.00     0.000 C 
BRANCH   3   4
ATOM      4  C   UNL     1      19.277 -11.889 187.465  1.00  0.00     0.006 C 
BRANCH   4   5
ATOM      5  C   UNL     1      19.299 -10.507 186.800  1.00  0.00     0.053 C 
BRANCH   5   6
ATOM      6  C   UNL     1      19.362  -9.428 187.834  1.00  0.00     0.041 C 
ATOM      7  O   UNL     1      19.387  -9.725 189.058  1.00  0.00    -0.550 OA
ATOM      8  O   UNL     1      19.443  -8.097 187.446  1.00  0.00    -0.550 OA
ENDBRANCH   5   6
ENDBRANCH   4   5
ENDBRANCH   3   4
ENDBRANCH   2   3
ENDBRANCH   1   2
BRANCH   1   9
ATOM      9  C   UNL     1      16.125 -14.474 186.273  1.00  0.00     0.000 C 
BRANCH   9  10
ATOM     10  C   UNL     1      15.383 -14.982 185.027  1.00  0.00    -0.000 C 
BRANCH  10  11
ATOM     11  C   UNL     1      14.608 -13.847 184.348  1.00  0.00    -0.000 C 
BRANCH  11  12
ATOM     12  C   UNL     1      15.024 -12.483 184.910  1.00  0.00    -0.000 C 
BRANCH  12  13
ATOM     13  C   UNL     1      15.828 -11.684 183.877  1.00  0.00    -0.003 C 
ATOM     14  C   UNL     1      16.364 -10.388 184.478  1.00  0.00     0.004 C 
ENDBRANCH  12  13
ENDBRANCH  11  12
ENDBRANCH  10  11
ENDBRANCH   9  10
ENDBRANCH   1   9
TORSDOF 10
ENDMDL
MODEL 3
REMARK VINA RESULT:    -3.547      2.939      5.936
REMARK INTER + INTRA:          -6.369
REMARK INTER:                  -5.078
REMARK INTRA:                  -1.290
REMARK UNBOUND:                -0.748
REMARK SMILES CCCCCCCCCCCC(=O)[O-]
REMARK SMILES IDX 7 1 8 2 9 3 10 4 11 5 12 6 13 7 14 8 6 9 5 10 4 11 3 12 2 13
REMARK SMILES IDX 1 14
REMARK H PARENT
REMARK Flexibility Score: inf
ROOT
ATOM      1  C   UNL     1      19.027 -10.661 188.048  1.00  0.00     0.000 C 
ENDROOT
BRANCH   1   2
ATOM      2  C   UNL     1      19.284 -12.034 187.406  1.00  0.00     0.000 C 
BRANCH   2   3
ATOM      3  C   UNL     1      18.144 -12.480 186.473  1.00  0.00     0.000 C 
BRANCH   3   4
ATOM      4  C   UNL     1      16.746 -12.394 187.122  1.00  0.00     0.006 C 
BRANCH   4   5
ATOM      5  C   UNL     1      16.106 -13.776 187.304  1.00  0.00     0.053 C 
BRANCH   5   6
ATOM      6  C   UNL     1      16.097 -14.525 186.008  1.00  0.00     0.041 C 
ATOM      7  O   UNL     1      16.706 -15.622 185.906  1.00  0.00    -0.550 OA
ATOM      8  O   UNL     1      15.373 -14.035 184.929  1.00  0.00    -0.550 OA
ENDBRANCH   5   6
ENDBRANCH   4   5
ENDBRANCH   3   4
ENDBRANCH   2   3
ENDBRANCH   1   2
BRANCH   1   9
ATOM      9  C   UNL     1      20.044  -9.600 187.601  1.00  0.00     0.000 C 
BRANCH   9  10
ATOM     10  C   UNL     1      19.678  -8.962 186.253  1.00  0.00    -0.000 C 
BRANCH  10  11
ATOM     11  C   UNL     1      18.187  -8.606 186.200  1.00  0.00    -0.000 C 
BRANCH  11  12
ATOM     12  C   UNL     1      17.604  -8.883 184.809  1.00  0.00    -0.000 C 
BRANCH  12  13
ATOM     13  C   UNL     1      16.204  -9.499 184.912  1.00  0.00    -0.003 C 
ATOM     14  C   UNL     1      16.023 -10.628 183.902  1.00  0.00     0.004 C 
ENDBRANCH  12  13
ENDBRANCH  11  12
ENDBRANCH  10  11
ENDBRANCH   9  10
ENDBRANCH   1   9
TORSDOF 10
ENDMDL
MODEL 4
REMARK VINA RESULT:    -3.504      2.061      3.321
REMARK INTER + INTRA:          -6.300
REMARK INTER:                  -5.376
REMARK INTRA:                  -0.925
REMARK UNBOUND:                -0.748
REMARK SMILES CCCCCCCCCCCC(=O)[O-]
REMARK SMILES IDX 7 1 8 2 9 3 10 4 11 5 12 6 13 7 14 8 6 9 5 10 4 11 3 12 2 13
REMARK SMILES IDX 1 14
REMARK H PARENT
REMARK Flexibility Score: inf
ROOT
ATOM      1  C   UNL     1      18.342 -14.230 186.883  1.00  0.00     0.000 C 
ENDROOT
BRANCH   1   2
ATOM      2  C   UNL     1      18.237 -12.697 186.848  1.00  0.00     0.000 C 
BRANCH   2   3
ATOM      3  C   UNL     1      19.410 -12.002 187.563  1.00  0.00     0.000 C 
BRANCH   3   4
ATOM      4  C   UNL     1      19.079 -10.576 188.050  1.00  0.00     0.006 C 
BRANCH   4   5
ATOM      5  C   UNL     1      18.003  -9.904 187.188  1.00  0.00     0.053 C 
BRANCH   5   6
ATOM      6  C   UNL     1      18.635  -9.088 186.104  1.00  0.00     0.041 C 
ATOM      7  O   UNL     1      19.866  -8.824 186.146  1.00  0.00    -0.550 OA
ATOM      8  O   UNL     1      17.875  -8.661 185.023  1.00  0.00    -0.550 OA
ENDBRANCH   5   6
ENDBRANCH   4   5
ENDBRANCH   3   4
ENDBRANCH   2   3
ENDBRANCH   1   2
BRANCH   1   9
ATOM      9  C   UNL     1      17.042 -14.921 186.444  1.00  0.00     0.000 C 
BRANCH   9  10
ATOM     10  C   UNL     1      15.932 -13.921 186.090  1.00  0.00    -0.000 C 
BRANCH  10  11
ATOM     11  C   UNL     1      15.115 -14.409 184.888  1.00  0.00    -0.000 C 
BRANCH  11  12
ATOM     12  C   UNL     1      14.896 -13.279 183.875  1.00  0.00    -0.000 C 
BRANCH  12  13
ATOM     13  C   UNL     1      15.914 -12.151 184.081  1.00  0.00    -0.003 C 
ATOM     14  C   UNL     1      15.219 -10.800 184.221  1.00  0.00     0.004 C 
ENDBRANCH  12  13
ENDBRANCH  11  12
ENDBRANCH  10  11
ENDBRANCH   9  10
ENDBRANCH   1   9
TORSDOF 10
ENDMDL
MODEL 5
REMARK VINA RESULT:    -3.503      2.003      2.846
REMARK INTER + INTRA:          -6.299
REMARK INTER:                  -5.597
REMARK INTRA:                  -0.703
REMARK UNBOUND:                -0.748
REMARK SMILES CCCCCCCCCCCC(=O)[O-]
REMARK SMILES IDX 7 1 8 2 9 3 10 4 11 5 12 6 13 7 14 8 6 9 5 10 4 11 3 12 2 13
REMARK SMILES IDX 1 14
REMARK H PARENT
REMARK Flexibility Score: inf
ROOT
ATOM      1  C   UNL     1      17.398 -13.129 186.808  1.00  0.00     0.000 C 
ENDROOT
BRANCH   1   2
ATOM      2  C   UNL     1      18.252 -11.876 186.553  1.00  0.00     0.000 C 
BRANCH   2   3
ATOM      3  C   UNL     1      19.388 -11.710 187.578  1.00  0.00     0.000 C 
BRANCH   3   4
ATOM      4  C   UNL     1      19.980 -10.285 187.617  1.00  0.00     0.006 C 
BRANCH   4   5
ATOM      5  C   UNL     1      19.373  -9.435 188.741  1.00  0.00     0.053 C 
BRANCH   5   6
ATOM      6  C   UNL     1      18.638  -8.263 188.172  1.00  0.00     0.041 C 
ATOM      7  O   UNL     1      17.665  -8.443 187.392  1.00  0.00    -0.550 OA
ATOM      8  O   UNL     1      18.994  -6.973 188.543  1.00  0.00    -0.550 OA
ENDBRANCH   5   6
ENDBRANCH   4   5
ENDBRANCH   3   4
ENDBRANCH   2   3
ENDBRANCH   1   2
BRANCH   1   9
ATOM      9  C   UNL     1      18.238 -14.414 186.874  1.00  0.00     0.000 C 
BRANCH   9  10
ATOM     10  C   UNL     1      17.430 -15.667 186.502  1.00  0.00    -0.000 C 
BRANCH  10  11
ATOM     11  C   UNL     1      16.024 -15.291 186.020  1.00  0.00    -0.000 C 
BRANCH  11  12
ATOM     12  C   UNL     1      15.629 -16.107 184.784  1.00  0.00    -0.000 C 
BRANCH  12  13
ATOM     13  C   UNL     1      14.688 -15.308 183.875  1.00  0.00    -0.003 C 
ATOM     14  C   UNL     1      14.918 -13.807 184.026  1.00  0.00     0.004 C 
ENDBRANCH  12  13
ENDBRANCH  11  12
ENDBRANCH  10  11
ENDBRANCH   9  10
ENDBRANCH   1   9
TORSDOF 10
ENDMDL
MODEL 6
REMARK VINA RESULT:    -3.483      2.231      4.326
REMARK INTER + INTRA:          -6.268
REMARK INTER:                  -5.210
REMARK INTRA:                  -1.057
REMARK UNBOUND:                -0.748
REMARK SMILES CCCCCCCCCCCC(=O)[O-]
REMARK SMILES IDX 7 1 8 2 9 3 10 4 11 5 12 6 13 7 14 8 6 9 5 10 4 11 3 12 2 13
REMARK SMILES IDX 1 14
REMARK H PARENT
REMARK Flexibility Score: inf
ROOT
ATOM      1  C   UNL     1      14.948 -14.061 186.523  1.00  0.00     0.000 C 
ENDROOT
BRANCH   1   2
ATOM      2  C   UNL     1      15.292 -14.301 185.044  1.00  0.00     0.000 C 
BRANCH   2   3
ATOM      3  C   UNL     1      14.943 -13.100 184.147  1.00  0.00     0.000 C 
BRANCH   3   4
ATOM      4  C   UNL     1      16.094 -12.083 184.002  1.00  0.00     0.006 C 
BRANCH   4   5
ATOM      5  C   UNL     1      15.585 -10.638 183.921  1.00  0.00     0.053 C 
BRANCH   5   6
ATOM      6  C   UNL     1      16.377  -9.752 184.830  1.00  0.00     0.041 C 
ATOM      7  O   UNL     1      17.311  -9.043 184.369  1.00  0.00    -0.550 OA
ATOM      8  O   UNL     1      16.051  -9.670 186.177  1.00  0.00    -0.550 OA
ENDBRANCH   5   6
ENDBRANCH   4   5
ENDBRANCH   3   4
ENDBRANCH   2   3
ENDBRANCH   1   2
BRANCH   1   9
ATOM      9  C   UNL     1      16.141 -14.319 187.457  1.00  0.00     0.000 C 
BRANCH   9  10
ATOM     10  C   UNL     1      17.328 -14.970 186.732  1.00  0.00    -0.000 C 
BRANCH  10  11
ATOM     11  C   UNL     1      18.605 -14.142 186.916  1.00  0.00    -0.000 C 
BRANCH  11  12
ATOM     12  C   UNL     1      18.296 -12.641 186.897  1.00  0.00    -0.000 C 
BRANCH  12  13
ATOM     13  C   UNL     1      19.470 -11.830 187.457  1.00  0.00    -0.003 C 
ATOM     14  C   UNL     1      19.452 -10.398 186.931  1.00  0.00     0.004 C 
ENDBRANCH  12  13
ENDBRANCH  11  12
ENDBRANCH  10  11
ENDBRANCH   9  10
ENDBRANCH   1   9
TORSDOF 10
ENDMDL
MODEL 7
REMARK VINA RESULT:    -3.433      2.297      3.020
REMARK INTER + INTRA:          -6.188
REMARK INTER:                  -5.499
REMARK INTRA:                  -0.689
REMARK UNBOUND:                -0.748
REMARK SMILES CCCCCCCCCCCC(=O)[O-]
REMARK SMILES IDX 7 1 8 2 9 3 10 4 11 5 12 6 13 7 14 8 6 9 5 10 4 11 3 12 2 13
REMARK SMILES IDX 1 14
REMARK H PARENT
REMARK Flexibility Score: inf
ROOT
ATOM      1  C   UNL     1      19.421 -11.800 187.365  1.00  0.00     0.000 C 
ENDROOT
BRANCH   1   2
ATOM      2  C   UNL     1      20.082 -10.424 187.542  1.00  0.00     0.000 C 
BRANCH   2   3
ATOM      3  C   UNL     1      19.339  -9.304 186.791  1.00  0.00     0.000 C 
BRANCH   3   4
ATOM      4  C   UNL     1      19.073  -8.052 187.653  1.00  0.00     0.006 C 
BRANCH   4   5
ATOM      5  C   UNL     1      18.291  -8.383 188.931  1.00  0.00     0.053 C 
BRANCH   5   6
ATOM      6  C   UNL     1      19.044  -7.924 190.139  1.00  0.00     0.041 C 
ATOM      7  O   UNL     1      19.828  -8.710 190.734  1.00  0.00    -0.550 OA
ATOM      8  O   UNL     1      18.918  -6.613 190.580  1.00  0.00    -0.550 OA
ENDBRANCH   5   6
ENDBRANCH   4   5
ENDBRANCH   3   4
ENDBRANCH   2   3
ENDBRANCH   1   2
BRANCH   1   9
ATOM      9  C   UNL     1      18.099 -11.726 186.586  1.00  0.00     0.000 C 
BRANCH   9  10
ATOM     10  C   UNL     1      17.387 -13.085 186.500  1.00  0.00    -0.000 C 
BRANCH  10  11
ATOM     11  C   UNL     1      18.357 -14.233 186.800  1.00  0.00    -0.000 C 
BRANCH  11  12
ATOM     12  C   UNL     1      17.603 -15.484 187.265  1.00  0.00    -0.000 C 
BRANCH  12  13
ATOM     13  C   UNL     1      16.591 -15.942 186.208  1.00  0.00    -0.003 C 
ATOM     14  C   UNL     1      15.202 -16.118 186.814  1.00  0.00     0.004 C 
ENDBRANCH  12  13
ENDBRANCH  11  12
ENDBRANCH  10  11
ENDBRANCH   9  10
ENDBRANCH   1   9
TORSDOF 10
ENDMDL
MODEL 8
REMARK VINA RESULT:    -3.430     19.304     20.298
REMARK INTER + INTRA:          -6.183
REMARK INTER:                  -5.207
REMARK INTRA:                  -0.976
REMARK UNBOUND:                -0.748
REMARK SMILES CCCCCCCCCCCC(=O)[O-]
REMARK SMILES IDX 7 1 8 2 9 3 10 4 11 5 12 6 13 7 14 8 6 9 5 10 4 11 3 12 2 13
REMARK SMILES IDX 1 14
REMARK H PARENT
REMARK Flexibility Score: inf
ROOT
ATOM      1  C   UNL     1      13.907  -2.560 203.009  1.00  0.00     0.000 C 
ENDROOT
BRANCH   1   2
ATOM      2  C   UNL     1      15.269  -1.855 202.907  1.00  0.00     0.000 C 
BRANCH   2   3
ATOM      3  C   UNL     1      15.159  -0.324 203.014  1.00  0.00     0.000 C 
BRANCH   3   4
ATOM      4  C   UNL     1      16.276   0.317 203.865  1.00  0.00     0.006 C 
BRANCH   4   5
ATOM      5  C   UNL     1      17.248   1.147 203.016  1.00  0.00     0.053 C 
BRANCH   5   6
ATOM      6  C   UNL     1      18.653   0.673 203.215  1.00  0.00     0.041 C 
ATOM      7  O   UNL     1      18.903  -0.239 204.046  1.00  0.00    -0.550 OA
ATOM      8  O   UNL     1      19.680   1.204 202.445  1.00  0.00    -0.550 OA
ENDBRANCH   5   6
ENDBRANCH   4   5
ENDBRANCH   3   4
ENDBRANCH   2   3
ENDBRANCH   1   2
BRANCH   1   9
ATOM      9  C   UNL     1      13.024  -1.979 204.125  1.00  0.00     0.000 C 
BRANCH   9  10
ATOM     10  C   UNL     1      11.551  -1.853 203.707  1.00  0.00    -0.000 C 
BRANCH  10  11
ATOM     11  C   UNL     1      11.390  -2.052 202.195  1.00  0.00    -0.000 C 
BRANCH  11  12
ATOM     12  C   UNL     1      10.632  -0.879 201.563  1.00  0.00    -0.000 C 
BRANCH  12  13
ATOM     13  C   UNL     1      10.907   0.426 202.319  1.00  0.00    -0.003 C 
ATOM     14  C   UNL     1      12.005   1.237 201.638  1.00  0.00     0.004 C 
ENDBRANCH  12  13
ENDBRANCH  11  12
ENDBRANCH  10  11
ENDBRANCH   9  10
ENDBRANCH   1   9
TORSDOF 10
ENDMDL
MODEL 9
REMARK VINA RESULT:    -3.423      2.685      5.600
REMARK INTER + INTRA:          -6.172
REMARK INTER:                  -5.070
REMARK INTRA:                  -1.102
REMARK UNBOUND:                -0.748
REMARK SMILES CCCCCCCCCCCC(=O)[O-]
REMARK SMILES IDX 7 1 8 2 9 3 10 4 11 5 12 6 13 7 14 8 6 9 5 10 4 11 3 12 2 13
REMARK SMILES IDX 1 14
REMARK H PARENT
REMARK Flexibility Score: inf
ROOT
ATOM      1  C   UNL     1      16.623 -15.056 187.519  1.00  0.00     0.000 C 
ENDROOT
BRANCH   1   2
ATOM      2  C   UNL     1      15.673 -16.006 186.773  1.00  0.00     0.000 C 
BRANCH   2   3
ATOM      3  C   UNL     1      15.869 -15.969 185.246  1.00  0.00     0.000 C 
BRANCH   3   4
ATOM      4  C   UNL     1      14.760 -15.197 184.500  1.00  0.00     0.006 C 
BRANCH   4   5
ATOM      5  C   UNL     1      15.163 -13.747 184.203  1.00  0.00     0.053 C 
BRANCH   5   6
ATOM      6  C   UNL     1      14.374 -12.800 185.052  1.00  0.00     0.041 C 
ATOM      7  O   UNL     1      13.556 -13.241 185.901  1.00  0.00    -0.550 OA
ATOM      8  O   UNL     1      14.580 -11.431 184.939  1.00  0.00    -0.550 OA
ENDBRANCH   5   6
ENDBRANCH   4   5
ENDBRANCH   3   4
ENDBRANCH   2   3
ENDBRANCH   1   2
BRANCH   1   9
ATOM      9  C   UNL     1      18.042 -15.054 186.928  1.00  0.00     0.000 C 
BRANCH   9  10
ATOM     10  C   UNL     1      18.689 -13.661 186.952  1.00  0.00    -0.000 C 
BRANCH  10  11
ATOM     11  C   UNL     1      17.638 -12.563 186.751  1.00  0.00    -0.000 C 
BRANCH  11  12
ATOM     12  C   UNL     1      18.301 -11.195 186.552  1.00  0.00    -0.000 C 
BRANCH  12  13
ATOM     13  C   UNL     1      19.511 -11.029 187.479  1.00  0.00    -0.003 C 
ATOM     14  C   UNL     1      19.193 -10.087 188.636  1.00  0.00     0.004 C 
ENDBRANCH  12  13
ENDBRANCH  11  12
ENDBRANCH  10  11
ENDBRANCH   9  10
ENDBRANCH   1   9
TORSDOF 10
ENDMDL
