MODEL 1
REMARK VINA RESULT:    -6.570      0.000      0.000
REMARK INTER + INTRA:          -8.008
REMARK INTER:                  -7.722
REMARK INTRA:                  -0.286
REMARK UNBOUND:                -0.286
REMARK SMILES O=c1cc(-c2ccc(O)c(O)c2)oc2cc(O)cc(O)c12
REMARK SMILES IDX 4 1 3 2 2 3 1 4 21 5 19 6 18 7 16 8 15 9 14 10 13 11 5 12
REMARK SMILES IDX 6 13 7 14 8 15 12 16 10 17 9 18 11 20 20 22 17 24
REMARK H PARENT 9 19 11 21 20 23 17 25
REMARK Flexibility Score: inf
ROOT
ATOM      1  C   UNL     1       5.525  20.972  27.757  1.00  0.00     0.138 A 
ATOM      2  C   UNL     1       6.684  20.217  27.991  1.00  0.00     0.100 A 
ATOM      3  C   UNL     1       6.752  18.900  27.538  1.00  0.00     0.197 A 
ATOM      4  O   UNL     1       7.779  18.228  27.816  1.00  0.00    -0.289 OA
ATOM      5  C   UNL     1       5.666  18.345  26.819  1.00  0.00     0.107 A 
ATOM      6  C   UNL     1       5.640  17.027  26.274  1.00  0.00     0.134 A 
ATOM      7  C   UNL     1       4.464  16.547  25.683  1.00  0.00     0.093 A 
ATOM      8  C   UNL     1       3.335  17.357  25.564  1.00  0.00     0.123 A 
ATOM      9  C   UNL     1       3.367  18.667  26.045  1.00  0.00     0.094 A 
ATOM     10  C   UNL     1       4.513  19.163  26.671  1.00  0.00     0.146 A 
ATOM     11  O   UNL     1       4.498  20.410  27.129  1.00  0.00    -0.456 OA
ENDROOT
BRANCH   1  12
ATOM     12  C   UNL     1       5.400  22.378  28.217  1.00  0.00     0.021 A 
ATOM     13  C   UNL     1       6.358  23.354  27.882  1.00  0.00     0.016 A 
ATOM     14  C   UNL     1       6.210  24.673  28.319  1.00  0.00     0.051 A 
ATOM     15  C   UNL     1       5.104  25.043  29.089  1.00  0.00     0.157 A 
ATOM     16  C   UNL     1       4.283  22.760  28.981  1.00  0.00     0.062 A 
ATOM     17  C   UNL     1       4.134  24.084  29.422  1.00  0.00     0.158 A 
BRANCH  15  18
ATOM     18  O   UNL     1       4.985  26.367  29.513  1.00  0.00    -0.504 OA
ATOM     19  H   UNL     1       4.084  26.816  29.624  1.00  0.00     0.293 HD
ENDBRANCH  15  18
BRANCH  17  20
ATOM     20  O   UNL     1       3.026  24.447  30.186  1.00  0.00    -0.504 OA
ATOM     21  H   UNL     1       3.065  25.217  30.845  1.00  0.00     0.293 HD
ENDBRANCH  17  20
ENDBRANCH   1  12
BRANCH   6  22
ATOM     22  O   UNL     1       6.739  16.164  26.264  1.00  0.00    -0.507 OA
ATOM     23  H   UNL     1       7.675  16.419  26.542  1.00  0.00     0.293 HD
ENDBRANCH   6  22
BRANCH   8  24
ATOM     24  O   UNL     1       2.188  16.851  24.957  1.00  0.00    -0.508 OA
ATOM     25  H   UNL     1       1.288  16.875  25.421  1.00  0.00     0.293 HD
ENDBRANCH   8  24
TORSDOF 5
ENDMDL
MODEL 2
REMARK VINA RESULT:    -6.446      1.866      3.102
REMARK INTER + INTRA:          -7.862
REMARK INTER:                  -7.577
REMARK INTRA:                  -0.285
REMARK UNBOUND:                -0.286
REMARK SMILES O=c1cc(-c2ccc(O)c(O)c2)oc2cc(O)cc(O)c12
REMARK SMILES IDX 4 1 3 2 2 3 1 4 21 5 19 6 18 7 16 8 15 9 14 10 13 11 5 12
REMARK SMILES IDX 6 13 7 14 8 15 12 16 10 17 9 18 11 20 20 22 17 24
REMARK H PARENT 9 19 11 21 20 23 17 25
REMARK Flexibility Score: inf
ROOT
ATOM      1  C   UNL     1       5.082  21.182  26.491  1.00  0.00     0.138 A 
ATOM      2  C   UNL     1       3.754  21.064  26.057  1.00  0.00     0.100 A 
ATOM      3  C   UNL     1       3.251  19.811  25.709  1.00  0.00     0.197 A 
ATOM      4  O   UNL     1       2.075  19.745  25.265  1.00  0.00    -0.289 OA
ATOM      5  C   UNL     1       4.073  18.665  25.827  1.00  0.00     0.107 A 
ATOM      6  C   UNL     1       3.654  17.331  25.540  1.00  0.00     0.134 A 
ATOM      7  C   UNL     1       4.590  16.289  25.581  1.00  0.00     0.093 A 
ATOM      8  C   UNL     1       5.912  16.524  25.957  1.00  0.00     0.123 A 
ATOM      9  C   UNL     1       6.320  17.816  26.293  1.00  0.00     0.094 A 
ATOM     10  C   UNL     1       5.419  18.881  26.228  1.00  0.00     0.146 A 
ATOM     11  O   UNL     1       5.849  20.098  26.541  1.00  0.00    -0.456 OA
ENDROOT
BRANCH   1  12
ATOM     12  C   UNL     1       5.668  22.492  26.874  1.00  0.00     0.021 A 
ATOM     13  C   UNL     1       5.591  23.613  26.027  1.00  0.00     0.016 A 
ATOM     14  C   UNL     1       6.142  24.836  26.417  1.00  0.00     0.051 A 
ATOM     15  C   UNL     1       6.771  24.965  27.659  1.00  0.00     0.157 A 
ATOM     16  C   UNL     1       6.291  22.632  28.128  1.00  0.00     0.062 A 
ATOM     17  C   UNL     1       6.845  23.859  28.520  1.00  0.00     0.158 A 
BRANCH  15  18
ATOM     18  O   UNL     1       7.313  26.199  28.020  1.00  0.00    -0.504 OA
ATOM     19  H   UNL     1       6.831  26.836  28.641  1.00  0.00     0.293 HD
ENDBRANCH  15  18
BRANCH  17  20
ATOM     20  O   UNL     1       7.467  23.981  29.762  1.00  0.00    -0.504 OA
ATOM     21  H   UNL     1       7.742  24.885  30.131  1.00  0.00     0.293 HD
ENDBRANCH  17  20
ENDBRANCH   1  12
BRANCH   6  22
ATOM     22  O   UNL     1       2.338  16.974  25.237  1.00  0.00    -0.507 OA
ATOM     23  H   UNL     1       1.690  16.552  25.885  1.00  0.00     0.293 HD
ENDBRANCH   6  22
BRANCH   8  24
ATOM     24  O   UNL     1       6.813  15.461  26.002  1.00  0.00    -0.508 OA
ATOM     25  H   UNL     1       6.518  14.510  25.819  1.00  0.00     0.293 HD
ENDBRANCH   8  24
TORSDOF 5
ENDMDL
MODEL 3
REMARK VINA RESULT:    -6.300      1.893      6.833
REMARK INTER + INTRA:          -7.691
REMARK INTER:                  -7.396
REMARK INTRA:                  -0.294
REMARK UNBOUND:                -0.286
REMARK SMILES O=c1cc(-c2ccc(O)c(O)c2)oc2cc(O)cc(O)c12
REMARK SMILES IDX 4 1 3 2 2 3 1 4 21 5 19 6 18 7 16 8 15 9 14 10 13 11 5 12
REMARK SMILES IDX 6 13 7 14 8 15 12 16 10 17 9 18 11 20 20 22 17 24
REMARK H PARENT 9 19 11 21 20 23 17 25
REMARK Flexibility Score: inf
ROOT
ATOM      1  C   UNL     1       5.389  20.667  27.344  1.00  0.00     0.138 A 
ATOM      2  C   UNL     1       6.355  20.412  28.327  1.00  0.00     0.100 A 
ATOM      3  C   UNL     1       7.032  21.477  28.922  1.00  0.00     0.197 A 
ATOM      4  O   UNL     1       7.938  21.215  29.756  1.00  0.00    -0.289 OA
ATOM      5  C   UNL     1       6.717  22.806  28.551  1.00  0.00     0.107 A 
ATOM      6  C   UNL     1       7.313  23.971  29.119  1.00  0.00     0.134 A 
ATOM      7  C   UNL     1       7.006  25.232  28.590  1.00  0.00     0.093 A 
ATOM      8  C   UNL     1       6.080  25.373  27.557  1.00  0.00     0.123 A 
ATOM      9  C   UNL     1       5.450  24.245  27.030  1.00  0.00     0.094 A 
ATOM     10  C   UNL     1       5.761  22.972  27.512  1.00  0.00     0.146 A 
ATOM     11  O   UNL     1       5.150  21.921  26.975  1.00  0.00    -0.456 OA
ENDROOT
BRANCH   1  12
ATOM     12  C   UNL     1       4.638  19.571  26.680  1.00  0.00     0.021 A 
ATOM     13  C   UNL     1       3.661  19.831  25.701  1.00  0.00     0.016 A 
ATOM     14  C   UNL     1       2.976  18.780  25.086  1.00  0.00     0.051 A 
ATOM     15  C   UNL     1       3.259  17.455  25.427  1.00  0.00     0.157 A 
ATOM     16  C   UNL     1       4.927  18.235  27.010  1.00  0.00     0.062 A 
ATOM     17  C   UNL     1       4.240  17.179  26.393  1.00  0.00     0.158 A 
BRANCH  15  18
ATOM     18  O   UNL     1       2.558  16.427  24.796  1.00  0.00    -0.504 OA
ATOM     19  H   UNL     1       1.561  16.483  24.626  1.00  0.00     0.293 HD
ENDBRANCH  15  18
BRANCH  17  20
ATOM     20  O   UNL     1       4.530  15.859  26.736  1.00  0.00    -0.504 OA
ATOM     21  H   UNL     1       5.475  15.494  26.690  1.00  0.00     0.293 HD
ENDBRANCH  17  20
ENDBRANCH   1  12
BRANCH   6  22
ATOM     22  O   UNL     1       8.187  23.950  30.209  1.00  0.00    -0.507 OA
ATOM     23  H   UNL     1       8.594  23.116  30.606  1.00  0.00     0.293 HD
ENDBRANCH   6  22
BRANCH   8  24
ATOM     24  O   UNL     1       5.788  26.644  27.066  1.00  0.00    -0.508 OA
ATOM     25  H   UNL     1       4.852  26.895  26.770  1.00  0.00     0.293 HD
ENDBRANCH   8  24
TORSDOF 5
ENDMDL
MODEL 4
REMARK VINA RESULT:    -6.289      2.434      7.407
REMARK INTER + INTRA:          -7.677
REMARK INTER:                  -7.389
REMARK INTRA:                  -0.289
REMARK UNBOUND:                -0.286
REMARK SMILES O=c1cc(-c2ccc(O)c(O)c2)oc2cc(O)cc(O)c12
REMARK SMILES IDX 4 1 3 2 2 3 1 4 21 5 19 6 18 7 16 8 15 9 14 10 13 11 5 12
REMARK SMILES IDX 6 13 7 14 8 15 12 16 10 17 9 18 11 20 20 22 17 24
REMARK H PARENT 9 19 11 21 20 23 17 25
REMARK Flexibility Score: inf
ROOT
ATOM      1  C   UNL     1       4.123  21.401  26.379  1.00  0.00     0.138 A 
ATOM      2  C   UNL     1       2.890  22.038  26.178  1.00  0.00     0.100 A 
ATOM      3  C   UNL     1       2.835  23.430  26.118  1.00  0.00     0.197 A 
ATOM      4  O   UNL     1       1.707  23.976  25.999  1.00  0.00    -0.289 OA
ATOM      5  C   UNL     1       4.026  24.187  26.227  1.00  0.00     0.107 A 
ATOM      6  C   UNL     1       4.096  25.610  26.139  1.00  0.00     0.134 A 
ATOM      7  C   UNL     1       5.315  26.257  26.380  1.00  0.00     0.093 A 
ATOM      8  C   UNL     1       6.476  25.531  26.644  1.00  0.00     0.123 A 
ATOM      9  C   UNL     1       6.431  24.137  26.679  1.00  0.00     0.094 A 
ATOM     10  C   UNL     1       5.223  23.464  26.478  1.00  0.00     0.146 A 
ATOM     11  O   UNL     1       5.218  22.136  26.534  1.00  0.00    -0.456 OA
ENDROOT
BRANCH   1  12
ATOM     12  C   UNL     1       4.238  19.922  26.451  1.00  0.00     0.021 A 
ATOM     13  C   UNL     1       5.295  19.295  27.138  1.00  0.00     0.016 A 
ATOM     14  C   UNL     1       5.373  17.901  27.198  1.00  0.00     0.051 A 
ATOM     15  C   UNL     1       4.398  17.110  26.584  1.00  0.00     0.157 A 
ATOM     16  C   UNL     1       3.253  19.120  25.846  1.00  0.00     0.062 A 
ATOM     17  C   UNL     1       3.332  17.721  25.906  1.00  0.00     0.158 A 
BRANCH  15  18
ATOM     18  O   UNL     1       4.505  15.721  26.660  1.00  0.00    -0.504 OA
ATOM     19  H   UNL     1       3.862  15.162  27.207  1.00  0.00     0.293 HD
ENDBRANCH  15  18
BRANCH  17  20
ATOM     20  O   UNL     1       2.354  16.938  25.294  1.00  0.00    -0.504 OA
ATOM     21  H   UNL     1       2.402  16.702  24.309  1.00  0.00     0.293 HD
ENDBRANCH  17  20
ENDBRANCH   1  12
BRANCH   6  22
ATOM     22  O   UNL     1       3.014  26.425  25.797  1.00  0.00    -0.507 OA
ATOM     23  H   UNL     1       2.044  26.157  25.870  1.00  0.00     0.293 HD
ENDBRANCH   6  22
BRANCH   8  24
ATOM     24  O   UNL     1       7.674  26.208  26.863  1.00  0.00    -0.508 OA
ATOM     25  H   UNL     1       8.570  25.752  26.740  1.00  0.00     0.293 HD
ENDBRANCH   8  24
TORSDOF 5
ENDMDL
MODEL 5
REMARK VINA RESULT:    -6.111      1.677      7.637
REMARK INTER + INTRA:          -7.469
REMARK INTER:                  -7.196
REMARK INTRA:                  -0.273
REMARK UNBOUND:                -0.286
REMARK SMILES O=c1cc(-c2ccc(O)c(O)c2)oc2cc(O)cc(O)c12
REMARK SMILES IDX 4 1 3 2 2 3 1 4 21 5 19 6 18 7 16 8 15 9 14 10 13 11 5 12
REMARK SMILES IDX 6 13 7 14 8 15 12 16 10 17 9 18 11 20 20 22 17 24
REMARK H PARENT 9 19 11 21 20 23 17 25
REMARK Flexibility Score: inf
ROOT
ATOM      1  C   UNL     1       5.521  22.452  28.050  1.00  0.00     0.138 A 
ATOM      2  C   UNL     1       4.492  22.864  28.909  1.00  0.00     0.100 A 
ATOM      3  C   UNL     1       4.336  24.220  29.197  1.00  0.00     0.197 A 
ATOM      4  O   UNL     1       3.444  24.554  30.019  1.00  0.00    -0.289 OA
ATOM      5  C   UNL     1       5.194  25.171  28.595  1.00  0.00     0.107 A 
ATOM      6  C   UNL     1       5.102  26.582  28.782  1.00  0.00     0.134 A 
ATOM      7  C   UNL     1       6.081  27.418  28.227  1.00  0.00     0.093 A 
ATOM      8  C   UNL     1       7.111  26.898  27.444  1.00  0.00     0.123 A 
ATOM      9  C   UNL     1       7.179  25.524  27.209  1.00  0.00     0.094 A 
ATOM     10  C   UNL     1       6.239  24.662  27.777  1.00  0.00     0.146 A 
ATOM     11  O   UNL     1       6.347  23.359  27.542  1.00  0.00    -0.456 OA
ENDROOT
BRANCH   1  12
ATOM     12  C   UNL     1       5.731  21.021  27.710  1.00  0.00     0.021 A 
ATOM     13  C   UNL     1       4.793  20.295  26.953  1.00  0.00     0.016 A 
ATOM     14  C   UNL     1       5.022  18.953  26.639  1.00  0.00     0.051 A 
ATOM     15  C   UNL     1       6.190  18.315  27.065  1.00  0.00     0.157 A 
ATOM     16  C   UNL     1       6.911  20.377  28.125  1.00  0.00     0.062 A 
ATOM     17  C   UNL     1       7.141  19.030  27.810  1.00  0.00     0.158 A 
BRANCH  15  18
ATOM     18  O   UNL     1       6.389  16.974  26.737  1.00  0.00    -0.504 OA
ATOM     19  H   UNL     1       7.119  16.680  26.100  1.00  0.00     0.293 HD
ENDBRANCH  15  18
BRANCH  17  20
ATOM     20  O   UNL     1       8.311  18.401  28.236  1.00  0.00    -0.504 OA
ATOM     21  H   UNL     1       8.448  18.133  29.204  1.00  0.00     0.293 HD
ENDBRANCH  17  20
ENDBRANCH   1  12
BRANCH   6  22
ATOM     22  O   UNL     1       4.066  27.212  29.477  1.00  0.00    -0.507 OA
ATOM     23  H   UNL     1       3.987  28.209  29.614  1.00  0.00     0.293 HD
ENDBRANCH   6  22
BRANCH   8  24
ATOM     24  O   UNL     1       8.058  27.761  26.895  1.00  0.00    -0.508 OA
ATOM     25  H   UNL     1       7.834  28.366  26.114  1.00  0.00     0.293 HD
ENDBRANCH   8  24
TORSDOF 5
ENDMDL
MODEL 6
REMARK VINA RESULT:    -6.097      2.068      7.240
REMARK INTER + INTRA:          -7.453
REMARK INTER:                  -7.187
REMARK INTRA:                  -0.266
REMARK UNBOUND:                -0.286
REMARK SMILES O=c1cc(-c2ccc(O)c(O)c2)oc2cc(O)cc(O)c12
REMARK SMILES IDX 4 1 3 2 2 3 1 4 21 5 19 6 18 7 16 8 15 9 14 10 13 11 5 12
REMARK SMILES IDX 6 13 7 14 8 15 12 16 10 17 9 18 11 20 20 22 17 24
REMARK H PARENT 9 19 11 21 20 23 17 25
REMARK Flexibility Score: inf
ROOT
ATOM      1  C   UNL     1       5.805  20.580  26.098  1.00  0.00     0.138 A 
ATOM      2  C   UNL     1       5.553  21.385  24.978  1.00  0.00     0.100 A 
ATOM      3  C   UNL     1       5.723  22.766  25.068  1.00  0.00     0.197 A 
ATOM      4  O   UNL     1       5.429  23.468  24.065  1.00  0.00    -0.289 OA
ATOM      5  C   UNL     1       6.179  23.342  26.278  1.00  0.00     0.107 A 
ATOM      6  C   UNL     1       6.428  24.733  26.473  1.00  0.00     0.134 A 
ATOM      7  C   UNL     1       6.765  25.202  27.749  1.00  0.00     0.093 A 
ATOM      8  C   UNL     1       6.922  24.324  28.821  1.00  0.00     0.123 A 
ATOM      9  C   UNL     1       6.734  22.954  28.629  1.00  0.00     0.094 A 
ATOM     10  C   UNL     1       6.363  22.460  27.377  1.00  0.00     0.146 A 
ATOM     11  O   UNL     1       6.179  21.151  27.238  1.00  0.00    -0.456 OA
ENDROOT
BRANCH   1  12
ATOM     12  C   UNL     1       5.640  19.105  26.057  1.00  0.00     0.021 A 
ATOM     13  C   UNL     1       6.698  18.234  26.380  1.00  0.00     0.016 A 
ATOM     14  C   UNL     1       6.512  16.849  26.343  1.00  0.00     0.051 A 
ATOM     15  C   UNL     1       5.271  16.311  25.993  1.00  0.00     0.157 A 
ATOM     16  C   UNL     1       4.390  18.557  25.719  1.00  0.00     0.062 A 
ATOM     17  C   UNL     1       4.203  17.167  25.681  1.00  0.00     0.158 A 
BRANCH  15  18
ATOM     18  O   UNL     1       5.117  14.925  25.963  1.00  0.00    -0.504 OA
ATOM     19  H   UNL     1       5.591  14.346  25.281  1.00  0.00     0.293 HD
ENDBRANCH  15  18
BRANCH  17  20
ATOM     20  O   UNL     1       2.961  16.637  25.335  1.00  0.00    -0.504 OA
ATOM     21  H   UNL     1       2.753  16.347  24.386  1.00  0.00     0.293 HD
ENDBRANCH  17  20
ENDBRANCH   1  12
BRANCH   6  22
ATOM     22  O   UNL     1       6.382  25.686  25.451  1.00  0.00    -0.507 OA
ATOM     23  H   UNL     1       5.584  26.267  25.239  1.00  0.00     0.293 HD
ENDBRANCH   6  22
BRANCH   8  24
ATOM     24  O   UNL     1       7.274  24.824  30.073  1.00  0.00    -0.508 OA
ATOM     25  H   UNL     1       6.587  25.244  30.688  1.00  0.00     0.293 HD
ENDBRANCH   8  24
TORSDOF 5
ENDMDL
MODEL 7
REMARK VINA RESULT:    -6.069      1.827      2.360
REMARK INTER + INTRA:          -7.419
REMARK INTER:                  -7.116
REMARK INTRA:                  -0.304
REMARK UNBOUND:                -0.286
REMARK SMILES O=c1cc(-c2ccc(O)c(O)c2)oc2cc(O)cc(O)c12
REMARK SMILES IDX 4 1 3 2 2 3 1 4 21 5 19 6 18 7 16 8 15 9 14 10 13 11 5 12
REMARK SMILES IDX 6 13 7 14 8 15 12 16 10 17 9 18 11 20 20 22 17 24
REMARK H PARENT 9 19 11 21 20 23 17 25
REMARK Flexibility Score: inf
ROOT
ATOM      1  C   UNL     1       5.124  21.473  26.391  1.00  0.00     0.138 A 
ATOM      2  C   UNL     1       5.287  21.563  25.002  1.00  0.00     0.100 A 
ATOM      3  C   UNL     1       5.264  20.403  24.227  1.00  0.00     0.197 A 
ATOM      4  O   UNL     1       5.475  20.509  22.991  1.00  0.00    -0.289 OA
ATOM      5  C   UNL     1       5.045  19.149  24.845  1.00  0.00     0.107 A 
ATOM      6  C   UNL     1       4.961  17.905  24.152  1.00  0.00     0.134 A 
ATOM      7  C   UNL     1       4.859  16.713  24.881  1.00  0.00     0.093 A 
ATOM      8  C   UNL     1       4.776  16.725  26.273  1.00  0.00     0.123 A 
ATOM      9  C   UNL     1       4.802  17.941  26.959  1.00  0.00     0.094 A 
ATOM     10  C   UNL     1       4.939  19.143  26.262  1.00  0.00     0.146 A 
ATOM     11  O   UNL     1       4.975  20.278  26.953  1.00  0.00    -0.456 OA
ENDROOT
BRANCH   1  12
ATOM     12  C   UNL     1       5.139  22.676  27.262  1.00  0.00     0.021 A 
ATOM     13  C   UNL     1       5.904  23.812  26.940  1.00  0.00     0.016 A 
ATOM     14  C   UNL     1       5.891  24.934  27.773  1.00  0.00     0.051 A 
ATOM     15  C   UNL     1       5.112  24.947  28.933  1.00  0.00     0.157 A 
ATOM     16  C   UNL     1       4.347  22.699  28.424  1.00  0.00     0.062 A 
ATOM     17  C   UNL     1       4.334  23.825  29.260  1.00  0.00     0.158 A 
BRANCH  15  18
ATOM     18  O   UNL     1       5.122  26.081  29.744  1.00  0.00    -0.504 OA
ATOM     19  H   UNL     1       4.441  26.220  30.481  1.00  0.00     0.293 HD
ENDBRANCH  15  18
BRANCH  17  20
ATOM     20  O   UNL     1       3.551  23.831  30.414  1.00  0.00    -0.504 OA
ATOM     21  H   UNL     1       3.965  23.764  31.337  1.00  0.00     0.293 HD
ENDBRANCH  17  20
ENDBRANCH   1  12
BRANCH   6  22
ATOM     22  O   UNL     1       4.950  17.786  22.759  1.00  0.00    -0.507 OA
ATOM     23  H   UNL     1       5.250  16.969  22.247  1.00  0.00     0.293 HD
ENDBRANCH   6  22
BRANCH   8  24
ATOM     24  O   UNL     1       4.658  15.521  26.965  1.00  0.00    -0.508 OA
ATOM     25  H   UNL     1       4.971  15.429  27.924  1.00  0.00     0.293 HD
ENDBRANCH   8  24
TORSDOF 5
ENDMDL
MODEL 8
REMARK VINA RESULT:    -6.023      3.469      3.866
REMARK INTER + INTRA:          -7.366
REMARK INTER:                  -7.087
REMARK INTRA:                  -0.279
REMARK UNBOUND:                -0.286
REMARK SMILES O=c1cc(-c2ccc(O)c(O)c2)oc2cc(O)cc(O)c12
REMARK SMILES IDX 4 1 3 2 2 3 1 4 21 5 19 6 18 7 16 8 15 9 14 10 13 11 5 12
REMARK SMILES IDX 6 13 7 14 8 15 12 16 10 17 9 18 11 20 20 22 17 24
REMARK H PARENT 9 19 11 21 20 23 17 25
REMARK Flexibility Score: inf
ROOT
ATOM      1  C   UNL     1       5.776  21.836  24.899  1.00  0.00     0.138 A 
ATOM      2  C   UNL     1       6.839  21.763  25.809  1.00  0.00     0.100 A 
ATOM      3  C   UNL     1       7.135  20.549  26.430  1.00  0.00     0.197 A 
ATOM      4  O   UNL     1       8.055  20.529  27.288  1.00  0.00    -0.289 OA
ATOM      5  C   UNL     1       6.381  19.395  26.112  1.00  0.00     0.107 A 
ATOM      6  C   UNL     1       6.618  18.095  26.651  1.00  0.00     0.134 A 
ATOM      7  C   UNL     1       5.732  17.051  26.351  1.00  0.00     0.093 A 
ATOM      8  C   UNL     1       4.656  17.246  25.486  1.00  0.00     0.123 A 
ATOM      9  C   UNL     1       4.446  18.500  24.910  1.00  0.00     0.094 A 
ATOM     10  C   UNL     1       5.291  19.568  25.217  1.00  0.00     0.146 A 
ATOM     11  O   UNL     1       5.049  20.750  24.659  1.00  0.00    -0.456 OA
ENDROOT
BRANCH   1  12
ATOM     12  C   UNL     1       5.419  23.103  24.210  1.00  0.00     0.021 A 
ATOM     13  C   UNL     1       5.004  23.122  22.865  1.00  0.00     0.016 A 
ATOM     14  C   UNL     1       4.664  24.327  22.245  1.00  0.00     0.051 A 
ATOM     15  C   UNL     1       4.723  25.529  22.954  1.00  0.00     0.157 A 
ATOM     16  C   UNL     1       5.464  24.315  24.922  1.00  0.00     0.062 A 
ATOM     17  C   UNL     1       5.123  25.525  24.300  1.00  0.00     0.158 A 
BRANCH  15  18
ATOM     18  O   UNL     1       4.380  26.716  22.307  1.00  0.00    -0.504 OA
ATOM     19  H   UNL     1       4.793  26.985  21.422  1.00  0.00     0.293 HD
ENDBRANCH  15  18
BRANCH  17  20
ATOM     20  O   UNL     1       5.181  26.720  25.015  1.00  0.00    -0.504 OA
ATOM     21  H   UNL     1       5.203  26.732  26.029  1.00  0.00     0.293 HD
ENDBRANCH  17  20
ENDBRANCH   1  12
BRANCH   6  22
ATOM     22  O   UNL     1       7.712  17.772  27.458  1.00  0.00    -0.507 OA
ATOM     23  H   UNL     1       8.244  16.917  27.393  1.00  0.00     0.293 HD
ENDBRANCH   6  22
BRANCH   8  24
ATOM     24  O   UNL     1       3.805  16.180  25.199  1.00  0.00    -0.508 OA
ATOM     25  H   UNL     1       3.915  15.279  25.646  1.00  0.00     0.293 HD
ENDBRANCH   8  24
TORSDOF 5
ENDMDL
MODEL 9
REMARK VINA RESULT:    -6.020      2.376      4.014
REMARK INTER + INTRA:          -7.361
REMARK INTER:                  -7.044
REMARK INTRA:                  -0.318
REMARK UNBOUND:                -0.286
REMARK SMILES O=c1cc(-c2ccc(O)c(O)c2)oc2cc(O)cc(O)c12
REMARK SMILES IDX 4 1 3 2 2 3 1 4 21 5 19 6 18 7 16 8 15 9 14 10 13 11 5 12
REMARK SMILES IDX 6 13 7 14 8 15 12 16 10 17 9 18 11 20 20 22 17 24
REMARK H PARENT 9 19 11 21 20 23 17 25
REMARK Flexibility Score: inf
ROOT
ATOM      1  C   UNL     1       5.328  23.032  26.521  1.00  0.00     0.138 A 
ATOM      2  C   UNL     1       4.132  22.456  26.073  1.00  0.00     0.100 A 
ATOM      3  C   UNL     1       3.968  21.072  26.130  1.00  0.00     0.197 A 
ATOM      4  O   UNL     1       2.909  20.578  25.664  1.00  0.00    -0.289 OA
ATOM      5  C   UNL     1       4.998  20.263  26.670  1.00  0.00     0.107 A 
ATOM      6  C   UNL     1       4.926  18.846  26.816  1.00  0.00     0.134 A 
ATOM      7  C   UNL     1       6.053  18.139  27.255  1.00  0.00     0.093 A 
ATOM      8  C   UNL     1       7.226  18.803  27.610  1.00  0.00     0.123 A 
ATOM      9  C   UNL     1       7.290  20.195  27.522  1.00  0.00     0.094 A 
ATOM     10  C   UNL     1       6.195  20.924  27.055  1.00  0.00     0.146 A 
ATOM     11  O   UNL     1       6.301  22.246  26.972  1.00  0.00    -0.456 OA
ENDROOT
BRANCH   1  12
ATOM     12  C   UNL     1       5.554  24.500  26.483  1.00  0.00     0.021 A 
ATOM     13  C   UNL     1       4.536  25.395  26.106  1.00  0.00     0.016 A 
ATOM     14  C   UNL     1       4.773  26.772  26.088  1.00  0.00     0.051 A 
ATOM     15  C   UNL     1       6.023  27.280  26.454  1.00  0.00     0.157 A 
ATOM     16  C   UNL     1       6.806  25.018  26.862  1.00  0.00     0.062 A 
ATOM     17  C   UNL     1       7.045  26.400  26.844  1.00  0.00     0.158 A 
BRANCH  15  18
ATOM     18  O   UNL     1       6.230  28.659  26.425  1.00  0.00    -0.504 OA
ATOM     19  H   UNL     1       5.801  29.252  25.725  1.00  0.00     0.293 HD
ENDBRANCH  15  18
BRANCH  17  20
ATOM     20  O   UNL     1       8.293  26.899  27.214  1.00  0.00    -0.504 OA
ATOM     21  H   UNL     1       8.809  26.513  27.996  1.00  0.00     0.293 HD
ENDBRANCH  17  20
ENDBRANCH   1  12
BRANCH   6  22
ATOM     22  O   UNL     1       3.774  18.093  26.571  1.00  0.00    -0.507 OA
ATOM     23  H   UNL     1       3.543  17.664  25.687  1.00  0.00     0.293 HD
ENDBRANCH   6  22
BRANCH   8  24
ATOM     24  O   UNL     1       8.323  18.069  28.057  1.00  0.00    -0.508 OA
ATOM     25  H   UNL     1       9.038  17.742  27.419  1.00  0.00     0.293 HD
ENDBRANCH   8  24
TORSDOF 5
ENDMDL
