MODEL 1
REMARK VINA RESULT:    -4.038      0.000      0.000
REMARK INTER + INTRA:          -4.950
REMARK INTER:                  -4.746
REMARK INTRA:                  -0.204
REMARK UNBOUND:                -0.204
REMARK SMILES O=C([O-])C=Cc1ccc(O)c(O)c1
REMARK SMILES IDX 6 1 13 2 7 3 11 4 8 5 9 6 5 7 4 8 2 9 1 10 3 11 12 12 10 14
REMARK H PARENT 12 13 10 15
REMARK Flexibility Score: inf
ROOT
ATOM      1  C   UNL     1      -3.556   2.505  16.905  1.00  0.00    -0.022 A 
ATOM      2  C   UNL     1      -3.474   1.199  17.409  1.00  0.00     0.058 A 
ATOM      3  C   UNL     1      -3.455   3.590  17.790  1.00  0.00     0.012 A 
ATOM      4  C   UNL     1      -3.241   0.975  18.774  1.00  0.00     0.157 A 
ATOM      5  C   UNL     1      -3.222   3.372  19.150  1.00  0.00     0.051 A 
ATOM      6  C   UNL     1      -3.110   2.069  19.647  1.00  0.00     0.157 A 
ENDROOT
BRANCH   1   7
ATOM      7  C   UNL     1      -3.855   2.710  15.473  1.00  0.00     0.010 C 
ATOM      8  C   UNL     1      -5.083   2.835  14.945  1.00  0.00     0.025 C 
BRANCH   8   9
ATOM      9  C   UNL     1      -6.340   2.971  15.707  1.00  0.00     0.064 C 
ATOM     10  O   UNL     1      -7.020   4.030  15.674  1.00  0.00    -0.545 OA
ATOM     11  O   UNL     1      -6.817   1.882  16.424  1.00  0.00    -0.545 OA
ENDBRANCH   8   9
ENDBRANCH   1   7
BRANCH   4  12
ATOM     12  O   UNL     1      -3.141  -0.326  19.264  1.00  0.00    -0.504 OA
ATOM     13  H   UNL     1      -2.969  -1.113  18.650  1.00  0.00     0.293 HD
ENDBRANCH   4  12
BRANCH   6  14
ATOM     14  O   UNL     1      -2.875   1.881  21.009  1.00  0.00    -0.504 OA
ATOM     15  H   UNL     1      -3.395   1.205  21.556  1.00  0.00     0.293 HD
ENDBRANCH   6  14
TORSDOF 4
ENDMDL
MODEL 2
REMARK VINA RESULT:    -4.030      0.808      2.027
REMARK INTER + INTRA:          -4.941
REMARK INTER:                  -4.814
REMARK INTRA:                  -0.126
REMARK UNBOUND:                -0.204
REMARK SMILES O=C([O-])C=Cc1ccc(O)c(O)c1
REMARK SMILES IDX 6 1 13 2 7 3 11 4 8 5 9 6 5 7 4 8 2 9 1 10 3 11 12 12 10 14
REMARK H PARENT 12 13 10 15
REMARK Flexibility Score: inf
ROOT
ATOM      1  C   UNL     1      -3.531   2.159  16.639  1.00  0.00    -0.022 A 
ATOM      2  C   UNL     1      -3.672   2.889  17.828  1.00  0.00     0.058 A 
ATOM      3  C   UNL     1      -3.127   0.815  16.702  1.00  0.00     0.012 A 
ATOM      4  C   UNL     1      -3.463   2.273  19.071  1.00  0.00     0.157 A 
ATOM      5  C   UNL     1      -2.919   0.199  17.938  1.00  0.00     0.051 A 
ATOM      6  C   UNL     1      -3.089   0.919  19.124  1.00  0.00     0.157 A 
ENDROOT
BRANCH   1   7
ATOM      7  C   UNL     1      -3.705   2.847  15.343  1.00  0.00     0.010 C 
ATOM      8  C   UNL     1      -4.882   3.103  14.751  1.00  0.00     0.025 C 
BRANCH   8   9
ATOM      9  C   UNL     1      -6.214   2.912  15.359  1.00  0.00     0.064 C 
ATOM     10  O   UNL     1      -6.633   1.769  15.680  1.00  0.00    -0.545 OA
ATOM     11  O   UNL     1      -6.993   4.025  15.644  1.00  0.00    -0.545 OA
ENDBRANCH   8   9
ENDBRANCH   1   7
BRANCH   4  12
ATOM     12  O   UNL     1      -3.624   3.000  20.249  1.00  0.00    -0.504 OA
ATOM     13  H   UNL     1      -4.543   3.230  20.610  1.00  0.00     0.293 HD
ENDBRANCH   4  12
BRANCH   6  14
ATOM     14  O   UNL     1      -2.877   0.277  20.344  1.00  0.00    -0.504 OA
ATOM     15  H   UNL     1      -2.104   0.519  20.952  1.00  0.00     0.293 HD
ENDBRANCH   6  14
TORSDOF 4
ENDMDL
MODEL 3
REMARK VINA RESULT:    -1.304      2.046      4.285
REMARK INTER + INTRA:          -1.737
REMARK INTER:                  -2.004
REMARK INTRA:                   0.267
REMARK UNBOUND:                -0.204
REMARK SMILES O=C([O-])C=Cc1ccc(O)c(O)c1
REMARK SMILES IDX 6 1 13 2 7 3 11 4 8 5 9 6 5 7 4 8 2 9 1 10 3 11 12 12 10 14
REMARK H PARENT 12 13 10 15
REMARK Flexibility Score: inf
ROOT
ATOM      1  C   UNL     1      -3.685   2.863  16.014  1.00  0.00    -0.022 A 
ATOM      2  C   UNL     1      -3.710   1.538  16.473  1.00  0.00     0.058 A 
ATOM      3  C   UNL     1      -4.346   3.189  14.818  1.00  0.00     0.012 A 
ATOM      4  C   UNL     1      -4.430   0.557  15.776  1.00  0.00     0.157 A 
ATOM      5  C   UNL     1      -5.064   2.214  14.122  1.00  0.00     0.051 A 
ATOM      6  C   UNL     1      -5.114   0.899  14.597  1.00  0.00     0.157 A 
ENDROOT
BRANCH   1   7
ATOM      7  C   UNL     1      -2.875   3.865  16.739  1.00  0.00     0.010 C 
ATOM      8  C   UNL     1      -2.954   4.125  18.054  1.00  0.00     0.025 C 
BRANCH   8   9
ATOM      9  C   UNL     1      -3.724   3.345  19.042  1.00  0.00     0.064 C 
ATOM     10  O   UNL     1      -4.982   3.294  19.007  1.00  0.00    -0.545 OA
ATOM     11  O   UNL     1      -3.042   2.595  19.991  1.00  0.00    -0.545 OA
ENDBRANCH   8   9
ENDBRANCH   1   7
BRANCH   4  12
ATOM     12  O   UNL     1      -4.466  -0.753  16.249  1.00  0.00    -0.504 OA
ATOM     13  H   UNL     1      -5.237  -1.375  16.033  1.00  0.00     0.293 HD
ENDBRANCH   4  12
BRANCH   6  14
ATOM     14  O   UNL     1      -5.841  -0.052  13.883  1.00  0.00    -0.504 OA
ATOM     15  H   UNL     1      -6.417  -0.747  14.344  1.00  0.00     0.293 HD
ENDBRANCH   6  14
TORSDOF 4
ENDMDL
