MODEL 1
REMARK VINA RESULT:    -4.364      0.000      0.000
REMARK INTER + INTRA:         -13.081
REMARK INTER:                  -9.466
REMARK INTRA:                  -3.615
REMARK UNBOUND:                -3.615
REMARK SMILES CCCCCCCCCCCCCCCCCCCCCC(=O)[O-]
REMARK SMILES IDX 12 1 11 2 10 3 9 4 8 5 7 6 6 7 5 8 4 9 3 10 2 11 1 12 13 13
REMARK SMILES IDX 14 14 15 15 16 16 17 17 18 18 19 19 20 20 21 21 22 22 23 23
REMARK SMILES IDX 24 24
REMARK H PARENT
REMARK Flexibility Score: inf
ROOT
ATOM      1  C   UNL     1       7.999  31.097  31.081  1.00  0.00     0.000 C 
ENDROOT
BRANCH   1   2
ATOM      2  C   UNL     1       6.573  30.988  30.504  1.00  0.00     0.000 C 
BRANCH   2   3
ATOM      3  C   UNL     1       5.778  29.749  30.954  1.00  0.00     0.000 C 
BRANCH   3   4
ATOM      4  C   UNL     1       4.414  29.628  30.254  1.00  0.00    -0.000 C 
BRANCH   4   5
ATOM      5  C   UNL     1       4.338  28.413  29.316  1.00  0.00    -0.000 C 
BRANCH   5   6
ATOM      6  C   UNL     1       3.748  28.759  27.940  1.00  0.00    -0.000 C 
BRANCH   6   7
ATOM      7  C   UNL     1       4.059  30.212  27.559  1.00  0.00    -0.000 C 
BRANCH   7   8
ATOM      8  C   UNL     1       5.003  30.274  26.349  1.00  0.00    -0.000 C 
BRANCH   8   9
ATOM      9  C   UNL     1       6.473  30.471  26.751  1.00  0.00    -0.000 C 
BRANCH   9  10
ATOM     10  C   UNL     1       7.300  29.181  26.619  1.00  0.00    -0.000 C 
BRANCH  10  11
ATOM     11  C   UNL     1       7.790  28.655  27.977  1.00  0.00    -0.003 C 
ATOM     12  C   UNL     1       7.621  27.143  28.124  1.00  0.00     0.004 C 
ENDBRANCH  10  11
ENDBRANCH   9  10
ENDBRANCH   8   9
ENDBRANCH   7   8
ENDBRANCH   6   7
ENDBRANCH   5   6
ENDBRANCH   4   5
ENDBRANCH   3   4
ENDBRANCH   2   3
ENDBRANCH   1   2
BRANCH   1  13
ATOM     13  C   UNL     1       9.099  31.419  30.050  1.00  0.00     0.000 C 
BRANCH  13  14
ATOM     14  C   UNL     1      10.457  31.830  30.653  1.00  0.00     0.000 C 
BRANCH  14  15
ATOM     15  C   UNL     1      11.639  30.922  30.270  1.00  0.00     0.000 C 
BRANCH  15  16
ATOM     16  C   UNL     1      12.747  31.672  29.515  1.00  0.00     0.000 C 
BRANCH  16  17
ATOM     17  C   UNL     1      12.452  31.718  28.008  1.00  0.00     0.000 C 
BRANCH  17  18
ATOM     18  C   UNL     1      11.831  30.402  27.490  1.00  0.00     0.000 C 
BRANCH  18  19
ATOM     19  C   UNL     1      10.627  30.611  26.552  1.00  0.00     0.000 C 
BRANCH  19  20
ATOM     20  C   UNL     1      10.010  32.023  26.591  1.00  0.00     0.006 C 
BRANCH  20  21
ATOM     21  C   UNL     1       9.545  32.549  25.224  1.00  0.00     0.053 C 
BRANCH  21  22
ATOM     22  C   UNL     1      10.661  33.193  24.461  1.00  0.00     0.041 C 
ATOM     23  O   UNL     1      10.982  34.387  24.696  1.00  0.00    -0.550 OA
ATOM     24  O   UNL     1      11.323  32.485  23.467  1.00  0.00    -0.550 OA
ENDBRANCH  21  22
ENDBRANCH  20  21
ENDBRANCH  19  20
ENDBRANCH  18  19
ENDBRANCH  17  18
ENDBRANCH  16  17
ENDBRANCH  15  16
ENDBRANCH  14  15
ENDBRANCH  13  14
ENDBRANCH   1  13
TORSDOF 20
ENDMDL
MODEL 2
REMARK VINA RESULT:    -4.354      1.170      2.356
REMARK INTER + INTRA:         -13.059
REMARK INTER:                  -9.902
REMARK INTRA:                  -3.157
REMARK UNBOUND:                -3.615
REMARK SMILES CCCCCCCCCCCCCCCCCCCCCC(=O)[O-]
REMARK SMILES IDX 12 1 11 2 10 3 9 4 8 5 7 6 6 7 5 8 4 9 3 10 2 11 1 12 13 13
REMARK SMILES IDX 14 14 15 15 16 16 17 17 18 18 19 19 20 20 21 21 22 22 23 23
REMARK SMILES IDX 24 24
REMARK H PARENT
REMARK Flexibility Score: inf
ROOT
ATOM      1  C   UNL     1       8.604  31.362  30.862  1.00  0.00     0.000 C 
ENDROOT
BRANCH   1   2
ATOM      2  C   UNL     1       7.434  30.670  30.131  1.00  0.00     0.000 C 
BRANCH   2   3
ATOM      3  C   UNL     1       6.972  29.339  30.752  1.00  0.00     0.000 C 
BRANCH   3   4
ATOM      4  C   UNL     1       6.105  28.504  29.793  1.00  0.00    -0.000 C 
BRANCH   4   5
ATOM      5  C   UNL     1       6.758  27.163  29.424  1.00  0.00    -0.000 C 
BRANCH   5   6
ATOM      6  C   UNL     1       7.122  27.069  27.934  1.00  0.00    -0.000 C 
BRANCH   6   7
ATOM      7  C   UNL     1       8.542  27.591  27.681  1.00  0.00    -0.000 C 
BRANCH   7   8
ATOM      8  C   UNL     1       8.512  28.904  26.884  1.00  0.00    -0.000 C 
BRANCH   8   9
ATOM      9  C   UNL     1       7.126  29.207  26.291  1.00  0.00    -0.000 C 
BRANCH   9  10
ATOM     10  C   UNL     1       6.658  30.642  26.589  1.00  0.00    -0.000 C 
BRANCH  10  11
ATOM     11  C   UNL     1       5.138  30.736  26.789  1.00  0.00    -0.003 C 
ATOM     12  C   UNL     1       4.420  29.415  26.512  1.00  0.00     0.004 C 
ENDBRANCH  10  11
ENDBRANCH   9  10
ENDBRANCH   8   9
ENDBRANCH   7   8
ENDBRANCH   6   7
ENDBRANCH   5   6
ENDBRANCH   4   5
ENDBRANCH   3   4
ENDBRANCH   2   3
ENDBRANCH   1   2
BRANCH   1  13
ATOM     13  C   UNL     1       9.984  31.188  30.198  1.00  0.00     0.000 C 
BRANCH  13  14
ATOM     14  C   UNL     1      11.181  31.658  31.049  1.00  0.00     0.000 C 
BRANCH  14  15
ATOM     15  C   UNL     1      12.186  32.563  30.314  1.00  0.00     0.000 C 
BRANCH  15  16
ATOM     16  C   UNL     1      13.545  31.885  30.090  1.00  0.00     0.000 C 
BRANCH  16  17
ATOM     17  C   UNL     1      13.529  31.029  28.814  1.00  0.00     0.000 C 
BRANCH  17  18
ATOM     18  C   UNL     1      12.733  31.694  27.670  1.00  0.00     0.000 C 
BRANCH  18  19
ATOM     19  C   UNL     1      11.686  30.768  27.023  1.00  0.00     0.000 C 
BRANCH  19  20
ATOM     20  C   UNL     1      11.624  30.833  25.484  1.00  0.00     0.006 C 
BRANCH  20  21
ATOM     21  C   UNL     1      10.294  31.363  24.924  1.00  0.00     0.053 C 
BRANCH  21  22
ATOM     22  C   UNL     1      10.314  32.850  24.745  1.00  0.00     0.041 C 
ATOM     23  O   UNL     1      11.379  33.495  24.925  1.00  0.00    -0.550 OA
ATOM     24  O   UNL     1       9.147  33.526  24.414  1.00  0.00    -0.550 OA
ENDBRANCH  21  22
ENDBRANCH  20  21
ENDBRANCH  19  20
ENDBRANCH  18  19
ENDBRANCH  17  18
ENDBRANCH  16  17
ENDBRANCH  15  16
ENDBRANCH  14  15
ENDBRANCH  13  14
ENDBRANCH   1  13
TORSDOF 20
ENDMDL
MODEL 3
REMARK VINA RESULT:    -4.296      1.885      3.437
REMARK INTER + INTRA:         -12.933
REMARK INTER:                  -9.438
REMARK INTRA:                  -3.495
REMARK UNBOUND:                -3.615
REMARK SMILES CCCCCCCCCCCCCCCCCCCCCC(=O)[O-]
REMARK SMILES IDX 12 1 11 2 10 3 9 4 8 5 7 6 6 7 5 8 4 9 3 10 2 11 1 12 13 13
REMARK SMILES IDX 14 14 15 15 16 16 17 17 18 18 19 19 20 20 21 21 22 22 23 23
REMARK SMILES IDX 24 24
REMARK H PARENT
REMARK Flexibility Score: inf
ROOT
ATOM      1  C   UNL     1       5.446  30.960  27.084  1.00  0.00     0.000 C 
ENDROOT
BRANCH   1   2
ATOM      2  C   UNL     1       4.442  29.912  26.562  1.00  0.00     0.000 C 
BRANCH   2   3
ATOM      3  C   UNL     1       3.293  29.568  27.528  1.00  0.00     0.000 C 
BRANCH   3   4
ATOM      4  C   UNL     1       3.493  28.217  28.235  1.00  0.00    -0.000 C 
BRANCH   4   5
ATOM      5  C   UNL     1       4.326  27.232  27.401  1.00  0.00    -0.000 C 
BRANCH   5   6
ATOM      6  C   UNL     1       5.473  26.596  28.201  1.00  0.00    -0.000 C 
BRANCH   6   7
ATOM      7  C   UNL     1       6.415  25.810  27.280  1.00  0.00    -0.000 C 
BRANCH   7   8
ATOM      8  C   UNL     1       7.848  25.807  27.832  1.00  0.00    -0.000 C 
BRANCH   8   9
ATOM      9  C   UNL     1       8.863  26.422  26.854  1.00  0.00    -0.000 C 
BRANCH   9  10
ATOM     10  C   UNL     1       8.361  26.412  25.400  1.00  0.00    -0.000 C 
BRANCH  10  11
ATOM     11  C   UNL     1       8.290  27.821  24.791  1.00  0.00    -0.003 C 
ATOM     12  C   UNL     1       6.890  28.186  24.300  1.00  0.00     0.004 C 
ENDBRANCH  10  11
ENDBRANCH   9  10
ENDBRANCH   8   9
ENDBRANCH   7   8
ENDBRANCH   6   7
ENDBRANCH   5   6
ENDBRANCH   4   5
ENDBRANCH   3   4
ENDBRANCH   2   3
ENDBRANCH   1   2
BRANCH   1  13
ATOM     13  C   UNL     1       6.931  30.586  26.909  1.00  0.00     0.000 C 
BRANCH  13  14
ATOM     14  C   UNL     1       7.476  29.580  27.942  1.00  0.00     0.000 C 
BRANCH  14  15
ATOM     15  C   UNL     1       8.566  30.134  28.877  1.00  0.00     0.000 C 
BRANCH  15  16
ATOM     16  C   UNL     1       9.988  29.849  28.371  1.00  0.00     0.000 C 
BRANCH  16  17
ATOM     17  C   UNL     1      10.491  30.989  27.473  1.00  0.00     0.000 C 
BRANCH  17  18
ATOM     18  C   UNL     1      10.974  30.484  26.097  1.00  0.00     0.000 C 
BRANCH  18  19
ATOM     19  C   UNL     1      10.175  31.056  24.910  1.00  0.00     0.000 C 
BRANCH  19  20
ATOM     20  C   UNL     1       9.271  32.256  25.253  1.00  0.00     0.006 C 
BRANCH  20  21
ATOM     21  C   UNL     1       9.587  33.535  24.462  1.00  0.00     0.053 C 
BRANCH  21  22
ATOM     22  C   UNL     1      11.015  33.956  24.623  1.00  0.00     0.041 C 
ATOM     23  O   UNL     1      11.795  33.939  23.636  1.00  0.00    -0.550 OA
ATOM     24  O   UNL     1      11.493  34.333  25.871  1.00  0.00    -0.550 OA
ENDBRANCH  21  22
ENDBRANCH  20  21
ENDBRANCH  19  20
ENDBRANCH  18  19
ENDBRANCH  17  18
ENDBRANCH  16  17
ENDBRANCH  15  16
ENDBRANCH  14  15
ENDBRANCH  13  14
ENDBRANCH   1  13
TORSDOF 20
ENDMDL
MODEL 4
REMARK VINA RESULT:    -4.272      1.135      2.605
REMARK INTER + INTRA:         -12.881
REMARK INTER:                  -9.783
REMARK INTRA:                  -3.097
REMARK UNBOUND:                -3.615
REMARK SMILES CCCCCCCCCCCCCCCCCCCCCC(=O)[O-]
REMARK SMILES IDX 12 1 11 2 10 3 9 4 8 5 7 6 6 7 5 8 4 9 3 10 2 11 1 12 13 13
REMARK SMILES IDX 14 14 15 15 16 16 17 17 18 18 19 19 20 20 21 21 22 22 23 23
REMARK SMILES IDX 24 24
REMARK H PARENT
REMARK Flexibility Score: inf
ROOT
ATOM      1  C   UNL     1       6.874  30.464  31.735  1.00  0.00     0.000 C 
ENDROOT
BRANCH   1   2
ATOM      2  C   UNL     1       6.548  30.100  30.271  1.00  0.00     0.000 C 
BRANCH   2   3
ATOM      3  C   UNL     1       6.710  28.611  29.916  1.00  0.00     0.000 C 
BRANCH   3   4
ATOM      4  C   UNL     1       7.362  28.393  28.539  1.00  0.00    -0.000 C 
BRANCH   4   5
ATOM      5  C   UNL     1       8.368  29.499  28.182  1.00  0.00    -0.000 C 
BRANCH   5   6
ATOM      6  C   UNL     1       7.913  30.354  26.989  1.00  0.00    -0.000 C 
BRANCH   6   7
ATOM      7  C   UNL     1       6.547  29.888  26.469  1.00  0.00    -0.000 C 
BRANCH   7   8
ATOM      8  C   UNL     1       5.455  30.920  26.790  1.00  0.00    -0.000 C 
BRANCH   8   9
ATOM      9  C   UNL     1       4.086  30.273  27.052  1.00  0.00    -0.000 C 
BRANCH   9  10
ATOM     10  C   UNL     1       4.044  28.792  26.642  1.00  0.00    -0.000 C 
BRANCH  10  11
ATOM     11  C   UNL     1       3.687  27.866  27.815  1.00  0.00    -0.003 C 
ATOM     12  C   UNL     1       4.030  26.402  27.540  1.00  0.00     0.004 C 
ENDBRANCH  10  11
ENDBRANCH   9  10
ENDBRANCH   8   9
ENDBRANCH   7   8
ENDBRANCH   6   7
ENDBRANCH   5   6
ENDBRANCH   4   5
ENDBRANCH   3   4
ENDBRANCH   2   3
ENDBRANCH   1   2
BRANCH   1  13
ATOM     13  C   UNL     1       7.835  31.656  31.914  1.00  0.00     0.000 C 
BRANCH  13  14
ATOM     14  C   UNL     1       9.314  31.352  31.603  1.00  0.00     0.000 C 
BRANCH  14  15
ATOM     15  C   UNL     1       9.878  32.068  30.363  1.00  0.00     0.000 C 
BRANCH  15  16
ATOM     16  C   UNL     1      11.406  31.957  30.253  1.00  0.00     0.000 C 
BRANCH  16  17
ATOM     17  C   UNL     1      11.821  30.567  29.744  1.00  0.00     0.000 C 
BRANCH  17  18
ATOM     18  C   UNL     1      13.041  30.627  28.801  1.00  0.00     0.000 C 
BRANCH  18  19
ATOM     19  C   UNL     1      12.900  31.662  27.668  1.00  0.00     0.000 C 
BRANCH  19  20
ATOM     20  C   UNL     1      11.694  31.441  26.733  1.00  0.00     0.006 C 
BRANCH  20  21
ATOM     21  C   UNL     1      10.774  32.664  26.586  1.00  0.00     0.053 C 
BRANCH  21  22
ATOM     22  C   UNL     1      10.852  33.263  25.215  1.00  0.00     0.041 C 
ATOM     23  O   UNL     1      10.688  32.541  24.198  1.00  0.00    -0.550 OA
ATOM     24  O   UNL     1      11.141  34.613  25.062  1.00  0.00    -0.550 OA
ENDBRANCH  21  22
ENDBRANCH  20  21
ENDBRANCH  19  20
ENDBRANCH  18  19
ENDBRANCH  17  18
ENDBRANCH  16  17
ENDBRANCH  15  16
ENDBRANCH  14  15
ENDBRANCH  13  14
ENDBRANCH   1  13
TORSDOF 20
ENDMDL
MODEL 5
REMARK VINA RESULT:    -4.224      2.403      3.914
REMARK INTER + INTRA:         -12.777
REMARK INTER:                  -9.178
REMARK INTRA:                  -3.599
REMARK UNBOUND:                -3.615
REMARK SMILES CCCCCCCCCCCCCCCCCCCCCC(=O)[O-]
REMARK SMILES IDX 12 1 11 2 10 3 9 4 8 5 7 6 6 7 5 8 4 9 3 10 2 11 1 12 13 13
REMARK SMILES IDX 14 14 15 15 16 16 17 17 18 18 19 19 20 20 21 21 22 22 23 23
REMARK SMILES IDX 24 24
REMARK H PARENT
REMARK Flexibility Score: inf
ROOT
ATOM      1  C   UNL     1       6.730  29.694  29.813  1.00  0.00     0.000 C 
ENDROOT
BRANCH   1   2
ATOM      2  C   UNL     1       5.664  30.442  28.986  1.00  0.00     0.000 C 
BRANCH   2   3
ATOM      3  C   UNL     1       4.298  29.738  28.891  1.00  0.00     0.000 C 
BRANCH   3   4
ATOM      4  C   UNL     1       3.788  29.618  27.445  1.00  0.00    -0.000 C 
BRANCH   4   5
ATOM      5  C   UNL     1       4.847  30.029  26.410  1.00  0.00    -0.000 C 
BRANCH   5   6
ATOM      6  C   UNL     1       4.783  29.187  25.127  1.00  0.00    -0.000 C 
BRANCH   6   7
ATOM      7  C   UNL     1       5.901  28.136  25.104  1.00  0.00    -0.000 C 
BRANCH   7   8
ATOM      8  C   UNL     1       5.616  27.008  26.108  1.00  0.00    -0.000 C 
BRANCH   8   9
ATOM      9  C   UNL     1       6.847  26.128  26.377  1.00  0.00    -0.000 C 
BRANCH   9  10
ATOM     10  C   UNL     1       7.331  26.221  27.835  1.00  0.00    -0.000 C 
BRANCH  10  11
ATOM     11  C   UNL     1       6.182  26.088  28.846  1.00  0.00    -0.003 C 
ATOM     12  C   UNL     1       6.674  25.923  30.284  1.00  0.00     0.004 C 
ENDBRANCH  10  11
ENDBRANCH   9  10
ENDBRANCH   8   9
ENDBRANCH   7   8
ENDBRANCH   6   7
ENDBRANCH   5   6
ENDBRANCH   4   5
ENDBRANCH   3   4
ENDBRANCH   2   3
ENDBRANCH   1   2
BRANCH   1  13
ATOM     13  C   UNL     1       8.069  29.455  29.089  1.00  0.00     0.000 C 
BRANCH  13  14
ATOM     14  C   UNL     1       8.231  30.207  27.752  1.00  0.00     0.000 C 
BRANCH  14  15
ATOM     15  C   UNL     1       8.887  29.393  26.623  1.00  0.00     0.000 C 
BRANCH  15  16
ATOM     16  C   UNL     1       9.123  30.220  25.350  1.00  0.00     0.000 C 
BRANCH  16  17
ATOM     17  C   UNL     1       8.977  31.722  25.637  1.00  0.00     0.000 C 
BRANCH  17  18
ATOM     18  C   UNL     1      10.126  32.551  25.023  1.00  0.00     0.000 C 
BRANCH  18  19
ATOM     19  C   UNL     1      11.024  33.238  26.069  1.00  0.00     0.000 C 
BRANCH  19  20
ATOM     20  C   UNL     1      10.768  32.809  27.528  1.00  0.00     0.006 C 
BRANCH  20  21
ATOM     21  C   UNL     1      11.703  31.701  28.036  1.00  0.00     0.053 C 
BRANCH  21  22
ATOM     22  C   UNL     1      11.724  31.627  29.532  1.00  0.00     0.041 C 
ATOM     23  O   UNL     1      11.869  30.518  30.109  1.00  0.00    -0.550 OA
ATOM     24  O   UNL     1      11.548  32.778  30.288  1.00  0.00    -0.550 OA
ENDBRANCH  21  22
ENDBRANCH  20  21
ENDBRANCH  19  20
ENDBRANCH  18  19
ENDBRANCH  17  18
ENDBRANCH  16  17
ENDBRANCH  15  16
ENDBRANCH  14  15
ENDBRANCH  13  14
ENDBRANCH   1  13
TORSDOF 20
ENDMDL
MODEL 6
REMARK VINA RESULT:    -4.203      2.305      4.995
REMARK INTER + INTRA:         -12.732
REMARK INTER:                  -9.198
REMARK INTRA:                  -3.533
REMARK UNBOUND:                -3.615
REMARK SMILES CCCCCCCCCCCCCCCCCCCCCC(=O)[O-]
REMARK SMILES IDX 12 1 11 2 10 3 9 4 8 5 7 6 6 7 5 8 4 9 3 10 2 11 1 12 13 13
REMARK SMILES IDX 14 14 15 15 16 16 17 17 18 18 19 19 20 20 21 21 22 22 23 23
REMARK SMILES IDX 24 24
REMARK H PARENT
REMARK Flexibility Score: inf
ROOT
ATOM      1  C   UNL     1       6.453  26.709  28.731  1.00  0.00     0.000 C 
ENDROOT
BRANCH   1   2
ATOM      2  C   UNL     1       7.148  25.709  27.783  1.00  0.00     0.000 C 
BRANCH   2   3
ATOM      3  C   UNL     1       8.446  26.219  27.132  1.00  0.00     0.000 C 
BRANCH   3   4
ATOM      4  C   UNL     1       8.254  26.633  25.662  1.00  0.00    -0.000 C 
BRANCH   4   5
ATOM      5  C   UNL     1       8.630  28.101  25.410  1.00  0.00    -0.000 C 
BRANCH   5   6
ATOM      6  C   UNL     1       7.406  28.995  25.160  1.00  0.00    -0.000 C 
BRANCH   6   7
ATOM      7  C   UNL     1       6.155  28.149  24.891  1.00  0.00    -0.000 C 
BRANCH   7   8
ATOM      8  C   UNL     1       4.923  28.752  25.582  1.00  0.00    -0.000 C 
BRANCH   8   9
ATOM      9  C   UNL     1       5.271  29.962  26.465  1.00  0.00    -0.000 C 
BRANCH   9  10
ATOM     10  C   UNL     1       4.283  30.146  27.630  1.00  0.00    -0.000 C 
BRANCH  10  11
ATOM     11  C   UNL     1       3.467  28.876  27.915  1.00  0.00    -0.003 C 
ATOM     12  C   UNL     1       2.600  28.997  29.169  1.00  0.00     0.004 C 
ENDBRANCH  10  11
ENDBRANCH   9  10
ENDBRANCH   8   9
ENDBRANCH   7   8
ENDBRANCH   6   7
ENDBRANCH   5   6
ENDBRANCH   4   5
ENDBRANCH   3   4
ENDBRANCH   2   3
ENDBRANCH   1   2
BRANCH   1  13
ATOM     13  C   UNL     1       6.294  26.227  30.186  1.00  0.00     0.000 C 
BRANCH  13  14
ATOM     14  C   UNL     1       6.312  27.345  31.248  1.00  0.00     0.000 C 
BRANCH  14  15
ATOM     15  C   UNL     1       5.997  28.754  30.714  1.00  0.00     0.000 C 
BRANCH  15  16
ATOM     16  C   UNL     1       7.180  29.724  30.857  1.00  0.00     0.000 C 
BRANCH  16  17
ATOM     17  C   UNL     1       7.517  30.381  29.509  1.00  0.00     0.000 C 
BRANCH  17  18
ATOM     18  C   UNL     1       8.626  29.624  28.748  1.00  0.00     0.000 C 
BRANCH  18  19
ATOM     19  C   UNL     1       9.657  30.548  28.072  1.00  0.00     0.000 C 
BRANCH  19  20
ATOM     20  C   UNL     1      11.119  30.067  28.164  1.00  0.00     0.006 C 
BRANCH  20  21
ATOM     21  C   UNL     1      11.875  30.570  29.404  1.00  0.00     0.053 C 
BRANCH  21  22
ATOM     22  C   UNL     1      13.165  31.239  29.041  1.00  0.00     0.041 C 
ATOM     23  O   UNL     1      13.789  31.918  29.898  1.00  0.00    -0.550 OA
ATOM     24  O   UNL     1      13.659  31.142  27.747  1.00  0.00    -0.550 OA
ENDBRANCH  21  22
ENDBRANCH  20  21
ENDBRANCH  19  20
ENDBRANCH  18  19
ENDBRANCH  17  18
ENDBRANCH  16  17
ENDBRANCH  15  16
ENDBRANCH  14  15
ENDBRANCH  13  14
ENDBRANCH   1  13
TORSDOF 20
ENDMDL
MODEL 7
REMARK VINA RESULT:    -4.161      2.477      4.889
REMARK INTER + INTRA:         -12.640
REMARK INTER:                  -9.053
REMARK INTRA:                  -3.587
REMARK UNBOUND:                -3.615
REMARK SMILES CCCCCCCCCCCCCCCCCCCCCC(=O)[O-]
REMARK SMILES IDX 12 1 11 2 10 3 9 4 8 5 7 6 6 7 5 8 4 9 3 10 2 11 1 12 13 13
REMARK SMILES IDX 14 14 15 15 16 16 17 17 18 18 19 19 20 20 21 21 22 22 23 23
REMARK SMILES IDX 24 24
REMARK H PARENT
REMARK Flexibility Score: inf
ROOT
ATOM      1  C   UNL     1       7.030  26.537  28.683  1.00  0.00     0.000 C 
ENDROOT
BRANCH   1   2
ATOM      2  C   UNL     1       8.045  26.033  27.637  1.00  0.00     0.000 C 
BRANCH   2   3
ATOM      3  C   UNL     1       7.433  25.562  26.305  1.00  0.00     0.000 C 
BRANCH   3   4
ATOM      4  C   UNL     1       8.067  26.245  25.081  1.00  0.00    -0.000 C 
BRANCH   4   5
ATOM      5  C   UNL     1       7.311  27.515  24.658  1.00  0.00    -0.000 C 
BRANCH   5   6
ATOM      6  C   UNL     1       5.785  27.337  24.687  1.00  0.00    -0.000 C 
BRANCH   6   7
ATOM      7  C   UNL     1       5.074  28.696  24.695  1.00  0.00    -0.000 C 
BRANCH   7   8
ATOM      8  C   UNL     1       4.616  29.069  26.113  1.00  0.00    -0.000 C 
BRANCH   8   9
ATOM      9  C   UNL     1       4.001  27.881  26.870  1.00  0.00    -0.000 C 
BRANCH   9  10
ATOM     10  C   UNL     1       3.298  28.310  28.170  1.00  0.00    -0.000 C 
BRANCH  10  11
ATOM     11  C   UNL     1       3.399  29.822  28.422  1.00  0.00    -0.003 C 
ATOM     12  C   UNL     1       4.207  30.161  29.674  1.00  0.00     0.004 C 
ENDBRANCH  10  11
ENDBRANCH   9  10
ENDBRANCH   8   9
ENDBRANCH   7   8
ENDBRANCH   6   7
ENDBRANCH   5   6
ENDBRANCH   4   5
ENDBRANCH   3   4
ENDBRANCH   2   3
ENDBRANCH   1   2
BRANCH   1  13
ATOM     13  C   UNL     1       6.983  28.067  28.863  1.00  0.00     0.000 C 
BRANCH  13  14
ATOM     14  C   UNL     1       8.117  28.841  28.160  1.00  0.00     0.000 C 
BRANCH  14  15
ATOM     15  C   UNL     1       7.733  30.246  27.662  1.00  0.00     0.000 C 
BRANCH  15  16
ATOM     16  C   UNL     1       8.367  30.592  26.306  1.00  0.00     0.000 C 
BRANCH  16  17
ATOM     17  C   UNL     1       9.691  29.837  26.110  1.00  0.00     0.000 C 
BRANCH  17  18
ATOM     18  C   UNL     1      10.813  30.751  25.573  1.00  0.00     0.000 C 
BRANCH  18  19
ATOM     19  C   UNL     1      11.854  31.147  26.638  1.00  0.00     0.000 C 
BRANCH  19  20
ATOM     20  C   UNL     1      11.578  30.598  28.052  1.00  0.00     0.006 C 
BRANCH  20  21
ATOM     21  C   UNL     1      12.617  31.012  29.107  1.00  0.00     0.053 C 
BRANCH  21  22
ATOM     22  C   UNL     1      12.001  31.798  30.223  1.00  0.00     0.041 C 
ATOM     23  O   UNL     1      11.266  32.788  29.970  1.00  0.00    -0.550 OA
ATOM     24  O   UNL     1      12.268  31.459  31.543  1.00  0.00    -0.550 OA
ENDBRANCH  21  22
ENDBRANCH  20  21
ENDBRANCH  19  20
ENDBRANCH  18  19
ENDBRANCH  17  18
ENDBRANCH  16  17
ENDBRANCH  15  16
ENDBRANCH  14  15
ENDBRANCH  13  14
ENDBRANCH   1  13
TORSDOF 20
ENDMDL
MODEL 8
REMARK VINA RESULT:    -4.114      2.434      3.830
REMARK INTER + INTRA:         -12.540
REMARK INTER:                  -8.642
REMARK INTRA:                  -3.898
REMARK UNBOUND:                -3.615
REMARK SMILES CCCCCCCCCCCCCCCCCCCCCC(=O)[O-]
REMARK SMILES IDX 12 1 11 2 10 3 9 4 8 5 7 6 6 7 5 8 4 9 3 10 2 11 1 12 13 13
REMARK SMILES IDX 14 14 15 15 16 16 17 17 18 18 19 19 20 20 21 21 22 22 23 23
REMARK SMILES IDX 24 24
REMARK H PARENT
REMARK Flexibility Score: inf
ROOT
ATOM      1  C   UNL     1       7.327  27.494  28.591  1.00  0.00     0.000 C 
ENDROOT
BRANCH   1   2
ATOM      2  C   UNL     1       6.614  28.327  29.676  1.00  0.00     0.000 C 
BRANCH   2   3
ATOM      3  C   UNL     1       5.094  28.479  29.490  1.00  0.00     0.000 C 
BRANCH   3   4
ATOM      4  C   UNL     1       4.465  27.299  28.729  1.00  0.00    -0.000 C 
BRANCH   4   5
ATOM      5  C   UNL     1       3.749  27.741  27.443  1.00  0.00    -0.000 C 
BRANCH   5   6
ATOM      6  C   UNL     1       3.966  29.228  27.122  1.00  0.00    -0.000 C 
BRANCH   6   7
ATOM      7  C   UNL     1       4.673  29.401  25.772  1.00  0.00    -0.000 C 
BRANCH   7   8
ATOM      8  C   UNL     1       4.808  28.054  25.045  1.00  0.00    -0.000 C 
BRANCH   8   9
ATOM      9  C   UNL     1       6.112  27.944  24.238  1.00  0.00    -0.000 C 
BRANCH   9  10
ATOM     10  C   UNL     1       6.834  26.604  24.463  1.00  0.00    -0.000 C 
BRANCH  10  11
ATOM     11  C   UNL     1       6.138  25.731  25.518  1.00  0.00    -0.003 C 
ATOM     12  C   UNL     1       7.083  24.720  26.168  1.00  0.00     0.004 C 
ENDBRANCH  10  11
ENDBRANCH   9  10
ENDBRANCH   8   9
ENDBRANCH   7   8
ENDBRANCH   6   7
ENDBRANCH   5   6
ENDBRANCH   4   5
ENDBRANCH   3   4
ENDBRANCH   2   3
ENDBRANCH   1   2
BRANCH   1  13
ATOM     13  C   UNL     1       8.000  28.315  27.473  1.00  0.00     0.000 C 
BRANCH  13  14
ATOM     14  C   UNL     1       7.790  29.840  27.568  1.00  0.00     0.000 C 
BRANCH  14  15
ATOM     15  C   UNL     1       8.204  30.632  26.315  1.00  0.00     0.000 C 
BRANCH  15  16
ATOM     16  C   UNL     1       9.043  29.800  25.334  1.00  0.00     0.000 C 
BRANCH  16  17
ATOM     17  C   UNL     1      10.171  30.645  24.721  1.00  0.00     0.000 C 
BRANCH  17  18
ATOM     18  C   UNL     1      11.430  30.678  25.612  1.00  0.00     0.000 C 
BRANCH  18  19
ATOM     19  C   UNL     1      11.587  31.981  26.419  1.00  0.00     0.000 C 
BRANCH  19  20
ATOM     20  C   UNL     1      12.041  31.791  27.879  1.00  0.00     0.006 C 
BRANCH  20  21
ATOM     21  C   UNL     1      10.971  31.188  28.803  1.00  0.00     0.053 C 
BRANCH  21  22
ATOM     22  C   UNL     1      10.083  32.240  29.395  1.00  0.00     0.041 C 
ATOM     23  O   UNL     1      10.300  33.457  29.160  1.00  0.00    -0.550 OA
ATOM     24  O   UNL     1       9.039  31.876  30.235  1.00  0.00    -0.550 OA
ENDBRANCH  21  22
ENDBRANCH  20  21
ENDBRANCH  19  20
ENDBRANCH  18  19
ENDBRANCH  17  18
ENDBRANCH  16  17
ENDBRANCH  15  16
ENDBRANCH  14  15
ENDBRANCH  13  14
ENDBRANCH   1  13
TORSDOF 20
ENDMDL
MODEL 9
REMARK VINA RESULT:    -4.112      2.724      4.501
REMARK INTER + INTRA:         -12.535
REMARK INTER:                  -8.312
REMARK INTRA:                  -4.223
REMARK UNBOUND:                -3.615
REMARK SMILES CCCCCCCCCCCCCCCCCCCCCC(=O)[O-]
REMARK SMILES IDX 12 1 11 2 10 3 9 4 8 5 7 6 6 7 5 8 4 9 3 10 2 11 1 12 13 13
REMARK SMILES IDX 14 14 15 15 16 16 17 17 18 18 19 19 20 20 21 21 22 22 23 23
REMARK SMILES IDX 24 24
REMARK H PARENT
REMARK Flexibility Score: inf
ROOT
ATOM      1  C   UNL     1       5.556  28.052  30.043  1.00  0.00     0.000 C 
ENDROOT
BRANCH   1   2
ATOM      2  C   UNL     1       6.867  28.866  30.041  1.00  0.00     0.000 C 
BRANCH   2   3
ATOM      3  C   UNL     1       6.898  30.053  29.061  1.00  0.00     0.000 C 
BRANCH   3   4
ATOM      4  C   UNL     1       5.492  30.544  28.674  1.00  0.00    -0.000 C 
BRANCH   4   5
ATOM      5  C   UNL     1       5.219  30.423  27.167  1.00  0.00    -0.000 C 
BRANCH   5   6
ATOM      6  C   UNL     1       4.151  29.368  26.839  1.00  0.00    -0.000 C 
BRANCH   6   7
ATOM      7  C   UNL     1       4.729  28.259  25.950  1.00  0.00    -0.000 C 
BRANCH   7   8
ATOM      8  C   UNL     1       5.014  28.782  24.534  1.00  0.00    -0.000 C 
BRANCH   8   9
ATOM      9  C   UNL     1       5.455  27.669  23.568  1.00  0.00    -0.000 C 
BRANCH   9  10
ATOM     10  C   UNL     1       5.575  26.301  24.259  1.00  0.00    -0.000 C 
BRANCH  10  11
ATOM     11  C   UNL     1       6.439  25.312  23.461  1.00  0.00    -0.003 C 
ATOM     12  C   UNL     1       7.793  25.897  23.061  1.00  0.00     0.004 C 
ENDBRANCH  10  11
ENDBRANCH   9  10
ENDBRANCH   8   9
ENDBRANCH   7   8
ENDBRANCH   6   7
ENDBRANCH   5   6
ENDBRANCH   4   5
ENDBRANCH   3   4
ENDBRANCH   2   3
ENDBRANCH   1   2
BRANCH   1  13
ATOM     13  C   UNL     1       5.598  26.744  29.229  1.00  0.00     0.000 C 
BRANCH  13  14
ATOM     14  C   UNL     1       7.013  26.221  28.907  1.00  0.00     0.000 C 
BRANCH  14  15
ATOM     15  C   UNL     1       7.167  25.574  27.519  1.00  0.00     0.000 C 
BRANCH  15  16
ATOM     16  C   UNL     1       8.395  26.090  26.754  1.00  0.00     0.000 C 
BRANCH  16  17
ATOM     17  C   UNL     1       8.575  27.602  26.958  1.00  0.00     0.000 C 
BRANCH  17  18
ATOM     18  C   UNL     1       8.491  28.388  25.633  1.00  0.00     0.000 C 
BRANCH  18  19
ATOM     19  C   UNL     1       8.668  29.909  25.800  1.00  0.00     0.000 C 
BRANCH  19  20
ATOM     20  C   UNL     1       9.792  30.330  26.767  1.00  0.00     0.006 C 
BRANCH  20  21
ATOM     21  C   UNL     1       9.904  31.847  26.987  1.00  0.00     0.053 C 
BRANCH  21  22
ATOM     22  C   UNL     1      10.323  32.181  28.386  1.00  0.00     0.041 C 
ATOM     23  O   UNL     1      10.650  31.266  29.185  1.00  0.00    -0.550 OA
ATOM     24  O   UNL     1      10.315  33.501  28.818  1.00  0.00    -0.550 OA
ENDBRANCH  21  22
ENDBRANCH  20  21
ENDBRANCH  19  20
ENDBRANCH  18  19
ENDBRANCH  17  18
ENDBRANCH  16  17
ENDBRANCH  15  16
ENDBRANCH  14  15
ENDBRANCH  13  14
ENDBRANCH   1  13
TORSDOF 20
ENDMDL
