MODEL 1
REMARK VINA RESULT:    -5.686      0.000      0.000
REMARK INTER + INTRA:         -10.045
REMARK INTER:                  -8.345
REMARK INTRA:                  -1.701
REMARK UNBOUND:                -1.701
REMARK SMILES O=c1c(O[C@H]2O[C@H](CO)[C@H](O)[C@@H](O)[C@@H]2O)c(-c2ccc(O)c(O)c2)oc2cc(O)cc(O)c12
REMARK SMILES IDX 4 1 3 2 16 3 25 4 2 5 26 6 1 7 33 8 27 9 31 10 28 11 30 12
REMARK SMILES IDX 17 13 18 14 19 15 20 16 24 17 22 18 21 19 23 21 32 23 29 25
REMARK SMILES IDX 5 27 14 28 6 29 12 30 7 31 10 32 15 33 13 35 8 37 9 38 11 40
REMARK H PARENT 21 20 23 22 32 24 29 26 15 34 13 36 9 39 11 41
REMARK Flexibility Score: inf
ROOT
ATOM      1  O   UNL     1     -11.778   4.643 -38.818  1.00  0.00    -0.454 OA
ENDROOT
BRANCH   1   2
ATOM      2  C   UNL     1     -11.707   3.320 -38.366  1.00  0.00     0.214 A 
ATOM      3  C   UNL     1     -11.620   3.010 -36.995  1.00  0.00     0.180 A 
ATOM      4  O   UNL     1     -11.662   1.742 -36.605  1.00  0.00    -0.452 OA
ATOM      5  C   UNL     1     -11.738   2.276 -39.298  1.00  0.00     0.239 A 
ATOM      6  C   UNL     1     -11.721   0.719 -37.451  1.00  0.00     0.146 A 
ATOM      7  O   UNL     1     -11.838   2.567 -40.518  1.00  0.00    -0.285 OA
ATOM      8  C   UNL     1     -11.711   0.932 -38.854  1.00  0.00     0.111 A 
ATOM      9  C   UNL     1     -11.790  -0.575 -36.929  1.00  0.00     0.094 A 
ATOM     10  C   UNL     1     -11.719  -0.206 -39.716  1.00  0.00     0.134 A 
ATOM     11  C   UNL     1     -11.857  -1.677 -37.779  1.00  0.00     0.123 A 
ATOM     12  C   UNL     1     -11.824  -1.488 -39.163  1.00  0.00     0.093 A 
BRANCH   3  13
ATOM     13  C   UNL     1     -11.480   4.056 -35.956  1.00  0.00     0.025 A 
ATOM     14  C   UNL     1     -12.564   4.413 -35.136  1.00  0.00     0.016 A 
ATOM     15  C   UNL     1     -12.415   5.407 -34.165  1.00  0.00     0.051 A 
ATOM     16  C   UNL     1     -11.192   6.067 -34.009  1.00  0.00     0.157 A 
ATOM     17  C   UNL     1     -10.260   4.735 -35.814  1.00  0.00     0.062 A 
ATOM     18  C   UNL     1     -10.109   5.732 -34.840  1.00  0.00     0.158 A 
BRANCH  16  19
ATOM     19  O   UNL     1     -11.074   7.051 -33.030  1.00  0.00    -0.504 OA
ATOM     20  H   UNL     1     -10.861   8.015 -33.259  1.00  0.00     0.293 HD
ENDBRANCH  16  19
BRANCH  18  21
ATOM     21  O   UNL     1      -8.889   6.391 -34.696  1.00  0.00    -0.504 OA
ATOM     22  H   UNL     1      -8.313   6.268 -33.871  1.00  0.00     0.293 HD
ENDBRANCH  18  21
ENDBRANCH   3  13
BRANCH  10  23
ATOM     23  O   UNL     1     -11.601  -0.133 -41.107  1.00  0.00    -0.507 OA
ATOM     24  H   UNL     1     -11.419  -0.921 -41.710  1.00  0.00     0.293 HD
ENDBRANCH  10  23
BRANCH  11  25
ATOM     25  O   UNL     1     -11.947  -2.957 -37.238  1.00  0.00    -0.508 OA
ATOM     26  H   UNL     1     -12.836  -3.438 -37.158  1.00  0.00     0.293 HD
ENDBRANCH  11  25
ENDBRANCH   1   2
BRANCH   1  27
ATOM     27  C   UNL     1     -13.018   5.342 -38.979  1.00  0.00     0.339 C 
ATOM     28  C   UNL     1     -13.104   5.980 -40.386  1.00  0.00     0.214 C 
ATOM     29  O   UNL     1     -13.187   6.308 -37.952  1.00  0.00    -0.332 OA
ATOM     30  C   UNL     1     -12.164   7.201 -40.520  1.00  0.00     0.180 C 
ATOM     31  C   UNL     1     -12.165   7.291 -37.994  1.00  0.00     0.179 C 
ATOM     32  C   UNL     1     -12.262   8.126 -39.290  1.00  0.00     0.177 C 
BRANCH  28  33
ATOM     33  O   UNL     1     -14.429   6.331 -40.710  1.00  0.00    -0.384 OA
ATOM     34  H   UNL     1     -15.025   6.000 -39.990  1.00  0.00     0.211 HD
ENDBRANCH  28  33
BRANCH  30  35
ATOM     35  O   UNL     1     -10.835   6.767 -40.657  1.00  0.00    -0.387 OA
ATOM     36  H   UNL     1     -10.341   7.492 -41.124  1.00  0.00     0.211 HD
ENDBRANCH  30  35
BRANCH  31  37
ATOM     37  C   UNL     1     -12.284   8.184 -36.750  1.00  0.00     0.191 C 
BRANCH  37  38
ATOM     38  O   UNL     1     -11.987   9.515 -37.075  1.00  0.00    -0.394 OA
ATOM     39  H   UNL     1     -11.512   9.498 -37.946  1.00  0.00     0.210 HD
ENDBRANCH  37  38
ENDBRANCH  31  37
BRANCH  32  40
ATOM     40  O   UNL     1     -13.471   8.843 -39.313  1.00  0.00    -0.387 OA
ATOM     41  H   UNL     1     -14.155   8.266 -38.883  1.00  0.00     0.211 HD
ENDBRANCH  32  40
ENDBRANCH   1  27
TORSDOF 12
ENDMDL
MODEL 2
REMARK VINA RESULT:    -5.639     10.802     13.696
REMARK INTER + INTRA:          -9.977
REMARK INTER:                  -8.523
REMARK INTRA:                  -1.454
REMARK UNBOUND:                -1.701
REMARK SMILES O=c1c(O[C@H]2O[C@H](CO)[C@H](O)[C@@H](O)[C@@H]2O)c(-c2ccc(O)c(O)c2)oc2cc(O)cc(O)c12
REMARK SMILES IDX 4 1 3 2 16 3 25 4 2 5 26 6 1 7 33 8 27 9 31 10 28 11 30 12
REMARK SMILES IDX 17 13 18 14 19 15 20 16 24 17 22 18 21 19 23 21 32 23 29 25
REMARK SMILES IDX 5 27 14 28 6 29 12 30 7 31 10 32 15 33 13 35 8 37 9 38 11 40
REMARK H PARENT 21 20 23 22 32 24 29 26 15 34 13 36 9 39 11 41
REMARK Flexibility Score: inf
ROOT
ATOM      1  O   UNL     1     -12.617   4.149 -23.817  1.00  0.00    -0.454 OA
ENDROOT
BRANCH   1   2
ATOM      2  C   UNL     1     -12.593   2.988 -24.599  1.00  0.00     0.214 A 
ATOM      3  C   UNL     1     -13.344   2.878 -25.783  1.00  0.00     0.180 A 
ATOM      4  O   UNL     1     -13.210   1.802 -26.549  1.00  0.00    -0.452 OA
ATOM      5  C   UNL     1     -11.789   1.913 -24.201  1.00  0.00     0.239 A 
ATOM      6  C   UNL     1     -12.438   0.769 -26.228  1.00  0.00     0.146 A 
ATOM      7  O   UNL     1     -11.106   2.034 -23.151  1.00  0.00    -0.285 OA
ATOM      8  C   UNL     1     -11.720   0.749 -25.003  1.00  0.00     0.111 A 
ATOM      9  C   UNL     1     -12.348  -0.300 -27.122  1.00  0.00     0.094 A 
ATOM     10  C   UNL     1     -10.951  -0.410 -24.684  1.00  0.00     0.134 A 
ATOM     11  C   UNL     1     -11.547  -1.401 -26.828  1.00  0.00     0.123 A 
ATOM     12  C   UNL     1     -10.853  -1.450 -25.616  1.00  0.00     0.093 A 
BRANCH   3  13
ATOM     13  C   UNL     1     -14.294   3.928 -26.217  1.00  0.00     0.025 A 
ATOM     14  C   UNL     1     -15.655   3.865 -25.870  1.00  0.00     0.016 A 
ATOM     15  C   UNL     1     -16.537   4.863 -26.293  1.00  0.00     0.051 A 
ATOM     16  C   UNL     1     -16.080   5.925 -27.080  1.00  0.00     0.157 A 
ATOM     17  C   UNL     1     -13.841   4.983 -27.025  1.00  0.00     0.062 A 
ATOM     18  C   UNL     1     -14.726   5.984 -27.451  1.00  0.00     0.158 A 
BRANCH  16  19
ATOM     19  O   UNL     1     -16.983   6.906 -27.484  1.00  0.00    -0.504 OA
ATOM     20  H   UNL     1     -17.031   7.812 -27.032  1.00  0.00     0.293 HD
ENDBRANCH  16  19
BRANCH  18  21
ATOM     21  O   UNL     1     -14.265   7.036 -28.241  1.00  0.00    -0.504 OA
ATOM     22  H   UNL     1     -14.193   7.980 -27.879  1.00  0.00     0.293 HD
ENDBRANCH  18  21
ENDBRANCH   3  13
BRANCH  10  23
ATOM     23  O   UNL     1     -10.292  -0.599 -23.466  1.00  0.00    -0.507 OA
ATOM     24  H   UNL     1      -9.476  -0.084 -23.168  1.00  0.00     0.293 HD
ENDBRANCH  10  23
BRANCH  11  25
ATOM     25  O   UNL     1     -11.455  -2.448 -27.742  1.00  0.00    -0.508 OA
ATOM     26  H   UNL     1     -11.611  -2.302 -28.733  1.00  0.00     0.293 HD
ENDBRANCH  11  25
ENDBRANCH   1   2
BRANCH   1  27
ATOM     27  C   UNL     1     -11.705   5.236 -24.015  1.00  0.00     0.339 C 
ATOM     28  C   UNL     1     -10.675   5.298 -22.861  1.00  0.00     0.214 C 
ATOM     29  O   UNL     1     -12.407   6.461 -24.159  1.00  0.00    -0.332 OA
ATOM     30  C   UNL     1     -11.316   5.807 -21.548  1.00  0.00     0.180 C 
ATOM     31  C   UNL     1     -13.152   6.771 -22.992  1.00  0.00     0.179 C 
ATOM     32  C   UNL     1     -12.211   7.038 -21.797  1.00  0.00     0.177 C 
BRANCH  28  33
ATOM     33  O   UNL     1      -9.560   6.085 -23.211  1.00  0.00    -0.384 OA
ATOM     34  H   UNL     1      -8.785   5.483 -23.351  1.00  0.00     0.211 HD
ENDBRANCH  28  33
BRANCH  30  35
ATOM     35  O   UNL     1     -12.093   4.789 -20.970  1.00  0.00    -0.387 OA
ATOM     36  H   UNL     1     -11.465   4.076 -20.679  1.00  0.00     0.211 HD
ENDBRANCH  30  35
BRANCH  31  37
ATOM     37  C   UNL     1     -14.041   7.990 -23.279  1.00  0.00     0.191 C 
BRANCH  37  38
ATOM     38  O   UNL     1     -13.340   8.935 -24.043  1.00  0.00    -0.394 OA
ATOM     39  H   UNL     1     -12.696   9.376 -23.430  1.00  0.00     0.210 HD
ENDBRANCH  37  38
ENDBRANCH  31  37
BRANCH  32  40
ATOM     40  O   UNL     1     -11.421   8.174 -22.048  1.00  0.00    -0.387 OA
ATOM     41  H   UNL     1     -10.477   7.869 -22.060  1.00  0.00     0.211 HD
ENDBRANCH  32  40
ENDBRANCH   1  27
TORSDOF 12
ENDMDL
MODEL 3
REMARK VINA RESULT:    -5.495      3.687      4.299
REMARK INTER + INTRA:          -9.766
REMARK INTER:                  -8.634
REMARK INTRA:                  -1.132
REMARK UNBOUND:                -1.701
REMARK SMILES O=c1c(O[C@H]2O[C@H](CO)[C@H](O)[C@@H](O)[C@@H]2O)c(-c2ccc(O)c(O)c2)oc2cc(O)cc(O)c12
REMARK SMILES IDX 4 1 3 2 16 3 25 4 2 5 26 6 1 7 33 8 27 9 31 10 28 11 30 12
REMARK SMILES IDX 17 13 18 14 19 15 20 16 24 17 22 18 21 19 23 21 32 23 29 25
REMARK SMILES IDX 5 27 14 28 6 29 12 30 7 31 10 32 15 33 13 35 8 37 9 38 11 40
REMARK H PARENT 21 20 23 22 32 24 29 26 15 34 13 36 9 39 11 41
REMARK Flexibility Score: inf
ROOT
ATOM      1  O   UNL     1     -12.456   6.319 -38.046  1.00  0.00    -0.454 OA
ENDROOT
BRANCH   1   2
ATOM      2  C   UNL     1     -13.423   5.598 -37.336  1.00  0.00     0.214 A 
ATOM      3  C   UNL     1     -13.229   5.225 -35.992  1.00  0.00     0.180 A 
ATOM      4  O   UNL     1     -14.214   4.637 -35.326  1.00  0.00    -0.452 OA
ATOM      5  C   UNL     1     -14.621   5.252 -37.971  1.00  0.00     0.239 A 
ATOM      6  C   UNL     1     -15.379   4.314 -35.878  1.00  0.00     0.146 A 
ATOM      7  O   UNL     1     -14.790   5.611 -39.165  1.00  0.00    -0.285 OA
ATOM      8  C   UNL     1     -15.626   4.561 -37.253  1.00  0.00     0.111 A 
ATOM      9  C   UNL     1     -16.357   3.723 -35.074  1.00  0.00     0.094 A 
ATOM     10  C   UNL     1     -16.874   4.142 -37.806  1.00  0.00     0.134 A 
ATOM     11  C   UNL     1     -17.593   3.371 -35.611  1.00  0.00     0.123 A 
ATOM     12  C   UNL     1     -17.847   3.585 -36.968  1.00  0.00     0.093 A 
BRANCH   3  13
ATOM     13  C   UNL     1     -11.952   5.465 -35.283  1.00  0.00     0.025 A 
ATOM     14  C   UNL     1     -11.921   6.145 -34.052  1.00  0.00     0.016 A 
ATOM     15  C   UNL     1     -10.706   6.367 -33.400  1.00  0.00     0.051 A 
ATOM     16  C   UNL     1      -9.506   5.931 -33.970  1.00  0.00     0.157 A 
ATOM     17  C   UNL     1     -10.745   5.048 -35.864  1.00  0.00     0.062 A 
ATOM     18  C   UNL     1      -9.524   5.271 -35.211  1.00  0.00     0.158 A 
BRANCH  16  19
ATOM     19  O   UNL     1      -8.310   6.165 -33.294  1.00  0.00    -0.504 OA
ATOM     20  H   UNL     1      -7.711   6.952 -33.517  1.00  0.00     0.293 HD
ENDBRANCH  16  19
BRANCH  18  21
ATOM     21  O   UNL     1      -8.331   4.839 -35.789  1.00  0.00    -0.504 OA
ATOM     22  H   UNL     1      -7.431   5.163 -35.454  1.00  0.00     0.293 HD
ENDBRANCH  18  21
ENDBRANCH   3  13
BRANCH  10  23
ATOM     23  O   UNL     1     -17.194   4.228 -39.165  1.00  0.00    -0.507 OA
ATOM     24  H   UNL     1     -16.556   4.525 -39.888  1.00  0.00     0.293 HD
ENDBRANCH  10  23
BRANCH  11  25
ATOM     25  O   UNL     1     -18.562   2.802 -34.788  1.00  0.00    -0.508 OA
ATOM     26  H   UNL     1     -19.029   1.937 -35.038  1.00  0.00     0.293 HD
ENDBRANCH  11  25
ENDBRANCH   1   2
BRANCH   1  27
ATOM     27  C   UNL     1     -12.433   7.751 -38.091  1.00  0.00     0.339 C 
ATOM     28  C   UNL     1     -12.957   8.260 -39.456  1.00  0.00     0.214 C 
ATOM     29  O   UNL     1     -11.131   8.242 -37.812  1.00  0.00    -0.332 OA
ATOM     30  C   UNL     1     -11.939   8.005 -40.591  1.00  0.00     0.180 C 
ATOM     31  C   UNL     1     -10.192   7.796 -38.777  1.00  0.00     0.179 C 
ATOM     32  C   UNL     1     -10.509   8.394 -40.166  1.00  0.00     0.177 C 
BRANCH  28  33
ATOM     33  O   UNL     1     -13.307   9.623 -39.395  1.00  0.00    -0.384 OA
ATOM     34  H   UNL     1     -14.117   9.713 -38.829  1.00  0.00     0.211 HD
ENDBRANCH  28  33
BRANCH  30  35
ATOM     35  O   UNL     1     -11.952   6.646 -40.949  1.00  0.00    -0.387 OA
ATOM     36  H   UNL     1     -12.897   6.343 -40.898  1.00  0.00     0.211 HD
ENDBRANCH  30  35
BRANCH  31  37
ATOM     37  C   UNL     1      -8.781   8.188 -38.315  1.00  0.00     0.191 C 
BRANCH  37  38
ATOM     38  O   UNL     1      -8.553   7.739 -37.006  1.00  0.00    -0.394 OA
ATOM     39  H   UNL     1      -9.440   7.688 -36.563  1.00  0.00     0.210 HD
ENDBRANCH  37  38
ENDBRANCH  31  37
BRANCH  32  40
ATOM     40  O   UNL     1     -10.373   9.793 -40.131  1.00  0.00    -0.387 OA
ATOM     41  H   UNL     1     -11.044  10.131 -39.481  1.00  0.00     0.211 HD
ENDBRANCH  32  40
ENDBRANCH   1  27
TORSDOF 12
ENDMDL
MODEL 4
REMARK VINA RESULT:    -5.480      3.500      4.379
REMARK INTER + INTRA:          -9.743
REMARK INTER:                  -8.310
REMARK INTRA:                  -1.433
REMARK UNBOUND:                -1.701
REMARK SMILES O=c1c(O[C@H]2O[C@H](CO)[C@H](O)[C@@H](O)[C@@H]2O)c(-c2ccc(O)c(O)c2)oc2cc(O)cc(O)c12
REMARK SMILES IDX 4 1 3 2 16 3 25 4 2 5 26 6 1 7 33 8 27 9 31 10 28 11 30 12
REMARK SMILES IDX 17 13 18 14 19 15 20 16 24 17 22 18 21 19 23 21 32 23 29 25
REMARK SMILES IDX 5 27 14 28 6 29 12 30 7 31 10 32 15 33 13 35 8 37 9 38 11 40
REMARK H PARENT 21 20 23 22 32 24 29 26 15 34 13 36 9 39 11 41
REMARK Flexibility Score: inf
ROOT
ATOM      1  O   UNL     1     -13.021   6.553 -37.102  1.00  0.00    -0.454 OA
ENDROOT
BRANCH   1   2
ATOM      2  C   UNL     1     -13.789   5.469 -36.659  1.00  0.00     0.214 A 
ATOM      3  C   UNL     1     -13.406   4.697 -35.547  1.00  0.00     0.180 A 
ATOM      4  O   UNL     1     -14.216   3.747 -35.097  1.00  0.00    -0.452 OA
ATOM      5  C   UNL     1     -14.976   5.153 -37.330  1.00  0.00     0.239 A 
ATOM      6  C   UNL     1     -15.366   3.430 -35.682  1.00  0.00     0.146 A 
ATOM      7  O   UNL     1     -15.317   5.865 -38.310  1.00  0.00    -0.285 OA
ATOM      8  C   UNL     1     -15.785   4.088 -36.868  1.00  0.00     0.111 A 
ATOM      9  C   UNL     1     -16.155   2.432 -35.106  1.00  0.00     0.094 A 
ATOM     10  C   UNL     1     -17.001   3.668 -37.485  1.00  0.00     0.134 A 
ATOM     11  C   UNL     1     -17.369   2.070 -35.684  1.00  0.00     0.123 A 
ATOM     12  C   UNL     1     -17.788   2.689 -36.865  1.00  0.00     0.093 A 
BRANCH   3  13
ATOM     13  C   UNL     1     -12.117   4.904 -34.848  1.00  0.00     0.025 A 
ATOM     14  C   UNL     1     -11.956   5.942 -33.914  1.00  0.00     0.016 A 
ATOM     15  C   UNL     1     -10.730   6.126 -33.268  1.00  0.00     0.051 A 
ATOM     16  C   UNL     1      -9.647   5.290 -33.556  1.00  0.00     0.157 A 
ATOM     17  C   UNL     1     -11.022   4.081 -35.152  1.00  0.00     0.062 A 
ATOM     18  C   UNL     1      -9.791   4.264 -34.505  1.00  0.00     0.158 A 
BRANCH  16  19
ATOM     19  O   UNL     1      -8.438   5.496 -32.894  1.00  0.00    -0.504 OA
ATOM     20  H   UNL     1      -7.547   5.253 -33.312  1.00  0.00     0.293 HD
ENDBRANCH  16  19
BRANCH  18  21
ATOM     21  O   UNL     1      -8.713   3.431 -34.802  1.00  0.00    -0.504 OA
ATOM     22  H   UNL     1      -8.567   3.064 -35.735  1.00  0.00     0.293 HD
ENDBRANCH  18  21
ENDBRANCH   3  13
BRANCH  10  23
ATOM     23  O   UNL     1     -17.465   4.157 -38.710  1.00  0.00    -0.507 OA
ATOM     24  H   UNL     1     -17.130   3.857 -39.613  1.00  0.00     0.293 HD
ENDBRANCH  10  23
BRANCH  11  25
ATOM     25  O   UNL     1     -18.151   1.087 -35.082  1.00  0.00    -0.508 OA
ATOM     26  H   UNL     1     -17.779   0.483 -34.358  1.00  0.00     0.293 HD
ENDBRANCH  11  25
ENDBRANCH   1   2
BRANCH   1  27
ATOM     27  C   UNL     1     -11.864   6.397 -37.932  1.00  0.00     0.339 C 
ATOM     28  C   UNL     1     -10.820   7.497 -37.620  1.00  0.00     0.214 C 
ATOM     29  O   UNL     1     -12.227   6.391 -39.304  1.00  0.00    -0.332 OA
ATOM     30  C   UNL     1     -11.267   8.878 -38.153  1.00  0.00     0.180 C 
ATOM     31  C   UNL     1     -12.831   7.616 -39.686  1.00  0.00     0.179 C 
ATOM     32  C   UNL     1     -11.817   8.778 -39.590  1.00  0.00     0.177 C 
BRANCH  28  33
ATOM     33  O   UNL     1      -9.550   7.155 -38.122  1.00  0.00    -0.384 OA
ATOM     34  H   UNL     1      -9.487   6.166 -38.168  1.00  0.00     0.211 HD
ENDBRANCH  28  33
BRANCH  30  35
ATOM     35  O   UNL     1     -12.266   9.411 -37.320  1.00  0.00    -0.387 OA
ATOM     36  H   UNL     1     -12.161  10.399 -37.339  1.00  0.00     0.211 HD
ENDBRANCH  30  35
BRANCH  31  37
ATOM     37  C   UNL     1     -13.378   7.476 -41.114  1.00  0.00     0.191 C 
BRANCH  37  38
ATOM     38  O   UNL     1     -14.504   6.640 -41.125  1.00  0.00    -0.394 OA
ATOM     39  H   UNL     1     -14.944   6.763 -42.006  1.00  0.00     0.210 HD
ENDBRANCH  37  38
ENDBRANCH  31  37
BRANCH  32  40
ATOM     40  O   UNL     1     -10.767   8.579 -40.503  1.00  0.00    -0.387 OA
ATOM     41  H   UNL     1     -10.844   9.293 -41.189  1.00  0.00     0.211 HD
ENDBRANCH  32  40
ENDBRANCH   1  27
TORSDOF 12
ENDMDL
MODEL 5
REMARK VINA RESULT:    -5.384     13.106     15.159
REMARK INTER + INTRA:          -9.602
REMARK INTER:                  -8.061
REMARK INTRA:                  -1.541
REMARK UNBOUND:                -1.701
REMARK SMILES O=c1c(O[C@H]2O[C@H](CO)[C@H](O)[C@@H](O)[C@@H]2O)c(-c2ccc(O)c(O)c2)oc2cc(O)cc(O)c12
REMARK SMILES IDX 4 1 3 2 16 3 25 4 2 5 26 6 1 7 33 8 27 9 31 10 28 11 30 12
REMARK SMILES IDX 17 13 18 14 19 15 20 16 24 17 22 18 21 19 23 21 32 23 29 25
REMARK SMILES IDX 5 27 14 28 6 29 12 30 7 31 10 32 15 33 13 35 8 37 9 38 11 40
REMARK H PARENT 21 20 23 22 32 24 29 26 15 34 13 36 9 39 11 41
REMARK Flexibility Score: inf
ROOT
ATOM      1  O   UNL     1      -8.212   2.802 -25.013  1.00  0.00    -0.454 OA
ENDROOT
BRANCH   1   2
ATOM      2  C   UNL     1      -7.589   3.981 -25.441  1.00  0.00     0.214 A 
ATOM      3  C   UNL     1      -8.157   5.247 -25.202  1.00  0.00     0.180 A 
ATOM      4  O   UNL     1      -7.482   6.341 -25.530  1.00  0.00    -0.452 OA
ATOM      5  C   UNL     1      -6.363   3.902 -26.111  1.00  0.00     0.239 A 
ATOM      6  C   UNL     1      -6.302   6.317 -26.141  1.00  0.00     0.146 A 
ATOM      7  O   UNL     1      -5.856   2.765 -26.298  1.00  0.00    -0.285 OA
ATOM      8  C   UNL     1      -5.699   5.087 -26.511  1.00  0.00     0.111 A 
ATOM      9  C   UNL     1      -5.667   7.531 -26.413  1.00  0.00     0.094 A 
ATOM     10  C   UNL     1      -4.459   5.122 -27.215  1.00  0.00     0.134 A 
ATOM     11  C   UNL     1      -4.428   7.552 -27.048  1.00  0.00     0.123 A 
ATOM     12  C   UNL     1      -3.829   6.352 -27.442  1.00  0.00     0.093 A 
BRANCH   3  13
ATOM     13  C   UNL     1      -9.497   5.409 -24.592  1.00  0.00     0.025 A 
ATOM     14  C   UNL     1     -10.650   5.512 -25.389  1.00  0.00     0.016 A 
ATOM     15  C   UNL     1     -11.905   5.670 -24.796  1.00  0.00     0.051 A 
ATOM     16  C   UNL     1     -12.026   5.745 -23.405  1.00  0.00     0.157 A 
ATOM     17  C   UNL     1      -9.617   5.506 -23.197  1.00  0.00     0.062 A 
ATOM     18  C   UNL     1     -10.876   5.666 -22.601  1.00  0.00     0.158 A 
BRANCH  16  19
ATOM     19  O   UNL     1     -13.292   5.900 -22.843  1.00  0.00    -0.504 OA
ATOM     20  H   UNL     1     -13.711   6.813 -22.705  1.00  0.00     0.293 HD
ENDBRANCH  16  19
BRANCH  18  21
ATOM     21  O   UNL     1     -10.988   5.746 -21.213  1.00  0.00    -0.504 OA
ATOM     22  H   UNL     1     -10.511   6.465 -20.682  1.00  0.00     0.293 HD
ENDBRANCH  18  21
ENDBRANCH   3  13
BRANCH  10  23
ATOM     23  O   UNL     1      -3.821   3.989 -27.730  1.00  0.00    -0.507 OA
ATOM     24  H   UNL     1      -3.123   4.004 -28.459  1.00  0.00     0.293 HD
ENDBRANCH  10  23
BRANCH  11  25
ATOM     25  O   UNL     1      -3.801   8.771 -27.292  1.00  0.00    -0.508 OA
ATOM     26  H   UNL     1      -4.273   9.522 -27.784  1.00  0.00     0.293 HD
ENDBRANCH  11  25
ENDBRANCH   1   2
BRANCH   1  27
ATOM     27  C   UNL     1      -8.323   2.441 -23.631  1.00  0.00     0.339 C 
ATOM     28  C   UNL     1      -7.094   1.612 -23.186  1.00  0.00     0.214 C 
ATOM     29  O   UNL     1      -9.539   1.750 -23.389  1.00  0.00    -0.332 OA
ATOM     30  C   UNL     1      -7.125   0.181 -23.773  1.00  0.00     0.180 C 
ATOM     31  C   UNL     1      -9.602   0.540 -24.126  1.00  0.00     0.179 C 
ATOM     32  C   UNL     1      -8.524  -0.454 -23.638  1.00  0.00     0.177 C 
BRANCH  28  33
ATOM     33  O   UNL     1      -6.982   1.574 -21.783  1.00  0.00    -0.384 OA
ATOM     34  H   UNL     1      -7.882   1.719 -21.393  1.00  0.00     0.211 HD
ENDBRANCH  28  33
BRANCH  30  35
ATOM     35  O   UNL     1      -6.770   0.215 -25.132  1.00  0.00    -0.387 OA
ATOM     36  H   UNL     1      -7.089  -0.635 -25.535  1.00  0.00     0.211 HD
ENDBRANCH  30  35
BRANCH  31  37
ATOM     37  C   UNL     1     -11.010  -0.056 -23.980  1.00  0.00     0.191 C 
BRANCH  37  38
ATOM     38  O   UNL     1     -11.486   0.128 -22.674  1.00  0.00    -0.394 OA
ATOM     39  H   UNL     1     -11.584  -0.775 -22.275  1.00  0.00     0.210 HD
ENDBRANCH  37  38
ENDBRANCH  31  37
BRANCH  32  40
ATOM     40  O   UNL     1      -8.770  -0.816 -22.302  1.00  0.00    -0.387 OA
ATOM     41  H   UNL     1      -8.341  -0.124 -21.734  1.00  0.00     0.211 HD
ENDBRANCH  32  40
ENDBRANCH   1  27
TORSDOF 12
ENDMDL
MODEL 6
REMARK VINA RESULT:    -5.373      5.486      8.504
REMARK INTER + INTRA:          -9.587
REMARK INTER:                  -8.132
REMARK INTRA:                  -1.454
REMARK UNBOUND:                -1.701
REMARK SMILES O=c1c(O[C@H]2O[C@H](CO)[C@H](O)[C@@H](O)[C@@H]2O)c(-c2ccc(O)c(O)c2)oc2cc(O)cc(O)c12
REMARK SMILES IDX 4 1 3 2 16 3 25 4 2 5 26 6 1 7 33 8 27 9 31 10 28 11 30 12
REMARK SMILES IDX 17 13 18 14 19 15 20 16 24 17 22 18 21 19 23 21 32 23 29 25
REMARK SMILES IDX 5 27 14 28 6 29 12 30 7 31 10 32 15 33 13 35 8 37 9 38 11 40
REMARK H PARENT 21 20 23 22 32 24 29 26 15 34 13 36 9 39 11 41
REMARK Flexibility Score: inf
ROOT
ATOM      1  O   UNL     1     -16.640   3.097 -36.431  1.00  0.00    -0.454 OA
ENDROOT
BRANCH   1   2
ATOM      2  C   UNL     1     -17.305   4.223 -35.930  1.00  0.00     0.214 A 
ATOM      3  C   UNL     1     -16.799   5.523 -36.111  1.00  0.00     0.180 A 
ATOM      4  O   UNL     1     -17.515   6.568 -35.714  1.00  0.00    -0.452 OA
ATOM      5  C   UNL     1     -18.514   4.053 -35.244  1.00  0.00     0.239 A 
ATOM      6  C   UNL     1     -18.680   6.458 -35.085  1.00  0.00     0.146 A 
ATOM      7  O   UNL     1     -18.966   2.887 -35.109  1.00  0.00    -0.285 OA
ATOM      8  C   UNL     1     -19.221   5.184 -34.770  1.00  0.00     0.111 A 
ATOM      9  C   UNL     1     -19.363   7.626 -34.737  1.00  0.00     0.094 A 
ATOM     10  C   UNL     1     -20.448   5.126 -34.043  1.00  0.00     0.134 A 
ATOM     11  C   UNL     1     -20.589   7.558 -34.080  1.00  0.00     0.123 A 
ATOM     12  C   UNL     1     -21.126   6.313 -33.740  1.00  0.00     0.093 A 
BRANCH   3  13
ATOM     13  C   UNL     1     -15.480   5.777 -36.735  1.00  0.00     0.025 A 
ATOM     14  C   UNL     1     -14.320   5.914 -35.952  1.00  0.00     0.016 A 
ATOM     15  C   UNL     1     -13.085   6.160 -36.558  1.00  0.00     0.051 A 
ATOM     16  C   UNL     1     -12.992   6.288 -37.947  1.00  0.00     0.157 A 
ATOM     17  C   UNL     1     -15.388   5.929 -38.127  1.00  0.00     0.062 A 
ATOM     18  C   UNL     1     -14.149   6.176 -38.736  1.00  0.00     0.158 A 
BRANCH  16  19
ATOM     19  O   UNL     1     -11.746   6.530 -38.522  1.00  0.00    -0.504 OA
ATOM     20  H   UNL     1     -11.009   7.018 -38.025  1.00  0.00     0.293 HD
ENDBRANCH  16  19
BRANCH  18  21
ATOM     21  O   UNL     1     -14.065   6.310 -40.122  1.00  0.00    -0.504 OA
ATOM     22  H   UNL     1     -14.495   5.639 -40.747  1.00  0.00     0.293 HD
ENDBRANCH  18  21
ENDBRANCH   3  13
BRANCH  10  23
ATOM     23  O   UNL     1     -21.025   3.941 -33.578  1.00  0.00    -0.507 OA
ATOM     24  H   UNL     1     -20.887   3.032 -33.996  1.00  0.00     0.293 HD
ENDBRANCH  10  23
BRANCH  11  25
ATOM     25  O   UNL     1     -21.264   8.734 -33.760  1.00  0.00    -0.508 OA
ATOM     26  H   UNL     1     -20.889   9.394 -33.089  1.00  0.00     0.293 HD
ENDBRANCH  11  25
ENDBRANCH   1   2
BRANCH   1  27
ATOM     27  C   UNL     1     -16.488   2.847 -37.833  1.00  0.00     0.339 C 
ATOM     28  C   UNL     1     -17.730   2.112 -38.392  1.00  0.00     0.214 C 
ATOM     29  O   UNL     1     -15.292   2.125 -38.087  1.00  0.00    -0.332 OA
ATOM     30  C   UNL     1     -17.781   0.638 -37.927  1.00  0.00     0.180 C 
ATOM     31  C   UNL     1     -15.308   0.856 -37.453  1.00  0.00     0.179 C 
ATOM     32  C   UNL     1     -16.405  -0.045 -38.062  1.00  0.00     0.177 C 
BRANCH  28  33
ATOM     33  O   UNL     1     -17.786   2.194 -39.797  1.00  0.00    -0.384 OA
ATOM     34  H   UNL     1     -17.267   1.439 -40.176  1.00  0.00     0.211 HD
ENDBRANCH  28  33
BRANCH  30  35
ATOM     35  O   UNL     1     -18.189   0.575 -36.584  1.00  0.00    -0.387 OA
ATOM     36  H   UNL     1     -17.417   0.232 -36.062  1.00  0.00     0.211 HD
ENDBRANCH  30  35
BRANCH  31  37
ATOM     37  C   UNL     1     -13.921   0.213 -37.595  1.00  0.00     0.191 C 
BRANCH  37  38
ATOM     38  O   UNL     1     -13.359   0.534 -38.839  1.00  0.00    -0.394 OA
ATOM     39  H   UNL     1     -12.973  -0.305 -39.204  1.00  0.00     0.210 HD
ENDBRANCH  37  38
ENDBRANCH  31  37
BRANCH  32  40
ATOM     40  O   UNL     1     -16.119  -0.307 -39.413  1.00  0.00    -0.387 OA
ATOM     41  H   UNL     1     -16.222  -1.285 -39.544  1.00  0.00     0.211 HD
ENDBRANCH  32  40
ENDBRANCH   1  27
TORSDOF 12
ENDMDL
MODEL 7
REMARK VINA RESULT:    -5.341      3.426      4.746
REMARK INTER + INTRA:          -9.540
REMARK INTER:                  -7.947
REMARK INTRA:                  -1.593
REMARK UNBOUND:                -1.701
REMARK SMILES O=c1c(O[C@H]2O[C@H](CO)[C@H](O)[C@@H](O)[C@@H]2O)c(-c2ccc(O)c(O)c2)oc2cc(O)cc(O)c12
REMARK SMILES IDX 4 1 3 2 16 3 25 4 2 5 26 6 1 7 33 8 27 9 31 10 28 11 30 12
REMARK SMILES IDX 17 13 18 14 19 15 20 16 24 17 22 18 21 19 23 21 32 23 29 25
REMARK SMILES IDX 5 27 14 28 6 29 12 30 7 31 10 32 15 33 13 35 8 37 9 38 11 40
REMARK H PARENT 21 20 23 22 32 24 29 26 15 34 13 36 9 39 11 41
REMARK Flexibility Score: inf
ROOT
ATOM      1  O   UNL     1     -13.404   5.387 -37.810  1.00  0.00    -0.454 OA
ENDROOT
BRANCH   1   2
ATOM      2  C   UNL     1     -14.412   4.903 -36.967  1.00  0.00     0.214 A 
ATOM      3  C   UNL     1     -14.198   4.721 -35.587  1.00  0.00     0.180 A 
ATOM      4  O   UNL     1     -15.211   4.363 -34.808  1.00  0.00    -0.452 OA
ATOM      5  C   UNL     1     -15.669   4.606 -37.505  1.00  0.00     0.239 A 
ATOM      6  C   UNL     1     -16.429   4.098 -35.268  1.00  0.00     0.146 A 
ATOM      7  O   UNL     1     -15.852   4.794 -38.736  1.00  0.00    -0.285 OA
ATOM      8  C   UNL     1     -16.711   4.158 -36.658  1.00  0.00     0.111 A 
ATOM      9  C   UNL     1     -17.429   3.758 -34.354  1.00  0.00     0.094 A 
ATOM     10  C   UNL     1     -18.022   3.809 -37.103  1.00  0.00     0.134 A 
ATOM     11  C   UNL     1     -18.720   3.476 -34.793  1.00  0.00     0.123 A 
ATOM     12  C   UNL     1     -19.011   3.506 -36.159  1.00  0.00     0.093 A 
BRANCH   3  13
ATOM     13  C   UNL     1     -12.871   4.916 -34.961  1.00  0.00     0.025 A 
ATOM     14  C   UNL     1     -11.852   3.959 -35.108  1.00  0.00     0.016 A 
ATOM     15  C   UNL     1     -10.607   4.156 -34.504  1.00  0.00     0.051 A 
ATOM     16  C   UNL     1     -10.367   5.299 -33.736  1.00  0.00     0.157 A 
ATOM     17  C   UNL     1     -12.635   6.051 -34.171  1.00  0.00     0.062 A 
ATOM     18  C   UNL     1     -11.386   6.250 -33.564  1.00  0.00     0.158 A 
BRANCH  16  19
ATOM     19  O   UNL     1      -9.114   5.470 -33.149  1.00  0.00    -0.504 OA
ATOM     20  H   UNL     1      -8.836   6.344 -32.717  1.00  0.00     0.293 HD
ENDBRANCH  16  19
BRANCH  18  21
ATOM     21  O   UNL     1     -11.156   7.389 -32.793  1.00  0.00    -0.504 OA
ATOM     22  H   UNL     1     -10.415   8.042 -33.019  1.00  0.00     0.293 HD
ENDBRANCH  18  21
ENDBRANCH   3  13
BRANCH  10  23
ATOM     23  O   UNL     1     -18.393   3.721 -38.447  1.00  0.00    -0.507 OA
ATOM     24  H   UNL     1     -19.337   3.822 -38.791  1.00  0.00     0.293 HD
ENDBRANCH  10  23
BRANCH  11  25
ATOM     25  O   UNL     1     -19.708   3.158 -33.863  1.00  0.00    -0.508 OA
ATOM     26  H   UNL     1     -20.669   3.456 -33.987  1.00  0.00     0.293 HD
ENDBRANCH  11  25
ENDBRANCH   1   2
BRANCH   1  27
ATOM     27  C   UNL     1     -13.091   6.780 -37.924  1.00  0.00     0.339 C 
ATOM     28  C   UNL     1     -13.350   7.279 -39.367  1.00  0.00     0.214 C 
ATOM     29  O   UNL     1     -11.756   7.030 -37.514  1.00  0.00    -0.332 OA
ATOM     30  C   UNL     1     -12.285   6.750 -40.355  1.00  0.00     0.180 C 
ATOM     31  C   UNL     1     -10.825   6.342 -38.334  1.00  0.00     0.179 C 
ATOM     32  C   UNL     1     -10.862   6.886 -39.779  1.00  0.00     0.177 C 
BRANCH  28  33
ATOM     33  O   UNL     1     -13.425   8.684 -39.418  1.00  0.00    -0.384 OA
ATOM     34  H   UNL     1     -13.069   8.985 -40.293  1.00  0.00     0.211 HD
ENDBRANCH  28  33
BRANCH  30  35
ATOM     35  O   UNL     1     -12.531   5.396 -40.642  1.00  0.00    -0.387 OA
ATOM     36  H   UNL     1     -11.873   4.866 -40.121  1.00  0.00     0.211 HD
ENDBRANCH  30  35
BRANCH  31  37
ATOM     37  C   UNL     1      -9.423   6.488 -37.723  1.00  0.00     0.191 C 
BRANCH  37  38
ATOM     38  O   UNL     1      -9.280   7.748 -37.124  1.00  0.00    -0.394 OA
ATOM     39  H   UNL     1      -9.302   8.417 -37.856  1.00  0.00     0.210 HD
ENDBRANCH  37  38
ENDBRANCH  31  37
BRANCH  32  40
ATOM     40  O   UNL     1     -10.454   8.232 -39.798  1.00  0.00    -0.387 OA
ATOM     41  H   UNL     1     -11.278   8.782 -39.742  1.00  0.00     0.211 HD
ENDBRANCH  32  40
ENDBRANCH   1  27
TORSDOF 12
ENDMDL
MODEL 8
REMARK VINA RESULT:    -5.286     11.048     14.183
REMARK INTER + INTRA:          -9.459
REMARK INTER:                  -7.723
REMARK INTRA:                  -1.737
REMARK UNBOUND:                -1.701
REMARK SMILES O=c1c(O[C@H]2O[C@H](CO)[C@H](O)[C@@H](O)[C@@H]2O)c(-c2ccc(O)c(O)c2)oc2cc(O)cc(O)c12
REMARK SMILES IDX 4 1 3 2 16 3 25 4 2 5 26 6 1 7 33 8 27 9 31 10 28 11 30 12
REMARK SMILES IDX 17 13 18 14 19 15 20 16 24 17 22 18 21 19 23 21 32 23 29 25
REMARK SMILES IDX 5 27 14 28 6 29 12 30 7 31 10 32 15 33 13 35 8 37 9 38 11 40
REMARK H PARENT 21 20 23 22 32 24 29 26 15 34 13 36 9 39 11 41
REMARK Flexibility Score: inf
ROOT
ATOM      1  O   UNL     1     -11.471   4.715 -23.629  1.00  0.00    -0.454 OA
ENDROOT
BRANCH   1   2
ATOM      2  C   UNL     1     -10.505   4.394 -24.591  1.00  0.00     0.214 A 
ATOM      3  C   UNL     1     -10.815   4.343 -25.962  1.00  0.00     0.180 A 
ATOM      4  O   UNL     1      -9.847   4.141 -26.847  1.00  0.00    -0.452 OA
ATOM      5  C   UNL     1      -9.193   4.132 -24.180  1.00  0.00     0.239 A 
ATOM      6  C   UNL     1      -8.582   3.917 -26.508  1.00  0.00     0.146 A 
ATOM      7  O   UNL     1      -8.925   4.203 -22.953  1.00  0.00    -0.285 OA
ATOM      8  C   UNL     1      -8.195   3.850 -25.144  1.00  0.00     0.111 A 
ATOM      9  C   UNL     1      -7.639   3.745 -27.524  1.00  0.00     0.094 A 
ATOM     10  C   UNL     1      -6.834   3.550 -24.836  1.00  0.00     0.134 A 
ATOM     11  C   UNL     1      -6.302   3.511 -27.213  1.00  0.00     0.123 A 
ATOM     12  C   UNL     1      -5.906   3.418 -25.876  1.00  0.00     0.093 A 
BRANCH   3  13
ATOM     13  C   UNL     1     -12.198   4.508 -26.466  1.00  0.00     0.025 A 
ATOM     14  C   UNL     1     -13.129   3.457 -26.389  1.00  0.00     0.016 A 
ATOM     15  C   UNL     1     -14.428   3.629 -26.875  1.00  0.00     0.051 A 
ATOM     16  C   UNL     1     -14.811   4.841 -27.458  1.00  0.00     0.157 A 
ATOM     17  C   UNL     1     -12.578   5.716 -27.071  1.00  0.00     0.062 A 
ATOM     18  C   UNL     1     -13.881   5.889 -27.560  1.00  0.00     0.158 A 
BRANCH  16  19
ATOM     19  O   UNL     1     -16.114   4.982 -27.930  1.00  0.00    -0.504 OA
ATOM     20  H   UNL     1     -16.757   5.662 -27.540  1.00  0.00     0.293 HD
ENDBRANCH  16  19
BRANCH  18  21
ATOM     21  O   UNL     1     -14.254   7.098 -28.146  1.00  0.00    -0.504 OA
ATOM     22  H   UNL     1     -14.835   7.768 -27.657  1.00  0.00     0.293 HD
ENDBRANCH  18  21
ENDBRANCH   3  13
BRANCH  10  23
ATOM     23  O   UNL     1      -6.353   3.348 -23.539  1.00  0.00    -0.507 OA
ATOM     24  H   UNL     1      -6.587   2.560 -22.955  1.00  0.00     0.293 HD
ENDBRANCH  10  23
BRANCH  11  25
ATOM     25  O   UNL     1      -5.373   3.364 -28.241  1.00  0.00    -0.508 OA
ATOM     26  H   UNL     1      -4.591   2.724 -28.161  1.00  0.00     0.293 HD
ENDBRANCH  11  25
ENDBRANCH   1   2
BRANCH   1  27
ATOM     27  C   UNL     1     -11.759   6.062 -23.238  1.00  0.00     0.339 C 
ATOM     28  C   UNL     1     -11.618   6.225 -21.705  1.00  0.00     0.214 C 
ATOM     29  O   UNL     1     -13.046   6.452 -23.691  1.00  0.00    -0.332 OA
ATOM     30  C   UNL     1     -12.780   5.541 -20.947  1.00  0.00     0.180 C 
ATOM     31  C   UNL     1     -14.063   5.644 -23.121  1.00  0.00     0.179 C 
ATOM     32  C   UNL     1     -14.142   5.861 -21.594  1.00  0.00     0.177 C 
BRANCH  28  33
ATOM     33  O   UNL     1     -11.514   7.581 -21.341  1.00  0.00    -0.384 OA
ATOM     34  H   UNL     1     -12.061   8.117 -21.971  1.00  0.00     0.211 HD
ENDBRANCH  28  33
BRANCH  30  35
ATOM     35  O   UNL     1     -12.594   4.148 -20.945  1.00  0.00    -0.387 OA
ATOM     36  H   UNL     1     -11.665   3.981 -20.634  1.00  0.00     0.211 HD
ENDBRANCH  30  35
BRANCH  31  37
ATOM     37  C   UNL     1     -15.401   5.979 -23.798  1.00  0.00     0.191 C 
BRANCH  37  38
ATOM     38  O   UNL     1     -15.391   7.299 -24.272  1.00  0.00    -0.394 OA
ATOM     39  H   UNL     1     -14.591   7.738 -23.880  1.00  0.00     0.210 HD
ENDBRANCH  37  38
ENDBRANCH  31  37
BRANCH  32  40
ATOM     40  O   UNL     1     -14.517   7.186 -21.313  1.00  0.00    -0.387 OA
ATOM     41  H   UNL     1     -15.509   7.215 -21.338  1.00  0.00     0.211 HD
ENDBRANCH  32  40
ENDBRANCH   1  27
TORSDOF 12
ENDMDL
MODEL 9
REMARK VINA RESULT:    -5.260     11.355     14.493
REMARK INTER + INTRA:          -9.421
REMARK INTER:                  -8.044
REMARK INTRA:                  -1.377
REMARK UNBOUND:                -1.701
REMARK SMILES O=c1c(O[C@H]2O[C@H](CO)[C@H](O)[C@@H](O)[C@@H]2O)c(-c2ccc(O)c(O)c2)oc2cc(O)cc(O)c12
REMARK SMILES IDX 4 1 3 2 16 3 25 4 2 5 26 6 1 7 33 8 27 9 31 10 28 11 30 12
REMARK SMILES IDX 17 13 18 14 19 15 20 16 24 17 22 18 21 19 23 21 32 23 29 25
REMARK SMILES IDX 5 27 14 28 6 29 12 30 7 31 10 32 15 33 13 35 8 37 9 38 11 40
REMARK H PARENT 21 20 23 22 32 24 29 26 15 34 13 36 9 39 11 41
REMARK Flexibility Score: inf
ROOT
ATOM      1  O   UNL     1     -12.990   5.766 -23.464  1.00  0.00    -0.454 OA
ENDROOT
BRANCH   1   2
ATOM      2  C   UNL     1     -11.963   5.167 -24.204  1.00  0.00     0.214 A 
ATOM      3  C   UNL     1     -12.117   4.859 -25.569  1.00  0.00     0.180 A 
ATOM      4  O   UNL     1     -11.083   4.391 -26.257  1.00  0.00    -0.452 OA
ATOM      5  C   UNL     1     -10.745   4.882 -23.577  1.00  0.00     0.239 A 
ATOM      6  C   UNL     1      -9.900   4.132 -25.712  1.00  0.00     0.146 A 
ATOM      7  O   UNL     1     -10.613   5.184 -22.362  1.00  0.00    -0.285 OA
ATOM      8  C   UNL     1      -9.682   4.318 -24.322  1.00  0.00     0.111 A 
ATOM      9  C   UNL     1      -8.872   3.670 -26.537  1.00  0.00     0.094 A 
ATOM     10  C   UNL     1      -8.408   3.970 -23.780  1.00  0.00     0.134 A 
ATOM     11  C   UNL     1      -7.615   3.389 -26.009  1.00  0.00     0.123 A 
ATOM     12  C   UNL     1      -7.388   3.543 -24.638  1.00  0.00     0.093 A 
BRANCH   3  13
ATOM     13  C   UNL     1     -13.406   5.036 -26.277  1.00  0.00     0.025 A 
ATOM     14  C   UNL     1     -13.582   6.067 -27.216  1.00  0.00     0.016 A 
ATOM     15  C   UNL     1     -14.807   6.223 -27.871  1.00  0.00     0.051 A 
ATOM     16  C   UNL     1     -15.874   5.365 -27.588  1.00  0.00     0.157 A 
ATOM     17  C   UNL     1     -14.485   4.190 -25.979  1.00  0.00     0.062 A 
ATOM     18  C   UNL     1     -15.714   4.345 -26.635  1.00  0.00     0.158 A 
BRANCH  16  19
ATOM     19  O   UNL     1     -17.082   5.543 -28.260  1.00  0.00    -0.504 OA
ATOM     20  H   UNL     1     -17.697   6.325 -28.063  1.00  0.00     0.293 HD
ENDBRANCH  16  19
BRANCH  18  21
ATOM     21  O   UNL     1     -16.776   3.490 -26.343  1.00  0.00    -0.504 OA
ATOM     22  H   UNL     1     -17.461   3.717 -25.631  1.00  0.00     0.293 HD
ENDBRANCH  18  21
ENDBRANCH   3  13
BRANCH  10  23
ATOM     23  O   UNL     1      -8.104   4.002 -22.416  1.00  0.00    -0.507 OA
ATOM     24  H   UNL     1      -7.883   4.838 -21.896  1.00  0.00     0.293 HD
ENDBRANCH  10  23
BRANCH  11  25
ATOM     25  O   UNL     1      -6.597   2.948 -26.852  1.00  0.00    -0.508 OA
ATOM     26  H   UNL     1      -6.178   2.032 -26.744  1.00  0.00     0.293 HD
ENDBRANCH  11  25
ENDBRANCH   1   2
BRANCH   1  27
ATOM     27  C   UNL     1     -13.579   7.019 -23.827  1.00  0.00     0.339 C 
ATOM     28  C   UNL     1     -12.609   8.186 -23.520  1.00  0.00     0.214 C 
ATOM     29  O   UNL     1     -14.830   7.193 -23.180  1.00  0.00    -0.332 OA
ATOM     30  C   UNL     1     -12.493   8.449 -22.000  1.00  0.00     0.180 C 
ATOM     31  C   UNL     1     -14.685   7.212 -21.769  1.00  0.00     0.179 C 
ATOM     32  C   UNL     1     -13.877   8.450 -21.320  1.00  0.00     0.177 C 
BRANCH  28  33
ATOM     33  O   UNL     1     -12.984   9.359 -24.203  1.00  0.00    -0.384 OA
ATOM     34  H   UNL     1     -13.714   9.797 -23.694  1.00  0.00     0.211 HD
ENDBRANCH  28  33
BRANCH  30  35
ATOM     35  O   UNL     1     -11.695   7.458 -21.403  1.00  0.00    -0.387 OA
ATOM     36  H   UNL     1     -11.802   6.634 -21.947  1.00  0.00     0.211 HD
ENDBRANCH  30  35
BRANCH  31  37
ATOM     37  C   UNL     1     -16.080   7.199 -21.127  1.00  0.00     0.191 C 
BRANCH  37  38
ATOM     38  O   UNL     1     -16.971   7.978 -21.878  1.00  0.00    -0.394 OA
ATOM     39  H   UNL     1     -16.488   8.810 -22.124  1.00  0.00     0.210 HD
ENDBRANCH  37  38
ENDBRANCH  31  37
BRANCH  32  40
ATOM     40  O   UNL     1     -14.578   9.626 -21.640  1.00  0.00    -0.387 OA
ATOM     41  H   UNL     1     -15.310   9.365 -22.257  1.00  0.00     0.211 HD
ENDBRANCH  32  40
ENDBRANCH   1  27
TORSDOF 12
ENDMDL
