MODEL 1
REMARK VINA RESULT:    -5.116      0.000      0.000
REMARK INTER + INTRA:          -6.002
REMARK INTER:                  -5.864
REMARK INTRA:                  -0.138
REMARK UNBOUND:                -0.138
REMARK SMILES O=C([O-])C=Cc1ccc(O)cc1
REMARK SMILES IDX 6 1 7 2 12 3 8 4 11 5 9 6 5 7 4 8 2 9 1 10 3 11 10 12
REMARK H PARENT 10 13
REMARK Flexibility Score: inf
ROOT
ATOM      1  C   UNL     1       8.848 -17.979   7.899  1.00  0.00    -0.025 A 
ATOM      2  C   UNL     1       7.747 -17.516   8.647  1.00  0.00     0.012 A 
ATOM      3  C   UNL     1       8.704 -19.148   7.132  1.00  0.00     0.012 A 
ATOM      4  C   UNL     1       6.541 -18.224   8.642  1.00  0.00     0.047 A 
ATOM      5  C   UNL     1       7.497 -19.853   7.130  1.00  0.00     0.047 A 
ATOM      6  C   UNL     1       6.412 -19.393   7.888  1.00  0.00     0.115 A 
ENDROOT
BRANCH   1   7
ATOM      7  C   UNL     1      10.146 -17.260   7.858  1.00  0.00     0.010 C 
ATOM      8  C   UNL     1      11.243 -17.663   8.516  1.00  0.00     0.025 C 
BRANCH   8   9
ATOM      9  C   UNL     1      12.517 -16.930   8.444  1.00  0.00     0.064 C 
ATOM     10  O   UNL     1      12.734 -16.087   7.533  1.00  0.00    -0.545 OA
ATOM     11  O   UNL     1      13.499 -17.171   9.397  1.00  0.00    -0.545 OA
ENDBRANCH   8   9
ENDBRANCH   1   7
BRANCH   6  12
ATOM     12  O   UNL     1       5.205 -20.088   7.895  1.00  0.00    -0.508 OA
ATOM     13  H   UNL     1       4.860 -20.544   8.733  1.00  0.00     0.293 HD
ENDBRANCH   6  12
TORSDOF 3
ENDMDL
MODEL 2
REMARK VINA RESULT:    -5.111      0.065      1.400
REMARK INTER + INTRA:          -5.996
REMARK INTER:                  -5.859
REMARK INTRA:                  -0.137
REMARK UNBOUND:                -0.138
REMARK SMILES O=C([O-])C=Cc1ccc(O)cc1
REMARK SMILES IDX 6 1 7 2 12 3 8 4 11 5 9 6 5 7 4 8 2 9 1 10 3 11 10 12
REMARK H PARENT 10 13
REMARK Flexibility Score: inf
ROOT
ATOM      1  C   UNL     1       8.886 -17.976   7.833  1.00  0.00    -0.025 A 
ATOM      2  C   UNL     1       8.722 -19.159   7.084  1.00  0.00     0.012 A 
ATOM      3  C   UNL     1       7.816 -17.517   8.620  1.00  0.00     0.012 A 
ATOM      4  C   UNL     1       7.504 -19.847   7.108  1.00  0.00     0.047 A 
ATOM      5  C   UNL     1       6.601 -18.207   8.641  1.00  0.00     0.047 A 
ATOM      6  C   UNL     1       6.442 -19.374   7.882  1.00  0.00     0.115 A 
ENDROOT
BRANCH   1   7
ATOM      7  C   UNL     1      10.160 -17.214   7.853  1.00  0.00     0.010 C 
ATOM      8  C   UNL     1      11.290 -17.666   8.416  1.00  0.00     0.025 C 
BRANCH   8   9
ATOM      9  C   UNL     1      12.539 -16.886   8.407  1.00  0.00     0.064 C 
ATOM     10  O   UNL     1      12.744 -15.993   7.543  1.00  0.00    -0.545 OA
ATOM     11  O   UNL     1      13.509 -17.140   9.369  1.00  0.00    -0.545 OA
ENDBRANCH   8   9
ENDBRANCH   1   7
BRANCH   6  12
ATOM     12  O   UNL     1       5.235 -20.070   7.894  1.00  0.00    -0.508 OA
ATOM     13  H   UNL     1       5.206 -21.081   7.967  1.00  0.00     0.293 HD
ENDBRANCH   6  12
TORSDOF 3
ENDMDL
MODEL 3
REMARK VINA RESULT:    -3.987      1.362      5.937
REMARK INTER + INTRA:          -4.707
REMARK INTER:                  -4.562
REMARK INTRA:                  -0.145
REMARK UNBOUND:                -0.138
REMARK SMILES O=C([O-])C=Cc1ccc(O)cc1
REMARK SMILES IDX 6 1 7 2 12 3 8 4 11 5 9 6 5 7 4 8 2 9 1 10 3 11 10 12
REMARK H PARENT 10 13
REMARK Flexibility Score: inf
ROOT
ATOM      1  C   UNL     1      10.848 -17.724   8.274  1.00  0.00    -0.025 A 
ATOM      2  C   UNL     1      11.889 -17.932   9.201  1.00  0.00     0.012 A 
ATOM      3  C   UNL     1      11.032 -16.782   7.248  1.00  0.00     0.012 A 
ATOM      4  C   UNL     1      13.072 -17.193   9.113  1.00  0.00     0.047 A 
ATOM      5  C   UNL     1      12.216 -16.044   7.163  1.00  0.00     0.047 A 
ATOM      6  C   UNL     1      13.239 -16.247   8.098  1.00  0.00     0.115 A 
ENDROOT
BRANCH   1   7
ATOM      7  C   UNL     1       9.577 -18.490   8.314  1.00  0.00     0.010 C 
ATOM      8  C   UNL     1       8.379 -17.962   8.025  1.00  0.00     0.025 C 
BRANCH   8   9
ATOM      9  C   UNL     1       7.140 -18.755   8.065  1.00  0.00     0.064 C 
ATOM     10  O   UNL     1       6.191 -18.445   8.833  1.00  0.00    -0.545 OA
ATOM     11  O   UNL     1       7.014 -19.867   7.241  1.00  0.00    -0.545 OA
ENDBRANCH   8   9
ENDBRANCH   1   7
BRANCH   6  12
ATOM     12  O   UNL     1      14.424 -15.517   8.024  1.00  0.00    -0.508 OA
ATOM     13  H   UNL     1      15.159 -15.628   8.714  1.00  0.00     0.293 HD
ENDBRANCH   6  12
TORSDOF 3
ENDMDL
MODEL 4
REMARK VINA RESULT:    -3.914      1.359      5.961
REMARK INTER + INTRA:          -4.624
REMARK INTER:                  -4.485
REMARK INTRA:                  -0.139
REMARK UNBOUND:                -0.138
REMARK SMILES O=C([O-])C=Cc1ccc(O)cc1
REMARK SMILES IDX 6 1 7 2 12 3 8 4 11 5 9 6 5 7 4 8 2 9 1 10 3 11 10 12
REMARK H PARENT 10 13
REMARK Flexibility Score: inf
ROOT
ATOM      1  C   UNL     1      10.859 -17.686   8.313  1.00  0.00    -0.025 A 
ATOM      2  C   UNL     1      11.029 -16.751   7.271  1.00  0.00     0.012 A 
ATOM      3  C   UNL     1      11.906 -17.875   9.232  1.00  0.00     0.012 A 
ATOM      4  C   UNL     1      12.230 -16.046   7.144  1.00  0.00     0.047 A 
ATOM      5  C   UNL     1      13.104 -17.167   9.101  1.00  0.00     0.047 A 
ATOM      6  C   UNL     1      13.270 -16.252   8.054  1.00  0.00     0.115 A 
ENDROOT
BRANCH   1   7
ATOM      7  C   UNL     1       9.602 -18.452   8.502  1.00  0.00     0.010 C 
ATOM      8  C   UNL     1       8.495 -18.258   7.771  1.00  0.00     0.025 C 
BRANCH   8   9
ATOM      9  C   UNL     1       7.268 -19.046   7.979  1.00  0.00     0.064 C 
ATOM     10  O   UNL     1       6.472 -18.778   8.918  1.00  0.00    -0.545 OA
ATOM     11  O   UNL     1       6.983 -20.103   7.124  1.00  0.00    -0.545 OA
ENDBRANCH   8   9
ENDBRANCH   1   7
BRANCH   6  12
ATOM     12  O   UNL     1      14.460 -15.542   7.912  1.00  0.00    -0.508 OA
ATOM     13  H   UNL     1      14.951 -15.501   7.026  1.00  0.00     0.293 HD
ENDBRANCH   6  12
TORSDOF 3
ENDMDL
MODEL 5
REMARK VINA RESULT:    -3.690      0.966      1.051
REMARK INTER + INTRA:          -4.367
REMARK INTER:                  -4.229
REMARK INTRA:                  -0.138
REMARK UNBOUND:                -0.138
REMARK SMILES O=C([O-])C=Cc1ccc(O)cc1
REMARK SMILES IDX 6 1 7 2 12 3 8 4 11 5 9 6 5 7 4 8 2 9 1 10 3 11 10 12
REMARK H PARENT 10 13
REMARK Flexibility Score: inf
ROOT
ATOM      1  C   UNL     1       8.437 -18.612   7.722  1.00  0.00    -0.025 A 
ATOM      2  C   UNL     1       7.681 -17.806   8.597  1.00  0.00     0.012 A 
ATOM      3  C   UNL     1       7.845 -19.767   7.183  1.00  0.00     0.012 A 
ATOM      4  C   UNL     1       6.374 -18.167   8.940  1.00  0.00     0.047 A 
ATOM      5  C   UNL     1       6.539 -20.125   7.528  1.00  0.00     0.047 A 
ATOM      6  C   UNL     1       5.800 -19.325   8.410  1.00  0.00     0.115 A 
ENDROOT
BRANCH   1   7
ATOM      7  C   UNL     1       9.823 -18.269   7.316  1.00  0.00     0.010 C 
ATOM      8  C   UNL     1      10.683 -17.598   8.095  1.00  0.00     0.025 C 
BRANCH   8   9
ATOM      9  C   UNL     1      12.055 -17.285   7.663  1.00  0.00     0.064 C 
ATOM     10  O   UNL     1      12.502 -17.698   6.560  1.00  0.00    -0.545 OA
ATOM     11  O   UNL     1      12.873 -16.520   8.486  1.00  0.00    -0.545 OA
ENDBRANCH   8   9
ENDBRANCH   1   7
BRANCH   6  12
ATOM     12  O   UNL     1       4.498 -19.672   8.762  1.00  0.00    -0.508 OA
ATOM     13  H   UNL     1       3.696 -19.197   8.363  1.00  0.00     0.293 HD
ENDBRANCH   6  12
TORSDOF 3
ENDMDL
MODEL 6
REMARK VINA RESULT:    -2.667      1.758      5.873
REMARK INTER + INTRA:          -3.194
REMARK INTER:                  -3.058
REMARK INTRA:                  -0.137
REMARK UNBOUND:                -0.138
REMARK SMILES O=C([O-])C=Cc1ccc(O)cc1
REMARK SMILES IDX 6 1 7 2 12 3 8 4 11 5 9 6 5 7 4 8 2 9 1 10 3 11 10 12
REMARK H PARENT 10 13
REMARK Flexibility Score: inf
ROOT
ATOM      1  C   UNL     1       8.231 -18.501   7.880  1.00  0.00    -0.025 A 
ATOM      2  C   UNL     1       8.655 -19.555   7.044  1.00  0.00     0.012 A 
ATOM      3  C   UNL     1       9.161 -17.515   8.252  1.00  0.00     0.012 A 
ATOM      4  C   UNL     1       9.984 -19.626   6.616  1.00  0.00     0.047 A 
ATOM      5  C   UNL     1      10.489 -17.590   7.822  1.00  0.00     0.047 A 
ATOM      6  C   UNL     1      10.904 -18.649   7.004  1.00  0.00     0.115 A 
ENDROOT
BRANCH   1   7
ATOM      7  C   UNL     1       6.830 -18.371   8.354  1.00  0.00     0.010 C 
ATOM      8  C   UNL     1       6.116 -19.387   8.858  1.00  0.00     0.025 C 
BRANCH   8   9
ATOM      9  C   UNL     1       4.732 -19.218   9.328  1.00  0.00     0.064 C 
ATOM     10  O   UNL     1       4.174 -20.093  10.042  1.00  0.00    -0.545 OA
ATOM     11  O   UNL     1       4.028 -18.072   8.979  1.00  0.00    -0.545 OA
ENDBRANCH   8   9
ENDBRANCH   1   7
BRANCH   6  12
ATOM     12  O   UNL     1      12.225 -18.735   6.570  1.00  0.00    -0.508 OA
ATOM     13  H   UNL     1      12.990 -18.368   7.124  1.00  0.00     0.293 HD
ENDBRANCH   6  12
TORSDOF 3
ENDMDL
