MODEL 1
REMARK VINA RESULT:    -1.174      0.000      0.000
REMARK INTER + INTRA:          -5.709
REMARK INTER:                  -3.096
REMARK INTRA:                  -2.613
REMARK UNBOUND:                -2.613
REMARK SMILES CCCCCCCCCCCCCCCCCCCCCCCCCCCCCC(=O)[O-]
REMARK SMILES IDX 16 1 17 2 18 3 19 4 20 5 21 6 22 7 23 8 24 9 25 10 26 11
REMARK SMILES IDX 27 12 28 13 29 14 30 15 31 16 32 17 15 18 14 19 13 20 12 21
REMARK SMILES IDX 11 22 10 23 9 24 8 25 7 26 6 27 5 28 4 29 3 30 2 31 1 32
REMARK H PARENT
REMARK Flexibility Score: inf
ROOT
ATOM      1  C   UNL     1       3.182  23.654   7.266  1.00  0.00     0.000 C 
ENDROOT
BRANCH   1   2
ATOM      2  C   UNL     1       2.503  22.325   6.893  1.00  0.00     0.000 C 
BRANCH   2   3
ATOM      3  C   UNL     1       1.394  21.924   7.880  1.00  0.00     0.000 C 
BRANCH   3   4
ATOM      4  C   UNL     1       0.426  20.876   7.305  1.00  0.00     0.000 C 
BRANCH   4   5
ATOM      5  C   UNL     1      -1.050  21.330   7.405  1.00  0.00     0.000 C 
BRANCH   5   6
ATOM      6  C   UNL     1      -1.684  21.588   6.030  1.00  0.00     0.000 C 
BRANCH   6   7
ATOM      7  C   UNL     1      -0.827  21.029   4.878  1.00  0.00     0.000 C 
BRANCH   7   8
ATOM      8  C   UNL     1      -0.471  22.096   3.833  1.00  0.00     0.000 C 
BRANCH   8   9
ATOM      9  C   UNL     1      -0.922  21.770   2.397  1.00  0.00     0.000 C 
BRANCH   9  10
ATOM     10  C   UNL     1      -2.333  22.278   2.032  1.00  0.00     0.000 C 
BRANCH  10  11
ATOM     11  C   UNL     1      -3.415  21.185   1.926  1.00  0.00     0.000 C 
BRANCH  11  12
ATOM     12  C   UNL     1      -4.164  20.876   3.240  1.00  0.00     0.000 C 
BRANCH  12  13
ATOM     13  C   UNL     1      -5.475  21.664   3.437  1.00  0.00     0.006 C 
BRANCH  13  14
ATOM     14  C   UNL     1      -6.667  21.107   2.643  1.00  0.00     0.053 C 
BRANCH  14  15
ATOM     15  C   UNL     1      -7.982  21.607   3.165  1.00  0.00     0.041 C 
ATOM     16  O   UNL     1      -8.320  21.375   4.355  1.00  0.00    -0.550 OA
ATOM     17  O   UNL     1      -8.830  22.340   2.341  1.00  0.00    -0.550 OA
ENDBRANCH  14  15
ENDBRANCH  13  14
ENDBRANCH  12  13
ENDBRANCH  11  12
ENDBRANCH  10  11
ENDBRANCH   9  10
ENDBRANCH   8   9
ENDBRANCH   7   8
ENDBRANCH   6   7
ENDBRANCH   5   6
ENDBRANCH   4   5
ENDBRANCH   3   4
ENDBRANCH   2   3
ENDBRANCH   1   2
BRANCH   1  18
ATOM     18  C   UNL     1       4.700  23.498   7.449  1.00  0.00     0.000 C 
BRANCH  18  19
ATOM     19  C   UNL     1       5.066  22.119   8.025  1.00  0.00     0.000 C 
BRANCH  19  20
ATOM     20  C   UNL     1       6.566  21.796   7.907  1.00  0.00     0.000 C 
BRANCH  20  21
ATOM     21  C   UNL     1       7.069  21.838   6.454  1.00  0.00     0.000 C 
BRANCH  21  22
ATOM     22  C   UNL     1       6.032  21.315   5.448  1.00  0.00     0.000 C 
BRANCH  22  23
ATOM     23  C   UNL     1       5.636  22.374   4.401  1.00  0.00     0.000 C 
BRANCH  23  24
ATOM     24  C   UNL     1       6.115  22.006   2.986  1.00  0.00    -0.000 C 
BRANCH  24  25
ATOM     25  C   UNL     1       7.047  23.076   2.385  1.00  0.00    -0.000 C 
BRANCH  25  26
ATOM     26  C   UNL     1       7.077  24.378   3.211  1.00  0.00    -0.000 C 
BRANCH  26  27
ATOM     27  C   UNL     1       6.133  25.479   2.691  1.00  0.00    -0.000 C 
BRANCH  27  28
ATOM     28  C   UNL     1       4.923  24.984   1.875  1.00  0.00    -0.000 C 
BRANCH  28  29
ATOM     29  C   UNL     1       3.575  25.633   2.246  1.00  0.00    -0.000 C 
BRANCH  29  30
ATOM     30  C   UNL     1       2.447  24.606   2.432  1.00  0.00    -0.000 C 
BRANCH  30  31
ATOM     31  C   UNL     1       2.878  23.491   3.390  1.00  0.00    -0.003 C 
ATOM     32  C   UNL     1       2.493  22.116   2.848  1.00  0.00     0.004 C 
ENDBRANCH  30  31
ENDBRANCH  29  30
ENDBRANCH  28  29
ENDBRANCH  27  28
ENDBRANCH  26  27
ENDBRANCH  25  26
ENDBRANCH  24  25
ENDBRANCH  23  24
ENDBRANCH  22  23
ENDBRANCH  21  22
ENDBRANCH  20  21
ENDBRANCH  19  20
ENDBRANCH  18  19
ENDBRANCH   1  18
TORSDOF 28
ENDMDL
MODEL 2
REMARK VINA RESULT:    -1.128      2.229      5.579
REMARK INTER + INTRA:          -5.586
REMARK INTER:                  -4.000
REMARK INTRA:                  -1.587
REMARK UNBOUND:                -2.613
REMARK SMILES CCCCCCCCCCCCCCCCCCCCCCCCCCCCCC(=O)[O-]
REMARK SMILES IDX 16 1 17 2 18 3 19 4 20 5 21 6 22 7 23 8 24 9 25 10 26 11
REMARK SMILES IDX 27 12 28 13 29 14 30 15 31 16 32 17 15 18 14 19 13 20 12 21
REMARK SMILES IDX 11 22 10 23 9 24 8 25 7 26 6 27 5 28 4 29 3 30 2 31 1 32
REMARK H PARENT
REMARK Flexibility Score: inf
ROOT
ATOM      1  C   UNL     1      -0.734  24.367   3.829  1.00  0.00     0.000 C 
ENDROOT
BRANCH   1   2
ATOM      2  C   UNL     1      -2.191  23.906   3.646  1.00  0.00     0.000 C 
BRANCH   2   3
ATOM      3  C   UNL     1      -2.306  22.596   2.850  1.00  0.00     0.000 C 
BRANCH   3   4
ATOM      4  C   UNL     1      -2.656  21.385   3.732  1.00  0.00     0.000 C 
BRANCH   4   5
ATOM      5  C   UNL     1      -4.101  20.887   3.490  1.00  0.00     0.000 C 
BRANCH   5   6
ATOM      6  C   UNL     1      -4.932  21.866   2.647  1.00  0.00     0.000 C 
BRANCH   6   7
ATOM      7  C   UNL     1      -6.157  21.187   2.003  1.00  0.00     0.000 C 
BRANCH   7   8
ATOM      8  C   UNL     1      -7.420  22.058   2.071  1.00  0.00     0.000 C 
BRANCH   8   9
ATOM      9  C   UNL     1      -8.175  21.996   3.412  1.00  0.00     0.000 C 
BRANCH   9  10
ATOM     10  C   UNL     1      -9.287  20.929   3.479  1.00  0.00     0.000 C 
BRANCH  10  11
ATOM     11  C   UNL     1     -10.328  21.137   4.597  1.00  0.00     0.000 C 
BRANCH  11  12
ATOM     12  C   UNL     1     -10.854  22.581   4.742  1.00  0.00     0.000 C 
BRANCH  12  13
ATOM     13  C   UNL     1     -12.237  22.832   4.107  1.00  0.00     0.006 C 
BRANCH  13  14
ATOM     14  C   UNL     1     -12.179  23.339   2.658  1.00  0.00     0.053 C 
BRANCH  14  15
ATOM     15  C   UNL     1     -11.370  24.596   2.526  1.00  0.00     0.041 C 
ATOM     16  O   UNL     1     -10.134  24.580   2.763  1.00  0.00    -0.550 OA
ATOM     17  O   UNL     1     -11.978  25.782   2.132  1.00  0.00    -0.550 OA
ENDBRANCH  14  15
ENDBRANCH  13  14
ENDBRANCH  12  13
ENDBRANCH  11  12
ENDBRANCH  10  11
ENDBRANCH   9  10
ENDBRANCH   8   9
ENDBRANCH   7   8
ENDBRANCH   6   7
ENDBRANCH   5   6
ENDBRANCH   4   5
ENDBRANCH   3   4
ENDBRANCH   2   3
ENDBRANCH   1   2
BRANCH   1  18
ATOM     18  C   UNL     1       0.178  23.866   2.698  1.00  0.00     0.000 C 
BRANCH  18  19
ATOM     19  C   UNL     1       1.665  23.970   3.076  1.00  0.00     0.000 C 
BRANCH  19  20
ATOM     20  C   UNL     1       2.428  25.015   2.242  1.00  0.00     0.000 C 
BRANCH  20  21
ATOM     21  C   UNL     1       3.901  25.150   2.666  1.00  0.00     0.000 C 
BRANCH  21  22
ATOM     22  C   UNL     1       4.709  23.864   2.434  1.00  0.00     0.000 C 
BRANCH  22  23
ATOM     23  C   UNL     1       6.132  23.945   3.021  1.00  0.00     0.000 C 
BRANCH  23  24
ATOM     24  C   UNL     1       6.201  24.841   4.269  1.00  0.00    -0.000 C 
BRANCH  24  25
ATOM     25  C   UNL     1       5.491  24.213   5.483  1.00  0.00    -0.000 C 
BRANCH  25  26
ATOM     26  C   UNL     1       6.463  23.491   6.438  1.00  0.00    -0.000 C 
BRANCH  26  27
ATOM     27  C   UNL     1       6.834  22.061   6.001  1.00  0.00    -0.000 C 
BRANCH  27  28
ATOM     28  C   UNL     1       5.786  20.977   6.319  1.00  0.00    -0.000 C 
BRANCH  28  29
ATOM     29  C   UNL     1       4.419  21.508   6.792  1.00  0.00    -0.000 C 
BRANCH  29  30
ATOM     30  C   UNL     1       3.240  20.910   6.009  1.00  0.00    -0.000 C 
BRANCH  30  31
ATOM     31  C   UNL     1       2.060  21.887   5.970  1.00  0.00    -0.003 C 
ATOM     32  C   UNL     1       2.462  23.261   6.502  1.00  0.00     0.004 C 
ENDBRANCH  30  31
ENDBRANCH  29  30
ENDBRANCH  28  29
ENDBRANCH  27  28
ENDBRANCH  26  27
ENDBRANCH  25  26
ENDBRANCH  24  25
ENDBRANCH  23  24
ENDBRANCH  22  23
ENDBRANCH  21  22
ENDBRANCH  20  21
ENDBRANCH  19  20
ENDBRANCH  18  19
ENDBRANCH   1  18
TORSDOF 28
ENDMDL
MODEL 3
REMARK VINA RESULT:    -1.009      3.173      9.720
REMARK INTER + INTRA:          -5.274
REMARK INTER:                  -4.468
REMARK INTRA:                  -0.806
REMARK UNBOUND:                -2.613
REMARK SMILES CCCCCCCCCCCCCCCCCCCCCCCCCCCCCC(=O)[O-]
REMARK SMILES IDX 16 1 17 2 18 3 19 4 20 5 21 6 22 7 23 8 24 9 25 10 26 11
REMARK SMILES IDX 27 12 28 13 29 14 30 15 31 16 32 17 15 18 14 19 13 20 12 21
REMARK SMILES IDX 11 22 10 23 9 24 8 25 7 26 6 27 5 28 4 29 3 30 2 31 1 32
REMARK H PARENT
REMARK Flexibility Score: inf
ROOT
ATOM      1  C   UNL     1       1.024  22.192   6.249  1.00  0.00     0.000 C 
ENDROOT
BRANCH   1   2
ATOM      2  C   UNL     1       1.719  21.428   7.390  1.00  0.00     0.000 C 
BRANCH   2   3
ATOM      3  C   UNL     1       3.125  20.937   7.008  1.00  0.00     0.000 C 
BRANCH   3   4
ATOM      4  C   UNL     1       3.963  22.007   6.290  1.00  0.00     0.000 C 
BRANCH   4   5
ATOM      5  C   UNL     1       4.966  22.699   7.243  1.00  0.00     0.000 C 
BRANCH   5   6
ATOM      6  C   UNL     1       6.397  22.718   6.685  1.00  0.00     0.000 C 
BRANCH   6   7
ATOM      7  C   UNL     1       6.427  22.983   5.167  1.00  0.00     0.000 C 
BRANCH   7   8
ATOM      8  C   UNL     1       6.417  21.689   4.341  1.00  0.00     0.000 C 
BRANCH   8   9
ATOM      9  C   UNL     1       6.447  21.896   2.815  1.00  0.00     0.000 C 
BRANCH   9  10
ATOM     10  C   UNL     1       7.124  23.203   2.352  1.00  0.00     0.000 C 
BRANCH  10  11
ATOM     11  C   UNL     1       6.227  24.456   2.391  1.00  0.00     0.000 C 
BRANCH  11  12
ATOM     12  C   UNL     1       4.750  24.216   2.016  1.00  0.00     0.000 C 
BRANCH  12  13
ATOM     13  C   UNL     1       3.763  24.279   3.201  1.00  0.00     0.006 C 
BRANCH  13  14
ATOM     14  C   UNL     1       2.284  24.213   2.789  1.00  0.00     0.053 C 
BRANCH  14  15
ATOM     15  C   UNL     1       1.776  25.528   2.278  1.00  0.00     0.041 C 
ATOM     16  O   UNL     1       0.580  25.643   1.905  1.00  0.00    -0.550 OA
ATOM     17  O   UNL     1       2.621  26.632   2.223  1.00  0.00    -0.550 OA
ENDBRANCH  14  15
ENDBRANCH  13  14
ENDBRANCH  12  13
ENDBRANCH  11  12
ENDBRANCH  10  11
ENDBRANCH   9  10
ENDBRANCH   8   9
ENDBRANCH   7   8
ENDBRANCH   6   7
ENDBRANCH   5   6
ENDBRANCH   4   5
ENDBRANCH   3   4
ENDBRANCH   2   3
ENDBRANCH   1   2
BRANCH   1  18
ATOM     18  C   UNL     1       1.598  21.822   4.871  1.00  0.00     0.000 C 
BRANCH  18  19
ATOM     19  C   UNL     1       0.664  20.875   4.099  1.00  0.00     0.000 C 
BRANCH  19  20
ATOM     20  C   UNL     1       0.050  21.524   2.846  1.00  0.00     0.000 C 
BRANCH  20  21
ATOM     21  C   UNL     1      -0.825  22.745   3.180  1.00  0.00     0.000 C 
BRANCH  21  22
ATOM     22  C   UNL     1      -2.307  22.529   2.836  1.00  0.00     0.000 C 
BRANCH  22  23
ATOM     23  C   UNL     1      -2.561  21.186   2.125  1.00  0.00     0.000 C 
BRANCH  23  24
ATOM     24  C   UNL     1      -4.060  20.898   1.935  1.00  0.00    -0.000 C 
BRANCH  24  25
ATOM     25  C   UNL     1      -4.932  21.594   2.998  1.00  0.00    -0.000 C 
BRANCH  25  26
ATOM     26  C   UNL     1      -6.390  21.094   2.998  1.00  0.00    -0.000 C 
BRANCH  26  27
ATOM     27  C   UNL     1      -7.278  21.734   1.913  1.00  0.00    -0.000 C 
BRANCH  27  28
ATOM     28  C   UNL     1      -8.738  22.006   2.327  1.00  0.00    -0.000 C 
BRANCH  28  29
ATOM     29  C   UNL     1      -9.172  23.483   2.255  1.00  0.00    -0.000 C 
BRANCH  29  30
ATOM     30  C   UNL     1     -10.387  23.793   3.144  1.00  0.00    -0.000 C 
BRANCH  30  31
ATOM     31  C   UNL     1     -11.095  22.502   3.569  1.00  0.00    -0.003 C 
ATOM     32  C   UNL     1     -10.933  22.250   5.067  1.00  0.00     0.004 C 
ENDBRANCH  30  31
ENDBRANCH  29  30
ENDBRANCH  28  29
ENDBRANCH  27  28
ENDBRANCH  26  27
ENDBRANCH  25  26
ENDBRANCH  24  25
ENDBRANCH  23  24
ENDBRANCH  22  23
ENDBRANCH  21  22
ENDBRANCH  20  21
ENDBRANCH  19  20
ENDBRANCH  18  19
ENDBRANCH   1  18
TORSDOF 28
ENDMDL
MODEL 4
REMARK VINA RESULT:    -0.866      1.805      3.199
REMARK INTER + INTRA:          -4.896
REMARK INTER:                  -2.936
REMARK INTRA:                  -1.960
REMARK UNBOUND:                -2.613
REMARK SMILES CCCCCCCCCCCCCCCCCCCCCCCCCCCCCC(=O)[O-]
REMARK SMILES IDX 16 1 17 2 18 3 19 4 20 5 21 6 22 7 23 8 24 9 25 10 26 11
REMARK SMILES IDX 27 12 28 13 29 14 30 15 31 16 32 17 15 18 14 19 13 20 12 21
REMARK SMILES IDX 11 22 10 23 9 24 8 25 7 26 6 27 5 28 4 29 3 30 2 31 1 32
REMARK H PARENT
REMARK Flexibility Score: inf
ROOT
ATOM      1  C   UNL     1       1.969  20.989   5.289  1.00  0.00     0.000 C 
ENDROOT
BRANCH   1   2
ATOM      2  C   UNL     1       1.373  21.461   6.627  1.00  0.00     0.000 C 
BRANCH   2   3
ATOM      3  C   UNL     1      -0.062  21.995   6.486  1.00  0.00     0.000 C 
BRANCH   3   4
ATOM      4  C   UNL     1      -0.815  21.388   5.290  1.00  0.00     0.000 C 
BRANCH   4   5
ATOM      5  C   UNL     1      -1.218  22.462   4.251  1.00  0.00     0.000 C 
BRANCH   5   6
ATOM      6  C   UNL     1      -2.710  22.405   3.890  1.00  0.00     0.000 C 
BRANCH   6   7
ATOM      7  C   UNL     1      -3.071  21.130   3.103  1.00  0.00     0.000 C 
BRANCH   7   8
ATOM      8  C   UNL     1      -3.976  21.416   1.896  1.00  0.00     0.000 C 
BRANCH   8   9
ATOM      9  C   UNL     1      -5.412  20.875   2.023  1.00  0.00     0.000 C 
BRANCH   9  10
ATOM     10  C   UNL     1      -6.519  21.944   1.906  1.00  0.00     0.000 C 
BRANCH  10  11
ATOM     11  C   UNL     1      -7.761  21.701   2.787  1.00  0.00     0.000 C 
BRANCH  11  12
ATOM     12  C   UNL     1      -9.114  21.793   2.051  1.00  0.00     0.000 C 
BRANCH  12  13
ATOM     13  C   UNL     1      -9.711  23.214   1.971  1.00  0.00     0.006 C 
BRANCH  13  14
ATOM     14  C   UNL     1     -10.369  23.691   3.275  1.00  0.00     0.053 C 
BRANCH  14  15
ATOM     15  C   UNL     1     -10.997  22.565   4.042  1.00  0.00     0.041 C 
ATOM     16  O   UNL     1     -10.649  22.337   5.230  1.00  0.00    -0.550 OA
ATOM     17  O   UNL     1     -11.974  21.774   3.449  1.00  0.00    -0.550 OA
ENDBRANCH  14  15
ENDBRANCH  13  14
ENDBRANCH  12  13
ENDBRANCH  11  12
ENDBRANCH  10  11
ENDBRANCH   9  10
ENDBRANCH   8   9
ENDBRANCH   7   8
ENDBRANCH   6   7
ENDBRANCH   5   6
ENDBRANCH   4   5
ENDBRANCH   3   4
ENDBRANCH   2   3
ENDBRANCH   1   2
BRANCH   1  18
ATOM     18  C   UNL     1       3.503  20.899   5.339  1.00  0.00     0.000 C 
BRANCH  18  19
ATOM     19  C   UNL     1       4.149  22.277   5.560  1.00  0.00     0.000 C 
BRANCH  19  20
ATOM     20  C   UNL     1       5.611  22.189   6.031  1.00  0.00     0.000 C 
BRANCH  20  21
ATOM     21  C   UNL     1       6.085  23.472   6.735  1.00  0.00     0.000 C 
BRANCH  21  22
ATOM     22  C   UNL     1       7.097  24.272   5.899  1.00  0.00     0.000 C 
BRANCH  22  23
ATOM     23  C   UNL     1       6.476  25.529   5.261  1.00  0.00     0.000 C 
BRANCH  23  24
ATOM     24  C   UNL     1       6.199  25.347   3.758  1.00  0.00    -0.000 C 
BRANCH  24  25
ATOM     25  C   UNL     1       7.124  24.298   3.113  1.00  0.00    -0.000 C 
BRANCH  25  26
ATOM     26  C   UNL     1       6.350  23.135   2.461  1.00  0.00    -0.000 C 
BRANCH  26  27
ATOM     27  C   UNL     1       4.978  23.534   1.883  1.00  0.00    -0.000 C 
BRANCH  27  28
ATOM     28  C   UNL     1       3.775  22.736   2.422  1.00  0.00    -0.000 C 
BRANCH  28  29
ATOM     29  C   UNL     1       2.766  23.556   3.251  1.00  0.00    -0.000 C 
BRANCH  29  30
ATOM     30  C   UNL     1       2.929  25.072   3.063  1.00  0.00    -0.000 C 
BRANCH  30  31
ATOM     31  C   UNL     1       1.721  25.663   2.329  1.00  0.00    -0.003 C 
ATOM     32  C   UNL     1       0.591  24.643   2.211  1.00  0.00     0.004 C 
ENDBRANCH  30  31
ENDBRANCH  29  30
ENDBRANCH  28  29
ENDBRANCH  27  28
ENDBRANCH  26  27
ENDBRANCH  25  26
ENDBRANCH  24  25
ENDBRANCH  23  24
ENDBRANCH  22  23
ENDBRANCH  21  22
ENDBRANCH  20  21
ENDBRANCH  19  20
ENDBRANCH  18  19
ENDBRANCH   1  18
TORSDOF 28
ENDMDL
MODEL 5
REMARK VINA RESULT:    -0.687      3.712     11.800
REMARK INTER + INTRA:          -4.424
REMARK INTER:                  -4.837
REMARK INTRA:                   0.413
REMARK UNBOUND:                -2.613
REMARK SMILES CCCCCCCCCCCCCCCCCCCCCCCCCCCCCC(=O)[O-]
REMARK SMILES IDX 16 1 17 2 18 3 19 4 20 5 21 6 22 7 23 8 24 9 25 10 26 11
REMARK SMILES IDX 27 12 28 13 29 14 30 15 31 16 32 17 15 18 14 19 13 20 12 21
REMARK SMILES IDX 11 22 10 23 9 24 8 25 7 26 6 27 5 28 4 29 3 30 2 31 1 32
REMARK H PARENT
REMARK Flexibility Score: inf
ROOT
ATOM      1  C   UNL     1      -0.643  24.186   3.659  1.00  0.00     0.000 C 
ENDROOT
BRANCH   1   2
ATOM      2  C   UNL     1       0.820  24.436   3.255  1.00  0.00     0.000 C 
BRANCH   2   3
ATOM      3  C   UNL     1       1.377  23.346   2.324  1.00  0.00     0.000 C 
BRANCH   3   4
ATOM      4  C   UNL     1       2.899  23.442   2.128  1.00  0.00     0.000 C 
BRANCH   4   5
ATOM      5  C   UNL     1       3.561  22.048   2.016  1.00  0.00     0.000 C 
BRANCH   5   6
ATOM      6  C   UNL     1       5.088  22.102   2.177  1.00  0.00     0.000 C 
BRANCH   6   7
ATOM      7  C   UNL     1       5.599  23.537   2.412  1.00  0.00     0.000 C 
BRANCH   7   8
ATOM      8  C   UNL     1       5.062  24.150   3.713  1.00  0.00     0.000 C 
BRANCH   8   9
ATOM      9  C   UNL     1       6.100  24.939   4.532  1.00  0.00     0.000 C 
BRANCH   9  10
ATOM     10  C   UNL     1       6.855  24.108   5.591  1.00  0.00     0.000 C 
BRANCH  10  11
ATOM     11  C   UNL     1       7.062  22.623   5.233  1.00  0.00     0.000 C 
BRANCH  11  12
ATOM     12  C   UNL     1       6.066  21.645   5.891  1.00  0.00     0.000 C 
BRANCH  12  13
ATOM     13  C   UNL     1       5.690  21.989   7.347  1.00  0.00     0.006 C 
BRANCH  13  14
ATOM     14  C   UNL     1       4.491  22.941   7.477  1.00  0.00     0.053 C 
BRANCH  14  15
ATOM     15  C   UNL     1       3.251  22.385   6.840  1.00  0.00     0.041 C 
ATOM     16  O   UNL     1       2.250  23.124   6.654  1.00  0.00    -0.550 OA
ATOM     17  O   UNL     1       3.206  21.054   6.442  1.00  0.00    -0.550 OA
ENDBRANCH  14  15
ENDBRANCH  13  14
ENDBRANCH  12  13
ENDBRANCH  11  12
ENDBRANCH  10  11
ENDBRANCH   9  10
ENDBRANCH   8   9
ENDBRANCH   7   8
ENDBRANCH   6   7
ENDBRANCH   5   6
ENDBRANCH   4   5
ENDBRANCH   3   4
ENDBRANCH   2   3
ENDBRANCH   1   2
BRANCH   1  18
ATOM     18  C   UNL     1      -1.381  23.298   2.642  1.00  0.00     0.000 C 
BRANCH  18  19
ATOM     19  C   UNL     1      -2.457  22.431   3.316  1.00  0.00     0.000 C 
BRANCH  19  20
ATOM     20  C   UNL     1      -2.974  21.300   2.411  1.00  0.00     0.000 C 
BRANCH  20  21
ATOM     21  C   UNL     1      -4.412  20.875   2.756  1.00  0.00     0.000 C 
BRANCH  21  22
ATOM     22  C   UNL     1      -5.449  21.960   2.428  1.00  0.00     0.000 C 
BRANCH  22  23
ATOM     23  C   UNL     1      -6.779  21.373   1.916  1.00  0.00     0.000 C 
BRANCH  23  24
ATOM     24  C   UNL     1      -7.993  22.219   2.336  1.00  0.00    -0.000 C 
BRANCH  24  25
ATOM     25  C   UNL     1      -8.911  21.479   3.327  1.00  0.00    -0.000 C 
BRANCH  25  26
ATOM     26  C   UNL     1     -10.025  22.379   3.900  1.00  0.00    -0.000 C 
BRANCH  26  27
ATOM     27  C   UNL     1     -10.204  23.715   3.155  1.00  0.00    -0.000 C 
BRANCH  27  28
ATOM     28  C   UNL     1     -11.663  24.159   2.931  1.00  0.00    -0.000 C 
BRANCH  28  29
ATOM     29  C   UNL     1     -12.589  23.083   2.329  1.00  0.00    -0.000 C 
BRANCH  29  30
ATOM     30  C   UNL     1     -12.709  21.833   3.214  1.00  0.00    -0.000 C 
BRANCH  30  31
ATOM     31  C   UNL     1     -13.125  22.213   4.639  1.00  0.00    -0.003 C 
ATOM     32  C   UNL     1     -12.844  21.075   5.619  1.00  0.00     0.004 C 
ENDBRANCH  30  31
ENDBRANCH  29  30
ENDBRANCH  28  29
ENDBRANCH  27  28
ENDBRANCH  26  27
ENDBRANCH  25  26
ENDBRANCH  24  25
ENDBRANCH  23  24
ENDBRANCH  22  23
ENDBRANCH  21  22
ENDBRANCH  20  21
ENDBRANCH  19  20
ENDBRANCH  18  19
ENDBRANCH   1  18
TORSDOF 28
ENDMDL
MODEL 6
REMARK VINA RESULT:     0.441      1.671      3.664
REMARK INTER + INTRA:          -1.449
REMARK INTER:                  -2.383
REMARK INTRA:                   0.934
REMARK UNBOUND:                -2.613
REMARK SMILES CCCCCCCCCCCCCCCCCCCCCCCCCCCCCC(=O)[O-]
REMARK SMILES IDX 16 1 17 2 18 3 19 4 20 5 21 6 22 7 23 8 24 9 25 10 26 11
REMARK SMILES IDX 27 12 28 13 29 14 30 15 31 16 32 17 15 18 14 19 13 20 12 21
REMARK SMILES IDX 11 22 10 23 9 24 8 25 7 26 6 27 5 28 4 29 3 30 2 31 1 32
REMARK H PARENT
REMARK Flexibility Score: inf
ROOT
ATOM      1  C   UNL     1       0.743  23.331   6.437  1.00  0.00     0.000 C 
ENDROOT
BRANCH   1   2
ATOM      2  C   UNL     1      -0.162  22.991   5.239  1.00  0.00     0.000 C 
BRANCH   2   3
ATOM      3  C   UNL     1      -0.259  21.480   4.975  1.00  0.00     0.000 C 
BRANCH   3   4
ATOM      4  C   UNL     1      -1.635  20.894   5.330  1.00  0.00     0.000 C 
BRANCH   4   5
ATOM      5  C   UNL     1      -2.787  21.873   5.003  1.00  0.00     0.000 C 
BRANCH   5   6
ATOM      6  C   UNL     1      -2.549  22.655   3.702  1.00  0.00     0.000 C 
BRANCH   6   7
ATOM      7  C   UNL     1      -2.044  21.749   2.562  1.00  0.00     0.000 C 
BRANCH   7   8
ATOM      8  C   UNL     1      -3.177  20.968   1.881  1.00  0.00     0.000 C 
BRANCH   8   9
ATOM      9  C   UNL     1      -4.479  20.875   2.698  1.00  0.00     0.000 C 
BRANCH   9  10
ATOM     10  C   UNL     1      -5.772  21.046   1.875  1.00  0.00     0.000 C 
BRANCH  10  11
ATOM     11  C   UNL     1      -6.805  22.021   2.474  1.00  0.00     0.000 C 
BRANCH  11  12
ATOM     12  C   UNL     1      -8.097  21.364   3.003  1.00  0.00     0.000 C 
BRANCH  12  13
ATOM     13  C   UNL     1      -9.382  21.764   2.249  1.00  0.00     0.006 C 
BRANCH  13  14
ATOM     14  C   UNL     1      -9.651  23.277   2.225  1.00  0.00     0.053 C 
BRANCH  14  15
ATOM     15  C   UNL     1     -10.618  23.699   3.292  1.00  0.00     0.041 C 
ATOM     16  O   UNL     1     -10.744  23.013   4.339  1.00  0.00    -0.550 OA
ATOM     17  O   UNL     1     -11.371  24.857   3.134  1.00  0.00    -0.550 OA
ENDBRANCH  14  15
ENDBRANCH  13  14
ENDBRANCH  12  13
ENDBRANCH  11  12
ENDBRANCH  10  11
ENDBRANCH   9  10
ENDBRANCH   8   9
ENDBRANCH   7   8
ENDBRANCH   6   7
ENDBRANCH   5   6
ENDBRANCH   4   5
ENDBRANCH   3   4
ENDBRANCH   2   3
ENDBRANCH   1   2
BRANCH   1  18
ATOM     18  C   UNL     1       1.929  22.361   6.560  1.00  0.00     0.000 C 
BRANCH  18  19
ATOM     19  C   UNL     1       2.050  21.448   5.328  1.00  0.00     0.000 C 
BRANCH  19  20
ATOM     20  C   UNL     1       3.509  21.151   4.940  1.00  0.00     0.000 C 
BRANCH  20  21
ATOM     21  C   UNL     1       3.786  21.395   3.446  1.00  0.00     0.000 C 
BRANCH  21  22
ATOM     22  C   UNL     1       2.598  22.041   2.716  1.00  0.00     0.000 C 
BRANCH  22  23
ATOM     23  C   UNL     1       2.551  23.570   2.901  1.00  0.00     0.000 C 
BRANCH  23  24
ATOM     24  C   UNL     1       3.464  24.309   1.907  1.00  0.00    -0.000 C 
BRANCH  24  25
ATOM     25  C   UNL     1       4.798  24.741   2.545  1.00  0.00    -0.000 C 
BRANCH  25  26
ATOM     26  C   UNL     1       5.824  23.593   2.625  1.00  0.00    -0.000 C 
BRANCH  26  27
ATOM     27  C   UNL     1       7.122  23.955   3.370  1.00  0.00    -0.000 C 
BRANCH  27  28
ATOM     28  C   UNL     1       7.020  25.152   4.336  1.00  0.00    -0.000 C 
BRANCH  28  29
ATOM     29  C   UNL     1       6.744  24.783   5.807  1.00  0.00    -0.000 C 
BRANCH  29  30
ATOM     30  C   UNL     1       5.937  23.484   5.957  1.00  0.00    -0.000 C 
BRANCH  30  31
ATOM     31  C   UNL     1       5.047  23.537   7.204  1.00  0.00    -0.003 C 
ATOM     32  C   UNL     1       5.096  22.219   7.974  1.00  0.00     0.004 C 
ENDBRANCH  30  31
ENDBRANCH  29  30
ENDBRANCH  28  29
ENDBRANCH  27  28
ENDBRANCH  26  27
ENDBRANCH  25  26
ENDBRANCH  24  25
ENDBRANCH  23  24
ENDBRANCH  22  23
ENDBRANCH  21  22
ENDBRANCH  20  21
ENDBRANCH  19  20
ENDBRANCH  18  19
ENDBRANCH   1  18
TORSDOF 28
ENDMDL
MODEL 7
REMARK VINA RESULT:     1.376      1.914      3.273
REMARK INTER + INTRA:           1.016
REMARK INTER:                   0.047
REMARK INTRA:                   0.968
REMARK UNBOUND:                -2.613
REMARK SMILES CCCCCCCCCCCCCCCCCCCCCCCCCCCCCC(=O)[O-]
REMARK SMILES IDX 16 1 17 2 18 3 19 4 20 5 21 6 22 7 23 8 24 9 25 10 26 11
REMARK SMILES IDX 27 12 28 13 29 14 30 15 31 16 32 17 15 18 14 19 13 20 12 21
REMARK SMILES IDX 11 22 10 23 9 24 8 25 7 26 6 27 5 28 4 29 3 30 2 31 1 32
REMARK H PARENT
REMARK Flexibility Score: inf
ROOT
ATOM      1  C   UNL     1       0.509  23.732   6.591  1.00  0.00     0.000 C 
ENDROOT
BRANCH   1   2
ATOM      2  C   UNL     1       0.504  22.775   5.386  1.00  0.00     0.000 C 
BRANCH   2   3
ATOM      3  C   UNL     1       0.347  21.302   5.794  1.00  0.00     0.000 C 
BRANCH   3   4
ATOM      4  C   UNL     1      -1.101  20.927   6.152  1.00  0.00     0.000 C 
BRANCH   4   5
ATOM      5  C   UNL     1      -2.116  21.985   5.658  1.00  0.00     0.000 C 
BRANCH   5   6
ATOM      6  C   UNL     1      -2.365  21.905   4.144  1.00  0.00     0.000 C 
BRANCH   6   7
ATOM      7  C   UNL     1      -3.455  20.875   3.787  1.00  0.00     0.000 C 
BRANCH   7   8
ATOM      8  C   UNL     1      -4.830  21.521   3.565  1.00  0.00     0.000 C 
BRANCH   8   9
ATOM      9  C   UNL     1      -5.316  21.521   2.104  1.00  0.00     0.000 C 
BRANCH   9  10
ATOM     10  C   UNL     1      -6.703  20.883   1.883  1.00  0.00     0.000 C 
BRANCH  10  11
ATOM     11  C   UNL     1      -7.898  21.846   2.030  1.00  0.00     0.000 C 
BRANCH  11  12
ATOM     12  C   UNL     1      -9.288  21.192   1.885  1.00  0.00     0.000 C 
BRANCH  12  13
ATOM     13  C   UNL     1     -10.285  21.536   3.010  1.00  0.00     0.006 C 
BRANCH  13  14
ATOM     14  C   UNL     1     -10.366  23.035   3.340  1.00  0.00     0.053 C 
BRANCH  14  15
ATOM     15  C   UNL     1     -11.261  23.778   2.392  1.00  0.00     0.041 C 
ATOM     16  O   UNL     1     -12.274  23.213   1.904  1.00  0.00    -0.550 OA
ATOM     17  O   UNL     1     -10.983  25.099   2.058  1.00  0.00    -0.550 OA
ENDBRANCH  14  15
ENDBRANCH  13  14
ENDBRANCH  12  13
ENDBRANCH  11  12
ENDBRANCH  10  11
ENDBRANCH   9  10
ENDBRANCH   8   9
ENDBRANCH   7   8
ENDBRANCH   6   7
ENDBRANCH   5   6
ENDBRANCH   4   5
ENDBRANCH   3   4
ENDBRANCH   2   3
ENDBRANCH   1   2
BRANCH   1  18
ATOM     18  C   UNL     1       1.546  23.322   7.650  1.00  0.00     0.000 C 
BRANCH  18  19
ATOM     19  C   UNL     1       2.127  21.926   7.370  1.00  0.00     0.000 C 
BRANCH  19  20
ATOM     20  C   UNL     1       3.665  21.905   7.356  1.00  0.00     0.000 C 
BRANCH  20  21
ATOM     21  C   UNL     1       4.243  21.767   5.936  1.00  0.00     0.000 C 
BRANCH  21  22
ATOM     22  C   UNL     1       3.271  21.086   4.961  1.00  0.00     0.000 C 
BRANCH  22  23
ATOM     23  C   UNL     1       3.535  21.476   3.493  1.00  0.00     0.000 C 
BRANCH  23  24
ATOM     24  C   UNL     1       4.740  22.420   3.346  1.00  0.00    -0.000 C 
BRANCH  24  25
ATOM     25  C   UNL     1       4.390  23.879   3.697  1.00  0.00    -0.000 C 
BRANCH  25  26
ATOM     26  C   UNL     1       4.820  24.878   2.605  1.00  0.00    -0.000 C 
BRANCH  26  27
ATOM     27  C   UNL     1       4.030  26.201   2.611  1.00  0.00    -0.000 C 
BRANCH  27  28
ATOM     28  C   UNL     1       2.522  26.074   2.318  1.00  0.00    -0.000 C 
BRANCH  28  29
ATOM     29  C   UNL     1       2.025  24.637   2.062  1.00  0.00    -0.000 C 
BRANCH  29  30
ATOM     30  C   UNL     1       0.505  24.491   2.233  1.00  0.00    -0.000 C 
BRANCH  30  31
ATOM     31  C   UNL     1       0.060  23.054   1.939  1.00  0.00    -0.003 C 
ATOM     32  C   UNL     1       1.197  22.063   2.177  1.00  0.00     0.004 C 
ENDBRANCH  30  31
ENDBRANCH  29  30
ENDBRANCH  28  29
ENDBRANCH  27  28
ENDBRANCH  26  27
ENDBRANCH  25  26
ENDBRANCH  24  25
ENDBRANCH  23  24
ENDBRANCH  22  23
ENDBRANCH  21  22
ENDBRANCH  20  21
ENDBRANCH  19  20
ENDBRANCH  18  19
ENDBRANCH   1  18
TORSDOF 28
ENDMDL
