MODEL 1
REMARK VINA RESULT:    -4.047      0.000      0.000
REMARK INTER + INTRA:         -12.790
REMARK INTER:                  -9.251
REMARK INTRA:                  -3.539
REMARK UNBOUND:                -3.539
REMARK SMILES CCCCCCCCCCCCCCCCCCCCCCCC(=O)[O-]
REMARK SMILES IDX 13 1 14 2 15 3 16 4 17 5 18 6 19 7 20 8 21 9 22 10 23 11
REMARK SMILES IDX 24 12 25 13 26 14 12 15 11 16 10 17 9 18 8 19 7 20 6 21 5 22
REMARK SMILES IDX 4 23 3 24 2 25 1 26
REMARK H PARENT
REMARK Flexibility Score: inf
ROOT
ATOM      1  C   UNL     1     -31.386  13.913  18.110  1.00  0.00     0.000 C 
ENDROOT
BRANCH   1   2
ATOM      2  C   UNL     1     -31.087  14.789  16.877  1.00  0.00     0.000 C 
BRANCH   2   3
ATOM      3  C   UNL     1     -29.691  14.587  16.253  1.00  0.00     0.000 C 
BRANCH   3   4
ATOM      4  C   UNL     1     -29.639  14.707  14.718  1.00  0.00     0.000 C 
BRANCH   4   5
ATOM      5  C   UNL     1     -30.969  15.113  14.056  1.00  0.00     0.000 C 
BRANCH   5   6
ATOM      6  C   UNL     1     -31.433  14.139  12.949  1.00  0.00     0.000 C 
BRANCH   6   7
ATOM      7  C   UNL     1     -32.688  13.348  13.356  1.00  0.00     0.000 C 
BRANCH   7   8
ATOM      8  C   UNL     1     -32.418  11.840  13.499  1.00  0.00     0.000 C 
BRANCH   8   9
ATOM      9  C   UNL     1     -32.056  11.440  14.939  1.00  0.00     0.000 C 
BRANCH   9  10
ATOM     10  C   UNL     1     -30.561  11.121  15.119  1.00  0.00     0.006 C 
BRANCH  10  11
ATOM     11  C   UNL     1     -29.970  10.232  14.009  1.00  0.00     0.053 C 
BRANCH  11  12
ATOM     12  C   UNL     1     -28.659  10.742  13.493  1.00  0.00     0.041 C 
ATOM     13  O   UNL     1     -28.569  11.907  13.021  1.00  0.00    -0.550 OA
ATOM     14  O   UNL     1     -27.525   9.942  13.568  1.00  0.00    -0.550 OA
ENDBRANCH  11  12
ENDBRANCH  10  11
ENDBRANCH   9  10
ENDBRANCH   8   9
ENDBRANCH   7   8
ENDBRANCH   6   7
ENDBRANCH   5   6
ENDBRANCH   4   5
ENDBRANCH   3   4
ENDBRANCH   2   3
ENDBRANCH   1   2
BRANCH   1  15
ATOM     15  C   UNL     1     -30.364  12.791  18.376  1.00  0.00     0.000 C 
BRANCH  15  16
ATOM     16  C   UNL     1     -29.465  13.011  19.608  1.00  0.00     0.000 C 
BRANCH  16  17
ATOM     17  C   UNL     1     -29.781  14.275  20.432  1.00  0.00     0.000 C 
BRANCH  17  18
ATOM     18  C   UNL     1     -28.644  15.310  20.500  1.00  0.00    -0.000 C 
BRANCH  18  19
ATOM     19  C   UNL     1     -28.702  16.336  19.359  1.00  0.00    -0.000 C 
BRANCH  19  20
ATOM     20  C   UNL     1     -28.799  17.765  19.914  1.00  0.00    -0.000 C 
BRANCH  20  21
ATOM     21  C   UNL     1     -27.613  18.129  20.820  1.00  0.00    -0.000 C 
BRANCH  21  22
ATOM     22  C   UNL     1     -28.053  18.517  22.242  1.00  0.00    -0.000 C 
BRANCH  22  23
ATOM     23  C   UNL     1     -29.583  18.536  22.407  1.00  0.00    -0.000 C 
BRANCH  23  24
ATOM     24  C   UNL     1     -30.167  17.355  23.210  1.00  0.00    -0.000 C 
BRANCH  24  25
ATOM     25  C   UNL     1     -31.703  17.312  23.274  1.00  0.00    -0.003 C 
ATOM     26  C   UNL     1     -32.325  16.501  22.137  1.00  0.00     0.004 C 
ENDBRANCH  24  25
ENDBRANCH  23  24
ENDBRANCH  22  23
ENDBRANCH  21  22
ENDBRANCH  20  21
ENDBRANCH  19  20
ENDBRANCH  18  19
ENDBRANCH  17  18
ENDBRANCH  16  17
ENDBRANCH  15  16
ENDBRANCH   1  15
TORSDOF 22
ENDMDL
MODEL 2
REMARK VINA RESULT:    -4.046      1.389      2.123
REMARK INTER + INTRA:         -12.788
REMARK INTER:                  -9.866
REMARK INTRA:                  -2.922
REMARK UNBOUND:                -3.539
REMARK SMILES CCCCCCCCCCCCCCCCCCCCCCCC(=O)[O-]
REMARK SMILES IDX 13 1 14 2 15 3 16 4 17 5 18 6 19 7 20 8 21 9 22 10 23 11
REMARK SMILES IDX 24 12 25 13 26 14 12 15 11 16 10 17 9 18 8 19 7 20 6 21 5 22
REMARK SMILES IDX 4 23 3 24 2 25 1 26
REMARK H PARENT
REMARK Flexibility Score: inf
ROOT
ATOM      1  C   UNL     1     -30.459  14.850  17.323  1.00  0.00     0.000 C 
ENDROOT
BRANCH   1   2
ATOM      2  C   UNL     1     -31.250  14.726  16.006  1.00  0.00     0.000 C 
BRANCH   2   3
ATOM      3  C   UNL     1     -30.410  14.878  14.721  1.00  0.00     0.000 C 
BRANCH   3   4
ATOM      4  C   UNL     1     -31.128  14.469  13.421  1.00  0.00     0.000 C 
BRANCH   4   5
ATOM      5  C   UNL     1     -32.661  14.364  13.533  1.00  0.00     0.000 C 
BRANCH   5   6
ATOM      6  C   UNL     1     -33.190  12.914  13.466  1.00  0.00     0.000 C 
BRANCH   6   7
ATOM      7  C   UNL     1     -32.085  11.904  13.110  1.00  0.00     0.000 C 
BRANCH   7   8
ATOM      8  C   UNL     1     -32.156  10.625  13.960  1.00  0.00     0.000 C 
BRANCH   8   9
ATOM      9  C   UNL     1     -31.627  10.835  15.389  1.00  0.00     0.000 C 
BRANCH   9  10
ATOM     10  C   UNL     1     -30.178  11.354  15.425  1.00  0.00     0.006 C 
BRANCH  10  11
ATOM     11  C   UNL     1     -29.174  10.465  14.669  1.00  0.00     0.053 C 
BRANCH  11  12
ATOM     12  C   UNL     1     -28.672  11.098  13.407  1.00  0.00     0.041 C 
ATOM     13  O   UNL     1     -28.685  10.457  12.323  1.00  0.00    -0.550 OA
ATOM     14  O   UNL     1     -28.225  12.414  13.420  1.00  0.00    -0.550 OA
ENDBRANCH  11  12
ENDBRANCH  10  11
ENDBRANCH   9  10
ENDBRANCH   8   9
ENDBRANCH   7   8
ENDBRANCH   6   7
ENDBRANCH   5   6
ENDBRANCH   4   5
ENDBRANCH   3   4
ENDBRANCH   2   3
ENDBRANCH   1   2
BRANCH   1  15
ATOM     15  C   UNL     1     -28.948  14.572  17.205  1.00  0.00     0.000 C 
BRANCH  15  16
ATOM     16  C   UNL     1     -28.043  15.801  17.415  1.00  0.00     0.000 C 
BRANCH  16  17
ATOM     17  C   UNL     1     -27.928  16.288  18.874  1.00  0.00     0.000 C 
BRANCH  17  18
ATOM     18  C   UNL     1     -28.705  17.578  19.192  1.00  0.00    -0.000 C 
BRANCH  18  19
ATOM     19  C   UNL     1     -29.452  17.510  20.531  1.00  0.00    -0.000 C 
BRANCH  19  20
ATOM     20  C   UNL     1     -29.833  16.061  20.871  1.00  0.00    -0.000 C 
BRANCH  20  21
ATOM     21  C   UNL     1     -29.374  15.643  22.276  1.00  0.00    -0.000 C 
BRANCH  21  22
ATOM     22  C   UNL     1     -29.652  16.725  23.335  1.00  0.00    -0.000 C 
BRANCH  22  23
ATOM     23  C   UNL     1     -31.031  16.565  23.999  1.00  0.00    -0.000 C 
BRANCH  23  24
ATOM     24  C   UNL     1     -32.139  17.472  23.426  1.00  0.00    -0.000 C 
BRANCH  24  25
ATOM     25  C   UNL     1     -33.356  16.726  22.850  1.00  0.00    -0.003 C 
ATOM     26  C   UNL     1     -33.104  15.230  22.664  1.00  0.00     0.004 C 
ENDBRANCH  24  25
ENDBRANCH  23  24
ENDBRANCH  22  23
ENDBRANCH  21  22
ENDBRANCH  20  21
ENDBRANCH  19  20
ENDBRANCH  18  19
ENDBRANCH  17  18
ENDBRANCH  16  17
ENDBRANCH  15  16
ENDBRANCH   1  15
TORSDOF 22
ENDMDL
MODEL 3
REMARK VINA RESULT:    -4.019      3.014      5.895
REMARK INTER + INTRA:         -12.728
REMARK INTER:                 -10.090
REMARK INTRA:                  -2.638
REMARK UNBOUND:                -3.539
REMARK SMILES CCCCCCCCCCCCCCCCCCCCCCCC(=O)[O-]
REMARK SMILES IDX 13 1 14 2 15 3 16 4 17 5 18 6 19 7 20 8 21 9 22 10 23 11
REMARK SMILES IDX 24 12 25 13 26 14 12 15 11 16 10 17 9 18 8 19 7 20 6 21 5 22
REMARK SMILES IDX 4 23 3 24 2 25 1 26
REMARK H PARENT
REMARK Flexibility Score: inf
ROOT
ATOM      1  C   UNL     1     -32.040  16.612  22.503  1.00  0.00     0.000 C 
ENDROOT
BRANCH   1   2
ATOM      2  C   UNL     1     -30.617  17.120  22.200  1.00  0.00     0.000 C 
BRANCH   2   3
ATOM      3  C   UNL     1     -29.995  16.585  20.893  1.00  0.00     0.000 C 
BRANCH   3   4
ATOM      4  C   UNL     1     -29.068  17.573  20.161  1.00  0.00     0.000 C 
BRANCH   4   5
ATOM      5  C   UNL     1     -28.235  16.956  19.021  1.00  0.00     0.000 C 
BRANCH   5   6
ATOM      6  C   UNL     1     -29.088  16.420  17.850  1.00  0.00     0.000 C 
BRANCH   6   7
ATOM      7  C   UNL     1     -28.800  14.938  17.548  1.00  0.00     0.000 C 
BRANCH   7   8
ATOM      8  C   UNL     1     -30.075  14.143  17.220  1.00  0.00     0.000 C 
BRANCH   8   9
ATOM      9  C   UNL     1     -30.021  13.489  15.829  1.00  0.00     0.000 C 
BRANCH   9  10
ATOM     10  C   UNL     1     -29.732  14.496  14.701  1.00  0.00     0.006 C 
BRANCH  10  11
ATOM     11  C   UNL     1     -30.995  15.115  14.073  1.00  0.00     0.053 C 
BRANCH  11  12
ATOM     12  C   UNL     1     -31.613  14.238  13.026  1.00  0.00     0.041 C 
ATOM     13  O   UNL     1     -32.865  14.136  12.940  1.00  0.00    -0.550 OA
ATOM     14  O   UNL     1     -30.804  13.563  12.120  1.00  0.00    -0.550 OA
ENDBRANCH  11  12
ENDBRANCH  10  11
ENDBRANCH   9  10
ENDBRANCH   8   9
ENDBRANCH   7   8
ENDBRANCH   6   7
ENDBRANCH   5   6
ENDBRANCH   4   5
ENDBRANCH   3   4
ENDBRANCH   2   3
ENDBRANCH   1   2
BRANCH   1  15
ATOM     15  C   UNL     1     -32.772  17.359  23.635  1.00  0.00     0.000 C 
BRANCH  15  16
ATOM     16  C   UNL     1     -33.618  16.465  24.562  1.00  0.00     0.000 C 
BRANCH  16  17
ATOM     17  C   UNL     1     -33.491  14.950  24.305  1.00  0.00     0.000 C 
BRANCH  17  18
ATOM     18  C   UNL     1     -33.299  14.090  25.567  1.00  0.00    -0.000 C 
BRANCH  18  19
ATOM     19  C   UNL     1     -32.915  14.919  26.801  1.00  0.00    -0.000 C 
BRANCH  19  20
ATOM     20  C   UNL     1     -31.786  14.237  27.587  1.00  0.00    -0.000 C 
BRANCH  20  21
ATOM     21  C   UNL     1     -30.445  14.974  27.457  1.00  0.00    -0.000 C 
BRANCH  21  22
ATOM     22  C   UNL     1     -29.268  14.018  27.192  1.00  0.00    -0.000 C 
BRANCH  22  23
ATOM     23  C   UNL     1     -28.656  14.204  25.792  1.00  0.00    -0.000 C 
BRANCH  23  24
ATOM     24  C   UNL     1     -29.642  14.686  24.708  1.00  0.00    -0.000 C 
BRANCH  24  25
ATOM     25  C   UNL     1     -29.945  13.659  23.604  1.00  0.00    -0.003 C 
ATOM     26  C   UNL     1     -30.457  12.327  24.153  1.00  0.00     0.004 C 
ENDBRANCH  24  25
ENDBRANCH  23  24
ENDBRANCH  22  23
ENDBRANCH  21  22
ENDBRANCH  20  21
ENDBRANCH  19  20
ENDBRANCH  18  19
ENDBRANCH  17  18
ENDBRANCH  16  17
ENDBRANCH  15  16
ENDBRANCH   1  15
TORSDOF 22
ENDMDL
MODEL 4
REMARK VINA RESULT:    -3.977      3.334      5.742
REMARK INTER + INTRA:         -12.630
REMARK INTER:                  -7.946
REMARK INTRA:                  -4.684
REMARK UNBOUND:                -3.539
REMARK SMILES CCCCCCCCCCCCCCCCCCCCCCCC(=O)[O-]
REMARK SMILES IDX 13 1 14 2 15 3 16 4 17 5 18 6 19 7 20 8 21 9 22 10 23 11
REMARK SMILES IDX 24 12 25 13 26 14 12 15 11 16 10 17 9 18 8 19 7 20 6 21 5 22
REMARK SMILES IDX 4 23 3 24 2 25 1 26
REMARK H PARENT
REMARK Flexibility Score: inf
ROOT
ATOM      1  C   UNL     1     -29.605  14.238  14.273  1.00  0.00     0.000 C 
ENDROOT
BRANCH   1   2
ATOM      2  C   UNL     1     -29.704  12.725  14.551  1.00  0.00     0.000 C 
BRANCH   2   3
ATOM      3  C   UNL     1     -29.108  11.818  13.455  1.00  0.00     0.000 C 
BRANCH   3   4
ATOM      4  C   UNL     1     -30.102  11.369  12.368  1.00  0.00     0.000 C 
BRANCH   4   5
ATOM      5  C   UNL     1     -30.457   9.870  12.395  1.00  0.00     0.000 C 
BRANCH   5   6
ATOM      6  C   UNL     1     -31.962   9.585  12.193  1.00  0.00     0.000 C 
BRANCH   6   7
ATOM      7  C   UNL     1     -32.605   8.931  13.429  1.00  0.00     0.000 C 
BRANCH   7   8
ATOM      8  C   UNL     1     -31.625   8.029  14.198  1.00  0.00     0.000 C 
BRANCH   8   9
ATOM      9  C   UNL     1     -31.543   8.386  15.691  1.00  0.00     0.000 C 
BRANCH   9  10
ATOM     10  C   UNL     1     -30.485   9.462  15.997  1.00  0.00     0.006 C 
BRANCH  10  11
ATOM     11  C   UNL     1     -29.042   8.928  16.044  1.00  0.00     0.053 C 
BRANCH  11  12
ATOM     12  C   UNL     1     -28.869   7.806  17.023  1.00  0.00     0.041 C 
ATOM     13  O   UNL     1     -28.843   8.037  18.261  1.00  0.00    -0.550 OA
ATOM     14  O   UNL     1     -28.776   6.496  16.567  1.00  0.00    -0.550 OA
ENDBRANCH  11  12
ENDBRANCH  10  11
ENDBRANCH   9  10
ENDBRANCH   8   9
ENDBRANCH   7   8
ENDBRANCH   6   7
ENDBRANCH   5   6
ENDBRANCH   4   5
ENDBRANCH   3   4
ENDBRANCH   2   3
ENDBRANCH   1   2
BRANCH   1  15
ATOM     15  C   UNL     1     -30.956  14.967  14.140  1.00  0.00     0.000 C 
BRANCH  15  16
ATOM     16  C   UNL     1     -31.909  14.380  13.081  1.00  0.00     0.000 C 
BRANCH  16  17
ATOM     17  C   UNL     1     -33.310  13.997  13.601  1.00  0.00     0.000 C 
BRANCH  17  18
ATOM     18  C   UNL     1     -33.498  12.504  13.924  1.00  0.00    -0.000 C 
BRANCH  18  19
ATOM     19  C   UNL     1     -33.025  12.136  15.338  1.00  0.00    -0.000 C 
BRANCH  19  20
ATOM     20  C   UNL     1     -33.493  13.182  16.360  1.00  0.00    -0.000 C 
BRANCH  20  21
ATOM     21  C   UNL     1     -32.343  13.717  17.227  1.00  0.00    -0.000 C 
BRANCH  21  22
ATOM     22  C   UNL     1     -31.766  12.645  18.168  1.00  0.00    -0.000 C 
BRANCH  22  23
ATOM     23  C   UNL     1     -30.233  12.541  18.081  1.00  0.00    -0.000 C 
BRANCH  23  24
ATOM     24  C   UNL     1     -29.462  13.670  18.796  1.00  0.00    -0.000 C 
BRANCH  24  25
ATOM     25  C   UNL     1     -28.595  14.546  17.876  1.00  0.00    -0.003 C 
ATOM     26  C   UNL     1     -29.258  15.877  17.521  1.00  0.00     0.004 C 
ENDBRANCH  24  25
ENDBRANCH  23  24
ENDBRANCH  22  23
ENDBRANCH  21  22
ENDBRANCH  20  21
ENDBRANCH  19  20
ENDBRANCH  18  19
ENDBRANCH  17  18
ENDBRANCH  16  17
ENDBRANCH  15  16
ENDBRANCH   1  15
TORSDOF 22
ENDMDL
MODEL 5
REMARK VINA RESULT:    -3.967      6.830      9.719
REMARK INTER + INTRA:         -12.609
REMARK INTER:                  -8.988
REMARK INTRA:                  -3.621
REMARK UNBOUND:                -3.539
REMARK SMILES CCCCCCCCCCCCCCCCCCCCCCCC(=O)[O-]
REMARK SMILES IDX 13 1 14 2 15 3 16 4 17 5 18 6 19 7 20 8 21 9 22 10 23 11
REMARK SMILES IDX 24 12 25 13 26 14 12 15 11 16 10 17 9 18 8 19 7 20 6 21 5 22
REMARK SMILES IDX 4 23 3 24 2 25 1 26
REMARK H PARENT
REMARK Flexibility Score: inf
ROOT
ATOM      1  C   UNL     1     -32.289  14.054  25.324  1.00  0.00     0.000 C 
ENDROOT
BRANCH   1   2
ATOM      2  C   UNL     1     -31.768  14.886  26.512  1.00  0.00     0.000 C 
BRANCH   2   3
ATOM      3  C   UNL     1     -31.229  14.064  27.701  1.00  0.00     0.000 C 
BRANCH   3   4
ATOM      4  C   UNL     1     -30.067  13.113  27.362  1.00  0.00     0.000 C 
BRANCH   4   5
ATOM      5  C   UNL     1     -28.809  13.802  26.799  1.00  0.00     0.000 C 
BRANCH   5   6
ATOM      6  C   UNL     1     -28.518  13.452  25.323  1.00  0.00     0.000 C 
BRANCH   6   7
ATOM      7  C   UNL     1     -28.763  14.644  24.380  1.00  0.00     0.000 C 
BRANCH   7   8
ATOM      8  C   UNL     1     -27.471  15.144  23.711  1.00  0.00     0.000 C 
BRANCH   8   9
ATOM      9  C   UNL     1     -26.714  16.164  24.578  1.00  0.00     0.000 C 
BRANCH   9  10
ATOM     10  C   UNL     1     -25.191  15.937  24.583  1.00  0.00     0.006 C 
BRANCH  10  11
ATOM     11  C   UNL     1     -24.586  15.769  25.989  1.00  0.00     0.053 C 
BRANCH  11  12
ATOM     12  C   UNL     1     -24.762  14.385  26.535  1.00  0.00     0.041 C 
ATOM     13  O   UNL     1     -24.699  14.176  27.776  1.00  0.00    -0.550 OA
ATOM     14  O   UNL     1     -25.033  13.328  25.674  1.00  0.00    -0.550 OA
ENDBRANCH  11  12
ENDBRANCH  10  11
ENDBRANCH   9  10
ENDBRANCH   8   9
ENDBRANCH   7   8
ENDBRANCH   6   7
ENDBRANCH   5   6
ENDBRANCH   4   5
ENDBRANCH   3   4
ENDBRANCH   2   3
ENDBRANCH   1   2
BRANCH   1  15
ATOM     15  C   UNL     1     -33.444  14.698  24.532  1.00  0.00     0.000 C 
BRANCH  15  16
ATOM     16  C   UNL     1     -33.423  16.238  24.490  1.00  0.00     0.000 C 
BRANCH  16  17
ATOM     17  C   UNL     1     -33.326  16.852  23.079  1.00  0.00     0.000 C 
BRANCH  17  18
ATOM     18  C   UNL     1     -31.926  16.796  22.440  1.00  0.00    -0.000 C 
BRANCH  18  19
ATOM     19  C   UNL     1     -30.835  17.395  23.340  1.00  0.00    -0.000 C 
BRANCH  19  20
ATOM     20  C   UNL     1     -29.774  18.121  22.501  1.00  0.00    -0.000 C 
BRANCH  20  21
ATOM     21  C   UNL     1     -29.583  17.491  21.114  1.00  0.00    -0.000 C 
BRANCH  21  22
ATOM     22  C   UNL     1     -28.179  17.746  20.537  1.00  0.00    -0.000 C 
BRANCH  22  23
ATOM     23  C   UNL     1     -27.172  18.206  21.606  1.00  0.00    -0.000 C 
BRANCH  23  24
ATOM     24  C   UNL     1     -25.700  17.855  21.308  1.00  0.00    -0.000 C 
BRANCH  24  25
ATOM     25  C   UNL     1     -25.497  16.754  20.252  1.00  0.00    -0.003 C 
ATOM     26  C   UNL     1     -25.066  15.419  20.859  1.00  0.00     0.004 C 
ENDBRANCH  24  25
ENDBRANCH  23  24
ENDBRANCH  22  23
ENDBRANCH  21  22
ENDBRANCH  20  21
ENDBRANCH  19  20
ENDBRANCH  18  19
ENDBRANCH  17  18
ENDBRANCH  16  17
ENDBRANCH  15  16
ENDBRANCH   1  15
TORSDOF 22
ENDMDL
MODEL 6
REMARK VINA RESULT:    -3.966      2.682      5.787
REMARK INTER + INTRA:         -12.605
REMARK INTER:                  -9.391
REMARK INTRA:                  -3.213
REMARK UNBOUND:                -3.539
REMARK SMILES CCCCCCCCCCCCCCCCCCCCCCCC(=O)[O-]
REMARK SMILES IDX 13 1 14 2 15 3 16 4 17 5 18 6 19 7 20 8 21 9 22 10 23 11
REMARK SMILES IDX 24 12 25 13 26 14 12 15 11 16 10 17 9 18 8 19 7 20 6 21 5 22
REMARK SMILES IDX 4 23 3 24 2 25 1 26
REMARK H PARENT
REMARK Flexibility Score: inf
ROOT
ATOM      1  C   UNL     1     -30.328  18.159  22.769  1.00  0.00     0.000 C 
ENDROOT
BRANCH   1   2
ATOM      2  C   UNL     1     -29.156  17.666  21.897  1.00  0.00     0.000 C 
BRANCH   2   3
ATOM      3  C   UNL     1     -28.447  16.395  22.410  1.00  0.00     0.000 C 
BRANCH   3   4
ATOM      4  C   UNL     1     -28.194  15.314  21.343  1.00  0.00     0.000 C 
BRANCH   4   5
ATOM      5  C   UNL     1     -28.879  15.570  19.987  1.00  0.00     0.000 C 
BRANCH   5   6
ATOM      6  C   UNL     1     -28.009  15.186  18.770  1.00  0.00     0.000 C 
BRANCH   6   7
ATOM      7  C   UNL     1     -28.374  15.994  17.512  1.00  0.00     0.000 C 
BRANCH   7   8
ATOM      8  C   UNL     1     -29.113  15.150  16.459  1.00  0.00     0.000 C 
BRANCH   8   9
ATOM      9  C   UNL     1     -30.589  14.915  16.821  1.00  0.00     0.000 C 
BRANCH   9  10
ATOM     10  C   UNL     1     -31.416  14.361  15.648  1.00  0.00     0.006 C 
BRANCH  10  11
ATOM     11  C   UNL     1     -31.012  14.925  14.273  1.00  0.00     0.053 C 
BRANCH  11  12
ATOM     12  C   UNL     1     -30.508  13.869  13.337  1.00  0.00     0.041 C 
ATOM     13  O   UNL     1     -29.672  13.014  13.732  1.00  0.00    -0.550 OA
ATOM     14  O   UNL     1     -30.991  13.806  12.035  1.00  0.00    -0.550 OA
ENDBRANCH  11  12
ENDBRANCH  10  11
ENDBRANCH   9  10
ENDBRANCH   8   9
ENDBRANCH   7   8
ENDBRANCH   6   7
ENDBRANCH   5   6
ENDBRANCH   4   5
ENDBRANCH   3   4
ENDBRANCH   2   3
ENDBRANCH   1   2
BRANCH   1  15
ATOM     15  C   UNL     1     -31.249  17.048  23.312  1.00  0.00     0.000 C 
BRANCH  15  16
ATOM     16  C   UNL     1     -32.319  16.550  22.321  1.00  0.00     0.000 C 
BRANCH  16  17
ATOM     17  C   UNL     1     -32.353  15.023  22.109  1.00  0.00     0.000 C 
BRANCH  17  18
ATOM     18  C   UNL     1     -31.348  14.225  22.960  1.00  0.00    -0.000 C 
BRANCH  18  19
ATOM     19  C   UNL     1     -32.024  13.176  23.854  1.00  0.00    -0.000 C 
BRANCH  19  20
ATOM     20  C   UNL     1     -33.484  13.560  24.139  1.00  0.00    -0.000 C 
BRANCH  20  21
ATOM     21  C   UNL     1     -33.755  13.788  25.633  1.00  0.00    -0.000 C 
BRANCH  21  22
ATOM     22  C   UNL     1     -32.936  14.957  26.211  1.00  0.00    -0.000 C 
BRANCH  22  23
ATOM     23  C   UNL     1     -32.279  14.613  27.559  1.00  0.00    -0.000 C 
BRANCH  23  24
ATOM     24  C   UNL     1     -30.736  14.639  27.557  1.00  0.00    -0.000 C 
BRANCH  24  25
ATOM     25  C   UNL     1     -30.103  15.419  26.392  1.00  0.00    -0.003 C 
ATOM     26  C   UNL     1     -28.950  14.666  25.728  1.00  0.00     0.004 C 
ENDBRANCH  24  25
ENDBRANCH  23  24
ENDBRANCH  22  23
ENDBRANCH  21  22
ENDBRANCH  20  21
ENDBRANCH  19  20
ENDBRANCH  18  19
ENDBRANCH  17  18
ENDBRANCH  16  17
ENDBRANCH  15  16
ENDBRANCH   1  15
TORSDOF 22
ENDMDL
MODEL 7
REMARK VINA RESULT:    -3.929      6.377      9.677
REMARK INTER + INTRA:         -12.521
REMARK INTER:                  -7.877
REMARK INTRA:                  -4.644
REMARK UNBOUND:                -3.539
REMARK SMILES CCCCCCCCCCCCCCCCCCCCCCCC(=O)[O-]
REMARK SMILES IDX 13 1 14 2 15 3 16 4 17 5 18 6 19 7 20 8 21 9 22 10 23 11
REMARK SMILES IDX 24 12 25 13 26 14 12 15 11 16 10 17 9 18 8 19 7 20 6 21 5 22
REMARK SMILES IDX 4 23 3 24 2 25 1 26
REMARK H PARENT
REMARK Flexibility Score: inf
ROOT
ATOM      1  C   UNL     1     -25.385  13.667  23.320  1.00  0.00     0.000 C 
ENDROOT
BRANCH   1   2
ATOM      2  C   UNL     1     -23.884  13.317  23.265  1.00  0.00     0.000 C 
BRANCH   2   3
ATOM      3  C   UNL     1     -23.082  14.046  22.167  1.00  0.00     0.000 C 
BRANCH   3   4
ATOM      4  C   UNL     1     -22.633  15.475  22.528  1.00  0.00     0.000 C 
BRANCH   4   5
ATOM      5  C   UNL     1     -23.202  16.581  21.618  1.00  0.00     0.000 C 
BRANCH   5   6
ATOM      6  C   UNL     1     -23.905  17.719  22.391  1.00  0.00     0.000 C 
BRANCH   6   7
ATOM      7  C   UNL     1     -25.247  17.272  22.998  1.00  0.00     0.000 C 
BRANCH   7   8
ATOM      8  C   UNL     1     -25.667  18.131  24.202  1.00  0.00     0.000 C 
BRANCH   8   9
ATOM      9  C   UNL     1     -24.808  17.860  25.448  1.00  0.00     0.000 C 
BRANCH   9  10
ATOM     10  C   UNL     1     -24.666  16.362  25.769  1.00  0.00     0.006 C 
BRANCH  10  11
ATOM     11  C   UNL     1     -23.240  15.936  26.165  1.00  0.00     0.053 C 
BRANCH  11  12
ATOM     12  C   UNL     1     -23.222  14.913  27.260  1.00  0.00     0.041 C 
ATOM     13  O   UNL     1     -24.289  14.355  27.629  1.00  0.00    -0.550 OA
ATOM     14  O   UNL     1     -22.017  14.547  27.849  1.00  0.00    -0.550 OA
ENDBRANCH  11  12
ENDBRANCH  10  11
ENDBRANCH   9  10
ENDBRANCH   8   9
ENDBRANCH   7   8
ENDBRANCH   6   7
ENDBRANCH   5   6
ENDBRANCH   4   5
ENDBRANCH   3   4
ENDBRANCH   2   3
ENDBRANCH   1   2
BRANCH   1  15
ATOM     15  C   UNL     1     -26.203  13.224  22.092  1.00  0.00     0.000 C 
BRANCH  15  16
ATOM     16  C   UNL     1     -26.918  14.364  21.341  1.00  0.00     0.000 C 
BRANCH  16  17
ATOM     17  C   UNL     1     -26.134  14.958  20.153  1.00  0.00     0.000 C 
BRANCH  17  18
ATOM     18  C   UNL     1     -26.683  16.290  19.612  1.00  0.00    -0.000 C 
BRANCH  18  19
ATOM     19  C   UNL     1     -28.187  16.236  19.309  1.00  0.00    -0.000 C 
BRANCH  19  20
ATOM     20  C   UNL     1     -28.888  17.514  19.795  1.00  0.00    -0.000 C 
BRANCH  20  21
ATOM     21  C   UNL     1     -28.145  18.190  20.957  1.00  0.00    -0.000 C 
BRANCH  21  22
ATOM     22  C   UNL     1     -29.082  18.561  22.120  1.00  0.00    -0.000 C 
BRANCH  22  23
ATOM     23  C   UNL     1     -29.696  17.327  22.805  1.00  0.00    -0.000 C 
BRANCH  23  24
ATOM     24  C   UNL     1     -28.687  16.421  23.541  1.00  0.00    -0.000 C 
BRANCH  24  25
ATOM     25  C   UNL     1     -29.240  15.721  24.794  1.00  0.00    -0.003 C 
ATOM     26  C   UNL     1     -28.221  14.795  25.458  1.00  0.00     0.004 C 
ENDBRANCH  24  25
ENDBRANCH  23  24
ENDBRANCH  22  23
ENDBRANCH  21  22
ENDBRANCH  20  21
ENDBRANCH  19  20
ENDBRANCH  18  19
ENDBRANCH  17  18
ENDBRANCH  16  17
ENDBRANCH  15  16
ENDBRANCH   1  15
TORSDOF 22
ENDMDL
MODEL 8
REMARK VINA RESULT:    -3.924      7.067      9.320
REMARK INTER + INTRA:         -12.510
REMARK INTER:                  -8.566
REMARK INTRA:                  -3.943
REMARK UNBOUND:                -3.539
REMARK SMILES CCCCCCCCCCCCCCCCCCCCCCCC(=O)[O-]
REMARK SMILES IDX 13 1 14 2 15 3 16 4 17 5 18 6 19 7 20 8 21 9 22 10 23 11
REMARK SMILES IDX 24 12 25 13 26 14 12 15 11 16 10 17 9 18 8 19 7 20 6 21 5 22
REMARK SMILES IDX 4 23 3 24 2 25 1 26
REMARK H PARENT
REMARK Flexibility Score: inf
ROOT
ATOM      1  C   UNL     1     -32.421  16.799  22.828  1.00  0.00     0.000 C 
ENDROOT
BRANCH   1   2
ATOM      2  C   UNL     1     -31.164  17.641  23.125  1.00  0.00     0.000 C 
BRANCH   2   3
ATOM      3  C   UNL     1     -30.093  17.634  22.015  1.00  0.00     0.000 C 
BRANCH   3   4
ATOM      4  C   UNL     1     -28.834  18.469  22.318  1.00  0.00     0.000 C 
BRANCH   4   5
ATOM      5  C   UNL     1     -27.613  18.139  21.439  1.00  0.00     0.000 C 
BRANCH   5   6
ATOM      6  C   UNL     1     -27.451  16.632  21.140  1.00  0.00     0.000 C 
BRANCH   6   7
ATOM      7  C   UNL     1     -26.167  16.048  21.756  1.00  0.00     0.000 C 
BRANCH   7   8
ATOM      8  C   UNL     1     -25.342  17.101  22.515  1.00  0.00     0.000 C 
BRANCH   8   9
ATOM      9  C   UNL     1     -24.955  16.640  23.929  1.00  0.00     0.000 C 
BRANCH   9  10
ATOM     10  C   UNL     1     -24.913  15.108  24.074  1.00  0.00     0.006 C 
BRANCH  10  11
ATOM     11  C   UNL     1     -23.964  14.606  25.178  1.00  0.00     0.053 C 
BRANCH  11  12
ATOM     12  C   UNL     1     -24.611  14.573  26.529  1.00  0.00     0.041 C 
ATOM     13  O   UNL     1     -25.753  14.062  26.677  1.00  0.00    -0.550 OA
ATOM     14  O   UNL     1     -23.934  15.073  27.635  1.00  0.00    -0.550 OA
ENDBRANCH  11  12
ENDBRANCH  10  11
ENDBRANCH   9  10
ENDBRANCH   8   9
ENDBRANCH   7   8
ENDBRANCH   6   7
ENDBRANCH   5   6
ENDBRANCH   4   5
ENDBRANCH   3   4
ENDBRANCH   2   3
ENDBRANCH   1   2
BRANCH   1  15
ATOM     15  C   UNL     1     -33.600  17.024  23.795  1.00  0.00     0.000 C 
BRANCH  15  16
ATOM     16  C   UNL     1     -34.047  15.773  24.575  1.00  0.00     0.000 C 
BRANCH  16  17
ATOM     17  C   UNL     1     -33.186  14.514  24.343  1.00  0.00     0.000 C 
BRANCH  17  18
ATOM     18  C   UNL     1     -32.704  13.811  25.625  1.00  0.00    -0.000 C 
BRANCH  18  19
ATOM     19  C   UNL     1     -32.787  14.710  26.866  1.00  0.00    -0.000 C 
BRANCH  19  20
ATOM     20  C   UNL     1     -31.615  14.435  27.819  1.00  0.00    -0.000 C 
BRANCH  20  21
ATOM     21  C   UNL     1     -30.577  13.475  27.218  1.00  0.00    -0.000 C 
BRANCH  21  22
ATOM     22  C   UNL     1     -29.243  14.172  26.897  1.00  0.00    -0.000 C 
BRANCH  22  23
ATOM     23  C   UNL     1     -29.432  15.484  26.114  1.00  0.00    -0.000 C 
BRANCH  23  24
ATOM     24  C   UNL     1     -28.587  15.603  24.830  1.00  0.00    -0.000 C 
BRANCH  24  25
ATOM     25  C   UNL     1     -28.509  14.321  23.983  1.00  0.00    -0.003 C 
ATOM     26  C   UNL     1     -29.730  14.124  23.085  1.00  0.00     0.004 C 
ENDBRANCH  24  25
ENDBRANCH  23  24
ENDBRANCH  22  23
ENDBRANCH  21  22
ENDBRANCH  20  21
ENDBRANCH  19  20
ENDBRANCH  18  19
ENDBRANCH  17  18
ENDBRANCH  16  17
ENDBRANCH  15  16
ENDBRANCH   1  15
TORSDOF 22
ENDMDL
MODEL 9
REMARK VINA RESULT:    -3.911      1.684      2.585
REMARK INTER + INTRA:         -12.479
REMARK INTER:                  -8.931
REMARK INTRA:                  -3.548
REMARK UNBOUND:                -3.539
REMARK SMILES CCCCCCCCCCCCCCCCCCCCCCCC(=O)[O-]
REMARK SMILES IDX 13 1 14 2 15 3 16 4 17 5 18 6 19 7 20 8 21 9 22 10 23 11
REMARK SMILES IDX 24 12 25 13 26 14 12 15 11 16 10 17 9 18 8 19 7 20 6 21 5 22
REMARK SMILES IDX 4 23 3 24 2 25 1 26
REMARK H PARENT
REMARK Flexibility Score: inf
ROOT
ATOM      1  C   UNL     1     -29.394  15.065  17.169  1.00  0.00     0.000 C 
ENDROOT
BRANCH   1   2
ATOM      2  C   UNL     1     -30.792  14.931  16.535  1.00  0.00     0.000 C 
BRANCH   2   3
ATOM      3  C   UNL     1     -31.495  13.580  16.778  1.00  0.00     0.000 C 
BRANCH   3   4
ATOM      4  C   UNL     1     -32.905  13.460  16.169  1.00  0.00     0.000 C 
BRANCH   4   5
ATOM      5  C   UNL     1     -33.101  12.261  15.222  1.00  0.00     0.000 C 
BRANCH   5   6
ATOM      6  C   UNL     1     -33.181  12.655  13.730  1.00  0.00     0.000 C 
BRANCH   6   7
ATOM      7  C   UNL     1     -32.839  14.137  13.498  1.00  0.00     0.000 C 
BRANCH   7   8
ATOM      8  C   UNL     1     -31.399  14.341  12.997  1.00  0.00     0.000 C 
BRANCH   8   9
ATOM      9  C   UNL     1     -30.675  13.013  12.724  1.00  0.00     0.000 C 
BRANCH   9  10
ATOM     10  C   UNL     1     -29.529  12.736  13.714  1.00  0.00     0.006 C 
BRANCH  10  11
ATOM     11  C   UNL     1     -29.502  11.296  14.258  1.00  0.00     0.053 C 
BRANCH  11  12
ATOM     12  C   UNL     1     -28.830  10.335  13.326  1.00  0.00     0.041 C 
ATOM     13  O   UNL     1     -27.610  10.056  13.469  1.00  0.00    -0.550 OA
ATOM     14  O   UNL     1     -29.562   9.716  12.320  1.00  0.00    -0.550 OA
ENDBRANCH  11  12
ENDBRANCH  10  11
ENDBRANCH   9  10
ENDBRANCH   8   9
ENDBRANCH   7   8
ENDBRANCH   6   7
ENDBRANCH   5   6
ENDBRANCH   4   5
ENDBRANCH   3   4
ENDBRANCH   2   3
ENDBRANCH   1   2
BRANCH   1  15
ATOM     15  C   UNL     1     -29.069  14.022  18.258  1.00  0.00     0.000 C 
BRANCH  15  16
ATOM     16  C   UNL     1     -28.975  14.586  19.689  1.00  0.00     0.000 C 
BRANCH  16  17
ATOM     17  C   UNL     1     -30.307  15.087  20.283  1.00  0.00     0.000 C 
BRANCH  17  18
ATOM     18  C   UNL     1     -30.182  16.295  21.230  1.00  0.00    -0.000 C 
BRANCH  18  19
ATOM     19  C   UNL     1     -29.454  17.484  20.586  1.00  0.00    -0.000 C 
BRANCH  19  20
ATOM     20  C   UNL     1     -28.597  18.225  21.623  1.00  0.00    -0.000 C 
BRANCH  20  21
ATOM     21  C   UNL     1     -27.112  18.280  21.233  1.00  0.00    -0.000 C 
BRANCH  21  22
ATOM     22  C   UNL     1     -26.417  16.913  21.362  1.00  0.00    -0.000 C 
BRANCH  22  23
ATOM     23  C   UNL     1     -26.515  16.328  22.782  1.00  0.00    -0.000 C 
BRANCH  23  24
ATOM     24  C   UNL     1     -27.091  14.899  22.860  1.00  0.00    -0.000 C 
BRANCH  24  25
ATOM     25  C   UNL     1     -28.224  14.711  23.883  1.00  0.00    -0.003 C 
ATOM     26  C   UNL     1     -28.586  16.003  24.616  1.00  0.00     0.004 C 
ENDBRANCH  24  25
ENDBRANCH  23  24
ENDBRANCH  22  23
ENDBRANCH  21  22
ENDBRANCH  20  21
ENDBRANCH  19  20
ENDBRANCH  18  19
ENDBRANCH  17  18
ENDBRANCH  16  17
ENDBRANCH  15  16
ENDBRANCH   1  15
TORSDOF 22
ENDMDL
