MODEL 1
REMARK VINA RESULT:    -4.456      0.000      0.000
REMARK INTER + INTRA:         -13.698
REMARK INTER:                 -11.749
REMARK INTRA:                  -1.949
REMARK UNBOUND:                -1.949
REMARK SMILES CCCCCCCCCCCCCCCCCCCCCCCCCCCCCC(=O)[O-]
REMARK SMILES IDX 16 1 17 2 18 3 19 4 20 5 21 6 22 7 23 8 24 9 25 10 26 11
REMARK SMILES IDX 27 12 28 13 29 14 30 15 31 16 32 17 15 18 14 19 13 20 12 21
REMARK SMILES IDX 11 22 10 23 9 24 8 25 7 26 6 27 5 28 4 29 3 30 2 31 1 32
REMARK H PARENT
REMARK Flexibility Score: inf
ROOT
ATOM      1  C   UNL     1      65.690  44.752  57.033  1.00  0.00     0.000 C 
ENDROOT
BRANCH   1   2
ATOM      2  C   UNL     1      66.119  46.211  56.790  1.00  0.00     0.000 C 
BRANCH   2   3
ATOM      3  C   UNL     1      65.951  47.097  58.036  1.00  0.00     0.000 C 
BRANCH   3   4
ATOM      4  C   UNL     1      66.630  48.471  57.893  1.00  0.00     0.000 C 
BRANCH   4   5
ATOM      5  C   UNL     1      67.900  48.665  58.740  1.00  0.00     0.000 C 
BRANCH   5   6
ATOM      6  C   UNL     1      69.026  49.385  57.978  1.00  0.00     0.000 C 
BRANCH   6   7
ATOM      7  C   UNL     1      68.980  49.126  56.462  1.00  0.00     0.000 C 
BRANCH   7   8
ATOM      8  C   UNL     1      68.712  50.377  55.598  1.00  0.00     0.000 C 
BRANCH   8   9
ATOM      9  C   UNL     1      69.491  51.638  56.020  1.00  0.00     0.000 C 
BRANCH   9  10
ATOM     10  C   UNL     1      71.009  51.585  55.754  1.00  0.00     0.000 C 
BRANCH  10  11
ATOM     11  C   UNL     1      71.412  50.988  54.393  1.00  0.00     0.000 C 
BRANCH  11  12
ATOM     12  C   UNL     1      71.069  51.908  53.212  1.00  0.00     0.000 C 
BRANCH  12  13
ATOM     13  C   UNL     1      69.943  51.312  52.359  1.00  0.00     0.006 C 
BRANCH  13  14
ATOM     14  C   UNL     1      70.059  51.768  50.902  1.00  0.00     0.053 C 
BRANCH  14  15
ATOM     15  C   UNL     1      68.786  51.508  50.159  1.00  0.00     0.041 C 
ATOM     16  O   UNL     1      68.245  52.426  49.488  1.00  0.00    -0.550 OA
ATOM     17  O   UNL     1      68.206  50.245  50.190  1.00  0.00    -0.550 OA
ENDBRANCH  14  15
ENDBRANCH  13  14
ENDBRANCH  12  13
ENDBRANCH  11  12
ENDBRANCH  10  11
ENDBRANCH   9  10
ENDBRANCH   8   9
ENDBRANCH   7   8
ENDBRANCH   6   7
ENDBRANCH   5   6
ENDBRANCH   4   5
ENDBRANCH   3   4
ENDBRANCH   2   3
ENDBRANCH   1   2
BRANCH   1  18
ATOM     18  C   UNL     1      64.805  44.532  58.275  1.00  0.00     0.000 C 
BRANCH  18  19
ATOM     19  C   UNL     1      65.143  43.237  59.030  1.00  0.00     0.000 C 
BRANCH  19  20
ATOM     20  C   UNL     1      66.321  42.503  58.369  1.00  0.00     0.000 C 
BRANCH  20  21
ATOM     21  C   UNL     1      66.078  40.990  58.244  1.00  0.00     0.000 C 
BRANCH  21  22
ATOM     22  C   UNL     1      64.594  40.644  58.027  1.00  0.00     0.000 C 
BRANCH  22  23
ATOM     23  C   UNL     1      64.189  39.332  58.717  1.00  0.00     0.000 C 
BRANCH  23  24
ATOM     24  C   UNL     1      62.669  39.092  58.680  1.00  0.00    -0.000 C 
BRANCH  24  25
ATOM     25  C   UNL     1      62.294  37.792  57.949  1.00  0.00    -0.000 C 
BRANCH  25  26
ATOM     26  C   UNL     1      62.487  37.886  56.429  1.00  0.00    -0.000 C 
BRANCH  26  27
ATOM     27  C   UNL     1      61.259  37.343  55.685  1.00  0.00    -0.000 C 
BRANCH  27  28
ATOM     28  C   UNL     1      59.953  37.547  56.469  1.00  0.00    -0.000 C 
BRANCH  28  29
ATOM     29  C   UNL     1      58.738  37.753  55.551  1.00  0.00    -0.000 C 
BRANCH  29  30
ATOM     30  C   UNL     1      58.691  36.687  54.450  1.00  0.00    -0.000 C 
BRANCH  30  31
ATOM     31  C   UNL     1      57.270  36.534  53.893  1.00  0.00    -0.003 C 
ATOM     32  C   UNL     1      57.133  37.219  52.537  1.00  0.00     0.004 C 
ENDBRANCH  30  31
ENDBRANCH  29  30
ENDBRANCH  28  29
ENDBRANCH  27  28
ENDBRANCH  26  27
ENDBRANCH  25  26
ENDBRANCH  24  25
ENDBRANCH  23  24
ENDBRANCH  22  23
ENDBRANCH  21  22
ENDBRANCH  20  21
ENDBRANCH  19  20
ENDBRANCH  18  19
ENDBRANCH   1  18
TORSDOF 28
ENDMDL
MODEL 2
REMARK VINA RESULT:    -4.269      5.430     12.702
REMARK INTER + INTRA:         -13.205
REMARK INTER:                  -9.725
REMARK INTRA:                  -3.480
REMARK UNBOUND:                -1.949
REMARK SMILES CCCCCCCCCCCCCCCCCCCCCCCCCCCCCC(=O)[O-]
REMARK SMILES IDX 16 1 17 2 18 3 19 4 20 5 21 6 22 7 23 8 24 9 25 10 26 11
REMARK SMILES IDX 27 12 28 13 29 14 30 15 31 16 32 17 15 18 14 19 13 20 12 21
REMARK SMILES IDX 11 22 10 23 9 24 8 25 7 26 6 27 5 28 4 29 3 30 2 31 1 32
REMARK H PARENT
REMARK Flexibility Score: inf
ROOT
ATOM      1  C   UNL     1      73.715  50.409  56.892  1.00  0.00     0.000 C 
ENDROOT
BRANCH   1   2
ATOM      2  C   UNL     1      74.000  49.200  57.802  1.00  0.00     0.000 C 
BRANCH   2   3
ATOM      3  C   UNL     1      72.838  48.887  58.759  1.00  0.00     0.000 C 
BRANCH   3   4
ATOM      4  C   UNL     1      71.765  47.982  58.127  1.00  0.00     0.000 C 
BRANCH   4   5
ATOM      5  C   UNL     1      70.611  48.724  57.428  1.00  0.00     0.000 C 
BRANCH   5   6
ATOM      6  C   UNL     1      69.317  48.740  58.260  1.00  0.00     0.000 C 
BRANCH   6   7
ATOM      7  C   UNL     1      68.052  48.867  57.393  1.00  0.00     0.000 C 
BRANCH   7   8
ATOM      8  C   UNL     1      66.760  49.186  58.174  1.00  0.00     0.000 C 
BRANCH   8   9
ATOM      9  C   UNL     1      65.729  48.040  58.224  1.00  0.00     0.000 C 
BRANCH   9  10
ATOM     10  C   UNL     1      66.010  46.871  57.259  1.00  0.00     0.000 C 
BRANCH  10  11
ATOM     11  C   UNL     1      65.296  45.552  57.608  1.00  0.00     0.000 C 
BRANCH  11  12
ATOM     12  C   UNL     1      65.929  44.331  56.922  1.00  0.00     0.000 C 
BRANCH  12  13
ATOM     13  C   UNL     1      65.351  43.026  57.483  1.00  0.00     0.006 C 
BRANCH  13  14
ATOM     14  C   UNL     1      66.434  41.948  57.587  1.00  0.00     0.053 C 
BRANCH  14  15
ATOM     15  C   UNL     1      65.842  40.636  57.998  1.00  0.00     0.041 C 
ATOM     16  O   UNL     1      64.738  40.601  58.601  1.00  0.00    -0.550 OA
ATOM     17  O   UNL     1      66.500  39.449  57.697  1.00  0.00    -0.550 OA
ENDBRANCH  14  15
ENDBRANCH  13  14
ENDBRANCH  12  13
ENDBRANCH  11  12
ENDBRANCH  10  11
ENDBRANCH   9  10
ENDBRANCH   8   9
ENDBRANCH   7   8
ENDBRANCH   6   7
ENDBRANCH   5   6
ENDBRANCH   4   5
ENDBRANCH   3   4
ENDBRANCH   2   3
ENDBRANCH   1   2
BRANCH   1  18
ATOM     18  C   UNL     1      73.820  51.783  57.582  1.00  0.00     0.000 C 
BRANCH  18  19
ATOM     19  C   UNL     1      72.549  52.631  57.423  1.00  0.00     0.000 C 
BRANCH  19  20
ATOM     20  C   UNL     1      71.488  52.238  58.463  1.00  0.00     0.000 C 
BRANCH  20  21
ATOM     21  C   UNL     1      70.256  53.158  58.426  1.00  0.00     0.000 C 
BRANCH  21  22
ATOM     22  C   UNL     1      68.931  52.374  58.466  1.00  0.00     0.000 C 
BRANCH  22  23
ATOM     23  C   UNL     1      68.065  52.620  57.221  1.00  0.00     0.000 C 
BRANCH  23  24
ATOM     24  C   UNL     1      68.907  52.894  55.962  1.00  0.00    -0.000 C 
BRANCH  24  25
ATOM     25  C   UNL     1      69.015  51.666  55.045  1.00  0.00    -0.000 C 
BRANCH  25  26
ATOM     26  C   UNL     1      70.367  50.947  55.167  1.00  0.00    -0.000 C 
BRANCH  26  27
ATOM     27  C   UNL     1      71.278  51.285  53.977  1.00  0.00    -0.000 C 
BRANCH  27  28
ATOM     28  C   UNL     1      70.554  51.171  52.626  1.00  0.00    -0.000 C 
BRANCH  28  29
ATOM     29  C   UNL     1      70.836  52.367  51.702  1.00  0.00    -0.000 C 
BRANCH  29  30
ATOM     30  C   UNL     1      70.470  52.038  50.249  1.00  0.00    -0.000 C 
BRANCH  30  31
ATOM     31  C   UNL     1      68.985  51.677  50.124  1.00  0.00    -0.003 C 
ATOM     32  C   UNL     1      68.162  52.878  49.668  1.00  0.00     0.004 C 
ENDBRANCH  30  31
ENDBRANCH  29  30
ENDBRANCH  28  29
ENDBRANCH  27  28
ENDBRANCH  26  27
ENDBRANCH  25  26
ENDBRANCH  24  25
ENDBRANCH  23  24
ENDBRANCH  22  23
ENDBRANCH  21  22
ENDBRANCH  20  21
ENDBRANCH  19  20
ENDBRANCH  18  19
ENDBRANCH   1  18
TORSDOF 28
ENDMDL
MODEL 3
REMARK VINA RESULT:    -4.198      5.361     12.972
REMARK INTER + INTRA:         -13.018
REMARK INTER:                  -9.380
REMARK INTRA:                  -3.639
REMARK UNBOUND:                -1.949
REMARK SMILES CCCCCCCCCCCCCCCCCCCCCCCCCCCCCC(=O)[O-]
REMARK SMILES IDX 16 1 17 2 18 3 19 4 20 5 21 6 22 7 23 8 24 9 25 10 26 11
REMARK SMILES IDX 27 12 28 13 29 14 30 15 31 16 32 17 15 18 14 19 13 20 12 21
REMARK SMILES IDX 11 22 10 23 9 24 8 25 7 26 6 27 5 28 4 29 3 30 2 31 1 32
REMARK H PARENT
REMARK Flexibility Score: inf
ROOT
ATOM      1  C   UNL     1      69.889  49.545  56.372  1.00  0.00     0.000 C 
ENDROOT
BRANCH   1   2
ATOM      2  C   UNL     1      68.601  50.293  55.978  1.00  0.00     0.000 C 
BRANCH   2   3
ATOM      3  C   UNL     1      68.288  51.474  56.912  1.00  0.00     0.000 C 
BRANCH   3   4
ATOM      4  C   UNL     1      66.804  51.882  56.890  1.00  0.00     0.000 C 
BRANCH   4   5
ATOM      5  C   UNL     1      65.984  51.438  58.115  1.00  0.00     0.000 C 
BRANCH   5   6
ATOM      6  C   UNL     1      66.492  50.123  58.731  1.00  0.00     0.000 C 
BRANCH   6   7
ATOM      7  C   UNL     1      65.717  48.891  58.231  1.00  0.00     0.000 C 
BRANCH   7   8
ATOM      8  C   UNL     1      66.598  47.753  57.673  1.00  0.00     0.000 C 
BRANCH   8   9
ATOM      9  C   UNL     1      66.373  46.375  58.327  1.00  0.00     0.000 C 
BRANCH   9  10
ATOM     10  C   UNL     1      65.003  45.732  58.032  1.00  0.00     0.000 C 
BRANCH  10  11
ATOM     11  C   UNL     1      64.999  44.192  57.999  1.00  0.00     0.000 C 
BRANCH  11  12
ATOM     12  C   UNL     1      65.839  43.617  56.849  1.00  0.00     0.000 C 
BRANCH  12  13
ATOM     13  C   UNL     1      66.567  42.340  57.287  1.00  0.00     0.006 C 
BRANCH  13  14
ATOM     14  C   UNL     1      65.810  41.639  58.419  1.00  0.00     0.053 C 
BRANCH  14  15
ATOM     15  C   UNL     1      65.811  40.155  58.221  1.00  0.00     0.041 C 
ATOM     16  O   UNL     1      66.717  39.608  57.538  1.00  0.00    -0.550 OA
ATOM     17  O   UNL     1      64.823  39.373  58.807  1.00  0.00    -0.550 OA
ENDBRANCH  14  15
ENDBRANCH  13  14
ENDBRANCH  12  13
ENDBRANCH  11  12
ENDBRANCH  10  11
ENDBRANCH   9  10
ENDBRANCH   8   9
ENDBRANCH   7   8
ENDBRANCH   6   7
ENDBRANCH   5   6
ENDBRANCH   4   5
ENDBRANCH   3   4
ENDBRANCH   2   3
ENDBRANCH   1   2
BRANCH   1  18
ATOM     18  C   UNL     1      70.022  49.223  57.873  1.00  0.00     0.000 C 
BRANCH  18  19
ATOM     19  C   UNL     1      71.479  49.227  58.360  1.00  0.00     0.000 C 
BRANCH  19  20
ATOM     20  C   UNL     1      71.971  50.659  58.622  1.00  0.00     0.000 C 
BRANCH  20  21
ATOM     21  C   UNL     1      72.903  51.176  57.513  1.00  0.00     0.000 C 
BRANCH  21  22
ATOM     22  C   UNL     1      72.956  52.713  57.453  1.00  0.00     0.000 C 
BRANCH  22  23
ATOM     23  C   UNL     1      71.563  53.343  57.300  1.00  0.00     0.000 C 
BRANCH  23  24
ATOM     24  C   UNL     1      71.628  54.815  56.854  1.00  0.00    -0.000 C 
BRANCH  24  25
ATOM     25  C   UNL     1      70.664  55.125  55.697  1.00  0.00    -0.000 C 
BRANCH  25  26
ATOM     26  C   UNL     1      69.823  53.909  55.281  1.00  0.00    -0.000 C 
BRANCH  26  27
ATOM     27  C   UNL     1      70.204  53.433  53.872  1.00  0.00    -0.000 C 
BRANCH  27  28
ATOM     28  C   UNL     1      70.889  52.057  53.877  1.00  0.00    -0.000 C 
BRANCH  28  29
ATOM     29  C   UNL     1      70.873  51.383  52.495  1.00  0.00    -0.000 C 
BRANCH  29  30
ATOM     30  C   UNL     1      69.466  50.888  52.140  1.00  0.00    -0.000 C 
BRANCH  30  31
ATOM     31  C   UNL     1      69.069  51.325  50.725  1.00  0.00    -0.003 C 
ATOM     32  C   UNL     1      70.186  52.124  50.061  1.00  0.00     0.004 C 
ENDBRANCH  30  31
ENDBRANCH  29  30
ENDBRANCH  28  29
ENDBRANCH  27  28
ENDBRANCH  26  27
ENDBRANCH  25  26
ENDBRANCH  24  25
ENDBRANCH  23  24
ENDBRANCH  22  23
ENDBRANCH  21  22
ENDBRANCH  20  21
ENDBRANCH  19  20
ENDBRANCH  18  19
ENDBRANCH   1  18
TORSDOF 28
ENDMDL
MODEL 4
REMARK VINA RESULT:    -4.152      4.905     14.550
REMARK INTER + INTRA:         -12.897
REMARK INTER:                 -10.405
REMARK INTRA:                  -2.492
REMARK UNBOUND:                -1.949
REMARK SMILES CCCCCCCCCCCCCCCCCCCCCCCCCCCCCC(=O)[O-]
REMARK SMILES IDX 16 1 17 2 18 3 19 4 20 5 21 6 22 7 23 8 24 9 25 10 26 11
REMARK SMILES IDX 27 12 28 13 29 14 30 15 31 16 32 17 15 18 14 19 13 20 12 21
REMARK SMILES IDX 11 22 10 23 9 24 8 25 7 26 6 27 5 28 4 29 3 30 2 31 1 32
REMARK H PARENT
REMARK Flexibility Score: inf
ROOT
ATOM      1  C   UNL     1      64.832  45.337  58.034  1.00  0.00     0.000 C 
ENDROOT
BRANCH   1   2
ATOM      2  C   UNL     1      65.725  44.971  56.834  1.00  0.00     0.000 C 
BRANCH   2   3
ATOM      3  C   UNL     1      65.733  43.463  56.534  1.00  0.00     0.000 C 
BRANCH   3   4
ATOM      4  C   UNL     1      65.372  42.604  57.760  1.00  0.00     0.000 C 
BRANCH   4   5
ATOM      5  C   UNL     1      66.412  41.534  58.138  1.00  0.00     0.000 C 
BRANCH   5   6
ATOM      6  C   UNL     1      65.773  40.212  58.597  1.00  0.00     0.000 C 
BRANCH   6   7
ATOM      7  C   UNL     1      64.242  40.204  58.441  1.00  0.00     0.000 C 
BRANCH   7   8
ATOM      8  C   UNL     1      63.564  38.855  58.763  1.00  0.00     0.000 C 
BRANCH   8   9
ATOM      9  C   UNL     1      62.023  38.890  58.789  1.00  0.00     0.000 C 
BRANCH   9  10
ATOM     10  C   UNL     1      61.334  37.709  58.077  1.00  0.00     0.000 C 
BRANCH  10  11
ATOM     11  C   UNL     1      59.819  37.590  58.328  1.00  0.00     0.000 C 
BRANCH  11  12
ATOM     12  C   UNL     1      58.977  38.190  57.192  1.00  0.00     0.000 C 
BRANCH  12  13
ATOM     13  C   UNL     1      59.506  37.746  55.823  1.00  0.00     0.006 C 
BRANCH  13  14
ATOM     14  C   UNL     1      58.353  37.394  54.878  1.00  0.00     0.053 C 
BRANCH  14  15
ATOM     15  C   UNL     1      58.610  36.091  54.187  1.00  0.00     0.041 C 
ATOM     16  O   UNL     1      59.715  35.505  54.331  1.00  0.00    -0.550 OA
ATOM     17  O   UNL     1      57.622  35.513  53.398  1.00  0.00    -0.550 OA
ENDBRANCH  14  15
ENDBRANCH  13  14
ENDBRANCH  12  13
ENDBRANCH  11  12
ENDBRANCH  10  11
ENDBRANCH   9  10
ENDBRANCH   8   9
ENDBRANCH   7   8
ENDBRANCH   6   7
ENDBRANCH   5   6
ENDBRANCH   4   5
ENDBRANCH   3   4
ENDBRANCH   2   3
ENDBRANCH   1   2
BRANCH   1  18
ATOM     18  C   UNL     1      65.306  46.556  58.850  1.00  0.00     0.000 C 
BRANCH  18  19
ATOM     19  C   UNL     1      66.113  47.559  58.011  1.00  0.00     0.000 C 
BRANCH  19  20
ATOM     20  C   UNL     1      67.500  47.805  58.627  1.00  0.00     0.000 C 
BRANCH  20  21
ATOM     21  C   UNL     1      68.184  49.060  58.058  1.00  0.00     0.000 C 
BRANCH  21  22
ATOM     22  C   UNL     1      68.008  49.190  56.534  1.00  0.00     0.000 C 
BRANCH  22  23
ATOM     23  C   UNL     1      68.243  50.625  56.036  1.00  0.00     0.000 C 
BRANCH  23  24
ATOM     24  C   UNL     1      69.010  50.667  54.702  1.00  0.00    -0.000 C 
BRANCH  24  25
ATOM     25  C   UNL     1      69.985  51.853  54.619  1.00  0.00    -0.000 C 
BRANCH  25  26
ATOM     26  C   UNL     1      69.790  52.866  55.756  1.00  0.00    -0.000 C 
BRANCH  26  27
ATOM     27  C   UNL     1      71.137  53.252  56.385  1.00  0.00    -0.000 C 
BRANCH  27  28
ATOM     28  C   UNL     1      71.571  52.283  57.495  1.00  0.00    -0.000 C 
BRANCH  28  29
ATOM     29  C   UNL     1      73.011  51.778  57.310  1.00  0.00    -0.000 C 
BRANCH  29  30
ATOM     30  C   UNL     1      73.027  50.333  56.797  1.00  0.00    -0.000 C 
BRANCH  30  31
ATOM     31  C   UNL     1      71.723  49.609  57.153  1.00  0.00    -0.003 C 
ATOM     32  C   UNL     1      71.945  48.105  57.282  1.00  0.00     0.004 C 
ENDBRANCH  30  31
ENDBRANCH  29  30
ENDBRANCH  28  29
ENDBRANCH  27  28
ENDBRANCH  26  27
ENDBRANCH  25  26
ENDBRANCH  24  25
ENDBRANCH  23  24
ENDBRANCH  22  23
ENDBRANCH  21  22
ENDBRANCH  20  21
ENDBRANCH  19  20
ENDBRANCH  18  19
ENDBRANCH   1  18
TORSDOF 28
ENDMDL
MODEL 5
REMARK VINA RESULT:    -4.137      6.113     13.876
REMARK INTER + INTRA:         -12.858
REMARK INTER:                  -9.762
REMARK INTRA:                  -3.096
REMARK UNBOUND:                -1.949
REMARK SMILES CCCCCCCCCCCCCCCCCCCCCCCCCCCCCC(=O)[O-]
REMARK SMILES IDX 16 1 17 2 18 3 19 4 20 5 21 6 22 7 23 8 24 9 25 10 26 11
REMARK SMILES IDX 27 12 28 13 29 14 30 15 31 16 32 17 15 18 14 19 13 20 12 21
REMARK SMILES IDX 11 22 10 23 9 24 8 25 7 26 6 27 5 28 4 29 3 30 2 31 1 32
REMARK H PARENT
REMARK Flexibility Score: inf
ROOT
ATOM      1  C   UNL     1      70.327  51.620  53.916  1.00  0.00     0.000 C 
ENDROOT
BRANCH   1   2
ATOM      2  C   UNL     1      71.274  51.003  54.962  1.00  0.00     0.000 C 
BRANCH   2   3
ATOM      3  C   UNL     1      71.580  51.959  56.127  1.00  0.00     0.000 C 
BRANCH   3   4
ATOM      4  C   UNL     1      72.801  51.524  56.958  1.00  0.00     0.000 C 
BRANCH   4   5
ATOM      5  C   UNL     1      73.425  50.177  56.550  1.00  0.00     0.000 C 
BRANCH   5   6
ATOM      6  C   UNL     1      73.393  49.134  57.680  1.00  0.00     0.000 C 
BRANCH   6   7
ATOM      7  C   UNL     1      72.131  48.254  57.644  1.00  0.00     0.000 C 
BRANCH   7   8
ATOM      8  C   UNL     1      71.057  48.617  58.691  1.00  0.00     0.000 C 
BRANCH   8   9
ATOM      9  C   UNL     1      69.870  49.439  58.149  1.00  0.00     0.000 C 
BRANCH   9  10
ATOM     10  C   UNL     1      69.172  48.835  56.914  1.00  0.00     0.000 C 
BRANCH  10  11
ATOM     11  C   UNL     1      67.635  48.928  56.923  1.00  0.00     0.000 C 
BRANCH  11  12
ATOM     12  C   UNL     1      67.018  48.491  58.260  1.00  0.00     0.000 C 
BRANCH  12  13
ATOM     13  C   UNL     1      65.770  47.629  58.033  1.00  0.00     0.006 C 
BRANCH  13  14
ATOM     14  C   UNL     1      66.060  46.155  58.330  1.00  0.00     0.053 C 
BRANCH  14  15
ATOM     15  C   UNL     1      65.735  45.299  57.146  1.00  0.00     0.041 C 
ATOM     16  O   UNL     1      65.192  44.174  57.308  1.00  0.00    -0.550 OA
ATOM     17  O   UNL     1      66.012  45.751  55.862  1.00  0.00    -0.550 OA
ENDBRANCH  14  15
ENDBRANCH  13  14
ENDBRANCH  12  13
ENDBRANCH  11  12
ENDBRANCH  10  11
ENDBRANCH   9  10
ENDBRANCH   8   9
ENDBRANCH   7   8
ENDBRANCH   6   7
ENDBRANCH   5   6
ENDBRANCH   4   5
ENDBRANCH   3   4
ENDBRANCH   2   3
ENDBRANCH   1   2
BRANCH   1  18
ATOM     18  C   UNL     1      70.252  53.160  53.935  1.00  0.00     0.000 C 
BRANCH  18  19
ATOM     19  C   UNL     1      70.210  53.774  52.527  1.00  0.00     0.000 C 
BRANCH  19  20
ATOM     20  C   UNL     1      71.460  53.392  51.719  1.00  0.00     0.000 C 
BRANCH  20  21
ATOM     21  C   UNL     1      71.134  53.036  50.259  1.00  0.00     0.000 C 
BRANCH  21  22
ATOM     22  C   UNL     1      69.976  52.029  50.140  1.00  0.00     0.000 C 
BRANCH  22  23
ATOM     23  C   UNL     1      69.002  52.383  49.006  1.00  0.00     0.000 C 
BRANCH  23  24
ATOM     24  C   UNL     1      67.828  53.255  49.488  1.00  0.00    -0.000 C 
BRANCH  24  25
ATOM     25  C   UNL     1      67.988  54.731  49.089  1.00  0.00    -0.000 C 
BRANCH  25  26
ATOM     26  C   UNL     1      68.027  54.937  47.568  1.00  0.00    -0.000 C 
BRANCH  26  27
ATOM     27  C   UNL     1      66.623  54.813  46.960  1.00  0.00    -0.000 C 
BRANCH  27  28
ATOM     28  C   UNL     1      66.652  54.375  45.487  1.00  0.00    -0.000 C 
BRANCH  28  29
ATOM     29  C   UNL     1      67.996  54.678  44.806  1.00  0.00    -0.000 C 
BRANCH  29  30
ATOM     30  C   UNL     1      68.292  53.666  43.693  1.00  0.00    -0.000 C 
BRANCH  30  31
ATOM     31  C   UNL     1      69.774  53.694  43.302  1.00  0.00    -0.003 C 
ATOM     32  C   UNL     1      70.658  53.979  44.511  1.00  0.00     0.004 C 
ENDBRANCH  30  31
ENDBRANCH  29  30
ENDBRANCH  28  29
ENDBRANCH  27  28
ENDBRANCH  26  27
ENDBRANCH  25  26
ENDBRANCH  24  25
ENDBRANCH  23  24
ENDBRANCH  22  23
ENDBRANCH  21  22
ENDBRANCH  20  21
ENDBRANCH  19  20
ENDBRANCH  18  19
ENDBRANCH   1  18
TORSDOF 28
ENDMDL
MODEL 6
REMARK VINA RESULT:    -4.104      1.553      2.215
REMARK INTER + INTRA:         -12.771
REMARK INTER:                 -11.061
REMARK INTRA:                  -1.710
REMARK UNBOUND:                -1.949
REMARK SMILES CCCCCCCCCCCCCCCCCCCCCCCCCCCCCC(=O)[O-]
REMARK SMILES IDX 16 1 17 2 18 3 19 4 20 5 21 6 22 7 23 8 24 9 25 10 26 11
REMARK SMILES IDX 27 12 28 13 29 14 30 15 31 16 32 17 15 18 14 19 13 20 12 21
REMARK SMILES IDX 11 22 10 23 9 24 8 25 7 26 6 27 5 28 4 29 3 30 2 31 1 32
REMARK H PARENT
REMARK Flexibility Score: inf
ROOT
ATOM      1  C   UNL     1      65.352  45.506  57.525  1.00  0.00     0.000 C 
ENDROOT
BRANCH   1   2
ATOM      2  C   UNL     1      66.130  46.814  57.288  1.00  0.00     0.000 C 
BRANCH   2   3
ATOM      3  C   UNL     1      65.793  47.904  58.319  1.00  0.00     0.000 C 
BRANCH   3   4
ATOM      4  C   UNL     1      66.762  49.100  58.270  1.00  0.00     0.000 C 
BRANCH   4   5
ATOM      5  C   UNL     1      66.095  50.486  58.323  1.00  0.00     0.000 C 
BRANCH   5   6
ATOM      6  C   UNL     1      67.025  51.617  57.853  1.00  0.00     0.000 C 
BRANCH   6   7
ATOM      7  C   UNL     1      66.352  52.561  56.840  1.00  0.00     0.000 C 
BRANCH   7   8
ATOM      8  C   UNL     1      67.043  53.931  56.671  1.00  0.00     0.000 C 
BRANCH   8   9
ATOM      9  C   UNL     1      68.581  53.876  56.573  1.00  0.00     0.000 C 
BRANCH   9  10
ATOM     10  C   UNL     1      69.130  53.448  55.197  1.00  0.00     0.000 C 
BRANCH  10  11
ATOM     11  C   UNL     1      69.606  51.986  55.112  1.00  0.00     0.000 C 
BRANCH  11  12
ATOM     12  C   UNL     1      70.832  51.810  54.204  1.00  0.00     0.000 C 
BRANCH  12  13
ATOM     13  C   UNL     1      70.529  52.280  52.775  1.00  0.00     0.006 C 
BRANCH  13  14
ATOM     14  C   UNL     1      70.396  51.088  51.823  1.00  0.00     0.053 C 
BRANCH  14  15
ATOM     15  C   UNL     1      69.150  51.200  51.000  1.00  0.00     0.041 C 
ATOM     16  O   UNL     1      68.893  52.268  50.384  1.00  0.00    -0.550 OA
ATOM     17  O   UNL     1      68.282  50.120  50.896  1.00  0.00    -0.550 OA
ENDBRANCH  14  15
ENDBRANCH  13  14
ENDBRANCH  12  13
ENDBRANCH  11  12
ENDBRANCH  10  11
ENDBRANCH   9  10
ENDBRANCH   8   9
ENDBRANCH   7   8
ENDBRANCH   6   7
ENDBRANCH   5   6
ENDBRANCH   4   5
ENDBRANCH   3   4
ENDBRANCH   2   3
ENDBRANCH   1   2
BRANCH   1  18
ATOM     18  C   UNL     1      65.866  44.290  56.731  1.00  0.00     0.000 C 
BRANCH  18  19
ATOM     19  C   UNL     1      65.312  42.956  57.255  1.00  0.00     0.000 C 
BRANCH  19  20
ATOM     20  C   UNL     1      66.450  41.983  57.604  1.00  0.00     0.000 C 
BRANCH  20  21
ATOM     21  C   UNL     1      66.112  41.088  58.808  1.00  0.00     0.000 C 
BRANCH  21  22
ATOM     22  C   UNL     1      65.330  39.825  58.407  1.00  0.00     0.000 C 
BRANCH  22  23
ATOM     23  C   UNL     1      63.819  40.081  58.291  1.00  0.00     0.000 C 
BRANCH  23  24
ATOM     24  C   UNL     1      62.980  38.929  58.873  1.00  0.00    -0.000 C 
BRANCH  24  25
ATOM     25  C   UNL     1      62.621  37.869  57.819  1.00  0.00    -0.000 C 
BRANCH  25  26
ATOM     26  C   UNL     1      62.723  38.400  56.381  1.00  0.00    -0.000 C 
BRANCH  26  27
ATOM     27  C   UNL     1      61.977  37.481  55.402  1.00  0.00    -0.000 C 
BRANCH  27  28
ATOM     28  C   UNL     1      60.827  36.712  56.071  1.00  0.00    -0.000 C 
BRANCH  28  29
ATOM     29  C   UNL     1      59.462  37.015  55.431  1.00  0.00    -0.000 C 
BRANCH  29  30
ATOM     30  C   UNL     1      58.825  38.262  56.056  1.00  0.00    -0.000 C 
BRANCH  30  31
ATOM     31  C   UNL     1      58.942  38.234  57.584  1.00  0.00    -0.003 C 
ATOM     32  C   UNL     1      58.542  39.574  58.193  1.00  0.00     0.004 C 
ENDBRANCH  30  31
ENDBRANCH  29  30
ENDBRANCH  28  29
ENDBRANCH  27  28
ENDBRANCH  26  27
ENDBRANCH  25  26
ENDBRANCH  24  25
ENDBRANCH  23  24
ENDBRANCH  22  23
ENDBRANCH  21  22
ENDBRANCH  20  21
ENDBRANCH  19  20
ENDBRANCH  18  19
ENDBRANCH   1  18
TORSDOF 28
ENDMDL
MODEL 7
REMARK VINA RESULT:    -4.070      4.726     14.174
REMARK INTER + INTRA:         -12.680
REMARK INTER:                 -10.666
REMARK INTRA:                  -2.014
REMARK UNBOUND:                -1.949
REMARK SMILES CCCCCCCCCCCCCCCCCCCCCCCCCCCCCC(=O)[O-]
REMARK SMILES IDX 16 1 17 2 18 3 19 4 20 5 21 6 22 7 23 8 24 9 25 10 26 11
REMARK SMILES IDX 27 12 28 13 29 14 30 15 31 16 32 17 15 18 14 19 13 20 12 21
REMARK SMILES IDX 11 22 10 23 9 24 8 25 7 26 6 27 5 28 4 29 3 30 2 31 1 32
REMARK H PARENT
REMARK Flexibility Score: inf
ROOT
ATOM      1  C   UNL     1      66.119  45.903  56.416  1.00  0.00     0.000 C 
ENDROOT
BRANCH   1   2
ATOM      2  C   UNL     1      65.651  44.436  56.436  1.00  0.00     0.000 C 
BRANCH   2   3
ATOM      3  C   UNL     1      65.832  43.772  57.810  1.00  0.00     0.000 C 
BRANCH   3   4
ATOM      4  C   UNL     1      66.887  42.650  57.802  1.00  0.00     0.000 C 
BRANCH   4   5
ATOM      5  C   UNL     1      66.323  41.221  57.715  1.00  0.00     0.000 C 
BRANCH   5   6
ATOM      6  C   UNL     1      64.831  41.141  58.082  1.00  0.00     0.000 C 
BRANCH   6   7
ATOM      7  C   UNL     1      64.427  39.765  58.642  1.00  0.00     0.000 C 
BRANCH   7   8
ATOM      8  C   UNL     1      63.409  38.988  57.780  1.00  0.00     0.000 C 
BRANCH   8   9
ATOM      9  C   UNL     1      62.424  38.106  58.573  1.00  0.00     0.000 C 
BRANCH   9  10
ATOM     10  C   UNL     1      61.638  37.086  57.726  1.00  0.00     0.000 C 
BRANCH  10  11
ATOM     11  C   UNL     1      61.550  37.416  56.224  1.00  0.00     0.000 C 
BRANCH  11  12
ATOM     12  C   UNL     1      60.153  37.889  55.797  1.00  0.00     0.000 C 
BRANCH  12  13
ATOM     13  C   UNL     1      59.399  36.775  55.059  1.00  0.00     0.006 C 
BRANCH  13  14
ATOM     14  C   UNL     1      58.041  37.275  54.556  1.00  0.00     0.053 C 
BRANCH  14  15
ATOM     15  C   UNL     1      57.513  36.384  53.475  1.00  0.00     0.041 C 
ATOM     16  O   UNL     1      56.998  36.881  52.439  1.00  0.00    -0.550 OA
ATOM     17  O   UNL     1      57.606  35.003  53.602  1.00  0.00    -0.550 OA
ENDBRANCH  14  15
ENDBRANCH  13  14
ENDBRANCH  12  13
ENDBRANCH  11  12
ENDBRANCH  10  11
ENDBRANCH   9  10
ENDBRANCH   8   9
ENDBRANCH   7   8
ENDBRANCH   6   7
ENDBRANCH   5   6
ENDBRANCH   4   5
ENDBRANCH   3   4
ENDBRANCH   2   3
ENDBRANCH   1   2
BRANCH   1  18
ATOM     18  C   UNL     1      65.757  46.719  57.672  1.00  0.00     0.000 C 
BRANCH  18  19
ATOM     19  C   UNL     1      66.987  47.305  58.381  1.00  0.00     0.000 C 
BRANCH  19  20
ATOM     20  C   UNL     1      66.954  48.842  58.368  1.00  0.00     0.000 C 
BRANCH  20  21
ATOM     21  C   UNL     1      67.613  49.437  57.113  1.00  0.00     0.000 C 
BRANCH  21  22
ATOM     22  C   UNL     1      68.918  48.714  56.731  1.00  0.00     0.000 C 
BRANCH  22  23
ATOM     23  C   UNL     1      70.079  49.057  57.678  1.00  0.00     0.000 C 
BRANCH  23  24
ATOM     24  C   UNL     1      71.454  48.749  57.060  1.00  0.00    -0.000 C 
BRANCH  24  25
ATOM     25  C   UNL     1      72.229  50.021  56.680  1.00  0.00    -0.000 C 
BRANCH  25  26
ATOM     26  C   UNL     1      71.686  50.693  55.411  1.00  0.00    -0.000 C 
BRANCH  26  27
ATOM     27  C   UNL     1      70.838  51.925  55.761  1.00  0.00    -0.000 C 
BRANCH  27  28
ATOM     28  C   UNL     1      69.595  52.060  54.867  1.00  0.00    -0.000 C 
BRANCH  28  29
ATOM     29  C   UNL     1      69.669  51.176  53.612  1.00  0.00    -0.000 C 
BRANCH  29  30
ATOM     30  C   UNL     1      70.328  51.925  52.448  1.00  0.00    -0.000 C 
BRANCH  30  31
ATOM     31  C   UNL     1      69.734  51.486  51.104  1.00  0.00    -0.003 C 
ATOM     32  C   UNL     1      68.617  50.468  51.302  1.00  0.00     0.004 C 
ENDBRANCH  30  31
ENDBRANCH  29  30
ENDBRANCH  28  29
ENDBRANCH  27  28
ENDBRANCH  26  27
ENDBRANCH  25  26
ENDBRANCH  24  25
ENDBRANCH  23  24
ENDBRANCH  22  23
ENDBRANCH  21  22
ENDBRANCH  20  21
ENDBRANCH  19  20
ENDBRANCH  18  19
ENDBRANCH   1  18
TORSDOF 28
ENDMDL
MODEL 8
REMARK VINA RESULT:    -3.999     10.046     14.507
REMARK INTER + INTRA:         -12.495
REMARK INTER:                  -8.668
REMARK INTRA:                  -3.827
REMARK UNBOUND:                -1.949
REMARK SMILES CCCCCCCCCCCCCCCCCCCCCCCCCCCCCC(=O)[O-]
REMARK SMILES IDX 16 1 17 2 18 3 19 4 20 5 21 6 22 7 23 8 24 9 25 10 26 11
REMARK SMILES IDX 27 12 28 13 29 14 30 15 31 16 32 17 15 18 14 19 13 20 12 21
REMARK SMILES IDX 11 22 10 23 9 24 8 25 7 26 6 27 5 28 4 29 3 30 2 31 1 32
REMARK H PARENT
REMARK Flexibility Score: inf
ROOT
ATOM      1  C   UNL     1      70.817  51.531  51.849  1.00  0.00     0.000 C 
ENDROOT
BRANCH   1   2
ATOM      2  C   UNL     1      71.351  52.973  51.760  1.00  0.00     0.000 C 
BRANCH   2   3
ATOM      3  C   UNL     1      70.384  54.005  52.364  1.00  0.00     0.000 C 
BRANCH   3   4
ATOM      4  C   UNL     1      70.463  54.076  53.900  1.00  0.00     0.000 C 
BRANCH   4   5
ATOM      5  C   UNL     1      69.207  54.632  54.595  1.00  0.00     0.000 C 
BRANCH   5   6
ATOM      6  C   UNL     1      69.364  54.740  56.122  1.00  0.00     0.000 C 
BRANCH   6   7
ATOM      7  C   UNL     1      68.202  54.085  56.889  1.00  0.00     0.000 C 
BRANCH   7   8
ATOM      8  C   UNL     1      68.630  53.053  57.955  1.00  0.00     0.000 C 
BRANCH   8   9
ATOM      9  C   UNL     1      68.330  51.584  57.597  1.00  0.00     0.000 C 
BRANCH   9  10
ATOM     10  C   UNL     1      67.809  51.358  56.163  1.00  0.00     0.000 C 
BRANCH  10  11
ATOM     11  C   UNL     1      68.785  50.628  55.222  1.00  0.00     0.000 C 
BRANCH  11  12
ATOM     12  C   UNL     1      70.096  50.229  55.915  1.00  0.00     0.000 C 
BRANCH  12  13
ATOM     13  C   UNL     1      71.275  51.046  55.370  1.00  0.00     0.006 C 
BRANCH  13  14
ATOM     14  C   UNL     1      72.080  51.673  56.512  1.00  0.00     0.053 C 
BRANCH  14  15
ATOM     15  C   UNL     1      72.321  50.678  57.604  1.00  0.00     0.041 C 
ATOM     16  O   UNL     1      71.783  50.832  58.732  1.00  0.00    -0.550 OA
ATOM     17  O   UNL     1      73.125  49.568  57.371  1.00  0.00    -0.550 OA
ENDBRANCH  14  15
ENDBRANCH  13  14
ENDBRANCH  12  13
ENDBRANCH  11  12
ENDBRANCH  10  11
ENDBRANCH   9  10
ENDBRANCH   8   9
ENDBRANCH   7   8
ENDBRANCH   6   7
ENDBRANCH   5   6
ENDBRANCH   4   5
ENDBRANCH   3   4
ENDBRANCH   2   3
ENDBRANCH   1   2
BRANCH   1  18
ATOM     18  C   UNL     1      69.282  51.400  51.784  1.00  0.00     0.000 C 
BRANCH  18  19
ATOM     19  C   UNL     1      68.785  50.848  50.439  1.00  0.00     0.000 C 
BRANCH  19  20
ATOM     20  C   UNL     1      68.852  51.921  49.341  1.00  0.00     0.000 C 
BRANCH  20  21
ATOM     21  C   UNL     1      67.983  53.149  49.661  1.00  0.00     0.000 C 
BRANCH  21  22
ATOM     22  C   UNL     1      68.536  54.444  49.040  1.00  0.00     0.000 C 
BRANCH  22  23
ATOM     23  C   UNL     1      69.809  54.202  48.214  1.00  0.00     0.000 C 
BRANCH  23  24
ATOM     24  C   UNL     1      69.743  54.859  46.823  1.00  0.00    -0.000 C 
BRANCH  24  25
ATOM     25  C   UNL     1      69.746  53.827  45.684  1.00  0.00    -0.000 C 
BRANCH  25  26
ATOM     26  C   UNL     1      68.487  53.904  44.807  1.00  0.00    -0.000 C 
BRANCH  26  27
ATOM     27  C   UNL     1      68.850  54.239  43.353  1.00  0.00    -0.000 C 
BRANCH  27  28
ATOM     28  C   UNL     1      69.603  53.096  42.653  1.00  0.00    -0.000 C 
BRANCH  28  29
ATOM     29  C   UNL     1      69.401  53.102  41.129  1.00  0.00    -0.000 C 
BRANCH  29  30
ATOM     30  C   UNL     1      70.725  52.850  40.397  1.00  0.00    -0.000 C 
BRANCH  30  31
ATOM     31  C   UNL     1      70.712  51.490  39.688  1.00  0.00    -0.003 C 
ATOM     32  C   UNL     1      70.867  50.347  40.685  1.00  0.00     0.004 C 
ENDBRANCH  30  31
ENDBRANCH  29  30
ENDBRANCH  28  29
ENDBRANCH  27  28
ENDBRANCH  26  27
ENDBRANCH  25  26
ENDBRANCH  24  25
ENDBRANCH  23  24
ENDBRANCH  22  23
ENDBRANCH  21  22
ENDBRANCH  20  21
ENDBRANCH  19  20
ENDBRANCH  18  19
ENDBRANCH   1  18
TORSDOF 28
ENDMDL
MODEL 9
REMARK VINA RESULT:    -3.982      4.703     14.452
REMARK INTER + INTRA:         -12.450
REMARK INTER:                 -10.518
REMARK INTRA:                  -1.932
REMARK UNBOUND:                -1.949
REMARK SMILES CCCCCCCCCCCCCCCCCCCCCCCCCCCCCC(=O)[O-]
REMARK SMILES IDX 16 1 17 2 18 3 19 4 20 5 21 6 22 7 23 8 24 9 25 10 26 11
REMARK SMILES IDX 27 12 28 13 29 14 30 15 31 16 32 17 15 18 14 19 13 20 12 21
REMARK SMILES IDX 11 22 10 23 9 24 8 25 7 26 6 27 5 28 4 29 3 30 2 31 1 32
REMARK H PARENT
REMARK Flexibility Score: inf
ROOT
ATOM      1  C   UNL     1      65.047  45.360  57.994  1.00  0.00     0.000 C 
ENDROOT
BRANCH   1   2
ATOM      2  C   UNL     1      65.737  44.610  56.838  1.00  0.00     0.000 C 
BRANCH   2   3
ATOM      3  C   UNL     1      66.165  43.185  57.223  1.00  0.00     0.000 C 
BRANCH   3   4
ATOM      4  C   UNL     1      64.982  42.293  57.641  1.00  0.00     0.000 C 
BRANCH   4   5
ATOM      5  C   UNL     1      65.213  41.448  58.906  1.00  0.00     0.000 C 
BRANCH   5   6
ATOM      6  C   UNL     1      65.155  39.935  58.636  1.00  0.00     0.000 C 
BRANCH   6   7
ATOM      7  C   UNL     1      63.806  39.484  58.048  1.00  0.00     0.000 C 
BRANCH   7   8
ATOM      8  C   UNL     1      63.908  38.436  56.920  1.00  0.00     0.000 C 
BRANCH   8   9
ATOM      9  C   UNL     1      62.557  37.900  56.405  1.00  0.00     0.000 C 
BRANCH   9  10
ATOM     10  C   UNL     1      61.503  37.637  57.498  1.00  0.00     0.000 C 
BRANCH  10  11
ATOM     11  C   UNL     1      60.046  37.588  57.001  1.00  0.00     0.000 C 
BRANCH  11  12
ATOM     12  C   UNL     1      59.939  37.553  55.470  1.00  0.00     0.000 C 
BRANCH  12  13
ATOM     13  C   UNL     1      58.497  37.272  55.026  1.00  0.00     0.006 C 
BRANCH  13  14
ATOM     14  C   UNL     1      58.452  36.143  53.993  1.00  0.00     0.053 C 
BRANCH  14  15
ATOM     15  C   UNL     1      57.770  36.595  52.739  1.00  0.00     0.041 C 
ATOM     16  O   UNL     1      58.103  36.108  51.627  1.00  0.00    -0.550 OA
ATOM     17  O   UNL     1      56.753  37.540  52.800  1.00  0.00    -0.550 OA
ENDBRANCH  14  15
ENDBRANCH  13  14
ENDBRANCH  12  13
ENDBRANCH  11  12
ENDBRANCH  10  11
ENDBRANCH   9  10
ENDBRANCH   8   9
ENDBRANCH   7   8
ENDBRANCH   6   7
ENDBRANCH   5   6
ENDBRANCH   4   5
ENDBRANCH   3   4
ENDBRANCH   2   3
ENDBRANCH   1   2
BRANCH   1  18
ATOM     18  C   UNL     1      65.675  46.721  58.353  1.00  0.00     0.000 C 
BRANCH  18  19
ATOM     19  C   UNL     1      66.645  47.235  57.277  1.00  0.00     0.000 C 
BRANCH  19  20
ATOM     20  C   UNL     1      67.106  48.668  57.587  1.00  0.00     0.000 C 
BRANCH  20  21
ATOM     21  C   UNL     1      66.040  49.481  58.340  1.00  0.00     0.000 C 
BRANCH  21  22
ATOM     22  C   UNL     1      66.459  50.946  58.558  1.00  0.00     0.000 C 
BRANCH  22  23
ATOM     23  C   UNL     1      66.476  51.754  57.250  1.00  0.00     0.000 C 
BRANCH  23  24
ATOM     24  C   UNL     1      66.739  53.252  57.486  1.00  0.00    -0.000 C 
BRANCH  24  25
ATOM     25  C   UNL     1      68.193  53.650  57.185  1.00  0.00    -0.000 C 
BRANCH  25  26
ATOM     26  C   UNL     1      68.764  52.935  55.952  1.00  0.00    -0.000 C 
BRANCH  26  27
ATOM     27  C   UNL     1      69.858  51.935  56.354  1.00  0.00    -0.000 C 
BRANCH  27  28
ATOM     28  C   UNL     1      69.869  50.680  55.466  1.00  0.00    -0.000 C 
BRANCH  28  29
ATOM     29  C   UNL     1      69.482  50.983  54.010  1.00  0.00    -0.000 C 
BRANCH  29  30
ATOM     30  C   UNL     1      70.726  51.240  53.151  1.00  0.00    -0.000 C 
BRANCH  30  31
ATOM     31  C   UNL     1      70.773  52.696  52.673  1.00  0.00    -0.003 C 
ATOM     32  C   UNL     1      69.876  52.907  51.458  1.00  0.00     0.004 C 
ENDBRANCH  30  31
ENDBRANCH  29  30
ENDBRANCH  28  29
ENDBRANCH  27  28
ENDBRANCH  26  27
ENDBRANCH  25  26
ENDBRANCH  24  25
ENDBRANCH  23  24
ENDBRANCH  22  23
ENDBRANCH  21  22
ENDBRANCH  20  21
ENDBRANCH  19  20
ENDBRANCH  18  19
ENDBRANCH   1  18
TORSDOF 28
ENDMDL
