MODEL 1
REMARK VINA RESULT:    -6.175      0.000      0.000
REMARK INTER + INTRA:          -7.538
REMARK INTER:                  -7.258
REMARK INTRA:                  -0.280
REMARK UNBOUND:                -0.280
REMARK SMILES O=C([O-])C=Cc1ccc(O)c(O)c1
REMARK SMILES IDX 6 1 13 2 7 3 11 4 8 5 9 6 5 7 4 8 2 9 1 10 3 11 12 12 10 14
REMARK H PARENT 12 13 10 15
REMARK Flexibility Score: inf
ROOT
ATOM      1  C   UNL     1      28.305  24.968  48.452  1.00  0.00    -0.022 A 
ATOM      2  C   UNL     1      29.424  25.079  47.608  1.00  0.00     0.058 A 
ATOM      3  C   UNL     1      27.043  24.729  47.889  1.00  0.00     0.012 A 
ATOM      4  C   UNL     1      29.274  25.003  46.216  1.00  0.00     0.157 A 
ATOM      5  C   UNL     1      26.891  24.654  46.501  1.00  0.00     0.051 A 
ATOM      6  C   UNL     1      28.004  24.795  45.662  1.00  0.00     0.157 A 
ENDROOT
BRANCH   1   7
ATOM      7  C   UNL     1      28.449  24.992  49.921  1.00  0.00     0.010 C 
ATOM      8  C   UNL     1      28.636  23.917  50.702  1.00  0.00     0.025 C 
BRANCH   8   9
ATOM      9  C   UNL     1      28.919  22.551  50.222  1.00  0.00     0.064 C 
ATOM     10  O   UNL     1      30.090  22.253  49.869  1.00  0.00    -0.545 OA
ATOM     11  O   UNL     1      27.909  21.607  50.082  1.00  0.00    -0.545 OA
ENDBRANCH   8   9
ENDBRANCH   1   7
BRANCH   4  12
ATOM     12  O   UNL     1      30.381  25.129  45.379  1.00  0.00    -0.504 OA
ATOM     13  H   UNL     1      31.023  25.909  45.461  1.00  0.00     0.293 HD
ENDBRANCH   4  12
BRANCH   6  14
ATOM     14  O   UNL     1      27.858  24.724  44.278  1.00  0.00    -0.504 OA
ATOM     15  H   UNL     1      28.230  23.946  43.745  1.00  0.00     0.293 HD
ENDBRANCH   6  14
TORSDOF 4
ENDMDL
MODEL 2
REMARK VINA RESULT:    -5.841      0.732      1.861
REMARK INTER + INTRA:          -7.145
REMARK INTER:                  -6.860
REMARK INTRA:                  -0.286
REMARK UNBOUND:                -0.280
REMARK SMILES O=C([O-])C=Cc1ccc(O)c(O)c1
REMARK SMILES IDX 6 1 13 2 7 3 11 4 8 5 9 6 5 7 4 8 2 9 1 10 3 11 12 12 10 14
REMARK H PARENT 12 13 10 15
REMARK Flexibility Score: inf
ROOT
ATOM      1  C   UNL     1      28.350  24.827  48.439  1.00  0.00    -0.022 A 
ATOM      2  C   UNL     1      27.151  24.478  47.794  1.00  0.00     0.058 A 
ATOM      3  C   UNL     1      29.465  25.183  47.667  1.00  0.00     0.012 A 
ATOM      4  C   UNL     1      27.083  24.436  46.395  1.00  0.00     0.157 A 
ATOM      5  C   UNL     1      29.400  25.141  46.271  1.00  0.00     0.051 A 
ATOM      6  C   UNL     1      28.212  24.764  45.632  1.00  0.00     0.157 A 
ENDROOT
BRANCH   1   7
ATOM      7  C   UNL     1      28.427  24.928  49.911  1.00  0.00     0.010 C 
ATOM      8  C   UNL     1      28.609  23.899  50.752  1.00  0.00     0.025 C 
BRANCH   8   9
ATOM      9  C   UNL     1      28.952  22.520  50.355  1.00  0.00     0.064 C 
ATOM     10  O   UNL     1      30.149  22.236  50.088  1.00  0.00    -0.545 OA
ATOM     11  O   UNL     1      27.974  21.546  50.198  1.00  0.00    -0.545 OA
ENDBRANCH   8   9
ENDBRANCH   1   7
BRANCH   4  12
ATOM     12  O   UNL     1      25.899  24.075  45.756  1.00  0.00    -0.504 OA
ATOM     13  H   UNL     1      25.200  24.765  45.504  1.00  0.00     0.293 HD
ENDBRANCH   4  12
BRANCH   6  14
ATOM     14  O   UNL     1      28.143  24.718  44.241  1.00  0.00    -0.504 OA
ATOM     15  H   UNL     1      27.292  24.958  43.744  1.00  0.00     0.293 HD
ENDBRANCH   6  14
TORSDOF 4
ENDMDL
MODEL 3
REMARK VINA RESULT:    -5.508      1.656      4.933
REMARK INTER + INTRA:          -6.754
REMARK INTER:                  -7.002
REMARK INTRA:                   0.247
REMARK UNBOUND:                -0.280
REMARK SMILES O=C([O-])C=Cc1ccc(O)c(O)c1
REMARK SMILES IDX 6 1 13 2 7 3 11 4 8 5 9 6 5 7 4 8 2 9 1 10 3 11 12 12 10 14
REMARK H PARENT 12 13 10 15
REMARK Flexibility Score: inf
ROOT
ATOM      1  C   UNL     1      29.096  24.074  48.320  1.00  0.00    -0.022 A 
ATOM      2  C   UNL     1      28.239  24.546  49.329  1.00  0.00     0.058 A 
ATOM      3  C   UNL     1      29.558  22.752  48.376  1.00  0.00     0.012 A 
ATOM      4  C   UNL     1      27.890  23.722  50.408  1.00  0.00     0.157 A 
ATOM      5  C   UNL     1      29.213  21.928  49.451  1.00  0.00     0.051 A 
ATOM      6  C   UNL     1      28.382  22.411  50.471  1.00  0.00     0.157 A 
ENDROOT
BRANCH   1   7
ATOM      7  C   UNL     1      29.433  24.909  47.149  1.00  0.00     0.010 C 
ATOM      8  C   UNL     1      28.689  25.027  46.039  1.00  0.00     0.025 C 
BRANCH   8   9
ATOM      9  C   UNL     1      27.323  24.498  45.864  1.00  0.00     0.064 C 
ATOM     10  O   UNL     1      26.489  25.158  45.190  1.00  0.00    -0.545 OA
ATOM     11  O   UNL     1      26.913  23.327  46.488  1.00  0.00    -0.545 OA
ENDBRANCH   8   9
ENDBRANCH   1   7
BRANCH   4  12
ATOM     12  O   UNL     1      27.053  24.194  51.416  1.00  0.00    -0.504 OA
ATOM     13  H   UNL     1      27.077  25.162  51.715  1.00  0.00     0.293 HD
ENDBRANCH   4  12
BRANCH   6  14
ATOM     14  O   UNL     1      28.036  21.594  51.546  1.00  0.00    -0.504 OA
ATOM     15  H   UNL     1      27.097  21.231  51.655  1.00  0.00     0.293 HD
ENDBRANCH   6  14
TORSDOF 4
ENDMDL
MODEL 4
REMARK VINA RESULT:    -5.374      1.578      4.916
REMARK INTER + INTRA:          -6.597
REMARK INTER:                  -6.524
REMARK INTRA:                  -0.072
REMARK UNBOUND:                -0.280
REMARK SMILES O=C([O-])C=Cc1ccc(O)c(O)c1
REMARK SMILES IDX 6 1 13 2 7 3 11 4 8 5 9 6 5 7 4 8 2 9 1 10 3 11 12 12 10 14
REMARK H PARENT 12 13 10 15
REMARK Flexibility Score: inf
ROOT
ATOM      1  C   UNL     1      28.837  24.280  48.480  1.00  0.00    -0.022 A 
ATOM      2  C   UNL     1      28.682  22.910  48.753  1.00  0.00     0.058 A 
ATOM      3  C   UNL     1      28.533  25.217  49.478  1.00  0.00     0.012 A 
ATOM      4  C   UNL     1      28.181  22.485  49.991  1.00  0.00     0.157 A 
ATOM      5  C   UNL     1      28.032  24.795  50.713  1.00  0.00     0.051 A 
ATOM      6  C   UNL     1      27.851  23.430  50.972  1.00  0.00     0.157 A 
ENDROOT
BRANCH   1   7
ATOM      7  C   UNL     1      29.412  24.746  47.202  1.00  0.00     0.010 C 
ATOM      8  C   UNL     1      28.759  24.810  46.032  1.00  0.00     0.025 C 
BRANCH   8   9
ATOM      9  C   UNL     1      27.308  24.607  45.851  1.00  0.00     0.064 C 
ATOM     10  O   UNL     1      26.595  25.574  45.476  1.00  0.00    -0.545 OA
ATOM     11  O   UNL     1      26.701  23.396  46.155  1.00  0.00    -0.545 OA
ENDBRANCH   8   9
ENDBRANCH   1   7
BRANCH   4  12
ATOM     12  O   UNL     1      28.014  21.127  50.256  1.00  0.00    -0.504 OA
ATOM     13  H   UNL     1      28.807  20.509  50.381  1.00  0.00     0.293 HD
ENDBRANCH   4  12
BRANCH   6  14
ATOM     14  O   UNL     1      27.350  23.005  52.200  1.00  0.00    -0.504 OA
ATOM     15  H   UNL     1      27.910  22.451  52.838  1.00  0.00     0.293 HD
ENDBRANCH   6  14
TORSDOF 4
ENDMDL
MODEL 5
REMARK VINA RESULT:    -5.342      2.965      4.368
REMARK INTER + INTRA:          -6.559
REMARK INTER:                  -6.271
REMARK INTRA:                  -0.288
REMARK UNBOUND:                -0.280
REMARK SMILES O=C([O-])C=Cc1ccc(O)c(O)c1
REMARK SMILES IDX 6 1 13 2 7 3 11 4 8 5 9 6 5 7 4 8 2 9 1 10 3 11 12 12 10 14
REMARK H PARENT 12 13 10 15
REMARK Flexibility Score: inf
ROOT
ATOM      1  C   UNL     1      28.915  22.587  50.823  1.00  0.00    -0.022 A 
ATOM      2  C   UNL     1      27.598  22.159  50.582  1.00  0.00     0.058 A 
ATOM      3  C   UNL     1      29.356  23.796  50.268  1.00  0.00     0.012 A 
ATOM      4  C   UNL     1      26.749  22.906  49.753  1.00  0.00     0.157 A 
ATOM      5  C   UNL     1      28.511  24.542  49.440  1.00  0.00     0.051 A 
ATOM      6  C   UNL     1      27.209  24.098  49.178  1.00  0.00     0.157 A 
ENDROOT
BRANCH   1   7
ATOM      7  C   UNL     1      29.807  21.842  51.735  1.00  0.00     0.010 C 
ATOM      8  C   UNL     1      29.940  22.069  53.050  1.00  0.00     0.025 C 
BRANCH   8   9
ATOM      9  C   UNL     1      29.088  22.968  53.853  1.00  0.00     0.064 C 
ATOM     10  O   UNL     1      28.009  22.529  54.329  1.00  0.00    -0.545 OA
ATOM     11  O   UNL     1      29.413  24.306  54.034  1.00  0.00    -0.545 OA
ENDBRANCH   8   9
ENDBRANCH   1   7
BRANCH   4  12
ATOM     12  O   UNL     1      25.448  22.474  49.502  1.00  0.00    -0.504 OA
ATOM     13  H   UNL     1      24.649  22.918  49.938  1.00  0.00     0.293 HD
ENDBRANCH   4  12
BRANCH   6  14
ATOM     14  O   UNL     1      26.364  24.837  48.352  1.00  0.00    -0.504 OA
ATOM     15  H   UNL     1      25.649  24.390  47.789  1.00  0.00     0.293 HD
ENDBRANCH   6  14
TORSDOF 4
ENDMDL
MODEL 6
REMARK VINA RESULT:    -5.300      1.931      4.779
REMARK INTER + INTRA:          -6.510
REMARK INTER:                  -6.902
REMARK INTRA:                   0.392
REMARK UNBOUND:                -0.280
REMARK SMILES O=C([O-])C=Cc1ccc(O)c(O)c1
REMARK SMILES IDX 6 1 13 2 7 3 11 4 8 5 9 6 5 7 4 8 2 9 1 10 3 11 12 12 10 14
REMARK H PARENT 12 13 10 15
REMARK Flexibility Score: inf
ROOT
ATOM      1  C   UNL     1      27.273  23.848  48.543  1.00  0.00    -0.022 A 
ATOM      2  C   UNL     1      27.805  24.599  49.605  1.00  0.00     0.058 A 
ATOM      3  C   UNL     1      26.669  22.612  48.812  1.00  0.00     0.012 A 
ATOM      4  C   UNL     1      27.779  24.096  50.914  1.00  0.00     0.157 A 
ATOM      5  C   UNL     1      26.643  22.108  50.116  1.00  0.00     0.051 A 
ATOM      6  C   UNL     1      27.201  22.846  51.169  1.00  0.00     0.157 A 
ENDROOT
BRANCH   1   7
ATOM      7  C   UNL     1      27.243  24.383  47.167  1.00  0.00     0.010 C 
ATOM      8  C   UNL     1      28.305  24.844  46.488  1.00  0.00     0.025 C 
BRANCH   8   9
ATOM      9  C   UNL     1      29.711  24.725  46.919  1.00  0.00     0.064 C 
ATOM     10  O   UNL     1      30.541  25.600  46.558  1.00  0.00    -0.545 OA
ATOM     11  O   UNL     1      30.156  23.632  47.651  1.00  0.00    -0.545 OA
ENDBRANCH   8   9
ENDBRANCH   1   7
BRANCH   4  12
ATOM     12  O   UNL     1      28.320  24.834  51.965  1.00  0.00    -0.504 OA
ATOM     13  H   UNL     1      29.316  25.008  52.033  1.00  0.00     0.293 HD
ENDBRANCH   4  12
BRANCH   6  14
ATOM     14  O   UNL     1      27.179  22.347  52.470  1.00  0.00    -0.504 OA
ATOM     15  H   UNL     1      26.533  21.617  52.747  1.00  0.00     0.293 HD
ENDBRANCH   6  14
TORSDOF 4
ENDMDL
MODEL 7
REMARK VINA RESULT:    -5.252      2.265      3.547
REMARK INTER + INTRA:          -6.454
REMARK INTER:                  -6.194
REMARK INTRA:                  -0.259
REMARK UNBOUND:                -0.280
REMARK SMILES O=C([O-])C=Cc1ccc(O)c(O)c1
REMARK SMILES IDX 6 1 13 2 7 3 11 4 8 5 9 6 5 7 4 8 2 9 1 10 3 11 12 12 10 14
REMARK H PARENT 12 13 10 15
REMARK Flexibility Score: inf
ROOT
ATOM      1  C   UNL     1      28.342  23.986  50.884  1.00  0.00    -0.022 A 
ATOM      2  C   UNL     1      27.243  23.150  50.620  1.00  0.00     0.058 A 
ATOM      3  C   UNL     1      28.799  24.855  49.883  1.00  0.00     0.012 A 
ATOM      4  C   UNL     1      26.642  23.147  49.353  1.00  0.00     0.157 A 
ATOM      5  C   UNL     1      28.202  24.852  48.619  1.00  0.00     0.051 A 
ATOM      6  C   UNL     1      27.126  23.997  48.349  1.00  0.00     0.157 A 
ENDROOT
BRANCH   1   7
ATOM      7  C   UNL     1      28.956  24.043  52.226  1.00  0.00     0.010 C 
ATOM      8  C   UNL     1      30.018  23.329  52.626  1.00  0.00     0.025 C 
BRANCH   8   9
ATOM      9  C   UNL     1      30.875  22.507  51.750  1.00  0.00     0.064 C 
ATOM     10  O   UNL     1      30.851  21.254  51.865  1.00  0.00    -0.545 OA
ATOM     11  O   UNL     1      31.762  23.086  50.852  1.00  0.00    -0.545 OA
ENDBRANCH   8   9
ENDBRANCH   1   7
BRANCH   4  12
ATOM     12  O   UNL     1      25.563  22.307  49.086  1.00  0.00    -0.504 OA
ATOM     13  H   UNL     1      25.261  22.117  48.138  1.00  0.00     0.293 HD
ENDBRANCH   4  12
BRANCH   6  14
ATOM     14  O   UNL     1      26.529  23.989  47.090  1.00  0.00    -0.504 OA
ATOM     15  H   UNL     1      26.118  23.147  46.704  1.00  0.00     0.293 HD
ENDBRANCH   6  14
TORSDOF 4
ENDMDL
MODEL 8
REMARK VINA RESULT:    -5.116      2.903      3.928
REMARK INTER + INTRA:          -6.293
REMARK INTER:                  -5.998
REMARK INTRA:                  -0.295
REMARK UNBOUND:                -0.280
REMARK SMILES O=C([O-])C=Cc1ccc(O)c(O)c1
REMARK SMILES IDX 6 1 13 2 7 3 11 4 8 5 9 6 5 7 4 8 2 9 1 10 3 11 12 12 10 14
REMARK H PARENT 12 13 10 15
REMARK Flexibility Score: inf
ROOT
ATOM      1  C   UNL     1      28.830  22.591  50.973  1.00  0.00    -0.022 A 
ATOM      2  C   UNL     1      29.332  23.730  50.319  1.00  0.00     0.058 A 
ATOM      3  C   UNL     1      27.527  22.156  50.690  1.00  0.00     0.012 A 
ATOM      4  C   UNL     1      28.522  24.454  49.433  1.00  0.00     0.157 A 
ATOM      5  C   UNL     1      26.718  22.877  49.807  1.00  0.00     0.051 A 
ATOM      6  C   UNL     1      27.211  24.029  49.180  1.00  0.00     0.157 A 
ENDROOT
BRANCH   1   7
ATOM      7  C   UNL     1      29.683  21.784  51.870  1.00  0.00     0.010 C 
ATOM      8  C   UNL     1      29.854  22.001  53.182  1.00  0.00     0.025 C 
BRANCH   8   9
ATOM      9  C   UNL     1      29.082  22.957  53.999  1.00  0.00     0.064 C 
ATOM     10  O   UNL     1      28.050  22.559  54.601  1.00  0.00    -0.545 OA
ATOM     11  O   UNL     1      29.425  24.301  54.061  1.00  0.00    -0.545 OA
ENDBRANCH   8   9
ENDBRANCH   1   7
BRANCH   4  12
ATOM     12  O   UNL     1      29.014  25.592  48.797  1.00  0.00    -0.504 OA
ATOM     13  H   UNL     1      29.415  26.361  49.320  1.00  0.00     0.293 HD
ENDBRANCH   4  12
BRANCH   6  14
ATOM     14  O   UNL     1      26.408  24.752  48.301  1.00  0.00    -0.504 OA
ATOM     15  H   UNL     1      25.609  25.284  48.628  1.00  0.00     0.293 HD
ENDBRANCH   6  14
TORSDOF 4
ENDMDL
MODEL 9
REMARK VINA RESULT:    -5.032      2.730      4.041
REMARK INTER + INTRA:          -6.195
REMARK INTER:                  -5.940
REMARK INTRA:                  -0.254
REMARK UNBOUND:                -0.280
REMARK SMILES O=C([O-])C=Cc1ccc(O)c(O)c1
REMARK SMILES IDX 6 1 13 2 7 3 11 4 8 5 9 6 5 7 4 8 2 9 1 10 3 11 12 12 10 14
REMARK H PARENT 12 13 10 15
REMARK Flexibility Score: inf
ROOT
ATOM      1  C   UNL     1      29.422  23.142  50.497  1.00  0.00    -0.022 A 
ATOM      2  C   UNL     1      28.778  24.145  49.751  1.00  0.00     0.058 A 
ATOM      3  C   UNL     1      28.718  21.977  50.830  1.00  0.00     0.012 A 
ATOM      4  C   UNL     1      27.431  24.005  49.387  1.00  0.00     0.157 A 
ATOM      5  C   UNL     1      27.375  21.835  50.469  1.00  0.00     0.051 A 
ATOM      6  C   UNL     1      26.727  22.849  49.751  1.00  0.00     0.157 A 
ENDROOT
BRANCH   1   7
ATOM      7  C   UNL     1      30.854  23.247  50.844  1.00  0.00     0.010 C 
ATOM      8  C   UNL     1      31.873  22.849  50.068  1.00  0.00     0.025 C 
BRANCH   8   9
ATOM      9  C   UNL     1      31.758  22.414  48.663  1.00  0.00     0.064 C 
ATOM     10  O   UNL     1      31.604  23.279  47.762  1.00  0.00    -0.545 OA
ATOM     11  O   UNL     1      31.745  21.069  48.319  1.00  0.00    -0.545 OA
ENDBRANCH   8   9
ENDBRANCH   1   7
BRANCH   4  12
ATOM     12  O   UNL     1      26.788  25.005  48.661  1.00  0.00    -0.504 OA
ATOM     13  H   UNL     1      27.166  25.353  47.787  1.00  0.00     0.293 HD
ENDBRANCH   4  12
BRANCH   6  14
ATOM     14  O   UNL     1      25.388  22.714  49.391  1.00  0.00    -0.504 OA
ATOM     15  H   UNL     1      25.017  21.835  49.050  1.00  0.00     0.293 HD
ENDBRANCH   6  14
TORSDOF 4
ENDMDL
