MODEL 1
REMARK VINA RESULT:    -4.724      0.000      0.000
REMARK INTER + INTRA:         -17.264
REMARK INTER:                 -11.904
REMARK INTRA:                  -5.360
REMARK UNBOUND:                -5.360
REMARK SMILES CCCCCCCCCCCCCCCCCCCCCCCCCCCC(=O)[O-]
REMARK SMILES IDX 15 1 16 2 17 3 18 4 19 5 20 6 21 7 22 8 23 9 24 10 25 11
REMARK SMILES IDX 26 12 27 13 28 14 29 15 30 16 14 17 13 18 12 19 11 20 10 21
REMARK SMILES IDX 9 22 8 23 7 24 6 25 5 26 4 27 3 28 2 29 1 30
REMARK H PARENT
REMARK Flexibility Score: inf
ROOT
ATOM      1  C   UNL     1     -15.710  18.651 -17.982  1.00  0.00     0.000 C 
ENDROOT
BRANCH   1   2
ATOM      2  C   UNL     1     -16.659  18.191 -19.110  1.00  0.00     0.000 C 
BRANCH   2   3
ATOM      3  C   UNL     1     -16.175  16.934 -19.858  1.00  0.00     0.000 C 
BRANCH   3   4
ATOM      4  C   UNL     1     -14.700  16.556 -19.621  1.00  0.00     0.000 C 
BRANCH   4   5
ATOM      5  C   UNL     1     -14.411  15.044 -19.586  1.00  0.00     0.000 C 
BRANCH   5   6
ATOM      6  C   UNL     1     -13.434  14.649 -18.465  1.00  0.00     0.000 C 
BRANCH   6   7
ATOM      7  C   UNL     1     -13.396  15.668 -17.310  1.00  0.00     0.000 C 
BRANCH   7   8
ATOM      8  C   UNL     1     -12.656  15.204 -16.041  1.00  0.00     0.000 C 
BRANCH   8   9
ATOM      9  C   UNL     1     -12.847  16.158 -14.850  1.00  0.00     0.000 C 
BRANCH   9  10
ATOM     10  C   UNL     1     -13.276  17.568 -15.286  1.00  0.00     0.000 C 
BRANCH  10  11
ATOM     11  C   UNL     1     -13.208  18.592 -14.143  1.00  0.00     0.000 C 
BRANCH  11  12
ATOM     12  C   UNL     1     -12.304  19.775 -14.520  1.00  0.00     0.006 C 
BRANCH  12  13
ATOM     13  C   UNL     1     -12.197  19.963 -16.038  1.00  0.00     0.053 C 
BRANCH  13  14
ATOM     14  C   UNL     1     -12.915  21.196 -16.496  1.00  0.00     0.041 C 
ATOM     15  O   UNL     1     -13.053  22.175 -15.717  1.00  0.00    -0.550 OA
ATOM     16  O   UNL     1     -13.400  21.276 -17.796  1.00  0.00    -0.550 OA
ENDBRANCH  13  14
ENDBRANCH  12  13
ENDBRANCH  11  12
ENDBRANCH  10  11
ENDBRANCH   9  10
ENDBRANCH   8   9
ENDBRANCH   7   8
ENDBRANCH   6   7
ENDBRANCH   5   6
ENDBRANCH   4   5
ENDBRANCH   3   4
ENDBRANCH   2   3
ENDBRANCH   1   2
BRANCH   1  17
ATOM     17  C   UNL     1     -16.427  18.798 -16.632  1.00  0.00     0.000 C 
BRANCH  17  18
ATOM     18  C   UNL     1     -16.937  17.442 -16.127  1.00  0.00     0.000 C 
BRANCH  18  19
ATOM     19  C   UNL     1     -18.155  17.621 -15.208  1.00  0.00     0.000 C 
BRANCH  19  20
ATOM     20  C   UNL     1     -17.916  17.054 -13.793  1.00  0.00     0.000 C 
BRANCH  20  21
ATOM     21  C   UNL     1     -16.426  16.959 -13.409  1.00  0.00     0.000 C 
BRANCH  21  22
ATOM     22  C   UNL     1     -15.945  15.548 -13.023  1.00  0.00    -0.000 C 
BRANCH  22  23
ATOM     23  C   UNL     1     -17.005  14.434 -13.155  1.00  0.00    -0.000 C 
BRANCH  23  24
ATOM     24  C   UNL     1     -16.727  13.388 -14.251  1.00  0.00    -0.000 C 
BRANCH  24  25
ATOM     25  C   UNL     1     -15.898  13.898 -15.446  1.00  0.00    -0.000 C 
BRANCH  25  26
ATOM     26  C   UNL     1     -16.633  13.807 -16.800  1.00  0.00    -0.000 C 
BRANCH  26  27
ATOM     27  C   UNL     1     -18.155  13.981 -16.664  1.00  0.00    -0.000 C 
BRANCH  27  28
ATOM     28  C   UNL     1     -18.950  12.887 -17.397  1.00  0.00    -0.000 C 
BRANCH  28  29
ATOM     29  C   UNL     1     -19.121  11.592 -16.576  1.00  0.00    -0.003 C 
ATOM     30  C   UNL     1     -18.077  10.533 -16.935  1.00  0.00     0.004 C 
ENDBRANCH  28  29
ENDBRANCH  27  28
ENDBRANCH  26  27
ENDBRANCH  25  26
ENDBRANCH  24  25
ENDBRANCH  23  24
ENDBRANCH  22  23
ENDBRANCH  21  22
ENDBRANCH  20  21
ENDBRANCH  19  20
ENDBRANCH  18  19
ENDBRANCH  17  18
ENDBRANCH   1  17
TORSDOF 26
ENDMDL
MODEL 2
REMARK VINA RESULT:    -4.704      2.487      5.987
REMARK INTER + INTRA:         -17.215
REMARK INTER:                 -11.748
REMARK INTRA:                  -5.467
REMARK UNBOUND:                -5.360
REMARK SMILES CCCCCCCCCCCCCCCCCCCCCCCCCCCC(=O)[O-]
REMARK SMILES IDX 15 1 16 2 17 3 18 4 19 5 20 6 21 7 22 8 23 9 24 10 25 11
REMARK SMILES IDX 26 12 27 13 28 14 29 15 30 16 14 17 13 18 12 19 11 20 10 21
REMARK SMILES IDX 9 22 8 23 7 24 6 25 5 26 4 27 3 28 2 29 1 30
REMARK H PARENT
REMARK Flexibility Score: inf
ROOT
ATOM      1  C   UNL     1     -13.441  17.641 -16.153  1.00  0.00     0.000 C 
ENDROOT
BRANCH   1   2
ATOM      2  C   UNL     1     -13.738  18.066 -17.608  1.00  0.00     0.000 C 
BRANCH   2   3
ATOM      3  C   UNL     1     -14.810  19.167 -17.728  1.00  0.00     0.000 C 
BRANCH   3   4
ATOM      4  C   UNL     1     -15.870  19.177 -16.610  1.00  0.00     0.000 C 
BRANCH   4   5
ATOM      5  C   UNL     1     -17.308  18.875 -17.071  1.00  0.00     0.000 C 
BRANCH   5   6
ATOM      6  C   UNL     1     -17.647  17.376 -17.026  1.00  0.00     0.000 C 
BRANCH   6   7
ATOM      7  C   UNL     1     -19.059  17.060 -17.553  1.00  0.00     0.000 C 
BRANCH   7   8
ATOM      8  C   UNL     1     -19.763  18.211 -18.296  1.00  0.00     0.000 C 
BRANCH   8   9
ATOM      9  C   UNL     1     -20.033  17.897 -19.777  1.00  0.00     0.000 C 
BRANCH   9  10
ATOM     10  C   UNL     1     -19.016  16.905 -20.365  1.00  0.00     0.000 C 
BRANCH  10  11
ATOM     11  C   UNL     1     -18.009  17.575 -21.311  1.00  0.00     0.000 C 
BRANCH  11  12
ATOM     12  C   UNL     1     -16.660  17.794 -20.611  1.00  0.00     0.006 C 
BRANCH  12  13
ATOM     13  C   UNL     1     -16.014  16.474 -20.170  1.00  0.00     0.053 C 
BRANCH  13  14
ATOM     14  C   UNL     1     -14.877  16.086 -21.065  1.00  0.00     0.041 C 
ATOM     15  O   UNL     1     -15.096  15.751 -22.259  1.00  0.00    -0.550 OA
ATOM     16  O   UNL     1     -13.572  16.128 -20.590  1.00  0.00    -0.550 OA
ENDBRANCH  13  14
ENDBRANCH  12  13
ENDBRANCH  11  12
ENDBRANCH  10  11
ENDBRANCH   9  10
ENDBRANCH   8   9
ENDBRANCH   7   8
ENDBRANCH   6   7
ENDBRANCH   5   6
ENDBRANCH   4   5
ENDBRANCH   3   4
ENDBRANCH   2   3
ENDBRANCH   1   2
BRANCH   1  17
ATOM     17  C   UNL     1     -13.381  16.116 -15.986  1.00  0.00     0.000 C 
BRANCH  17  18
ATOM     18  C   UNL     1     -14.035  15.404 -17.176  1.00  0.00     0.000 C 
BRANCH  18  19
ATOM     19  C   UNL     1     -13.360  14.050 -17.444  1.00  0.00     0.000 C 
BRANCH  19  20
ATOM     20  C   UNL     1     -13.226  13.192 -16.168  1.00  0.00     0.000 C 
BRANCH  20  21
ATOM     21  C   UNL     1     -13.390  11.680 -16.420  1.00  0.00     0.000 C 
BRANCH  21  22
ATOM     22  C   UNL     1     -14.847  11.191 -16.504  1.00  0.00    -0.000 C 
BRANCH  22  23
ATOM     23  C   UNL     1     -15.810  11.814 -15.469  1.00  0.00    -0.000 C 
BRANCH  23  24
ATOM     24  C   UNL     1     -16.946  12.668 -16.061  1.00  0.00    -0.000 C 
BRANCH  24  25
ATOM     25  C   UNL     1     -17.083  14.081 -15.462  1.00  0.00    -0.000 C 
BRANCH  25  26
ATOM     26  C   UNL     1     -16.148  14.345 -14.263  1.00  0.00    -0.000 C 
BRANCH  26  27
ATOM     27  C   UNL     1     -16.786  15.257 -13.201  1.00  0.00    -0.000 C 
BRANCH  27  28
ATOM     28  C   UNL     1     -16.592  16.752 -13.503  1.00  0.00    -0.000 C 
BRANCH  28  29
ATOM     29  C   UNL     1     -17.732  17.644 -12.967  1.00  0.00    -0.003 C 
ATOM     30  C   UNL     1     -19.018  17.496 -13.781  1.00  0.00     0.004 C 
ENDBRANCH  28  29
ENDBRANCH  27  28
ENDBRANCH  26  27
ENDBRANCH  25  26
ENDBRANCH  24  25
ENDBRANCH  23  24
ENDBRANCH  22  23
ENDBRANCH  21  22
ENDBRANCH  20  21
ENDBRANCH  19  20
ENDBRANCH  18  19
ENDBRANCH  17  18
ENDBRANCH   1  17
TORSDOF 26
ENDMDL
MODEL 3
REMARK VINA RESULT:    -4.648      2.673      6.179
REMARK INTER + INTRA:         -17.072
REMARK INTER:                 -11.669
REMARK INTRA:                  -5.403
REMARK UNBOUND:                -5.360
REMARK SMILES CCCCCCCCCCCCCCCCCCCCCCCCCCCC(=O)[O-]
REMARK SMILES IDX 15 1 16 2 17 3 18 4 19 5 20 6 21 7 22 8 23 9 24 10 25 11
REMARK SMILES IDX 26 12 27 13 28 14 29 15 30 16 14 17 13 18 12 19 11 20 10 21
REMARK SMILES IDX 9 22 8 23 7 24 6 25 5 26 4 27 3 28 2 29 1 30
REMARK H PARENT
REMARK Flexibility Score: inf
ROOT
ATOM      1  C   UNL     1     -17.785  14.452 -17.496  1.00  0.00     0.000 C 
ENDROOT
BRANCH   1   2
ATOM      2  C   UNL     1     -18.573  13.131 -17.365  1.00  0.00     0.000 C 
BRANCH   2   3
ATOM      3  C   UNL     1     -17.840  12.048 -16.550  1.00  0.00     0.000 C 
BRANCH   3   4
ATOM      4  C   UNL     1     -17.074  12.560 -15.316  1.00  0.00     0.000 C 
BRANCH   4   5
ATOM      5  C   UNL     1     -15.690  11.921 -15.094  1.00  0.00     0.000 C 
BRANCH   5   6
ATOM      6  C   UNL     1     -15.139  11.238 -16.357  1.00  0.00     0.000 C 
BRANCH   6   7
ATOM      7  C   UNL     1     -13.874  11.922 -16.911  1.00  0.00     0.000 C 
BRANCH   7   8
ATOM      8  C   UNL     1     -14.014  13.425 -17.218  1.00  0.00     0.000 C 
BRANCH   8   9
ATOM      9  C   UNL     1     -12.886  14.273 -16.605  1.00  0.00     0.000 C 
BRANCH   9  10
ATOM     10  C   UNL     1     -13.407  15.567 -15.957  1.00  0.00     0.000 C 
BRANCH  10  11
ATOM     11  C   UNL     1     -14.932  15.571 -15.778  1.00  0.00     0.000 C 
BRANCH  11  12
ATOM     12  C   UNL     1     -15.312  15.853 -14.317  1.00  0.00     0.006 C 
BRANCH  12  13
ATOM     13  C   UNL     1     -16.802  16.180 -14.156  1.00  0.00     0.053 C 
BRANCH  13  14
ATOM     14  C   UNL     1     -17.142  16.541 -12.743  1.00  0.00     0.041 C 
ATOM     15  O   UNL     1     -17.885  17.528 -12.501  1.00  0.00    -0.550 OA
ATOM     16  O   UNL     1     -16.663  15.766 -11.693  1.00  0.00    -0.550 OA
ENDBRANCH  13  14
ENDBRANCH  12  13
ENDBRANCH  11  12
ENDBRANCH  10  11
ENDBRANCH   9  10
ENDBRANCH   8   9
ENDBRANCH   7   8
ENDBRANCH   6   7
ENDBRANCH   5   6
ENDBRANCH   4   5
ENDBRANCH   3   4
ENDBRANCH   2   3
ENDBRANCH   1   2
BRANCH   1  17
ATOM     17  C   UNL     1     -18.609  15.565 -18.160  1.00  0.00     0.000 C 
BRANCH  17  18
ATOM     18  C   UNL     1     -18.930  16.685 -17.163  1.00  0.00     0.000 C 
BRANCH  18  19
ATOM     19  C   UNL     1     -18.447  18.045 -17.689  1.00  0.00     0.000 C 
BRANCH  19  20
ATOM     20  C   UNL     1     -19.422  18.663 -18.714  1.00  0.00     0.000 C 
BRANCH  20  21
ATOM     21  C   UNL     1     -18.745  19.085 -20.033  1.00  0.00     0.000 C 
BRANCH  21  22
ATOM     22  C   UNL     1     -17.283  18.627 -20.187  1.00  0.00    -0.000 C 
BRANCH  22  23
ATOM     23  C   UNL     1     -17.048  17.522 -21.240  1.00  0.00    -0.000 C 
BRANCH  23  24
ATOM     24  C   UNL     1     -15.941  16.510 -20.894  1.00  0.00    -0.000 C 
BRANCH  24  25
ATOM     25  C   UNL     1     -15.361  16.635 -19.472  1.00  0.00    -0.000 C 
BRANCH  25  26
ATOM     26  C   UNL     1     -13.823  16.761 -19.432  1.00  0.00    -0.000 C 
BRANCH  26  27
ATOM     27  C   UNL     1     -13.350  18.073 -18.784  1.00  0.00    -0.000 C 
BRANCH  27  28
ATOM     28  C   UNL     1     -14.386  18.671 -17.818  1.00  0.00    -0.000 C 
BRANCH  28  29
ATOM     29  C   UNL     1     -13.783  19.656 -16.795  1.00  0.00    -0.003 C 
ATOM     30  C   UNL     1     -12.285  19.874 -17.010  1.00  0.00     0.004 C 
ENDBRANCH  28  29
ENDBRANCH  27  28
ENDBRANCH  26  27
ENDBRANCH  25  26
ENDBRANCH  24  25
ENDBRANCH  23  24
ENDBRANCH  22  23
ENDBRANCH  21  22
ENDBRANCH  20  21
ENDBRANCH  19  20
ENDBRANCH  18  19
ENDBRANCH  17  18
ENDBRANCH   1  17
TORSDOF 26
ENDMDL
MODEL 4
REMARK VINA RESULT:    -4.627      1.465      4.979
REMARK INTER + INTRA:         -17.019
REMARK INTER:                 -11.611
REMARK INTRA:                  -5.407
REMARK UNBOUND:                -5.360
REMARK SMILES CCCCCCCCCCCCCCCCCCCCCCCCCCCC(=O)[O-]
REMARK SMILES IDX 15 1 16 2 17 3 18 4 19 5 20 6 21 7 22 8 23 9 24 10 25 11
REMARK SMILES IDX 26 12 27 13 28 14 29 15 30 16 14 17 13 18 12 19 11 20 10 21
REMARK SMILES IDX 9 22 8 23 7 24 6 25 5 26 4 27 3 28 2 29 1 30
REMARK H PARENT
REMARK Flexibility Score: inf
ROOT
ATOM      1  C   UNL     1     -18.791  16.271 -17.502  1.00  0.00     0.000 C 
ENDROOT
BRANCH   1   2
ATOM      2  C   UNL     1     -18.768  17.489 -16.552  1.00  0.00     0.000 C 
BRANCH   2   3
ATOM      3  C   UNL     1     -19.920  17.502 -15.529  1.00  0.00     0.000 C 
BRANCH   3   4
ATOM      4  C   UNL     1     -19.486  17.529 -14.051  1.00  0.00     0.000 C 
BRANCH   4   5
ATOM      5  C   UNL     1     -17.965  17.592 -13.818  1.00  0.00     0.000 C 
BRANCH   5   6
ATOM      6  C   UNL     1     -17.542  16.981 -12.471  1.00  0.00     0.000 C 
BRANCH   6   7
ATOM      7  C   UNL     1     -16.619  15.757 -12.627  1.00  0.00     0.000 C 
BRANCH   7   8
ATOM      8  C   UNL     1     -16.665  15.063 -14.001  1.00  0.00     0.000 C 
BRANCH   8   9
ATOM      9  C   UNL     1     -15.341  15.175 -14.778  1.00  0.00     0.000 C 
BRANCH   9  10
ATOM     10  C   UNL     1     -15.405  16.220 -15.904  1.00  0.00     0.000 C 
BRANCH  10  11
ATOM     11  C   UNL     1     -14.467  17.413 -15.662  1.00  0.00     0.000 C 
BRANCH  11  12
ATOM     12  C   UNL     1     -15.163  18.737 -16.009  1.00  0.00     0.006 C 
BRANCH  12  13
ATOM     13  C   UNL     1     -14.577  19.389 -17.268  1.00  0.00     0.053 C 
BRANCH  13  14
ATOM     14  C   UNL     1     -13.631  20.500 -16.929  1.00  0.00     0.041 C 
ATOM     15  O   UNL     1     -13.483  21.469 -17.718  1.00  0.00    -0.550 OA
ATOM     16  O   UNL     1     -12.939  20.480 -15.724  1.00  0.00    -0.550 OA
ENDBRANCH  13  14
ENDBRANCH  12  13
ENDBRANCH  11  12
ENDBRANCH  10  11
ENDBRANCH   9  10
ENDBRANCH   8   9
ENDBRANCH   7   8
ENDBRANCH   6   7
ENDBRANCH   5   6
ENDBRANCH   4   5
ENDBRANCH   3   4
ENDBRANCH   2   3
ENDBRANCH   1   2
BRANCH   1  17
ATOM     17  C   UNL     1     -19.189  14.973 -16.785  1.00  0.00     0.000 C 
BRANCH  17  18
ATOM     18  C   UNL     1     -18.168  13.860 -17.051  1.00  0.00     0.000 C 
BRANCH  18  19
ATOM     19  C   UNL     1     -18.868  12.506 -17.241  1.00  0.00     0.000 C 
BRANCH  19  20
ATOM     20  C   UNL     1     -18.068  11.336 -16.629  1.00  0.00     0.000 C 
BRANCH  20  21
ATOM     21  C   UNL     1     -16.814  11.784 -15.854  1.00  0.00     0.000 C 
BRANCH  21  22
ATOM     22  C   UNL     1     -15.500  11.123 -16.309  1.00  0.00    -0.000 C 
BRANCH  22  23
ATOM     23  C   UNL     1     -14.257  12.040 -16.274  1.00  0.00    -0.000 C 
BRANCH  23  24
ATOM     24  C   UNL     1     -14.171  13.072 -17.413  1.00  0.00    -0.000 C 
BRANCH  24  25
ATOM     25  C   UNL     1     -12.913  13.961 -17.396  1.00  0.00    -0.000 C 
BRANCH  25  26
ATOM     26  C   UNL     1     -12.873  15.009 -18.529  1.00  0.00    -0.000 C 
BRANCH  26  27
ATOM     27  C   UNL     1     -14.180  15.063 -19.337  1.00  0.00    -0.000 C 
BRANCH  27  28
ATOM     28  C   UNL     1     -14.696  16.496 -19.545  1.00  0.00    -0.000 C 
BRANCH  28  29
ATOM     29  C   UNL     1     -16.128  16.563 -20.117  1.00  0.00    -0.003 C 
ATOM     30  C   UNL     1     -16.716  17.973 -20.050  1.00  0.00     0.004 C 
ENDBRANCH  28  29
ENDBRANCH  27  28
ENDBRANCH  26  27
ENDBRANCH  25  26
ENDBRANCH  24  25
ENDBRANCH  23  24
ENDBRANCH  22  23
ENDBRANCH  21  22
ENDBRANCH  20  21
ENDBRANCH  19  20
ENDBRANCH  18  19
ENDBRANCH  17  18
ENDBRANCH   1  17
TORSDOF 26
ENDMDL
MODEL 5
REMARK VINA RESULT:    -4.618      2.648      4.294
REMARK INTER + INTRA:         -16.997
REMARK INTER:                 -11.512
REMARK INTRA:                  -5.485
REMARK UNBOUND:                -5.360
REMARK SMILES CCCCCCCCCCCCCCCCCCCCCCCCCCCC(=O)[O-]
REMARK SMILES IDX 15 1 16 2 17 3 18 4 19 5 20 6 21 7 22 8 23 9 24 10 25 11
REMARK SMILES IDX 26 12 27 13 28 14 29 15 30 16 14 17 13 18 12 19 11 20 10 21
REMARK SMILES IDX 9 22 8 23 7 24 6 25 5 26 4 27 3 28 2 29 1 30
REMARK H PARENT
REMARK Flexibility Score: inf
ROOT
ATOM      1  C   UNL     1     -13.212  14.643 -17.969  1.00  0.00     0.000 C 
ENDROOT
BRANCH   1   2
ATOM      2  C   UNL     1     -14.268  14.658 -19.096  1.00  0.00     0.000 C 
BRANCH   2   3
ATOM      3  C   UNL     1     -13.964  15.666 -20.221  1.00  0.00     0.000 C 
BRANCH   3   4
ATOM      4  C   UNL     1     -12.687  16.505 -20.024  1.00  0.00     0.000 C 
BRANCH   4   5
ATOM      5  C   UNL     1     -12.926  17.989 -19.689  1.00  0.00     0.000 C 
BRANCH   5   6
ATOM      6  C   UNL     1     -12.911  18.270 -18.177  1.00  0.00     0.000 C 
BRANCH   6   7
ATOM      7  C   UNL     1     -14.247  18.831 -17.653  1.00  0.00     0.000 C 
BRANCH   7   8
ATOM      8  C   UNL     1     -14.278  19.176 -16.153  1.00  0.00     0.000 C 
BRANCH   8   9
ATOM      9  C   UNL     1     -12.944  19.742 -15.636  1.00  0.00     0.000 C 
BRANCH   9  10
ATOM     10  C   UNL     1     -12.500  19.092 -14.315  1.00  0.00     0.000 C 
BRANCH  10  11
ATOM     11  C   UNL     1     -13.263  17.796 -14.004  1.00  0.00     0.000 C 
BRANCH  11  12
ATOM     12  C   UNL     1     -12.314  16.588 -14.003  1.00  0.00     0.006 C 
BRANCH  12  13
ATOM     13  C   UNL     1     -10.959  16.914 -13.361  1.00  0.00     0.053 C 
BRANCH  13  14
ATOM     14  C   UNL     1      -9.944  15.846 -13.634  1.00  0.00     0.041 C 
ATOM     15  O   UNL     1      -8.746  16.005 -13.280  1.00  0.00    -0.550 OA
ATOM     16  O   UNL     1     -10.330  14.661 -14.248  1.00  0.00    -0.550 OA
ENDBRANCH  13  14
ENDBRANCH  12  13
ENDBRANCH  11  12
ENDBRANCH  10  11
ENDBRANCH   9  10
ENDBRANCH   8   9
ENDBRANCH   7   8
ENDBRANCH   6   7
ENDBRANCH   5   6
ENDBRANCH   4   5
ENDBRANCH   3   4
ENDBRANCH   2   3
ENDBRANCH   1   2
BRANCH   1  17
ATOM     17  C   UNL     1     -13.838  14.462 -16.578  1.00  0.00     0.000 C 
BRANCH  17  18
ATOM     18  C   UNL     1     -15.113  15.301 -16.432  1.00  0.00     0.000 C 
BRANCH  18  19
ATOM     19  C   UNL     1     -16.294  14.431 -15.977  1.00  0.00     0.000 C 
BRANCH  19  20
ATOM     20  C   UNL     1     -16.017  13.710 -14.641  1.00  0.00     0.000 C 
BRANCH  20  21
ATOM     21  C   UNL     1     -16.813  14.283 -13.452  1.00  0.00     0.000 C 
BRANCH  21  22
ATOM     22  C   UNL     1     -16.274  15.611 -12.890  1.00  0.00    -0.000 C 
BRANCH  22  23
ATOM     23  C   UNL     1     -17.209  16.827 -13.069  1.00  0.00    -0.000 C 
BRANCH  23  24
ATOM     24  C   UNL     1     -16.988  17.641 -14.357  1.00  0.00    -0.000 C 
BRANCH  24  25
ATOM     25  C   UNL     1     -18.211  17.736 -15.289  1.00  0.00    -0.000 C 
BRANCH  25  26
ATOM     26  C   UNL     1     -19.191  16.552 -15.157  1.00  0.00    -0.000 C 
BRANCH  26  27
ATOM     27  C   UNL     1     -19.658  16.011 -16.519  1.00  0.00    -0.000 C 
BRANCH  27  28
ATOM     28  C   UNL     1     -19.156  16.856 -17.702  1.00  0.00    -0.000 C 
BRANCH  28  29
ATOM     29  C   UNL     1     -18.185  16.101 -18.634  1.00  0.00    -0.003 C 
ATOM     30  C   UNL     1     -17.140  17.026 -19.259  1.00  0.00     0.004 C 
ENDBRANCH  28  29
ENDBRANCH  27  28
ENDBRANCH  26  27
ENDBRANCH  25  26
ENDBRANCH  24  25
ENDBRANCH  23  24
ENDBRANCH  22  23
ENDBRANCH  21  22
ENDBRANCH  20  21
ENDBRANCH  19  20
ENDBRANCH  18  19
ENDBRANCH  17  18
ENDBRANCH   1  17
TORSDOF 26
ENDMDL
MODEL 6
REMARK VINA RESULT:    -4.584      3.128      6.961
REMARK INTER + INTRA:         -16.911
REMARK INTER:                 -11.819
REMARK INTRA:                  -5.092
REMARK UNBOUND:                -5.360
REMARK SMILES CCCCCCCCCCCCCCCCCCCCCCCCCCCC(=O)[O-]
REMARK SMILES IDX 15 1 16 2 17 3 18 4 19 5 20 6 21 7 22 8 23 9 24 10 25 11
REMARK SMILES IDX 26 12 27 13 28 14 29 15 30 16 14 17 13 18 12 19 11 20 10 21
REMARK SMILES IDX 9 22 8 23 7 24 6 25 5 26 4 27 3 28 2 29 1 30
REMARK H PARENT
REMARK Flexibility Score: inf
ROOT
ATOM      1  C   UNL     1     -12.837  18.177 -14.007  1.00  0.00     0.000 C 
ENDROOT
BRANCH   1   2
ATOM      2  C   UNL     1     -14.378  18.113 -14.061  1.00  0.00     0.000 C 
BRANCH   2   3
ATOM      3  C   UNL     1     -14.950  16.696 -13.859  1.00  0.00     0.000 C 
BRANCH   3   4
ATOM      4  C   UNL     1     -16.339  16.637 -13.195  1.00  0.00     0.000 C 
BRANCH   4   5
ATOM      5  C   UNL     1     -17.479  16.147 -14.107  1.00  0.00     0.000 C 
BRANCH   5   6
ATOM      6  C   UNL     1     -17.937  17.215 -15.115  1.00  0.00     0.000 C 
BRANCH   6   7
ATOM      7  C   UNL     1     -19.354  16.961 -15.662  1.00  0.00     0.000 C 
BRANCH   7   8
ATOM      8  C   UNL     1     -19.435  16.625 -17.163  1.00  0.00     0.000 C 
BRANCH   8   9
ATOM      9  C   UNL     1     -18.301  15.699 -17.635  1.00  0.00     0.000 C 
BRANCH   9  10
ATOM     10  C   UNL     1     -18.696  14.214 -17.594  1.00  0.00     0.000 C 
BRANCH  10  11
ATOM     11  C   UNL     1     -17.686  13.350 -16.824  1.00  0.00     0.000 C 
BRANCH  11  12
ATOM     12  C   UNL     1     -16.271  13.935 -16.930  1.00  0.00     0.006 C 
BRANCH  12  13
ATOM     13  C   UNL     1     -15.378  13.516 -15.755  1.00  0.00     0.053 C 
BRANCH  13  14
ATOM     14  C   UNL     1     -15.452  12.041 -15.501  1.00  0.00     0.041 C 
ATOM     15  O   UNL     1     -16.009  11.605 -14.459  1.00  0.00    -0.550 OA
ATOM     16  O   UNL     1     -14.936  11.148 -16.432  1.00  0.00    -0.550 OA
ENDBRANCH  13  14
ENDBRANCH  12  13
ENDBRANCH  11  12
ENDBRANCH  10  11
ENDBRANCH   9  10
ENDBRANCH   8   9
ENDBRANCH   7   8
ENDBRANCH   6   7
ENDBRANCH   5   6
ENDBRANCH   4   5
ENDBRANCH   3   4
ENDBRANCH   2   3
ENDBRANCH   1   2
BRANCH   1  17
ATOM     17  C   UNL     1     -12.290  19.552 -14.418  1.00  0.00     0.000 C 
BRANCH  17  18
ATOM     18  C   UNL     1     -12.463  19.789 -15.923  1.00  0.00     0.000 C 
BRANCH  18  19
ATOM     19  C   UNL     1     -13.018  21.195 -16.198  1.00  0.00     0.000 C 
BRANCH  19  20
ATOM     20  C   UNL     1     -13.583  21.338 -17.627  1.00  0.00     0.000 C 
BRANCH  20  21
ATOM     21  C   UNL     1     -15.064  21.765 -17.666  1.00  0.00     0.000 C 
BRANCH  21  22
ATOM     22  C   UNL     1     -16.063  20.680 -17.224  1.00  0.00    -0.000 C 
BRANCH  22  23
ATOM     23  C   UNL     1     -16.721  19.885 -18.373  1.00  0.00    -0.000 C 
BRANCH  23  24
ATOM     24  C   UNL     1     -16.183  18.457 -18.575  1.00  0.00    -0.000 C 
BRANCH  24  25
ATOM     25  C   UNL     1     -15.335  17.907 -17.413  1.00  0.00    -0.000 C 
BRANCH  25  26
ATOM     26  C   UNL     1     -14.074  17.141 -17.867  1.00  0.00    -0.000 C 
BRANCH  26  27
ATOM     27  C   UNL     1     -13.396  17.783 -19.090  1.00  0.00    -0.000 C 
BRANCH  27  28
ATOM     28  C   UNL     1     -13.052  16.762 -20.187  1.00  0.00    -0.000 C 
BRANCH  28  29
ATOM     29  C   UNL     1     -14.135  15.680 -20.387  1.00  0.00    -0.003 C 
ATOM     30  C   UNL     1     -15.254  16.143 -21.319  1.00  0.00     0.004 C 
ENDBRANCH  28  29
ENDBRANCH  27  28
ENDBRANCH  26  27
ENDBRANCH  25  26
ENDBRANCH  24  25
ENDBRANCH  23  24
ENDBRANCH  22  23
ENDBRANCH  21  22
ENDBRANCH  20  21
ENDBRANCH  19  20
ENDBRANCH  18  19
ENDBRANCH  17  18
ENDBRANCH   1  17
TORSDOF 26
ENDMDL
MODEL 7
REMARK VINA RESULT:    -4.568      2.723      6.382
REMARK INTER + INTRA:         -16.871
REMARK INTER:                 -11.887
REMARK INTRA:                  -4.985
REMARK UNBOUND:                -5.360
REMARK SMILES CCCCCCCCCCCCCCCCCCCCCCCCCCCC(=O)[O-]
REMARK SMILES IDX 15 1 16 2 17 3 18 4 19 5 20 6 21 7 22 8 23 9 24 10 25 11
REMARK SMILES IDX 26 12 27 13 28 14 29 15 30 16 14 17 13 18 12 19 11 20 10 21
REMARK SMILES IDX 9 22 8 23 7 24 6 25 5 26 4 27 3 28 2 29 1 30
REMARK H PARENT
REMARK Flexibility Score: inf
ROOT
ATOM      1  C   UNL     1     -13.750  13.072 -17.371  1.00  0.00     0.000 C 
ENDROOT
BRANCH   1   2
ATOM      2  C   UNL     1     -13.780  11.833 -16.450  1.00  0.00     0.000 C 
BRANCH   2   3
ATOM      3  C   UNL     1     -15.181  11.215 -16.283  1.00  0.00     0.000 C 
BRANCH   3   4
ATOM      4  C   UNL     1     -15.996  11.748 -15.089  1.00  0.00     0.000 C 
BRANCH   4   5
ATOM      5  C   UNL     1     -17.519  11.805 -15.311  1.00  0.00     0.000 C 
BRANCH   5   6
ATOM      6  C   UNL     1     -17.914  11.632 -16.788  1.00  0.00     0.000 C 
BRANCH   6   7
ATOM      7  C   UNL     1     -18.967  12.654 -17.255  1.00  0.00     0.000 C 
BRANCH   7   8
ATOM      8  C   UNL     1     -18.415  14.028 -17.677  1.00  0.00     0.000 C 
BRANCH   8   9
ATOM      9  C   UNL     1     -19.055  15.197 -16.908  1.00  0.00     0.000 C 
BRANCH   9  10
ATOM     10  C   UNL     1     -18.175  15.691 -15.748  1.00  0.00     0.000 C 
BRANCH  10  11
ATOM     11  C   UNL     1     -18.587  17.081 -15.239  1.00  0.00     0.000 C 
BRANCH  11  12
ATOM     12  C   UNL     1     -18.350  17.203 -13.727  1.00  0.00     0.006 C 
BRANCH  12  13
ATOM     13  C   UNL     1     -16.893  16.917 -13.342  1.00  0.00     0.053 C 
BRANCH  13  14
ATOM     14  C   UNL     1     -16.778  15.705 -12.468  1.00  0.00     0.041 C 
ATOM     15  O   UNL     1     -16.644  14.563 -12.983  1.00  0.00    -0.550 OA
ATOM     16  O   UNL     1     -16.784  15.841 -11.086  1.00  0.00    -0.550 OA
ENDBRANCH  13  14
ENDBRANCH  12  13
ENDBRANCH  11  12
ENDBRANCH  10  11
ENDBRANCH   9  10
ENDBRANCH   8   9
ENDBRANCH   7   8
ENDBRANCH   6   7
ENDBRANCH   5   6
ENDBRANCH   4   5
ENDBRANCH   3   4
ENDBRANCH   2   3
ENDBRANCH   1   2
BRANCH   1  17
ATOM     17  C   UNL     1     -13.290  14.340 -16.637  1.00  0.00     0.000 C 
BRANCH  17  18
ATOM     18  C   UNL     1     -14.427  14.937 -15.799  1.00  0.00     0.000 C 
BRANCH  18  19
ATOM     19  C   UNL     1     -14.829  16.323 -16.326  1.00  0.00     0.000 C 
BRANCH  19  20
ATOM     20  C   UNL     1     -13.696  17.362 -16.183  1.00  0.00     0.000 C 
BRANCH  20  21
ATOM     21  C   UNL     1     -14.161  18.816 -16.397  1.00  0.00     0.000 C 
BRANCH  21  22
ATOM     22  C   UNL     1     -15.689  19.009 -16.429  1.00  0.00    -0.000 C 
BRANCH  22  23
ATOM     23  C   UNL     1     -16.188  20.136 -17.360  1.00  0.00    -0.000 C 
BRANCH  23  24
ATOM     24  C   UNL     1     -17.083  19.677 -18.525  1.00  0.00    -0.000 C 
BRANCH  24  25
ATOM     25  C   UNL     1     -17.369  18.164 -18.573  1.00  0.00    -0.000 C 
BRANCH  25  26
ATOM     26  C   UNL     1     -17.672  17.630 -19.990  1.00  0.00    -0.000 C 
BRANCH  26  27
ATOM     27  C   UNL     1     -16.501  16.830 -20.587  1.00  0.00    -0.000 C 
BRANCH  27  28
ATOM     28  C   UNL     1     -15.200  16.984 -19.782  1.00  0.00    -0.000 C 
BRANCH  28  29
ATOM     29  C   UNL     1     -14.059  16.065 -20.267  1.00  0.00    -0.003 C 
ATOM     30  C   UNL     1     -12.706  16.454 -19.671  1.00  0.00     0.004 C 
ENDBRANCH  28  29
ENDBRANCH  27  28
ENDBRANCH  26  27
ENDBRANCH  25  26
ENDBRANCH  24  25
ENDBRANCH  23  24
ENDBRANCH  22  23
ENDBRANCH  21  22
ENDBRANCH  20  21
ENDBRANCH  19  20
ENDBRANCH  18  19
ENDBRANCH  17  18
ENDBRANCH   1  17
TORSDOF 26
ENDMDL
MODEL 8
REMARK VINA RESULT:    -4.538      3.265      7.596
REMARK INTER + INTRA:         -16.796
REMARK INTER:                 -11.614
REMARK INTRA:                  -5.182
REMARK UNBOUND:                -5.360
REMARK SMILES CCCCCCCCCCCCCCCCCCCCCCCCCCCC(=O)[O-]
REMARK SMILES IDX 15 1 16 2 17 3 18 4 19 5 20 6 21 7 22 8 23 9 24 10 25 11
REMARK SMILES IDX 26 12 27 13 28 14 29 15 30 16 14 17 13 18 12 19 11 20 10 21
REMARK SMILES IDX 9 22 8 23 7 24 6 25 5 26 4 27 3 28 2 29 1 30
REMARK H PARENT
REMARK Flexibility Score: inf
ROOT
ATOM      1  C   UNL     1     -15.588  16.830 -13.289  1.00  0.00     0.000 C 
ENDROOT
BRANCH   1   2
ATOM      2  C   UNL     1     -17.069  16.419 -13.141  1.00  0.00     0.000 C 
BRANCH   2   3
ATOM      3  C   UNL     1     -18.021  17.604 -12.886  1.00  0.00     0.000 C 
BRANCH   3   4
ATOM      4  C   UNL     1     -19.326  17.587 -13.704  1.00  0.00     0.000 C 
BRANCH   4   5
ATOM      5  C   UNL     1     -19.255  16.809 -15.031  1.00  0.00     0.000 C 
BRANCH   5   6
ATOM      6  C   UNL     1     -20.049  17.484 -16.162  1.00  0.00     0.000 C 
BRANCH   6   7
ATOM      7  C   UNL     1     -19.320  18.696 -16.772  1.00  0.00     0.000 C 
BRANCH   7   8
ATOM      8  C   UNL     1     -17.833  18.475 -17.108  1.00  0.00     0.000 C 
BRANCH   8   9
ATOM      9  C   UNL     1     -17.576  18.299 -18.615  1.00  0.00     0.000 C 
BRANCH   9  10
ATOM     10  C   UNL     1     -17.324  16.832 -19.003  1.00  0.00     0.000 C 
BRANCH  10  11
ATOM     11  C   UNL     1     -17.012  15.941 -17.791  1.00  0.00     0.000 C 
BRANCH  11  12
ATOM     12  C   UNL     1     -17.905  14.692 -17.786  1.00  0.00     0.006 C 
BRANCH  12  13
ATOM     13  C   UNL     1     -17.481  13.679 -16.714  1.00  0.00     0.053 C 
BRANCH  13  14
ATOM     14  C   UNL     1     -18.191  12.370 -16.876  1.00  0.00     0.041 C 
ATOM     15  O   UNL     1     -19.330  12.328 -17.411  1.00  0.00    -0.550 OA
ATOM     16  O   UNL     1     -17.579  11.192 -16.466  1.00  0.00    -0.550 OA
ENDBRANCH  13  14
ENDBRANCH  12  13
ENDBRANCH  11  12
ENDBRANCH  10  11
ENDBRANCH   9  10
ENDBRANCH   8   9
ENDBRANCH   7   8
ENDBRANCH   6   7
ENDBRANCH   5   6
ENDBRANCH   4   5
ENDBRANCH   3   4
ENDBRANCH   2   3
ENDBRANCH   1   2
BRANCH   1  17
ATOM     17  C   UNL     1     -15.244  17.288 -14.714  1.00  0.00     0.000 C 
BRANCH  17  18
ATOM     18  C   UNL     1     -14.070  16.483 -15.284  1.00  0.00     0.000 C 
BRANCH  18  19
ATOM     19  C   UNL     1     -14.446  15.002 -15.444  1.00  0.00     0.000 C 
BRANCH  19  20
ATOM     20  C   UNL     1     -13.306  14.167 -16.066  1.00  0.00     0.000 C 
BRANCH  20  21
ATOM     21  C   UNL     1     -12.853  14.675 -17.450  1.00  0.00     0.000 C 
BRANCH  21  22
ATOM     22  C   UNL     1     -13.856  14.426 -18.592  1.00  0.00    -0.000 C 
BRANCH  22  23
ATOM     23  C   UNL     1     -13.872  15.504 -19.697  1.00  0.00    -0.000 C 
BRANCH  23  24
ATOM     24  C   UNL     1     -13.030  16.759 -19.403  1.00  0.00    -0.000 C 
BRANCH  24  25
ATOM     25  C   UNL     1     -13.811  17.946 -18.809  1.00  0.00    -0.000 C 
BRANCH  25  26
ATOM     26  C   UNL     1     -13.022  18.746 -17.751  1.00  0.00    -0.000 C 
BRANCH  26  27
ATOM     27  C   UNL     1     -13.874  19.826 -17.064  1.00  0.00    -0.000 C 
BRANCH  27  28
ATOM     28  C   UNL     1     -13.106  21.138 -16.835  1.00  0.00    -0.000 C 
BRANCH  28  29
ATOM     29  C   UNL     1     -13.954  22.404 -17.080  1.00  0.00    -0.003 C 
ATOM     30  C   UNL     1     -15.267  22.094 -17.800  1.00  0.00     0.004 C 
ENDBRANCH  28  29
ENDBRANCH  27  28
ENDBRANCH  26  27
ENDBRANCH  25  26
ENDBRANCH  24  25
ENDBRANCH  23  24
ENDBRANCH  22  23
ENDBRANCH  21  22
ENDBRANCH  20  21
ENDBRANCH  19  20
ENDBRANCH  18  19
ENDBRANCH  17  18
ENDBRANCH   1  17
TORSDOF 26
ENDMDL
MODEL 9
REMARK VINA RESULT:    -4.522     10.717     14.048
REMARK INTER + INTRA:         -16.754
REMARK INTER:                 -11.616
REMARK INTRA:                  -5.138
REMARK UNBOUND:                -5.360
REMARK SMILES CCCCCCCCCCCCCCCCCCCCCCCCCCCC(=O)[O-]
REMARK SMILES IDX 15 1 16 2 17 3 18 4 19 5 20 6 21 7 22 8 23 9 24 10 25 11
REMARK SMILES IDX 26 12 27 13 28 14 29 15 30 16 14 17 13 18 12 19 11 20 10 21
REMARK SMILES IDX 9 22 8 23 7 24 6 25 5 26 4 27 3 28 2 29 1 30
REMARK H PARENT
REMARK Flexibility Score: inf
ROOT
ATOM      1  C   UNL     1      -3.612  10.574  -9.755  1.00  0.00     0.000 C 
ENDROOT
BRANCH   1   2
ATOM      2  C   UNL     1      -4.730  11.628  -9.599  1.00  0.00     0.000 C 
BRANCH   2   3
ATOM      3  C   UNL     1      -4.281  13.065  -9.929  1.00  0.00     0.000 C 
BRANCH   3   4
ATOM      4  C   UNL     1      -3.707  13.863  -8.743  1.00  0.00     0.000 C 
BRANCH   4   5
ATOM      5  C   UNL     1      -4.452  13.675  -7.407  1.00  0.00     0.000 C 
BRANCH   5   6
ATOM      6  C   UNL     1      -5.585  14.696  -7.208  1.00  0.00     0.000 C 
BRANCH   6   7
ATOM      7  C   UNL     1      -6.985  14.097  -7.441  1.00  0.00     0.000 C 
BRANCH   7   8
ATOM      8  C   UNL     1      -7.714  14.590  -8.705  1.00  0.00     0.000 C 
BRANCH   8   9
ATOM      9  C   UNL     1      -7.648  16.116  -8.883  1.00  0.00     0.000 C 
BRANCH   9  10
ATOM     10  C   UNL     1      -7.703  16.541 -10.359  1.00  0.00     0.000 C 
BRANCH  10  11
ATOM     11  C   UNL     1      -6.953  15.572 -11.286  1.00  0.00     0.000 C 
BRANCH  11  12
ATOM     12  C   UNL     1      -5.544  16.096 -11.601  1.00  0.00     0.006 C 
BRANCH  12  13
ATOM     13  C   UNL     1      -4.932  15.413 -12.832  1.00  0.00     0.053 C 
BRANCH  13  14
ATOM     14  C   UNL     1      -3.666  16.086 -13.267  1.00  0.00     0.041 C 
ATOM     15  O   UNL     1      -2.730  16.268 -12.445  1.00  0.00    -0.550 OA
ATOM     16  O   UNL     1      -3.508  16.480 -14.590  1.00  0.00    -0.550 OA
ENDBRANCH  13  14
ENDBRANCH  12  13
ENDBRANCH  11  12
ENDBRANCH  10  11
ENDBRANCH   9  10
ENDBRANCH   8   9
ENDBRANCH   7   8
ENDBRANCH   6   7
ENDBRANCH   5   6
ENDBRANCH   4   5
ENDBRANCH   3   4
ENDBRANCH   2   3
ENDBRANCH   1   2
BRANCH   1  17
ATOM     17  C   UNL     1      -2.904  10.265  -8.428  1.00  0.00     0.000 C 
BRANCH  17  18
ATOM     18  C   UNL     1      -1.409  10.593  -8.510  1.00  0.00     0.000 C 
BRANCH  18  19
ATOM     19  C   UNL     1      -1.030  11.083  -9.917  1.00  0.00     0.000 C 
BRANCH  19  20
ATOM     20  C   UNL     1      -0.218  12.396  -9.887  1.00  0.00     0.000 C 
BRANCH  20  21
ATOM     21  C   UNL     1      -0.729  13.461 -10.876  1.00  0.00     0.000 C 
BRANCH  21  22
ATOM     22  C   UNL     1      -0.661  13.054 -12.360  1.00  0.00    -0.000 C 
BRANCH  22  23
ATOM     23  C   UNL     1      -2.027  12.794 -13.032  1.00  0.00    -0.000 C 
BRANCH  23  24
ATOM     24  C   UNL     1      -2.248  11.356 -13.536  1.00  0.00    -0.000 C 
BRANCH  24  25
ATOM     25  C   UNL     1      -3.683  10.820 -13.379  1.00  0.00    -0.000 C 
BRANCH  25  26
ATOM     26  C   UNL     1      -4.777  11.850 -13.732  1.00  0.00    -0.000 C 
BRANCH  26  27
ATOM     27  C   UNL     1      -5.529  11.501 -15.027  1.00  0.00    -0.000 C 
BRANCH  27  28
ATOM     28  C   UNL     1      -4.668  11.688 -16.287  1.00  0.00    -0.000 C 
BRANCH  28  29
ATOM     29  C   UNL     1      -4.331  10.366 -17.010  1.00  0.00    -0.003 C 
ATOM     30  C   UNL     1      -2.830  10.076 -17.023  1.00  0.00     0.004 C 
ENDBRANCH  28  29
ENDBRANCH  27  28
ENDBRANCH  26  27
ENDBRANCH  25  26
ENDBRANCH  24  25
ENDBRANCH  23  24
ENDBRANCH  22  23
ENDBRANCH  21  22
ENDBRANCH  20  21
ENDBRANCH  19  20
ENDBRANCH  18  19
ENDBRANCH  17  18
ENDBRANCH   1  17
TORSDOF 26
ENDMDL
