MODEL 1
REMARK VINA RESULT:    -5.970      0.000      0.000
REMARK INTER + INTRA:          -6.756
REMARK INTER:                  -6.493
REMARK INTRA:                  -0.262
REMARK UNBOUND:                -0.262
REMARK SMILES C[C@H]1[C@H](C)CC[C@]2(C(=O)[O-])CC[C@@]3(C)C(=CC[C@H]4[C@@]5(C)CC[C@@H](O)C(C)(C)[C@H]5CC[C@@]43C)[C@H]12
REMARK SMILES IDX 7 1 6 2 11 3 33 4 5 5 12 6 15 7 2 8 3 9 13 10 16 11 1 12
REMARK SMILES IDX 4 13 14 14 31 15 17 16 18 17 30 18 32 19 19 20 29 21 28 22
REMARK SMILES IDX 21 23 20 24 25 25 22 26 23 27 26 28 27 29 8 30 9 31 10 32
REMARK SMILES IDX 24 33
REMARK H PARENT 24 34
REMARK Flexibility Score: inf
ROOT
ATOM      1  C   UNL     1      -0.396 -29.664   7.718  1.00  0.00     0.017 C 
ATOM      2  C   UNL     1      -0.224 -30.717   8.843  1.00  0.00     0.014 C 
ATOM      3  C   UNL     1      -1.037 -30.384   6.518  1.00  0.00     0.014 C 
ATOM      4  C   UNL     1       0.902 -28.835   7.286  1.00  0.00     0.030 C 
ATOM      5  C   UNL     1       0.541 -30.146  10.039  1.00  0.00     0.004 C 
ATOM      6  C   UNL     1      -0.003 -31.257   5.703  1.00  0.00     0.013 C 
ATOM      7  C   UNL     1       1.353 -29.084   5.768  1.00  0.00    -0.063 C 
ATOM      8  C   UNL     1       2.110 -28.815   8.374  1.00  0.00    -0.003 C 
ATOM      9  C   UNL     1       1.996 -29.863   9.574  1.00  0.00    -0.011 C 
ATOM     10  C   UNL     1       1.063 -30.373   4.916  1.00  0.00    -0.006 C 
ATOM     11  C   UNL     1       2.400 -28.327   5.322  1.00  0.00    -0.027 C 
ATOM     12  C   UNL     1       2.317 -27.395   8.871  1.00  0.00     0.008 C 
ATOM     13  C   UNL     1       2.743 -31.271   9.433  1.00  0.00     0.008 C 
ATOM     14  C   UNL     1       0.283 -30.008   3.582  1.00  0.00     0.017 C 
ATOM     15  C   UNL     1       2.606 -31.089   4.687  1.00  0.00    -0.020 C 
ATOM     16  C   UNL     1       3.080 -28.575   3.947  1.00  0.00     0.032 C 
ATOM     17  C   UNL     1       3.301 -30.107   3.572  1.00  0.00     0.006 C 
ATOM     18  C   UNL     1       3.267 -32.458   4.279  1.00  0.00     0.008 C 
ATOM     19  C   UNL     1       2.952 -31.251   6.273  1.00  0.00     0.012 C 
ATOM     20  C   UNL     1       4.528 -30.559   2.671  1.00  0.00    -0.025 C 
ATOM     21  C   UNL     1       4.836 -32.258   4.438  1.00  0.00     0.005 C 
ATOM     22  C   UNL     1       5.535 -30.994   3.650  1.00  0.00     0.003 C 
ATOM     23  C   UNL     1       4.966 -29.405   1.714  1.00  0.00     0.010 C 
ATOM     24  C   UNL     1       4.276 -31.771   1.587  1.00  0.00     0.012 C 
ATOM     25  C   UNL     1       6.558 -29.779   4.184  1.00  0.00    -0.006 C 
ATOM     26  C   UNL     1       6.490 -29.447   1.574  1.00  0.00     0.033 C 
ATOM     27  C   UNL     1       7.136 -29.022   2.864  1.00  0.00     0.120 C 
ATOM     28  C   UNL     1       5.945 -28.762   5.213  1.00  0.00     0.014 C 
ATOM     29  C   UNL     1       7.751 -30.449   4.968  1.00  0.00     0.014 C 
ENDROOT
BRANCH   1  30
ATOM     30  C   UNL     1      -1.482 -28.670   8.274  1.00  0.00     0.048 C 
ATOM     31  O   UNL     1      -1.211 -27.439   8.314  1.00  0.00    -0.550 OA
ATOM     32  O   UNL     1      -2.727 -29.142   8.877  1.00  0.00    -0.550 OA
ENDBRANCH   1  30
BRANCH  27  33
ATOM     33  O   UNL     1       7.027 -27.566   2.953  1.00  0.00    -0.393 OA
ATOM     34  H   UNL     1       7.496 -27.262   3.817  1.00  0.00     0.210 HD
ENDBRANCH  27  33
TORSDOF 2
ENDMDL
MODEL 2
REMARK VINA RESULT:    -5.883     13.924     16.406
REMARK INTER + INTRA:          -6.661
REMARK INTER:                  -7.062
REMARK INTRA:                   0.401
REMARK UNBOUND:                -0.262
REMARK SMILES C[C@H]1[C@H](C)CC[C@]2(C(=O)[O-])CC[C@@]3(C)C(=CC[C@H]4[C@@]5(C)CC[C@@H](O)C(C)(C)[C@H]5CC[C@@]43C)[C@H]12
REMARK SMILES IDX 7 1 6 2 11 3 33 4 5 5 12 6 15 7 2 8 3 9 13 10 16 11 1 12
REMARK SMILES IDX 4 13 14 14 31 15 17 16 18 17 30 18 32 19 19 20 29 21 28 22
REMARK SMILES IDX 21 23 20 24 25 25 22 26 23 27 26 28 27 29 8 30 9 31 10 32
REMARK SMILES IDX 24 33
REMARK H PARENT 24 34
REMARK Flexibility Score: inf
ROOT
ATOM      1  C   UNL     1       2.221 -20.060  -6.188  1.00  0.00     0.017 C 
ATOM      2  C   UNL     1       2.687 -19.823  -7.649  1.00  0.00     0.014 C 
ATOM      3  C   UNL     1       1.207 -18.952  -5.851  1.00  0.00     0.014 C 
ATOM      4  C   UNL     1       3.357 -20.184  -5.069  1.00  0.00     0.030 C 
ATOM      5  C   UNL     1       3.811 -20.782  -8.046  1.00  0.00     0.004 C 
ATOM      6  C   UNL     1       1.896 -17.568  -5.529  1.00  0.00     0.013 C 
ATOM      7  C   UNL     1       3.301 -19.026  -3.961  1.00  0.00    -0.063 C 
ATOM      8  C   UNL     1       4.843 -20.546  -5.620  1.00  0.00    -0.003 C 
ATOM      9  C   UNL     1       5.060 -20.419  -7.197  1.00  0.00    -0.011 C 
ATOM     10  C   UNL     1       2.703 -17.586  -4.156  1.00  0.00    -0.006 C 
ATOM     11  C   UNL     1       4.190 -19.141  -2.929  1.00  0.00    -0.027 C 
ATOM     12  C   UNL     1       5.258 -21.908  -5.092  1.00  0.00     0.008 C 
ATOM     13  C   UNL     1       5.662 -19.054  -7.778  1.00  0.00     0.008 C 
ATOM     14  C   UNL     1       1.564 -17.295  -3.089  1.00  0.00     0.017 C 
ATOM     15  C   UNL     1       4.064 -16.544  -4.074  1.00  0.00    -0.020 C 
ATOM     16  C   UNL     1       4.397 -18.015  -1.880  1.00  0.00     0.032 C 
ATOM     17  C   UNL     1       4.422 -16.537  -2.474  1.00  0.00     0.006 C 
ATOM     18  C   UNL     1       4.503 -15.078  -4.447  1.00  0.00     0.008 C 
ATOM     19  C   UNL     1       4.879 -17.235  -5.307  1.00  0.00     0.012 C 
ATOM     20  C   UNL     1       5.286 -15.394  -1.788  1.00  0.00    -0.025 C 
ATOM     21  C   UNL     1       6.051 -14.977  -4.101  1.00  0.00     0.005 C 
ATOM     22  C   UNL     1       6.527 -15.378  -2.576  1.00  0.00     0.003 C 
ATOM     23  C   UNL     1       5.456 -15.671  -0.261  1.00  0.00     0.010 C 
ATOM     24  C   UNL     1       4.655 -13.875  -1.751  1.00  0.00     0.012 C 
ATOM     25  C   UNL     1       7.719 -16.417  -2.021  1.00  0.00    -0.006 C 
ATOM     26  C   UNL     1       6.858 -15.218   0.158  1.00  0.00     0.033 C 
ATOM     27  C   UNL     1       7.891 -16.142  -0.426  1.00  0.00     0.120 C 
ATOM     28  C   UNL     1       7.503 -17.943  -2.325  1.00  0.00     0.014 C 
ATOM     29  C   UNL     1       9.064 -16.063  -2.762  1.00  0.00     0.014 C 
ENDROOT
BRANCH   1  30
ATOM     30  C   UNL     1       1.408 -21.406  -6.250  1.00  0.00     0.048 C 
ATOM     31  O   UNL     1       1.464 -22.099  -7.303  1.00  0.00    -0.550 OA
ATOM     32  O   UNL     1       0.482 -21.801  -5.191  1.00  0.00    -0.550 OA
ENDBRANCH   1  30
BRANCH  27  33
ATOM     33  O   UNL     1       7.881 -17.372   0.365  1.00  0.00    -0.393 OA
ATOM     34  H   UNL     1       8.005 -17.118   1.354  1.00  0.00     0.210 HD
ENDBRANCH  27  33
TORSDOF 2
ENDMDL
MODEL 3
REMARK VINA RESULT:    -5.847     13.981     15.947
REMARK INTER + INTRA:          -6.622
REMARK INTER:                  -6.360
REMARK INTRA:                  -0.262
REMARK UNBOUND:                -0.262
REMARK SMILES C[C@H]1[C@H](C)CC[C@]2(C(=O)[O-])CC[C@@]3(C)C(=CC[C@H]4[C@@]5(C)CC[C@@H](O)C(C)(C)[C@H]5CC[C@@]43C)[C@H]12
REMARK SMILES IDX 7 1 6 2 11 3 33 4 5 5 12 6 15 7 2 8 3 9 13 10 16 11 1 12
REMARK SMILES IDX 4 13 14 14 31 15 17 16 18 17 30 18 32 19 19 20 29 21 28 22
REMARK SMILES IDX 21 23 20 24 25 25 22 26 23 27 26 28 27 29 8 30 9 31 10 32
REMARK SMILES IDX 24 33
REMARK H PARENT 24 34
REMARK Flexibility Score: inf
ROOT
ATOM      1  C   UNL     1       1.246 -16.196  -2.995  1.00  0.00     0.017 C 
ATOM      2  C   UNL     1       1.625 -16.028  -1.500  1.00  0.00     0.014 C 
ATOM      3  C   UNL     1       0.562 -17.568  -3.137  1.00  0.00     0.014 C 
ATOM      4  C   UNL     1       2.412 -16.001  -4.072  1.00  0.00     0.030 C 
ATOM      5  C   UNL     1       2.446 -14.758  -1.265  1.00  0.00     0.004 C 
ATOM      6  C   UNL     1       1.591 -18.767  -3.143  1.00  0.00     0.013 C 
ATOM      7  C   UNL     1       2.735 -17.322  -4.922  1.00  0.00    -0.063 C 
ATOM      8  C   UNL     1       3.712 -15.177  -3.550  1.00  0.00    -0.003 C 
ATOM      9  C   UNL     1       3.815 -14.945  -1.974  1.00  0.00    -0.011 C 
ATOM     10  C   UNL     1       2.487 -18.804  -4.459  1.00  0.00    -0.006 C 
ATOM     11  C   UNL     1       3.657 -17.182  -5.920  1.00  0.00    -0.027 C 
ATOM     12  C   UNL     1       3.832 -13.879  -4.330  1.00  0.00     0.008 C 
ATOM     13  C   UNL     1       4.675 -15.977  -1.103  1.00  0.00     0.008 C 
ATOM     14  C   UNL     1       1.550 -19.570  -5.486  1.00  0.00     0.017 C 
ATOM     15  C   UNL     1       4.061 -19.462  -4.274  1.00  0.00    -0.020 C 
ATOM     16  C   UNL     1       4.221 -18.396  -6.709  1.00  0.00     0.032 C 
ATOM     17  C   UNL     1       4.549 -19.680  -5.825  1.00  0.00     0.006 C 
ATOM     18  C   UNL     1       4.806 -20.671  -3.594  1.00  0.00     0.008 C 
ATOM     19  C   UNL     1       4.573 -18.368  -3.179  1.00  0.00     0.012 C 
ATOM     20  C   UNL     1       5.719 -20.674  -6.229  1.00  0.00    -0.025 C 
ATOM     21  C   UNL     1       6.356 -20.439  -3.853  1.00  0.00     0.005 C 
ATOM     22  C   UNL     1       6.854 -20.225  -5.408  1.00  0.00     0.003 C 
ATOM     23  C   UNL     1       5.952 -20.656  -7.773  1.00  0.00     0.010 C 
ATOM     24  C   UNL     1       5.479 -22.282  -5.979  1.00  0.00     0.012 C 
ATOM     25  C   UNL     1       7.804 -19.042  -6.118  1.00  0.00    -0.006 C 
ATOM     26  C   UNL     1       7.452 -20.809  -8.037  1.00  0.00     0.033 C 
ATOM     27  C   UNL     1       8.177 -19.560  -7.615  1.00  0.00     0.120 C 
ATOM     28  C   UNL     1       7.200 -17.591  -6.141  1.00  0.00     0.014 C 
ATOM     29  C   UNL     1       9.125 -18.897  -5.270  1.00  0.00     0.014 C 
ENDROOT
BRANCH   1  30
ATOM     30  C   UNL     1       0.130 -15.113  -3.240  1.00  0.00     0.048 C 
ATOM     31  O   UNL     1       0.272 -14.304  -4.197  1.00  0.00    -0.550 OA
ATOM     32  O   UNL     1      -0.983 -14.925  -2.312  1.00  0.00    -0.550 OA
ENDBRANCH   1  30
BRANCH  27  33
ATOM     33  O   UNL     1       7.940 -18.544  -8.641  1.00  0.00    -0.393 OA
ATOM     34  H   UNL     1       8.543 -17.736  -8.437  1.00  0.00     0.210 HD
ENDBRANCH  27  33
TORSDOF 2
ENDMDL
MODEL 4
REMARK VINA RESULT:    -5.814      2.212      4.035
REMARK INTER + INTRA:          -6.586
REMARK INTER:                  -6.324
REMARK INTRA:                  -0.262
REMARK UNBOUND:                -0.262
REMARK SMILES C[C@H]1[C@H](C)CC[C@]2(C(=O)[O-])CC[C@@]3(C)C(=CC[C@H]4[C@@]5(C)CC[C@@H](O)C(C)(C)[C@H]5CC[C@@]43C)[C@H]12
REMARK SMILES IDX 7 1 6 2 11 3 33 4 5 5 12 6 15 7 2 8 3 9 13 10 16 11 1 12
REMARK SMILES IDX 4 13 14 14 31 15 17 16 18 17 30 18 32 19 19 20 29 21 28 22
REMARK SMILES IDX 21 23 20 24 25 25 22 26 23 27 26 28 27 29 8 30 9 31 10 32
REMARK SMILES IDX 24 33
REMARK H PARENT 24 34
REMARK Flexibility Score: inf
ROOT
ATOM      1  C   UNL     1       1.441 -30.427   6.614  1.00  0.00     0.017 C 
ATOM      2  C   UNL     1       1.986 -29.174   7.349  1.00  0.00     0.014 C 
ATOM      3  C   UNL     1       2.127 -31.653   7.242  1.00  0.00     0.014 C 
ATOM      4  C   UNL     1       1.545 -30.442   5.018  1.00  0.00     0.030 C 
ATOM      5  C   UNL     1       1.481 -27.879   6.707  1.00  0.00     0.004 C 
ATOM      6  C   UNL     1       3.609 -31.855   6.731  1.00  0.00     0.013 C 
ATOM      7  C   UNL     1       2.485 -31.607   4.443  1.00  0.00    -0.063 C 
ATOM      8  C   UNL     1       1.734 -28.987   4.318  1.00  0.00    -0.003 C 
ATOM      9  C   UNL     1       2.112 -27.779   5.291  1.00  0.00    -0.011 C 
ATOM     10  C   UNL     1       3.679 -32.292   5.201  1.00  0.00    -0.006 C 
ATOM     11  C   UNL     1       2.531 -31.722   3.082  1.00  0.00    -0.027 C 
ATOM     12  C   UNL     1       0.517 -28.677   3.464  1.00  0.00     0.008 C 
ATOM     13  C   UNL     1       3.655 -27.397   5.473  1.00  0.00     0.008 C 
ATOM     14  C   UNL     1       3.469 -33.863   5.288  1.00  0.00     0.017 C 
ATOM     15  C   UNL     1       5.076 -31.788   4.342  1.00  0.00    -0.020 C 
ATOM     16  C   UNL     1       3.530 -32.667   2.360  1.00  0.00     0.032 C 
ATOM     17  C   UNL     1       5.002 -32.682   2.970  1.00  0.00     0.006 C 
ATOM     18  C   UNL     1       6.639 -31.688   4.506  1.00  0.00     0.008 C 
ATOM     19  C   UNL     1       4.828 -30.188   4.542  1.00  0.00     0.012 C 
ATOM     20  C   UNL     1       6.266 -32.953   2.048  1.00  0.00    -0.025 C 
ATOM     21  C   UNL     1       7.176 -30.964   3.197  1.00  0.00     0.005 C 
ATOM     22  C   UNL     1       6.764 -31.605   1.738  1.00  0.00     0.003 C 
ATOM     23  C   UNL     1       5.875 -33.831   0.817  1.00  0.00     0.010 C 
ATOM     24  C   UNL     1       7.496 -33.847   2.677  1.00  0.00     0.012 C 
ATOM     25  C   UNL     1       6.091 -30.911   0.369  1.00  0.00    -0.006 C 
ATOM     26  C   UNL     1       6.690 -33.359  -0.391  1.00  0.00     0.033 C 
ATOM     27  C   UNL     1       6.213 -32.002  -0.832  1.00  0.00     0.120 C 
ATOM     28  C   UNL     1       4.622 -30.374   0.517  1.00  0.00     0.014 C 
ATOM     29  C   UNL     1       6.935 -29.631   0.001  1.00  0.00     0.014 C 
ENDROOT
BRANCH   1  30
ATOM     30  C   UNL     1      -0.074 -30.499   7.034  1.00  0.00     0.048 C 
ATOM     31  O   UNL     1      -0.951 -30.546   6.129  1.00  0.00    -0.550 OA
ATOM     32  O   UNL     1      -0.499 -30.365   8.426  1.00  0.00    -0.550 OA
ENDBRANCH   1  30
BRANCH  27  33
ATOM     33  O   UNL     1       4.955 -32.190  -1.555  1.00  0.00    -0.393 OA
ATOM     34  H   UNL     1       4.898 -31.473  -2.290  1.00  0.00     0.210 HD
ENDBRANCH  27  33
TORSDOF 2
ENDMDL
MODEL 5
REMARK VINA RESULT:    -5.784      1.460      2.433
REMARK INTER + INTRA:          -6.554
REMARK INTER:                  -6.466
REMARK INTRA:                  -0.088
REMARK UNBOUND:                -0.262
REMARK SMILES C[C@H]1[C@H](C)CC[C@]2(C(=O)[O-])CC[C@@]3(C)C(=CC[C@H]4[C@@]5(C)CC[C@@H](O)C(C)(C)[C@H]5CC[C@@]43C)[C@H]12
REMARK SMILES IDX 7 1 6 2 11 3 33 4 5 5 12 6 15 7 2 8 3 9 13 10 16 11 1 12
REMARK SMILES IDX 4 13 14 14 31 15 17 16 18 17 30 18 32 19 19 20 29 21 28 22
REMARK SMILES IDX 21 23 20 24 25 25 22 26 23 27 26 28 27 29 8 30 9 31 10 32
REMARK SMILES IDX 24 33
REMARK H PARENT 24 34
REMARK Flexibility Score: inf
ROOT
ATOM      1  C   UNL     1      -1.117 -28.879   8.473  1.00  0.00     0.017 C 
ATOM      2  C   UNL     1      -0.477 -28.778   9.882  1.00  0.00     0.014 C 
ATOM      3  C   UNL     1      -1.658 -30.312   8.323  1.00  0.00     0.014 C 
ATOM      4  C   UNL     1      -0.212 -28.454   7.225  1.00  0.00     0.030 C 
ATOM      5  C   UNL     1       0.226 -27.435  10.088  1.00  0.00     0.004 C 
ATOM      6  C   UNL     1      -0.522 -31.365   8.010  1.00  0.00     0.013 C 
ATOM      7  C   UNL     1       0.086 -29.653   6.204  1.00  0.00    -0.063 C 
ATOM      8  C   UNL     1       1.065 -27.511   7.580  1.00  0.00    -0.003 C 
ATOM      9  C   UNL     1       1.445 -27.389   9.126  1.00  0.00    -0.011 C 
ATOM     10  C   UNL     1       0.101 -31.185   6.555  1.00  0.00    -0.006 C 
ATOM     11  C   UNL     1       0.776 -29.320   5.072  1.00  0.00    -0.027 C 
ATOM     12  C   UNL     1       0.885 -26.153   6.925  1.00  0.00     0.008 C 
ATOM     13  C   UNL     1       2.567 -28.366   9.717  1.00  0.00     0.008 C 
ATOM     14  C   UNL     1      -0.926 -31.985   5.646  1.00  0.00     0.017 C 
ATOM     15  C   UNL     1       1.744 -31.648   6.382  1.00  0.00    -0.020 C 
ATOM     16  C   UNL     1       1.308 -30.387   4.077  1.00  0.00     0.032 C 
ATOM     17  C   UNL     1       1.943 -31.682   4.754  1.00  0.00     0.006 C 
ATOM     18  C   UNL     1       2.737 -32.799   6.791  1.00  0.00     0.008 C 
ATOM     19  C   UNL     1       2.333 -30.584   7.468  1.00  0.00     0.012 C 
ATOM     20  C   UNL     1       3.117 -32.483   4.046  1.00  0.00    -0.025 C 
ATOM     21  C   UNL     1       4.172 -32.351   6.276  1.00  0.00     0.005 C 
ATOM     22  C   UNL     1       4.331 -31.956   4.686  1.00  0.00     0.003 C 
ATOM     23  C   UNL     1       3.042 -32.317   2.494  1.00  0.00     0.010 C 
ATOM     24  C   UNL     1       3.111 -34.123   4.174  1.00  0.00     0.012 C 
ATOM     25  C   UNL     1       4.988 -30.610   3.935  1.00  0.00    -0.006 C 
ATOM     26  C   UNL     1       4.470 -32.255   1.946  1.00  0.00     0.033 C 
ATOM     27  C   UNL     1       5.119 -30.959   2.350  1.00  0.00     0.120 C 
ATOM     28  C   UNL     1       4.232 -29.251   4.167  1.00  0.00     0.014 C 
ATOM     29  C   UNL     1       6.423 -30.361   4.537  1.00  0.00     0.014 C 
ENDROOT
BRANCH   1  30
ATOM     30  C   UNL     1      -2.374 -27.933   8.545  1.00  0.00     0.048 C 
ATOM     31  O   UNL     1      -3.513 -28.452   8.697  1.00  0.00    -0.550 OA
ATOM     32  O   UNL     1      -2.276 -26.497   8.297  1.00  0.00    -0.550 OA
ENDBRANCH   1  30
BRANCH  27  33
ATOM     33  O   UNL     1       4.575 -29.907   1.492  1.00  0.00    -0.393 OA
ATOM     34  H   UNL     1       5.337 -29.551   0.900  1.00  0.00     0.210 HD
ENDBRANCH  27  33
TORSDOF 2
ENDMDL
MODEL 6
REMARK VINA RESULT:    -5.730      4.082      6.822
REMARK INTER + INTRA:          -6.494
REMARK INTER:                  -6.284
REMARK INTRA:                  -0.211
REMARK UNBOUND:                -0.262
REMARK SMILES C[C@H]1[C@H](C)CC[C@]2(C(=O)[O-])CC[C@@]3(C)C(=CC[C@H]4[C@@]5(C)CC[C@@H](O)C(C)(C)[C@H]5CC[C@@]43C)[C@H]12
REMARK SMILES IDX 7 1 6 2 11 3 33 4 5 5 12 6 15 7 2 8 3 9 13 10 16 11 1 12
REMARK SMILES IDX 4 13 14 14 31 15 17 16 18 17 30 18 32 19 19 20 29 21 28 22
REMARK SMILES IDX 21 23 20 24 25 25 22 26 23 27 26 28 27 29 8 30 9 31 10 32
REMARK SMILES IDX 24 33
REMARK H PARENT 24 34
REMARK Flexibility Score: inf
ROOT
ATOM      1  C   UNL     1       5.759 -23.985   4.877  1.00  0.00     0.017 C 
ATOM      2  C   UNL     1       7.250 -23.563   4.947  1.00  0.00     0.014 C 
ATOM      3  C   UNL     1       5.427 -24.696   6.201  1.00  0.00     0.014 C 
ATOM      4  C   UNL     1       5.301 -24.847   3.610  1.00  0.00     0.030 C 
ATOM      5  C   UNL     1       7.734 -22.973   3.621  1.00  0.00     0.004 C 
ATOM      6  C   UNL     1       5.965 -26.181   6.250  1.00  0.00     0.013 C 
ATOM      7  C   UNL     1       4.781 -26.317   3.983  1.00  0.00    -0.063 C 
ATOM      8  C   UNL     1       6.286 -24.766   2.319  1.00  0.00    -0.003 C 
ATOM      9  C   UNL     1       7.723 -24.115   2.567  1.00  0.00    -0.011 C 
ATOM     10  C   UNL     1       5.191 -27.150   5.251  1.00  0.00    -0.006 C 
ATOM     11  C   UNL     1       4.289 -27.059   2.946  1.00  0.00    -0.027 C 
ATOM     12  C   UNL     1       5.549 -24.108   1.165  1.00  0.00     0.008 C 
ATOM     13  C   UNL     1       8.956 -25.083   2.888  1.00  0.00     0.008 C 
ATOM     14  C   UNL     1       3.912 -27.559   6.098  1.00  0.00     0.017 C 
ATOM     15  C   UNL     1       6.102 -28.462   4.624  1.00  0.00    -0.020 C 
ATOM     16  C   UNL     1       3.922 -28.561   3.098  1.00  0.00     0.032 C 
ATOM     17  C   UNL     1       4.950 -29.421   3.959  1.00  0.00     0.006 C 
ATOM     18  C   UNL     1       7.127 -29.565   5.083  1.00  0.00     0.008 C 
ATOM     19  C   UNL     1       7.229 -27.545   3.884  1.00  0.00     0.012 C 
ATOM     20  C   UNL     1       5.180 -30.963   3.657  1.00  0.00    -0.025 C 
ATOM     21  C   UNL     1       7.568 -30.337   3.766  1.00  0.00     0.005 C 
ATOM     22  C   UNL     1       6.385 -30.975   2.815  1.00  0.00     0.003 C 
ATOM     23  C   UNL     1       3.903 -31.599   3.022  1.00  0.00     0.010 C 
ATOM     24  C   UNL     1       5.413 -31.968   4.939  1.00  0.00     0.012 C 
ATOM     25  C   UNL     1       6.089 -30.842   1.171  1.00  0.00    -0.006 C 
ATOM     26  C   UNL     1       4.345 -32.637   1.987  1.00  0.00     0.033 C 
ATOM     27  C   UNL     1       4.954 -31.948   0.797  1.00  0.00     0.120 C 
ATOM     28  C   UNL     1       5.696 -29.411   0.652  1.00  0.00     0.014 C 
ATOM     29  C   UNL     1       7.422 -31.178   0.401  1.00  0.00     0.014 C 
ENDROOT
BRANCH   1  30
ATOM     30  C   UNL     1       4.967 -22.625   4.890  1.00  0.00     0.048 C 
ATOM     31  O   UNL     1       3.956 -22.507   4.146  1.00  0.00    -0.550 OA
ATOM     32  O   UNL     1       5.448 -21.455   5.622  1.00  0.00    -0.550 OA
ENDBRANCH   1  30
BRANCH  27  33
ATOM     33  O   UNL     1       3.860 -31.389   0.003  1.00  0.00    -0.393 OA
ATOM     34  H   UNL     1       3.622 -30.467   0.390  1.00  0.00     0.210 HD
ENDBRANCH  27  33
TORSDOF 2
ENDMDL
MODEL 7
REMARK VINA RESULT:    -5.629      2.369      7.464
REMARK INTER + INTRA:          -6.385
REMARK INTER:                  -6.124
REMARK INTRA:                  -0.262
REMARK UNBOUND:                -0.262
REMARK SMILES C[C@H]1[C@H](C)CC[C@]2(C(=O)[O-])CC[C@@]3(C)C(=CC[C@H]4[C@@]5(C)CC[C@@H](O)C(C)(C)[C@H]5CC[C@@]43C)[C@H]12
REMARK SMILES IDX 7 1 6 2 11 3 33 4 5 5 12 6 15 7 2 8 3 9 13 10 16 11 1 12
REMARK SMILES IDX 4 13 14 14 31 15 17 16 18 17 30 18 32 19 19 20 29 21 28 22
REMARK SMILES IDX 21 23 20 24 25 25 22 26 23 27 26 28 27 29 8 30 9 31 10 32
REMARK SMILES IDX 24 33
REMARK H PARENT 24 34
REMARK Flexibility Score: inf
ROOT
ATOM      1  C   UNL     1       6.262 -30.597   1.796  1.00  0.00     0.017 C 
ATOM      2  C   UNL     1       6.180 -29.069   1.548  1.00  0.00     0.014 C 
ATOM      3  C   UNL     1       5.231 -31.263   0.866  1.00  0.00     0.014 C 
ATOM      4  C   UNL     1       6.111 -31.103   3.306  1.00  0.00     0.030 C 
ATOM      5  C   UNL     1       7.061 -28.289   2.526  1.00  0.00     0.004 C 
ATOM      6  C   UNL     1       3.751 -31.138   1.404  1.00  0.00     0.013 C 
ATOM      7  C   UNL     1       4.825 -32.028   3.553  1.00  0.00    -0.063 C 
ATOM      8  C   UNL     1       6.388 -29.979   4.448  1.00  0.00    -0.003 C 
ATOM      9  C   UNL     1       6.456 -28.465   3.946  1.00  0.00    -0.011 C 
ATOM     10  C   UNL     1       3.496 -32.007   2.714  1.00  0.00    -0.006 C 
ATOM     11  C   UNL     1       4.703 -32.563   4.804  1.00  0.00    -0.027 C 
ATOM     12  C   UNL     1       7.613 -30.372   5.254  1.00  0.00     0.008 C 
ATOM     13  C   UNL     1       5.128 -27.574   4.021  1.00  0.00     0.008 C 
ATOM     14  C   UNL     1       3.182 -33.443   2.113  1.00  0.00     0.017 C 
ATOM     15  C   UNL     1       2.315 -31.397   3.799  1.00  0.00    -0.020 C 
ATOM     16  C   UNL     1       3.428 -33.322   5.264  1.00  0.00     0.032 C 
ATOM     17  C   UNL     1       2.051 -32.666   4.803  1.00  0.00     0.006 C 
ATOM     18  C   UNL     1       0.877 -30.756   3.804  1.00  0.00     0.008 C 
ATOM     19  C   UNL     1       3.080 -29.988   4.103  1.00  0.00     0.012 C 
ATOM     20  C   UNL     1       0.741 -32.807   5.689  1.00  0.00    -0.025 C 
ATOM     21  C   UNL     1       0.567 -30.371   5.314  1.00  0.00     0.005 C 
ATOM     22  C   UNL     1       0.703 -31.552   6.453  1.00  0.00     0.003 C 
ATOM     23  C   UNL     1       0.786 -34.117   6.539  1.00  0.00     0.010 C 
ATOM     24  C   UNL     1      -0.694 -33.003   4.909  1.00  0.00     0.012 C 
ATOM     25  C   UNL     1       1.525 -31.599   7.913  1.00  0.00    -0.006 C 
ATOM     26  C   UNL     1       0.135 -33.834   7.896  1.00  0.00     0.033 C 
ATOM     27  C   UNL     1       1.017 -32.925   8.708  1.00  0.00     0.120 C 
ATOM     28  C   UNL     1       3.093 -31.541   7.826  1.00  0.00     0.014 C 
ATOM     29  C   UNL     1       1.136 -30.313   8.738  1.00  0.00     0.014 C 
ENDROOT
BRANCH   1  30
ATOM     30  C   UNL     1       7.682 -31.007   1.254  1.00  0.00     0.048 C 
ATOM     31  O   UNL     1       8.477 -31.603   2.030  1.00  0.00    -0.550 OA
ATOM     32  O   UNL     1       8.157 -30.590  -0.064  1.00  0.00    -0.550 OA
ENDBRANCH   1  30
BRANCH  27  33
ATOM     33  O   UNL     1       2.121 -33.731   9.228  1.00  0.00    -0.393 OA
ATOM     34  H   UNL     1       1.729 -34.599   9.617  1.00  0.00     0.210 HD
ENDBRANCH  27  33
TORSDOF 2
ENDMDL
MODEL 8
REMARK VINA RESULT:    -5.504      1.907      7.392
REMARK INTER + INTRA:          -6.248
REMARK INTER:                  -5.998
REMARK INTRA:                  -0.250
REMARK UNBOUND:                -0.262
REMARK SMILES C[C@H]1[C@H](C)CC[C@]2(C(=O)[O-])CC[C@@]3(C)C(=CC[C@H]4[C@@]5(C)CC[C@@H](O)C(C)(C)[C@H]5CC[C@@]43C)[C@H]12
REMARK SMILES IDX 7 1 6 2 11 3 33 4 5 5 12 6 15 7 2 8 3 9 13 10 16 11 1 12
REMARK SMILES IDX 4 13 14 14 31 15 17 16 18 17 30 18 32 19 19 20 29 21 28 22
REMARK SMILES IDX 21 23 20 24 25 25 22 26 23 27 26 28 27 29 8 30 9 31 10 32
REMARK SMILES IDX 24 33
REMARK H PARENT 24 34
REMARK Flexibility Score: inf
ROOT
ATOM      1  C   UNL     1       5.935 -31.084   2.055  1.00  0.00     0.017 C 
ATOM      2  C   UNL     1       5.859 -29.745   1.276  1.00  0.00     0.014 C 
ATOM      3  C   UNL     1       4.941 -32.052   1.390  1.00  0.00     0.014 C 
ATOM      4  C   UNL     1       5.731 -31.021   3.641  1.00  0.00     0.030 C 
ATOM      5  C   UNL     1       6.702 -28.655   1.941  1.00  0.00     0.004 C 
ATOM      6  C   UNL     1       3.442 -31.767   1.799  1.00  0.00     0.013 C 
ATOM      7  C   UNL     1       4.439 -31.816   4.158  1.00  0.00    -0.063 C 
ATOM      8  C   UNL     1       5.963 -29.560   4.316  1.00  0.00    -0.003 C 
ATOM      9  C   UNL     1       6.046 -28.323   3.309  1.00  0.00    -0.011 C 
ATOM     10  C   UNL     1       3.141 -32.116   3.323  1.00  0.00    -0.006 C 
ATOM     11  C   UNL     1       4.272 -31.873   5.513  1.00  0.00    -0.027 C 
ATOM     12  C   UNL     1       7.159 -29.621   5.249  1.00  0.00     0.008 C 
ATOM     13  C   UNL     1       4.715 -27.483   3.018  1.00  0.00     0.008 C 
ATOM     14  C   UNL     1       2.853 -33.676   3.263  1.00  0.00     0.017 C 
ATOM     15  C   UNL     1       1.920 -31.176   4.080  1.00  0.00    -0.020 C 
ATOM     16  C   UNL     1       2.983 -32.437   6.171  1.00  0.00     0.032 C 
ATOM     17  C   UNL     1       1.623 -32.009   5.461  1.00  0.00     0.006 C 
ATOM     18  C   UNL     1       0.481 -30.598   3.808  1.00  0.00     0.008 C 
ATOM     19  C   UNL     1       2.670 -29.741   3.886  1.00  0.00     0.012 C 
ATOM     20  C   UNL     1       0.281 -31.845   6.294  1.00  0.00    -0.025 C 
ATOM     21  C   UNL     1       0.116 -29.705   5.070  1.00  0.00     0.005 C 
ATOM     22  C   UNL     1       0.213 -30.400   6.559  1.00  0.00     0.003 C 
ATOM     23  C   UNL     1       0.298 -32.766   7.556  1.00  0.00     0.010 C 
ATOM     24  C   UNL     1      -1.124 -32.327   5.588  1.00  0.00     0.012 C 
ATOM     25  C   UNL     1       0.981 -29.912   7.967  1.00  0.00    -0.006 C 
ATOM     26  C   UNL     1      -0.402 -32.028   8.701  1.00  0.00     0.033 C 
ATOM     27  C   UNL     1       0.447 -30.876   9.165  1.00  0.00     0.120 C 
ATOM     28  C   UNL     1       2.551 -29.866   7.917  1.00  0.00     0.014 C 
ATOM     29  C   UNL     1       0.560 -28.423   8.266  1.00  0.00     0.014 C 
ENDROOT
BRANCH   1  30
ATOM     30  C   UNL     1       7.375 -31.638   1.742  1.00  0.00     0.048 C 
ATOM     31  O   UNL     1       7.652 -31.967   0.557  1.00  0.00    -0.550 OA
ATOM     32  O   UNL     1       8.344 -31.918   2.800  1.00  0.00    -0.550 OA
ENDBRANCH   1  30
BRANCH  27  33
ATOM     33  O   UNL     1       1.534 -31.427   9.974  1.00  0.00    -0.393 OA
ATOM     34  H   UNL     1       1.125 -31.822  10.832  1.00  0.00     0.210 HD
ENDBRANCH  27  33
TORSDOF 2
ENDMDL
