MODEL 1
REMARK VINA RESULT:    -3.217      0.000      0.000
REMARK INTER + INTRA:         -10.126
REMARK INTER:                  -6.979
REMARK INTRA:                  -3.147
REMARK UNBOUND:                -3.147
REMARK SMILES CCCCCCCCCCCCCCCCCCCCCC(=O)[O-]
REMARK SMILES IDX 12 1 11 2 10 3 9 4 8 5 7 6 6 7 5 8 4 9 3 10 2 11 1 12 13 13
REMARK SMILES IDX 14 14 15 15 16 16 17 17 18 18 19 19 20 20 21 21 22 22 23 23
REMARK SMILES IDX 24 24
REMARK H PARENT
REMARK Flexibility Score: inf
ROOT
ATOM      1  C   UNL     1      61.158  20.222  52.300  1.00  0.00     0.000 C 
ENDROOT
BRANCH   1   2
ATOM      2  C   UNL     1      59.810  20.941  52.470  1.00  0.00     0.000 C 
BRANCH   2   3
ATOM      3  C   UNL     1      59.097  20.477  53.748  1.00  0.00     0.000 C 
BRANCH   3   4
ATOM      4  C   UNL     1      57.995  19.442  53.466  1.00  0.00    -0.000 C 
BRANCH   4   5
ATOM      5  C   UNL     1      57.330  19.650  52.094  1.00  0.00    -0.000 C 
BRANCH   5   6
ATOM      6  C   UNL     1      56.005  18.882  51.958  1.00  0.00    -0.000 C 
BRANCH   6   7
ATOM      7  C   UNL     1      55.903  18.104  50.635  1.00  0.00    -0.000 C 
BRANCH   7   8
ATOM      8  C   UNL     1      57.196  18.198  49.797  1.00  0.00    -0.000 C 
BRANCH   8   9
ATOM      9  C   UNL     1      57.935  16.855  49.637  1.00  0.00    -0.000 C 
BRANCH   9  10
ATOM     10  C   UNL     1      58.495  16.259  50.942  1.00  0.00    -0.000 C 
BRANCH  10  11
ATOM     11  C   UNL     1      59.902  16.753  51.326  1.00  0.00    -0.003 C 
ATOM     12  C   UNL     1      60.202  16.602  52.817  1.00  0.00     0.004 C 
ENDBRANCH  10  11
ENDBRANCH   9  10
ENDBRANCH   8   9
ENDBRANCH   7   8
ENDBRANCH   6   7
ENDBRANCH   5   6
ENDBRANCH   4   5
ENDBRANCH   3   4
ENDBRANCH   2   3
ENDBRANCH   1   2
BRANCH   1  13
ATOM     13  C   UNL     1      61.544  20.033  50.823  1.00  0.00     0.000 C 
BRANCH  13  14
ATOM     14  C   UNL     1      60.384  20.356  49.865  1.00  0.00     0.000 C 
BRANCH  14  15
ATOM     15  C   UNL     1      60.677  21.581  48.981  1.00  0.00     0.000 C 
BRANCH  15  16
ATOM     16  C   UNL     1      61.879  22.427  49.461  1.00  0.00     0.000 C 
BRANCH  16  17
ATOM     17  C   UNL     1      61.472  23.642  50.315  1.00  0.00     0.000 C 
BRANCH  17  18
ATOM     18  C   UNL     1      61.313  24.955  49.523  1.00  0.00     0.000 C 
BRANCH  18  19
ATOM     19  C   UNL     1      59.867  25.297  49.108  1.00  0.00     0.000 C 
BRANCH  19  20
ATOM     20  C   UNL     1      58.782  24.910  50.129  1.00  0.00     0.006 C 
BRANCH  20  21
ATOM     21  C   UNL     1      57.369  25.295  49.677  1.00  0.00     0.053 C 
BRANCH  21  22
ATOM     22  C   UNL     1      57.012  26.657  50.182  1.00  0.00     0.041 C 
ATOM     23  O   UNL     1      57.248  27.675  49.480  1.00  0.00    -0.550 OA
ATOM     24  O   UNL     1      56.467  26.806  51.451  1.00  0.00    -0.550 OA
ENDBRANCH  21  22
ENDBRANCH  20  21
ENDBRANCH  19  20
ENDBRANCH  18  19
ENDBRANCH  17  18
ENDBRANCH  16  17
ENDBRANCH  15  16
ENDBRANCH  14  15
ENDBRANCH  13  14
ENDBRANCH   1  13
TORSDOF 20
ENDMDL
MODEL 2
REMARK VINA RESULT:    -3.215      1.089      2.564
REMARK INTER + INTRA:         -10.122
REMARK INTER:                  -6.679
REMARK INTRA:                  -3.443
REMARK UNBOUND:                -3.147
REMARK SMILES CCCCCCCCCCCCCCCCCCCCCC(=O)[O-]
REMARK SMILES IDX 12 1 11 2 10 3 9 4 8 5 7 6 6 7 5 8 4 9 3 10 2 11 1 12 13 13
REMARK SMILES IDX 14 14 15 15 16 16 17 17 18 18 19 19 20 20 21 21 22 22 23 23
REMARK SMILES IDX 24 24
REMARK H PARENT
REMARK Flexibility Score: inf
ROOT
ATOM      1  C   UNL     1      60.454  20.098  52.187  1.00  0.00     0.000 C 
ENDROOT
BRANCH   1   2
ATOM      2  C   UNL     1      60.876  18.632  51.998  1.00  0.00     0.000 C 
BRANCH   2   3
ATOM      3  C   UNL     1      60.185  17.724  53.026  1.00  0.00     0.000 C 
BRANCH   3   4
ATOM      4  C   UNL     1      59.502  16.510  52.377  1.00  0.00    -0.000 C 
BRANCH   4   5
ATOM      5  C   UNL     1      59.472  16.604  50.841  1.00  0.00    -0.000 C 
BRANCH   5   6
ATOM      6  C   UNL     1      58.060  16.407  50.265  1.00  0.00    -0.000 C 
BRANCH   6   7
ATOM      7  C   UNL     1      57.460  17.708  49.703  1.00  0.00    -0.000 C 
BRANCH   7   8
ATOM      8  C   UNL     1      56.262  18.210  50.538  1.00  0.00    -0.000 C 
BRANCH   8   9
ATOM      9  C   UNL     1      56.668  18.990  51.804  1.00  0.00    -0.000 C 
BRANCH   9  10
ATOM     10  C   UNL     1      56.396  18.260  53.133  1.00  0.00    -0.000 C 
BRANCH  10  11
ATOM     11  C   UNL     1      56.331  19.174  54.370  1.00  0.00    -0.003 C 
ATOM     12  C   UNL     1      57.660  19.864  54.673  1.00  0.00     0.004 C 
ENDBRANCH  10  11
ENDBRANCH   9  10
ENDBRANCH   8   9
ENDBRANCH   7   8
ENDBRANCH   6   7
ENDBRANCH   5   6
ENDBRANCH   4   5
ENDBRANCH   3   4
ENDBRANCH   2   3
ENDBRANCH   1   2
BRANCH   1  13
ATOM     13  C   UNL     1      59.746  20.672  50.947  1.00  0.00     0.000 C 
BRANCH  13  14
ATOM     14  C   UNL     1      60.304  20.099  49.632  1.00  0.00     0.000 C 
BRANCH  14  15
ATOM     15  C   UNL     1      60.714  21.201  48.640  1.00  0.00     0.000 C 
BRANCH  15  16
ATOM     16  C   UNL     1      62.212  21.579  48.708  1.00  0.00     0.000 C 
BRANCH  16  17
ATOM     17  C   UNL     1      62.533  22.622  49.794  1.00  0.00     0.000 C 
BRANCH  17  18
ATOM     18  C   UNL     1      61.830  23.981  49.604  1.00  0.00     0.000 C 
BRANCH  18  19
ATOM     19  C   UNL     1      60.731  24.299  50.639  1.00  0.00     0.000 C 
BRANCH  19  20
ATOM     20  C   UNL     1      59.295  24.319  50.085  1.00  0.00     0.006 C 
BRANCH  20  21
ATOM     21  C   UNL     1      58.984  25.582  49.273  1.00  0.00     0.053 C 
BRANCH  21  22
ATOM     22  C   UNL     1      58.122  26.513  50.065  1.00  0.00     0.041 C 
ATOM     23  O   UNL     1      56.999  26.869  49.621  1.00  0.00    -0.550 OA
ATOM     24  O   UNL     1      58.582  27.031  51.270  1.00  0.00    -0.550 OA
ENDBRANCH  21  22
ENDBRANCH  20  21
ENDBRANCH  19  20
ENDBRANCH  18  19
ENDBRANCH  17  18
ENDBRANCH  16  17
ENDBRANCH  15  16
ENDBRANCH  14  15
ENDBRANCH  13  14
ENDBRANCH   1  13
TORSDOF 20
ENDMDL
MODEL 3
REMARK VINA RESULT:    -3.141      1.896      4.187
REMARK INTER + INTRA:          -9.961
REMARK INTER:                  -8.421
REMARK INTRA:                  -1.539
REMARK UNBOUND:                -3.147
REMARK SMILES CCCCCCCCCCCCCCCCCCCCCC(=O)[O-]
REMARK SMILES IDX 12 1 11 2 10 3 9 4 8 5 7 6 6 7 5 8 4 9 3 10 2 11 1 12 13 13
REMARK SMILES IDX 14 14 15 15 16 16 17 17 18 18 19 19 20 20 21 21 22 22 23 23
REMARK SMILES IDX 24 24
REMARK H PARENT
REMARK Flexibility Score: inf
ROOT
ATOM      1  C   UNL     1      62.840  22.956  49.408  1.00  0.00     0.000 C 
ENDROOT
BRANCH   1   2
ATOM      2  C   UNL     1      62.335  21.504  49.377  1.00  0.00     0.000 C 
BRANCH   2   3
ATOM      3  C   UNL     1      61.086  21.375  48.494  1.00  0.00     0.000 C 
BRANCH   3   4
ATOM      4  C   UNL     1      60.145  20.253  48.963  1.00  0.00    -0.000 C 
BRANCH   4   5
ATOM      5  C   UNL     1      60.085  20.139  50.497  1.00  0.00    -0.000 C 
BRANCH   5   6
ATOM      6  C   UNL     1      60.555  18.768  51.006  1.00  0.00    -0.000 C 
BRANCH   6   7
ATOM      7  C   UNL     1      59.413  17.936  51.616  1.00  0.00    -0.000 C 
BRANCH   7   8
ATOM      8  C   UNL     1      59.152  16.632  50.831  1.00  0.00    -0.000 C 
BRANCH   8   9
ATOM      9  C   UNL     1      57.810  16.618  50.073  1.00  0.00    -0.000 C 
BRANCH   9  10
ATOM     10  C   UNL     1      57.196  18.006  49.811  1.00  0.00    -0.000 C 
BRANCH  10  11
ATOM     11  C   UNL     1      55.961  18.338  50.668  1.00  0.00    -0.003 C 
ATOM     12  C   UNL     1      54.727  18.673  49.832  1.00  0.00     0.004 C 
ENDBRANCH  10  11
ENDBRANCH   9  10
ENDBRANCH   8   9
ENDBRANCH   7   8
ENDBRANCH   6   7
ENDBRANCH   5   6
ENDBRANCH   4   5
ENDBRANCH   3   4
ENDBRANCH   2   3
ENDBRANCH   1   2
BRANCH   1  13
ATOM     13  C   UNL     1      62.109  23.812  50.456  1.00  0.00     0.000 C 
BRANCH  13  14
ATOM     14  C   UNL     1      61.357  24.999  49.828  1.00  0.00     0.000 C 
BRANCH  14  15
ATOM     15  C   UNL     1      59.913  24.639  49.438  1.00  0.00     0.000 C 
BRANCH  15  16
ATOM     16  C   UNL     1      58.984  25.864  49.274  1.00  0.00     0.000 C 
BRANCH  16  17
ATOM     17  C   UNL     1      59.694  27.100  48.693  1.00  0.00     0.000 C 
BRANCH  17  18
ATOM     18  C   UNL     1      58.852  28.391  48.713  1.00  0.00     0.000 C 
BRANCH  18  19
ATOM     19  C   UNL     1      57.984  28.586  49.974  1.00  0.00     0.000 C 
BRANCH  19  20
ATOM     20  C   UNL     1      56.465  28.477  49.748  1.00  0.00     0.006 C 
BRANCH  20  21
ATOM     21  C   UNL     1      55.662  28.504  51.053  1.00  0.00     0.053 C 
BRANCH  21  22
ATOM     22  C   UNL     1      55.300  29.910  51.415  1.00  0.00     0.041 C 
ATOM     23  O   UNL     1      55.248  30.260  52.623  1.00  0.00    -0.550 OA
ATOM     24  O   UNL     1      54.969  30.820  50.418  1.00  0.00    -0.550 OA
ENDBRANCH  21  22
ENDBRANCH  20  21
ENDBRANCH  19  20
ENDBRANCH  18  19
ENDBRANCH  17  18
ENDBRANCH  16  17
ENDBRANCH  15  16
ENDBRANCH  14  15
ENDBRANCH  13  14
ENDBRANCH   1  13
TORSDOF 20
ENDMDL
MODEL 4
REMARK VINA RESULT:    -3.106      6.712      9.813
REMARK INTER + INTRA:          -9.883
REMARK INTER:                  -6.243
REMARK INTRA:                  -3.641
REMARK UNBOUND:                -3.147
REMARK SMILES CCCCCCCCCCCCCCCCCCCCCC(=O)[O-]
REMARK SMILES IDX 12 1 11 2 10 3 9 4 8 5 7 6 6 7 5 8 4 9 3 10 2 11 1 12 13 13
REMARK SMILES IDX 14 14 15 15 16 16 17 17 18 18 19 19 20 20 21 21 22 22 23 23
REMARK SMILES IDX 24 24
REMARK H PARENT
REMARK Flexibility Score: inf
ROOT
ATOM      1  C   UNL     1      61.605  27.485  49.194  1.00  0.00     0.000 C 
ENDROOT
BRANCH   1   2
ATOM      2  C   UNL     1      62.317  27.802  50.519  1.00  0.00     0.000 C 
BRANCH   2   3
ATOM      3  C   UNL     1      61.326  28.352  51.556  1.00  0.00     0.000 C 
BRANCH   3   4
ATOM      4  C   UNL     1      60.811  29.754  51.194  1.00  0.00    -0.000 C 
BRANCH   4   5
ATOM      5  C   UNL     1      61.572  30.870  51.933  1.00  0.00    -0.000 C 
BRANCH   5   6
ATOM      6  C   UNL     1      62.705  31.473  51.087  1.00  0.00    -0.000 C 
BRANCH   6   7
ATOM      7  C   UNL     1      62.296  31.699  49.621  1.00  0.00    -0.000 C 
BRANCH   7   8
ATOM      8  C   UNL     1      63.269  31.024  48.630  1.00  0.00    -0.000 C 
BRANCH   8   9
ATOM      9  C   UNL     1      64.572  30.521  49.280  1.00  0.00    -0.000 C 
BRANCH   9  10
ATOM     10  C   UNL     1      65.183  29.266  48.628  1.00  0.00    -0.000 C 
BRANCH  10  11
ATOM     11  C   UNL     1      64.467  28.787  47.352  1.00  0.00    -0.003 C 
ATOM     12  C   UNL     1      64.756  27.324  47.019  1.00  0.00     0.004 C 
ENDBRANCH  10  11
ENDBRANCH   9  10
ENDBRANCH   8   9
ENDBRANCH   7   8
ENDBRANCH   6   7
ENDBRANCH   5   6
ENDBRANCH   4   5
ENDBRANCH   3   4
ENDBRANCH   2   3
ENDBRANCH   1   2
BRANCH   1  13
ATOM     13  C   UNL     1      60.727  26.225  49.282  1.00  0.00     0.000 C 
BRANCH  13  14
ATOM     14  C   UNL     1      59.249  26.514  48.965  1.00  0.00     0.000 C 
BRANCH  14  15
ATOM     15  C   UNL     1      59.004  27.989  48.600  1.00  0.00     0.000 C 
BRANCH  15  16
ATOM     16  C   UNL     1      57.765  28.607  49.289  1.00  0.00     0.000 C 
BRANCH  16  17
ATOM     17  C   UNL     1      56.741  27.561  49.764  1.00  0.00     0.000 C 
BRANCH  17  18
ATOM     18  C   UNL     1      56.423  27.616  51.272  1.00  0.00     0.000 C 
BRANCH  18  19
ATOM     19  C   UNL     1      57.491  28.314  52.141  1.00  0.00     0.000 C 
BRANCH  19  20
ATOM     20  C   UNL     1      57.004  29.560  52.903  1.00  0.00     0.006 C 
BRANCH  20  21
ATOM     21  C   UNL     1      57.038  30.834  52.050  1.00  0.00     0.053 C 
BRANCH  21  22
ATOM     22  C   UNL     1      55.652  31.224  51.641  1.00  0.00     0.041 C 
ATOM     23  O   UNL     1      54.892  31.810  52.456  1.00  0.00    -0.550 OA
ATOM     24  O   UNL     1      55.182  30.893  50.376  1.00  0.00    -0.550 OA
ENDBRANCH  21  22
ENDBRANCH  20  21
ENDBRANCH  19  20
ENDBRANCH  18  19
ENDBRANCH  17  18
ENDBRANCH  16  17
ENDBRANCH  15  16
ENDBRANCH  14  15
ENDBRANCH  13  14
ENDBRANCH   1  13
TORSDOF 20
ENDMDL
MODEL 5
REMARK VINA RESULT:    -3.099      3.284      7.756
REMARK INTER + INTRA:          -9.870
REMARK INTER:                  -7.356
REMARK INTRA:                  -2.515
REMARK UNBOUND:                -3.147
REMARK SMILES CCCCCCCCCCCCCCCCCCCCCC(=O)[O-]
REMARK SMILES IDX 12 1 11 2 10 3 9 4 8 5 7 6 6 7 5 8 4 9 3 10 2 11 1 12 13 13
REMARK SMILES IDX 14 14 15 15 16 16 17 17 18 18 19 19 20 20 21 21 22 22 23 23
REMARK SMILES IDX 24 24
REMARK H PARENT
REMARK Flexibility Score: inf
ROOT
ATOM      1  C   UNL     1      61.232  23.819  51.715  1.00  0.00     0.000 C 
ENDROOT
BRANCH   1   2
ATOM      2  C   UNL     1      60.477  24.395  50.506  1.00  0.00     0.000 C 
BRANCH   2   3
ATOM      3  C   UNL     1      59.216  25.148  50.954  1.00  0.00     0.000 C 
BRANCH   3   4
ATOM      4  C   UNL     1      58.055  25.000  49.956  1.00  0.00    -0.000 C 
BRANCH   4   5
ATOM      5  C   UNL     1      57.003  26.113  50.108  1.00  0.00    -0.000 C 
BRANCH   5   6
ATOM      6  C   UNL     1      57.595  27.410  50.682  1.00  0.00    -0.000 C 
BRANCH   6   7
ATOM      7  C   UNL     1      57.679  28.538  49.638  1.00  0.00    -0.000 C 
BRANCH   7   8
ATOM      8  C   UNL     1      58.802  28.299  48.605  1.00  0.00    -0.000 C 
BRANCH   8   9
ATOM      9  C   UNL     1      60.218  28.303  49.212  1.00  0.00    -0.000 C 
BRANCH   9  10
ATOM     10  C   UNL     1      61.190  27.274  48.604  1.00  0.00    -0.000 C 
BRANCH  10  11
ATOM     11  C   UNL     1      62.618  27.317  49.178  1.00  0.00    -0.003 C 
ATOM     12  C   UNL     1      63.687  26.960  48.146  1.00  0.00     0.004 C 
ENDBRANCH  10  11
ENDBRANCH   9  10
ENDBRANCH   8   9
ENDBRANCH   7   8
ENDBRANCH   6   7
ENDBRANCH   5   6
ENDBRANCH   4   5
ENDBRANCH   3   4
ENDBRANCH   2   3
ENDBRANCH   1   2
BRANCH   1  13
ATOM     13  C   UNL     1      62.686  23.447  51.379  1.00  0.00     0.000 C 
BRANCH  13  14
ATOM     14  C   UNL     1      63.055  23.768  49.919  1.00  0.00     0.000 C 
BRANCH  14  15
ATOM     15  C   UNL     1      63.466  22.514  49.129  1.00  0.00     0.000 C 
BRANCH  15  16
ATOM     16  C   UNL     1      62.737  21.225  49.574  1.00  0.00     0.000 C 
BRANCH  16  17
ATOM     17  C   UNL     1      61.357  21.042  48.917  1.00  0.00     0.000 C 
BRANCH  17  18
ATOM     18  C   UNL     1      60.314  20.337  49.807  1.00  0.00     0.000 C 
BRANCH  18  19
ATOM     19  C   UNL     1      59.342  19.400  49.058  1.00  0.00     0.000 C 
BRANCH  19  20
ATOM     20  C   UNL     1      59.343  17.937  49.536  1.00  0.00     0.006 C 
BRANCH  20  21
ATOM     21  C   UNL     1      57.984  17.249  49.360  1.00  0.00     0.053 C 
BRANCH  21  22
ATOM     22  C   UNL     1      56.944  17.929  50.193  1.00  0.00     0.041 C 
ATOM     23  O   UNL     1      55.884  18.354  49.662  1.00  0.00    -0.550 OA
ATOM     24  O   UNL     1      57.168  18.142  51.548  1.00  0.00    -0.550 OA
ENDBRANCH  21  22
ENDBRANCH  20  21
ENDBRANCH  19  20
ENDBRANCH  18  19
ENDBRANCH  17  18
ENDBRANCH  16  17
ENDBRANCH  15  16
ENDBRANCH  14  15
ENDBRANCH  13  14
ENDBRANCH   1  13
TORSDOF 20
ENDMDL
MODEL 6
REMARK VINA RESULT:    -3.072     13.596     16.489
REMARK INTER + INTRA:          -9.812
REMARK INTER:                  -6.287
REMARK INTRA:                  -3.524
REMARK UNBOUND:                -3.147
REMARK SMILES CCCCCCCCCCCCCCCCCCCCCC(=O)[O-]
REMARK SMILES IDX 12 1 11 2 10 3 9 4 8 5 7 6 6 7 5 8 4 9 3 10 2 11 1 12 13 13
REMARK SMILES IDX 14 14 15 15 16 16 17 17 18 18 19 19 20 20 21 21 22 22 23 23
REMARK SMILES IDX 24 24
REMARK H PARENT
REMARK Flexibility Score: inf
ROOT
ATOM      1  C   UNL     1      70.820  31.703  56.939  1.00  0.00     0.000 C 
ENDROOT
BRANCH   1   2
ATOM      2  C   UNL     1      70.697  32.989  57.772  1.00  0.00     0.000 C 
BRANCH   2   3
ATOM      3  C   UNL     1      71.013  32.719  59.250  1.00  0.00     0.000 C 
BRANCH   3   4
ATOM      4  C   UNL     1      71.926  31.497  59.444  1.00  0.00    -0.000 C 
BRANCH   4   5
ATOM      5  C   UNL     1      71.486  30.615  60.626  1.00  0.00    -0.000 C 
BRANCH   5   6
ATOM      6  C   UNL     1      72.676  30.008  61.385  1.00  0.00    -0.000 C 
BRANCH   6   7
ATOM      7  C   UNL     1      72.854  28.505  61.108  1.00  0.00    -0.000 C 
BRANCH   7   8
ATOM      8  C   UNL     1      71.577  27.859  60.530  1.00  0.00    -0.000 C 
BRANCH   8   9
ATOM      9  C   UNL     1      71.761  27.265  59.121  1.00  0.00    -0.000 C 
BRANCH   9  10
ATOM     10  C   UNL     1      73.089  27.629  58.429  1.00  0.00    -0.000 C 
BRANCH  10  11
ATOM     11  C   UNL     1      72.978  28.718  57.347  1.00  0.00    -0.003 C 
ATOM     12  C   UNL     1      72.086  28.306  56.176  1.00  0.00     0.004 C 
ENDBRANCH  10  11
ENDBRANCH   9  10
ENDBRANCH   8   9
ENDBRANCH   7   8
ENDBRANCH   6   7
ENDBRANCH   5   6
ENDBRANCH   4   5
ENDBRANCH   3   4
ENDBRANCH   2   3
ENDBRANCH   1   2
BRANCH   1  13
ATOM     13  C   UNL     1      69.494  31.306  56.269  1.00  0.00     0.000 C 
BRANCH  13  14
ATOM     14  C   UNL     1      68.466  30.757  57.275  1.00  0.00     0.000 C 
BRANCH  14  15
ATOM     15  C   UNL     1      69.029  29.597  58.114  1.00  0.00     0.000 C 
BRANCH  15  16
ATOM     16  C   UNL     1      68.546  28.201  57.657  1.00  0.00     0.000 C 
BRANCH  16  17
ATOM     17  C   UNL     1      67.965  27.348  58.799  1.00  0.00     0.000 C 
BRANCH  17  18
ATOM     18  C   UNL     1      67.802  28.096  60.136  1.00  0.00     0.000 C 
BRANCH  18  19
ATOM     19  C   UNL     1      66.343  28.393  60.546  1.00  0.00     0.000 C 
BRANCH  19  20
ATOM     20  C   UNL     1      65.385  28.701  59.381  1.00  0.00     0.006 C 
BRANCH  20  21
ATOM     21  C   UNL     1      64.078  29.357  59.839  1.00  0.00     0.053 C 
BRANCH  21  22
ATOM     22  C   UNL     1      64.101  30.825  59.554  1.00  0.00     0.041 C 
ATOM     23  O   UNL     1      64.294  31.649  60.486  1.00  0.00    -0.550 OA
ATOM     24  O   UNL     1      63.857  31.286  58.266  1.00  0.00    -0.550 OA
ENDBRANCH  21  22
ENDBRANCH  20  21
ENDBRANCH  19  20
ENDBRANCH  18  19
ENDBRANCH  17  18
ENDBRANCH  16  17
ENDBRANCH  15  16
ENDBRANCH  14  15
ENDBRANCH  13  14
ENDBRANCH   1  13
TORSDOF 20
ENDMDL
MODEL 7
REMARK VINA RESULT:    -3.057      4.115      7.437
REMARK INTER + INTRA:          -9.777
REMARK INTER:                  -6.132
REMARK INTRA:                  -3.645
REMARK UNBOUND:                -3.147
REMARK SMILES CCCCCCCCCCCCCCCCCCCCCC(=O)[O-]
REMARK SMILES IDX 12 1 11 2 10 3 9 4 8 5 7 6 6 7 5 8 4 9 3 10 2 11 1 12 13 13
REMARK SMILES IDX 14 14 15 15 16 16 17 17 18 18 19 19 20 20 21 21 22 22 23 23
REMARK SMILES IDX 24 24
REMARK H PARENT
REMARK Flexibility Score: inf
ROOT
ATOM      1  C   UNL     1      60.662  27.935  49.008  1.00  0.00     0.000 C 
ENDROOT
BRANCH   1   2
ATOM      2  C   UNL     1      59.241  27.611  48.518  1.00  0.00     0.000 C 
BRANCH   2   3
ATOM      3  C   UNL     1      58.222  28.609  49.087  1.00  0.00     0.000 C 
BRANCH   3   4
ATOM      4  C   UNL     1      57.073  27.916  49.836  1.00  0.00    -0.000 C 
BRANCH   4   5
ATOM      5  C   UNL     1      57.264  26.391  49.925  1.00  0.00    -0.000 C 
BRANCH   5   6
ATOM      6  C   UNL     1      57.674  25.929  51.332  1.00  0.00    -0.000 C 
BRANCH   6   7
ATOM      7  C   UNL     1      58.977  25.110  51.332  1.00  0.00    -0.000 C 
BRANCH   7   8
ATOM      8  C   UNL     1      59.158  24.294  50.034  1.00  0.00    -0.000 C 
BRANCH   8   9
ATOM      9  C   UNL     1      60.588  24.343  49.462  1.00  0.00    -0.000 C 
BRANCH   9  10
ATOM     10  C   UNL     1      61.529  23.233  49.966  1.00  0.00    -0.000 C 
BRANCH  10  11
ATOM     11  C   UNL     1      60.928  21.815  49.943  1.00  0.00    -0.003 C 
ATOM     12  C   UNL     1      60.782  21.252  48.530  1.00  0.00     0.004 C 
ENDBRANCH  10  11
ENDBRANCH   9  10
ENDBRANCH   8   9
ENDBRANCH   7   8
ENDBRANCH   6   7
ENDBRANCH   5   6
ENDBRANCH   4   5
ENDBRANCH   3   4
ENDBRANCH   2   3
ENDBRANCH   1   2
BRANCH   1  13
ATOM     13  C   UNL     1      60.686  28.416  50.469  1.00  0.00     0.000 C 
BRANCH  13  14
ATOM     14  C   UNL     1      61.590  29.645  50.670  1.00  0.00     0.000 C 
BRANCH  14  15
ATOM     15  C   UNL     1      62.353  30.028  49.389  1.00  0.00     0.000 C 
BRANCH  15  16
ATOM     16  C   UNL     1      63.877  30.196  49.594  1.00  0.00     0.000 C 
BRANCH  16  17
ATOM     17  C   UNL     1      64.723  29.448  48.548  1.00  0.00     0.000 C 
BRANCH  17  18
ATOM     18  C   UNL     1      63.924  28.479  47.654  1.00  0.00     0.000 C 
BRANCH  18  19
ATOM     19  C   UNL     1      64.389  27.008  47.704  1.00  0.00     0.000 C 
BRANCH  19  20
ATOM     20  C   UNL     1      63.833  26.185  48.879  1.00  0.00     0.006 C 
BRANCH  20  21
ATOM     21  C   UNL     1      64.722  26.245  50.126  1.00  0.00     0.053 C 
BRANCH  21  22
ATOM     22  C   UNL     1      63.918  26.648  51.322  1.00  0.00     0.041 C 
ATOM     23  O   UNL     1      62.863  26.028  51.614  1.00  0.00    -0.550 OA
ATOM     24  O   UNL     1      64.306  27.745  52.082  1.00  0.00    -0.550 OA
ENDBRANCH  21  22
ENDBRANCH  20  21
ENDBRANCH  19  20
ENDBRANCH  18  19
ENDBRANCH  17  18
ENDBRANCH  16  17
ENDBRANCH  15  16
ENDBRANCH  14  15
ENDBRANCH  13  14
ENDBRANCH   1  13
TORSDOF 20
ENDMDL
MODEL 8
REMARK VINA RESULT:    -3.048      3.103      5.629
REMARK INTER + INTRA:          -9.759
REMARK INTER:                  -7.140
REMARK INTRA:                  -2.619
REMARK UNBOUND:                -3.147
REMARK SMILES CCCCCCCCCCCCCCCCCCCCCC(=O)[O-]
REMARK SMILES IDX 12 1 11 2 10 3 9 4 8 5 7 6 6 7 5 8 4 9 3 10 2 11 1 12 13 13
REMARK SMILES IDX 14 14 15 15 16 16 17 17 18 18 19 19 20 20 21 21 22 22 23 23
REMARK SMILES IDX 24 24
REMARK H PARENT
REMARK Flexibility Score: inf
ROOT
ATOM      1  C   UNL     1      60.424  24.629  50.844  1.00  0.00     0.000 C 
ENDROOT
BRANCH   1   2
ATOM      2  C   UNL     1      61.128  24.914  49.507  1.00  0.00     0.000 C 
BRANCH   2   3
ATOM      3  C   UNL     1      62.520  24.268  49.470  1.00  0.00     0.000 C 
BRANCH   3   4
ATOM      4  C   UNL     1      62.501  22.799  49.924  1.00  0.00    -0.000 C 
BRANCH   4   5
ATOM      5  C   UNL     1      62.060  21.842  48.803  1.00  0.00    -0.000 C 
BRANCH   5   6
ATOM      6  C   UNL     1      60.693  21.197  49.081  1.00  0.00    -0.000 C 
BRANCH   6   7
ATOM      7  C   UNL     1      60.399  21.051  50.584  1.00  0.00    -0.000 C 
BRANCH   7   8
ATOM      8  C   UNL     1      59.486  19.844  50.890  1.00  0.00    -0.000 C 
BRANCH   8   9
ATOM      9  C   UNL     1      60.158  18.478  50.647  1.00  0.00    -0.000 C 
BRANCH   9  10
ATOM     10  C   UNL     1      59.186  17.315  50.367  1.00  0.00    -0.000 C 
BRANCH  10  11
ATOM     11  C   UNL     1      58.066  17.637  49.361  1.00  0.00    -0.003 C 
ATOM     12  C   UNL     1      56.686  17.717  50.010  1.00  0.00     0.004 C 
ENDBRANCH  10  11
ENDBRANCH   9  10
ENDBRANCH   8   9
ENDBRANCH   7   8
ENDBRANCH   6   7
ENDBRANCH   5   6
ENDBRANCH   4   5
ENDBRANCH   3   4
ENDBRANCH   2   3
ENDBRANCH   1   2
BRANCH   1  13
ATOM     13  C   UNL     1      58.899  24.501  50.692  1.00  0.00     0.000 C 
BRANCH  13  14
ATOM     14  C   UNL     1      58.367  25.237  49.449  1.00  0.00     0.000 C 
BRANCH  14  15
ATOM     15  C   UNL     1      57.205  26.188  49.784  1.00  0.00     0.000 C 
BRANCH  15  16
ATOM     16  C   UNL     1      57.594  27.685  49.762  1.00  0.00     0.000 C 
BRANCH  16  17
ATOM     17  C   UNL     1      58.971  27.952  49.127  1.00  0.00     0.000 C 
BRANCH  17  18
ATOM     18  C   UNL     1      60.015  28.547  50.091  1.00  0.00     0.000 C 
BRANCH  18  19
ATOM     19  C   UNL     1      61.297  29.084  49.418  1.00  0.00     0.000 C 
BRANCH  19  20
ATOM     20  C   UNL     1      62.555  28.221  49.622  1.00  0.00     0.006 C 
BRANCH  20  21
ATOM     21  C   UNL     1      63.206  27.792  48.302  1.00  0.00     0.053 C 
BRANCH  21  22
ATOM     22  C   UNL     1      64.282  28.757  47.914  1.00  0.00     0.041 C 
ATOM     23  O   UNL     1      64.656  28.840  46.715  1.00  0.00    -0.550 OA
ATOM     24  O   UNL     1      64.910  29.525  48.887  1.00  0.00    -0.550 OA
ENDBRANCH  21  22
ENDBRANCH  20  21
ENDBRANCH  19  20
ENDBRANCH  18  19
ENDBRANCH  17  18
ENDBRANCH  16  17
ENDBRANCH  15  16
ENDBRANCH  14  15
ENDBRANCH  13  14
ENDBRANCH   1  13
TORSDOF 20
ENDMDL
MODEL 9
REMARK VINA RESULT:    -3.014      1.267      3.183
REMARK INTER + INTRA:          -9.686
REMARK INTER:                  -6.967
REMARK INTRA:                  -2.719
REMARK UNBOUND:                -3.147
REMARK SMILES CCCCCCCCCCCCCCCCCCCCCC(=O)[O-]
REMARK SMILES IDX 12 1 11 2 10 3 9 4 8 5 7 6 6 7 5 8 4 9 3 10 2 11 1 12 13 13
REMARK SMILES IDX 14 14 15 15 16 16 17 17 18 18 19 19 20 20 21 21 22 22 23 23
REMARK SMILES IDX 24 24
REMARK H PARENT
REMARK Flexibility Score: inf
ROOT
ATOM      1  C   UNL     1      59.854  20.004  50.745  1.00  0.00     0.000 C 
ENDROOT
BRANCH   1   2
ATOM      2  C   UNL     1      60.301  18.695  51.415  1.00  0.00     0.000 C 
BRANCH   2   3
ATOM      3  C   UNL     1      60.088  17.497  50.478  1.00  0.00     0.000 C 
BRANCH   3   4
ATOM      4  C   UNL     1      58.798  16.723  50.794  1.00  0.00    -0.000 C 
BRANCH   4   5
ATOM      5  C   UNL     1      57.711  16.932  49.725  1.00  0.00    -0.000 C 
BRANCH   5   6
ATOM      6  C   UNL     1      56.657  17.968  50.148  1.00  0.00    -0.000 C 
BRANCH   6   7
ATOM      7  C   UNL     1      56.598  18.166  51.673  1.00  0.00    -0.000 C 
BRANCH   7   8
ATOM      8  C   UNL     1      55.983  19.527  52.064  1.00  0.00    -0.000 C 
BRANCH   8   9
ATOM      9  C   UNL     1      56.409  20.026  53.459  1.00  0.00    -0.000 C 
BRANCH   9  10
ATOM     10  C   UNL     1      57.747  20.789  53.497  1.00  0.00    -0.000 C 
BRANCH  10  11
ATOM     11  C   UNL     1      57.732  22.155  52.787  1.00  0.00    -0.003 C 
ATOM     12  C   UNL     1      58.040  23.320  53.727  1.00  0.00     0.004 C 
ENDBRANCH  10  11
ENDBRANCH   9  10
ENDBRANCH   8   9
ENDBRANCH   7   8
ENDBRANCH   6   7
ENDBRANCH   5   6
ENDBRANCH   4   5
ENDBRANCH   3   4
ENDBRANCH   2   3
ENDBRANCH   1   2
BRANCH   1  13
ATOM     13  C   UNL     1      59.967  19.951  49.212  1.00  0.00     0.000 C 
BRANCH  13  14
ATOM     14  C   UNL     1      60.734  21.155  48.635  1.00  0.00     0.000 C 
BRANCH  14  15
ATOM     15  C   UNL     1      61.907  21.587  49.532  1.00  0.00     0.000 C 
BRANCH  15  16
ATOM     16  C   UNL     1      62.267  23.086  49.412  1.00  0.00     0.000 C 
BRANCH  16  17
ATOM     17  C   UNL     1      61.394  24.000  50.291  1.00  0.00     0.000 C 
BRANCH  17  18
ATOM     18  C   UNL     1      60.270  24.733  49.532  1.00  0.00     0.000 C 
BRANCH  18  19
ATOM     19  C   UNL     1      58.873  24.639  50.180  1.00  0.00     0.000 C 
BRANCH  19  20
ATOM     20  C   UNL     1      57.750  25.375  49.426  1.00  0.00     0.006 C 
BRANCH  20  21
ATOM     21  C   UNL     1      57.121  26.507  50.247  1.00  0.00     0.053 C 
BRANCH  21  22
ATOM     22  C   UNL     1      57.494  27.837  49.672  1.00  0.00     0.041 C 
ATOM     23  O   UNL     1      58.521  27.952  48.953  1.00  0.00    -0.550 OA
ATOM     24  O   UNL     1      56.735  28.962  49.974  1.00  0.00    -0.550 OA
ENDBRANCH  21  22
ENDBRANCH  20  21
ENDBRANCH  19  20
ENDBRANCH  18  19
ENDBRANCH  17  18
ENDBRANCH  16  17
ENDBRANCH  15  16
ENDBRANCH  14  15
ENDBRANCH  13  14
ENDBRANCH   1  13
TORSDOF 20
ENDMDL
