MODEL 1
REMARK VINA RESULT:    -4.017      0.000      0.000
REMARK INTER + INTRA:         -13.792
REMARK INTER:                 -10.593
REMARK INTRA:                  -3.199
REMARK UNBOUND:                -3.199
REMARK SMILES CCCCCCCCCCCCCCCCCCCCCCCCCCCCCC(=O)[O-]
REMARK SMILES IDX 16 1 17 2 18 3 19 4 20 5 21 6 22 7 23 8 24 9 25 10 26 11
REMARK SMILES IDX 27 12 28 13 29 14 30 15 31 16 32 17 15 18 14 19 13 20 12 21
REMARK SMILES IDX 11 22 10 23 9 24 8 25 7 26 6 27 5 28 4 29 3 30 2 31 1 32
REMARK H PARENT
REMARK Flexibility Score: inf
ROOT
ATOM      1  C   UNL     1      16.693   5.770  -7.153  1.00  0.00     0.000 C 
ENDROOT
BRANCH   1   2
ATOM      2  C   UNL     1      15.336   5.179  -6.734  1.00  0.00     0.000 C 
BRANCH   2   3
ATOM      3  C   UNL     1      15.463   3.730  -6.218  1.00  0.00     0.000 C 
BRANCH   3   4
ATOM      4  C   UNL     1      16.700   3.486  -5.330  1.00  0.00     0.000 C 
BRANCH   4   5
ATOM      5  C   UNL     1      17.624   2.345  -5.786  1.00  0.00     0.000 C 
BRANCH   5   6
ATOM      6  C   UNL     1      19.110   2.618  -5.495  1.00  0.00     0.000 C 
BRANCH   6   7
ATOM      7  C   UNL     1      19.314   3.547  -4.286  1.00  0.00     0.000 C 
BRANCH   7   8
ATOM      8  C   UNL     1      20.123   2.900  -3.144  1.00  0.00     0.000 C 
BRANCH   8   9
ATOM      9  C   UNL     1      19.394   2.991  -1.794  1.00  0.00     0.000 C 
BRANCH   9  10
ATOM     10  C   UNL     1      17.937   2.523  -1.928  1.00  0.00     0.000 C 
BRANCH  10  11
ATOM     11  C   UNL     1      16.924   3.660  -1.720  1.00  0.00     0.000 C 
BRANCH  11  12
ATOM     12  C   UNL     1      16.288   3.635  -0.319  1.00  0.00     0.000 C 
BRANCH  12  13
ATOM     13  C   UNL     1      17.065   2.746   0.667  1.00  0.00     0.006 C 
BRANCH  13  14
ATOM     14  C   UNL     1      16.960   3.237   2.116  1.00  0.00     0.053 C 
BRANCH  14  15
ATOM     15  C   UNL     1      18.272   3.790   2.577  1.00  0.00     0.041 C 
ATOM     16  O   UNL     1      18.383   4.284   3.729  1.00  0.00    -0.550 OA
ATOM     17  O   UNL     1      19.383   3.727   1.745  1.00  0.00    -0.550 OA
ENDBRANCH  14  15
ENDBRANCH  13  14
ENDBRANCH  12  13
ENDBRANCH  11  12
ENDBRANCH  10  11
ENDBRANCH   9  10
ENDBRANCH   8   9
ENDBRANCH   7   8
ENDBRANCH   6   7
ENDBRANCH   5   6
ENDBRANCH   4   5
ENDBRANCH   3   4
ENDBRANCH   2   3
ENDBRANCH   1   2
BRANCH   1  18
ATOM     18  C   UNL     1      17.312   5.052  -8.364  1.00  0.00     0.000 C 
BRANCH  18  19
ATOM     19  C   UNL     1      18.852   4.970  -8.353  1.00  0.00     0.000 C 
BRANCH  19  20
ATOM     20  C   UNL     1      19.554   5.861  -7.305  1.00  0.00     0.000 C 
BRANCH  20  21
ATOM     21  C   UNL     1      20.116   7.189  -7.843  1.00  0.00     0.000 C 
BRANCH  21  22
ATOM     22  C   UNL     1      19.772   8.394  -6.955  1.00  0.00     0.000 C 
BRANCH  22  23
ATOM     23  C   UNL     1      19.965   9.710  -7.719  1.00  0.00     0.000 C 
BRANCH  23  24
ATOM     24  C   UNL     1      19.390  10.894  -6.934  1.00  0.00    -0.000 C 
BRANCH  24  25
ATOM     25  C   UNL     1      19.414  12.180  -7.771  1.00  0.00    -0.000 C 
BRANCH  25  26
ATOM     26  C   UNL     1      18.008  12.751  -8.038  1.00  0.00    -0.000 C 
BRANCH  26  27
ATOM     27  C   UNL     1      16.893  12.080  -7.206  1.00  0.00    -0.000 C 
BRANCH  27  28
ATOM     28  C   UNL     1      16.218  13.060  -6.229  1.00  0.00    -0.000 C 
BRANCH  28  29
ATOM     29  C   UNL     1      16.702  14.510  -6.404  1.00  0.00    -0.000 C 
BRANCH  29  30
ATOM     30  C   UNL     1      16.984  15.266  -5.091  1.00  0.00    -0.000 C 
BRANCH  30  31
ATOM     31  C   UNL     1      18.173  14.688  -4.311  1.00  0.00    -0.003 C 
ATOM     32  C   UNL     1      19.478  14.866  -5.082  1.00  0.00     0.004 C 
ENDBRANCH  30  31
ENDBRANCH  29  30
ENDBRANCH  28  29
ENDBRANCH  27  28
ENDBRANCH  26  27
ENDBRANCH  25  26
ENDBRANCH  24  25
ENDBRANCH  23  24
ENDBRANCH  22  23
ENDBRANCH  21  22
ENDBRANCH  20  21
ENDBRANCH  19  20
ENDBRANCH  18  19
ENDBRANCH   1  18
TORSDOF 28
ENDMDL
MODEL 2
REMARK VINA RESULT:    -3.877      3.269     10.454
REMARK INTER + INTRA:         -13.422
REMARK INTER:                 -11.350
REMARK INTRA:                  -2.073
REMARK UNBOUND:                -3.199
REMARK SMILES CCCCCCCCCCCCCCCCCCCCCCCCCCCCCC(=O)[O-]
REMARK SMILES IDX 16 1 17 2 18 3 19 4 20 5 21 6 22 7 23 8 24 9 25 10 26 11
REMARK SMILES IDX 27 12 28 13 29 14 30 15 31 16 32 17 15 18 14 19 13 20 12 21
REMARK SMILES IDX 11 22 10 23 9 24 8 25 7 26 6 27 5 28 4 29 3 30 2 31 1 32
REMARK H PARENT
REMARK Flexibility Score: inf
ROOT
ATOM      1  C   UNL     1      19.019   6.113  -7.878  1.00  0.00     0.000 C 
ENDROOT
BRANCH   1   2
ATOM      2  C   UNL     1      20.123   6.982  -7.251  1.00  0.00     0.000 C 
BRANCH   2   3
ATOM      3  C   UNL     1      20.123   8.421  -7.809  1.00  0.00     0.000 C 
BRANCH   3   4
ATOM      4  C   UNL     1      19.756   9.499  -6.769  1.00  0.00     0.000 C 
BRANCH   4   5
ATOM      5  C   UNL     1      18.931  10.679  -7.307  1.00  0.00     0.000 C 
BRANCH   5   6
ATOM      6  C   UNL     1      19.661  11.476  -8.402  1.00  0.00     0.000 C 
BRANCH   6   7
ATOM      7  C   UNL     1      19.033  12.860  -8.642  1.00  0.00     0.000 C 
BRANCH   7   8
ATOM      8  C   UNL     1      17.899  12.846  -9.688  1.00  0.00     0.000 C 
BRANCH   8   9
ATOM      9  C   UNL     1      16.751  13.794  -9.309  1.00  0.00     0.000 C 
BRANCH   9  10
ATOM     10  C   UNL     1      15.464  13.006  -9.024  1.00  0.00     0.000 C 
BRANCH  10  11
ATOM     11  C   UNL     1      14.941  13.213  -7.595  1.00  0.00     0.000 C 
BRANCH  11  12
ATOM     12  C   UNL     1      16.062  13.153  -6.542  1.00  0.00     0.000 C 
BRANCH  12  13
ATOM     13  C   UNL     1      16.340  14.519  -5.895  1.00  0.00     0.006 C 
BRANCH  13  14
ATOM     14  C   UNL     1      17.825  14.900  -5.931  1.00  0.00     0.053 C 
BRANCH  14  15
ATOM     15  C   UNL     1      18.542  14.322  -4.752  1.00  0.00     0.041 C 
ATOM     16  O   UNL     1      18.790  15.037  -3.746  1.00  0.00    -0.550 OA
ATOM     17  O   UNL     1      18.903  12.980  -4.748  1.00  0.00    -0.550 OA
ENDBRANCH  14  15
ENDBRANCH  13  14
ENDBRANCH  12  13
ENDBRANCH  11  12
ENDBRANCH  10  11
ENDBRANCH   9  10
ENDBRANCH   8   9
ENDBRANCH   7   8
ENDBRANCH   6   7
ENDBRANCH   5   6
ENDBRANCH   4   5
ENDBRANCH   3   4
ENDBRANCH   2   3
ENDBRANCH   1   2
BRANCH   1  18
ATOM     18  C   UNL     1      18.182   5.359  -6.830  1.00  0.00     0.000 C 
BRANCH  18  19
ATOM     19  C   UNL     1      16.659   5.392  -7.071  1.00  0.00     0.000 C 
BRANCH  19  20
ATOM     20  C   UNL     1      15.897   4.111  -6.669  1.00  0.00     0.000 C 
BRANCH  20  21
ATOM     21  C   UNL     1      16.715   3.087  -5.861  1.00  0.00     0.000 C 
BRANCH  21  22
ATOM     22  C   UNL     1      16.720   3.374  -4.352  1.00  0.00     0.000 C 
BRANCH  22  23
ATOM     23  C   UNL     1      17.695   2.441  -3.622  1.00  0.00     0.000 C 
BRANCH  23  24
ATOM     24  C   UNL     1      17.989   2.949  -2.205  1.00  0.00    -0.000 C 
BRANCH  24  25
ATOM     25  C   UNL     1      16.832   3.804  -1.671  1.00  0.00    -0.000 C 
BRANCH  25  26
ATOM     26  C   UNL     1      17.289   4.869  -0.656  1.00  0.00    -0.000 C 
BRANCH  26  27
ATOM     27  C   UNL     1      18.803   4.831  -0.350  1.00  0.00    -0.000 C 
BRANCH  27  28
ATOM     28  C   UNL     1      19.098   4.409   1.101  1.00  0.00    -0.000 C 
BRANCH  28  29
ATOM     29  C   UNL     1      18.297   5.219   2.137  1.00  0.00    -0.000 C 
BRANCH  29  30
ATOM     30  C   UNL     1      18.571   4.849   3.606  1.00  0.00    -0.000 C 
BRANCH  30  31
ATOM     31  C   UNL     1      17.487   3.945   4.210  1.00  0.00    -0.003 C 
ATOM     32  C   UNL     1      17.615   2.512   3.698  1.00  0.00     0.004 C 
ENDBRANCH  30  31
ENDBRANCH  29  30
ENDBRANCH  28  29
ENDBRANCH  27  28
ENDBRANCH  26  27
ENDBRANCH  25  26
ENDBRANCH  24  25
ENDBRANCH  23  24
ENDBRANCH  22  23
ENDBRANCH  21  22
ENDBRANCH  20  21
ENDBRANCH  19  20
ENDBRANCH  18  19
ENDBRANCH   1  18
TORSDOF 28
ENDMDL
MODEL 3
REMARK VINA RESULT:    -3.873      3.791     10.655
REMARK INTER + INTRA:         -13.413
REMARK INTER:                 -10.706
REMARK INTRA:                  -2.707
REMARK UNBOUND:                -3.199
REMARK SMILES CCCCCCCCCCCCCCCCCCCCCCCCCCCCCC(=O)[O-]
REMARK SMILES IDX 16 1 17 2 18 3 19 4 20 5 21 6 22 7 23 8 24 9 25 10 26 11
REMARK SMILES IDX 27 12 28 13 29 14 30 15 31 16 32 17 15 18 14 19 13 20 12 21
REMARK SMILES IDX 11 22 10 23 9 24 8 25 7 26 6 27 5 28 4 29 3 30 2 31 1 32
REMARK H PARENT
REMARK Flexibility Score: inf
ROOT
ATOM      1  C   UNL     1      20.123   8.771  -7.537  1.00  0.00     0.000 C 
ENDROOT
BRANCH   1   2
ATOM      2  C   UNL     1      18.935   9.662  -7.137  1.00  0.00     0.000 C 
BRANCH   2   3
ATOM      3  C   UNL     1      19.357  11.126  -6.894  1.00  0.00     0.000 C 
BRANCH   3   4
ATOM      4  C   UNL     1      19.837  11.412  -5.456  1.00  0.00     0.000 C 
BRANCH   4   5
ATOM      5  C   UNL     1      18.918  12.320  -4.624  1.00  0.00     0.000 C 
BRANCH   5   6
ATOM      6  C   UNL     1      19.625  13.586  -4.109  1.00  0.00     0.000 C 
BRANCH   6   7
ATOM      7  C   UNL     1      18.751  14.845  -4.243  1.00  0.00     0.000 C 
BRANCH   7   8
ATOM      8  C   UNL     1      17.494  14.631  -5.111  1.00  0.00     0.000 C 
BRANCH   8   9
ATOM      9  C   UNL     1      17.594  15.354  -6.463  1.00  0.00     0.000 C 
BRANCH   9  10
ATOM     10  C   UNL     1      19.036  15.324  -6.992  1.00  0.00     0.000 C 
BRANCH  10  11
ATOM     11  C   UNL     1      19.233  14.308  -8.128  1.00  0.00     0.000 C 
BRANCH  11  12
ATOM     12  C   UNL     1      18.297  14.568  -9.322  1.00  0.00     0.000 C 
BRANCH  12  13
ATOM     13  C   UNL     1      17.410  13.357  -9.651  1.00  0.00     0.006 C 
BRANCH  13  14
ATOM     14  C   UNL     1      15.915  13.649  -9.466  1.00  0.00     0.053 C 
BRANCH  14  15
ATOM     15  C   UNL     1      15.398  12.970  -8.238  1.00  0.00     0.041 C 
ATOM     16  O   UNL     1      16.181  12.334  -7.486  1.00  0.00    -0.550 OA
ATOM     17  O   UNL     1      14.053  13.072  -7.902  1.00  0.00    -0.550 OA
ENDBRANCH  14  15
ENDBRANCH  13  14
ENDBRANCH  12  13
ENDBRANCH  11  12
ENDBRANCH  10  11
ENDBRANCH   9  10
ENDBRANCH   8   9
ENDBRANCH   7   8
ENDBRANCH   6   7
ENDBRANCH   5   6
ENDBRANCH   4   5
ENDBRANCH   3   4
ENDBRANCH   2   3
ENDBRANCH   1   2
BRANCH   1  18
ATOM     18  C   UNL     1      20.111   7.403  -6.833  1.00  0.00     0.000 C 
BRANCH  18  19
ATOM     19  C   UNL     1      19.658   6.223  -7.717  1.00  0.00     0.000 C 
BRANCH  19  20
ATOM     20  C   UNL     1      18.606   5.288  -7.085  1.00  0.00     0.000 C 
BRANCH  20  21
ATOM     21  C   UNL     1      17.424   4.915  -7.998  1.00  0.00     0.000 C 
BRANCH  21  22
ATOM     22  C   UNL     1      17.475   3.461  -8.489  1.00  0.00     0.000 C 
BRANCH  22  23
ATOM     23  C   UNL     1      17.802   2.505  -7.335  1.00  0.00     0.000 C 
BRANCH  23  24
ATOM     24  C   UNL     1      16.622   2.388  -6.363  1.00  0.00    -0.000 C 
BRANCH  24  25
ATOM     25  C   UNL     1      17.029   1.650  -5.081  1.00  0.00    -0.000 C 
BRANCH  25  26
ATOM     26  C   UNL     1      17.935   2.491  -4.163  1.00  0.00    -0.000 C 
BRANCH  26  27
ATOM     27  C   UNL     1      17.164   3.296  -3.093  1.00  0.00    -0.000 C 
BRANCH  27  28
ATOM     28  C   UNL     1      17.908   3.343  -1.745  1.00  0.00    -0.000 C 
BRANCH  28  29
ATOM     29  C   UNL     1      19.275   4.043  -1.837  1.00  0.00    -0.000 C 
BRANCH  29  30
ATOM     30  C   UNL     1      19.296   5.500  -1.336  1.00  0.00    -0.000 C 
BRANCH  30  31
ATOM     31  C   UNL     1      18.144   5.819  -0.373  1.00  0.00    -0.003 C 
ATOM     32  C   UNL     1      18.605   5.748   1.081  1.00  0.00     0.004 C 
ENDBRANCH  30  31
ENDBRANCH  29  30
ENDBRANCH  28  29
ENDBRANCH  27  28
ENDBRANCH  26  27
ENDBRANCH  25  26
ENDBRANCH  24  25
ENDBRANCH  23  24
ENDBRANCH  22  23
ENDBRANCH  21  22
ENDBRANCH  20  21
ENDBRANCH  19  20
ENDBRANCH  18  19
ENDBRANCH   1  18
TORSDOF 28
ENDMDL
MODEL 4
REMARK VINA RESULT:    -3.756      3.741      9.970
REMARK INTER + INTRA:         -13.104
REMARK INTER:                 -10.778
REMARK INTRA:                  -2.326
REMARK UNBOUND:                -3.199
REMARK SMILES CCCCCCCCCCCCCCCCCCCCCCCCCCCCCC(=O)[O-]
REMARK SMILES IDX 16 1 17 2 18 3 19 4 20 5 21 6 22 7 23 8 24 9 25 10 26 11
REMARK SMILES IDX 27 12 28 13 29 14 30 15 31 16 32 17 15 18 14 19 13 20 12 21
REMARK SMILES IDX 11 22 10 23 9 24 8 25 7 26 6 27 5 28 4 29 3 30 2 31 1 32
REMARK H PARENT
REMARK Flexibility Score: inf
ROOT
ATOM      1  C   UNL     1      15.675   2.938  -6.404  1.00  0.00     0.000 C 
ENDROOT
BRANCH   1   2
ATOM      2  C   UNL     1      15.579   4.438  -6.078  1.00  0.00     0.000 C 
BRANCH   2   3
ATOM      3  C   UNL     1      16.293   5.312  -7.130  1.00  0.00     0.000 C 
BRANCH   3   4
ATOM      4  C   UNL     1      17.617   4.714  -7.649  1.00  0.00     0.000 C 
BRANCH   4   5
ATOM      5  C   UNL     1      18.895   5.336  -7.064  1.00  0.00     0.000 C 
BRANCH   5   6
ATOM      6  C   UNL     1      19.571   6.336  -8.018  1.00  0.00     0.000 C 
BRANCH   6   7
ATOM      7  C   UNL     1      20.123   7.571  -7.285  1.00  0.00     0.000 C 
BRANCH   7   8
ATOM      8  C   UNL     1      19.136   8.756  -7.250  1.00  0.00     0.000 C 
BRANCH   8   9
ATOM      9  C   UNL     1      19.859  10.112  -7.258  1.00  0.00     0.000 C 
BRANCH   9  10
ATOM     10  C   UNL     1      19.080  11.150  -6.435  1.00  0.00     0.000 C 
BRANCH  10  11
ATOM     11  C   UNL     1      17.619  11.296  -6.888  1.00  0.00     0.000 C 
BRANCH  11  12
ATOM     12  C   UNL     1      17.403  12.515  -7.803  1.00  0.00     0.000 C 
BRANCH  12  13
ATOM     13  C   UNL     1      17.704  13.845  -7.094  1.00  0.00     0.006 C 
BRANCH  13  14
ATOM     14  C   UNL     1      16.452  14.485  -6.481  1.00  0.00     0.053 C 
BRANCH  14  15
ATOM     15  C   UNL     1      16.809  15.256  -5.249  1.00  0.00     0.041 C 
ATOM     16  O   UNL     1      17.434  14.698  -4.310  1.00  0.00    -0.550 OA
ATOM     17  O   UNL     1      16.483  16.603  -5.154  1.00  0.00    -0.550 OA
ENDBRANCH  14  15
ENDBRANCH  13  14
ENDBRANCH  12  13
ENDBRANCH  11  12
ENDBRANCH  10  11
ENDBRANCH   9  10
ENDBRANCH   8   9
ENDBRANCH   7   8
ENDBRANCH   6   7
ENDBRANCH   5   6
ENDBRANCH   4   5
ENDBRANCH   3   4
ENDBRANCH   2   3
ENDBRANCH   1   2
BRANCH   1  18
ATOM     18  C   UNL     1      16.530   2.158  -5.390  1.00  0.00     0.000 C 
BRANCH  18  19
ATOM     19  C   UNL     1      17.461   3.028  -4.522  1.00  0.00     0.000 C 
BRANCH  19  20
ATOM     20  C   UNL     1      18.925   2.547  -4.433  1.00  0.00     0.000 C 
BRANCH  20  21
ATOM     21  C   UNL     1      19.640   2.859  -3.105  1.00  0.00     0.000 C 
BRANCH  21  22
ATOM     22  C   UNL     1      19.115   2.026  -1.926  1.00  0.00     0.000 C 
BRANCH  22  23
ATOM     23  C   UNL     1      19.638   2.576  -0.593  1.00  0.00     0.000 C 
BRANCH  23  24
ATOM     24  C   UNL     1      18.494   2.788   0.404  1.00  0.00    -0.000 C 
BRANCH  24  25
ATOM     25  C   UNL     1      17.617   3.980  -0.002  1.00  0.00    -0.000 C 
BRANCH  25  26
ATOM     26  C   UNL     1      18.406   5.298  -0.113  1.00  0.00    -0.000 C 
BRANCH  26  27
ATOM     27  C   UNL     1      18.271   6.213   1.124  1.00  0.00    -0.000 C 
BRANCH  27  28
ATOM     28  C   UNL     1      19.580   6.308   1.930  1.00  0.00    -0.000 C 
BRANCH  28  29
ATOM     29  C   UNL     1      19.532   5.515   3.248  1.00  0.00    -0.000 C 
BRANCH  29  30
ATOM     30  C   UNL     1      18.240   4.708   3.477  1.00  0.00    -0.000 C 
BRANCH  30  31
ATOM     31  C   UNL     1      18.056   4.272   4.937  1.00  0.00    -0.003 C 
ATOM     32  C   UNL     1      19.020   3.146   5.302  1.00  0.00     0.004 C 
ENDBRANCH  30  31
ENDBRANCH  29  30
ENDBRANCH  28  29
ENDBRANCH  27  28
ENDBRANCH  26  27
ENDBRANCH  25  26
ENDBRANCH  24  25
ENDBRANCH  23  24
ENDBRANCH  22  23
ENDBRANCH  21  22
ENDBRANCH  20  21
ENDBRANCH  19  20
ENDBRANCH  18  19
ENDBRANCH   1  18
TORSDOF 28
ENDMDL
MODEL 5
REMARK VINA RESULT:    -3.751      3.845     10.170
REMARK INTER + INTRA:         -13.091
REMARK INTER:                 -10.539
REMARK INTRA:                  -2.552
REMARK UNBOUND:                -3.199
REMARK SMILES CCCCCCCCCCCCCCCCCCCCCCCCCCCCCC(=O)[O-]
REMARK SMILES IDX 16 1 17 2 18 3 19 4 20 5 21 6 22 7 23 8 24 9 25 10 26 11
REMARK SMILES IDX 27 12 28 13 29 14 30 15 31 16 32 17 15 18 14 19 13 20 12 21
REMARK SMILES IDX 11 22 10 23 9 24 8 25 7 26 6 27 5 28 4 29 3 30 2 31 1 32
REMARK H PARENT
REMARK Flexibility Score: inf
ROOT
ATOM      1  C   UNL     1      17.175   5.741  -7.126  1.00  0.00     0.000 C 
ENDROOT
BRANCH   1   2
ATOM      2  C   UNL     1      18.491   5.759  -7.923  1.00  0.00     0.000 C 
BRANCH   2   3
ATOM      3  C   UNL     1      19.731   5.780  -7.004  1.00  0.00     0.000 C 
BRANCH   3   4
ATOM      4  C   UNL     1      20.124   7.187  -6.510  1.00  0.00     0.000 C 
BRANCH   4   5
ATOM      5  C   UNL     1      20.125   8.286  -7.585  1.00  0.00     0.000 C 
BRANCH   5   6
ATOM      6  C   UNL     1      19.137   9.426  -7.284  1.00  0.00     0.000 C 
BRANCH   6   7
ATOM      7  C   UNL     1      19.845  10.721  -6.850  1.00  0.00     0.000 C 
BRANCH   7   8
ATOM      8  C   UNL     1      19.740  11.001  -5.337  1.00  0.00     0.000 C 
BRANCH   8   9
ATOM      9  C   UNL     1      19.810  12.502  -5.020  1.00  0.00     0.000 C 
BRANCH   9  10
ATOM     10  C   UNL     1      19.622  13.339  -6.294  1.00  0.00     0.000 C 
BRANCH  10  11
ATOM     11  C   UNL     1      18.928  14.684  -6.027  1.00  0.00     0.000 C 
BRANCH  11  12
ATOM     12  C   UNL     1      17.698  14.543  -5.112  1.00  0.00     0.000 C 
BRANCH  12  13
ATOM     13  C   UNL     1      16.383  14.441  -5.901  1.00  0.00     0.006 C 
BRANCH  13  14
ATOM     14  C   UNL     1      16.055  13.004  -6.324  1.00  0.00     0.053 C 
BRANCH  14  15
ATOM     15  C   UNL     1      15.937  12.911  -7.812  1.00  0.00     0.041 C 
ATOM     16  O   UNL     1      14.803  12.848  -8.357  1.00  0.00    -0.550 OA
ATOM     17  O   UNL     1      17.079  12.933  -8.603  1.00  0.00    -0.550 OA
ENDBRANCH  14  15
ENDBRANCH  13  14
ENDBRANCH  12  13
ENDBRANCH  11  12
ENDBRANCH  10  11
ENDBRANCH   9  10
ENDBRANCH   8   9
ENDBRANCH   7   8
ENDBRANCH   6   7
ENDBRANCH   5   6
ENDBRANCH   4   5
ENDBRANCH   3   4
ENDBRANCH   2   3
ENDBRANCH   1   2
BRANCH   1  18
ATOM     18  C   UNL     1      16.440   4.393  -7.215  1.00  0.00     0.000 C 
BRANCH  18  19
ATOM     19  C   UNL     1      15.999   3.804  -5.859  1.00  0.00     0.000 C 
BRANCH  19  20
ATOM     20  C   UNL     1      16.301   2.304  -5.660  1.00  0.00     0.000 C 
BRANCH  20  21
ATOM     21  C   UNL     1      17.530   1.991  -4.787  1.00  0.00     0.000 C 
BRANCH  21  22
ATOM     22  C   UNL     1      18.689   2.975  -5.000  1.00  0.00     0.000 C 
BRANCH  22  23
ATOM     23  C   UNL     1      19.131   3.597  -3.669  1.00  0.00     0.000 C 
BRANCH  23  24
ATOM     24  C   UNL     1      19.073   2.569  -2.534  1.00  0.00    -0.000 C 
BRANCH  24  25
ATOM     25  C   UNL     1      18.402   3.157  -1.286  1.00  0.00    -0.000 C 
BRANCH  25  26
ATOM     26  C   UNL     1      18.358   4.697  -1.294  1.00  0.00    -0.000 C 
BRANCH  26  27
ATOM     27  C   UNL     1      18.088   5.321   0.093  1.00  0.00    -0.000 C 
BRANCH  27  28
ATOM     28  C   UNL     1      19.151   4.923   1.133  1.00  0.00    -0.000 C 
BRANCH  28  29
ATOM     29  C   UNL     1      18.803   5.392   2.557  1.00  0.00    -0.000 C 
BRANCH  29  30
ATOM     30  C   UNL     1      17.660   4.615   3.238  1.00  0.00    -0.000 C 
BRANCH  30  31
ATOM     31  C   UNL     1      18.083   3.963   4.562  1.00  0.00    -0.003 C 
ATOM     32  C   UNL     1      17.867   2.452   4.527  1.00  0.00     0.004 C 
ENDBRANCH  30  31
ENDBRANCH  29  30
ENDBRANCH  28  29
ENDBRANCH  27  28
ENDBRANCH  26  27
ENDBRANCH  25  26
ENDBRANCH  24  25
ENDBRANCH  23  24
ENDBRANCH  22  23
ENDBRANCH  21  22
ENDBRANCH  20  21
ENDBRANCH  19  20
ENDBRANCH  18  19
ENDBRANCH   1  18
TORSDOF 28
ENDMDL
MODEL 6
REMARK VINA RESULT:    -3.629      1.593      2.493
REMARK INTER + INTRA:         -12.768
REMARK INTER:                  -9.914
REMARK INTRA:                  -2.855
REMARK UNBOUND:                -3.199
REMARK SMILES CCCCCCCCCCCCCCCCCCCCCCCCCCCCCC(=O)[O-]
REMARK SMILES IDX 16 1 17 2 18 3 19 4 20 5 21 6 22 7 23 8 24 9 25 10 26 11
REMARK SMILES IDX 27 12 28 13 29 14 30 15 31 16 32 17 15 18 14 19 13 20 12 21
REMARK SMILES IDX 11 22 10 23 9 24 8 25 7 26 6 27 5 28 4 29 3 30 2 31 1 32
REMARK H PARENT
REMARK Flexibility Score: inf
ROOT
ATOM      1  C   UNL     1      16.659   5.688  -6.390  1.00  0.00     0.000 C 
ENDROOT
BRANCH   1   2
ATOM      2  C   UNL     1      15.274   5.098  -6.702  1.00  0.00     0.000 C 
BRANCH   2   3
ATOM      3  C   UNL     1      15.228   3.570  -6.491  1.00  0.00     0.000 C 
BRANCH   3   4
ATOM      4  C   UNL     1      16.453   2.820  -7.052  1.00  0.00     0.000 C 
BRANCH   4   5
ATOM      5  C   UNL     1      17.095   1.801  -6.098  1.00  0.00     0.000 C 
BRANCH   5   6
ATOM      6  C   UNL     1      18.213   2.407  -5.232  1.00  0.00     0.000 C 
BRANCH   6   7
ATOM      7  C   UNL     1      17.916   2.301  -3.726  1.00  0.00     0.000 C 
BRANCH   7   8
ATOM      8  C   UNL     1      17.867   3.668  -3.013  1.00  0.00     0.000 C 
BRANCH   8   9
ATOM      9  C   UNL     1      19.180   4.449  -3.168  1.00  0.00     0.000 C 
BRANCH   9  10
ATOM     10  C   UNL     1      19.479   5.271  -1.905  1.00  0.00     0.000 C 
BRANCH  10  11
ATOM     11  C   UNL     1      19.712   4.395  -0.665  1.00  0.00     0.000 C 
BRANCH  11  12
ATOM     12  C   UNL     1      19.597   5.188   0.649  1.00  0.00     0.000 C 
BRANCH  12  13
ATOM     13  C   UNL     1      19.107   4.322   1.821  1.00  0.00     0.006 C 
BRANCH  13  14
ATOM     14  C   UNL     1      17.586   4.119   1.812  1.00  0.00     0.053 C 
BRANCH  14  15
ATOM     15  C   UNL     1      17.252   2.677   1.599  1.00  0.00     0.041 C 
ATOM     16  O   UNL     1      18.082   1.907   1.047  1.00  0.00    -0.550 OA
ATOM     17  O   UNL     1      16.037   2.171   2.045  1.00  0.00    -0.550 OA
ENDBRANCH  14  15
ENDBRANCH  13  14
ENDBRANCH  12  13
ENDBRANCH  11  12
ENDBRANCH  10  11
ENDBRANCH   9  10
ENDBRANCH   8   9
ENDBRANCH   7   8
ENDBRANCH   6   7
ENDBRANCH   5   6
ENDBRANCH   4   5
ENDBRANCH   3   4
ENDBRANCH   2   3
ENDBRANCH   1   2
BRANCH   1  18
ATOM     18  C   UNL     1      17.530   5.873  -7.645  1.00  0.00     0.000 C 
BRANCH  18  19
ATOM     19  C   UNL     1      18.984   5.381  -7.504  1.00  0.00     0.000 C 
BRANCH  19  20
ATOM     20  C   UNL     1      20.055   6.491  -7.446  1.00  0.00     0.000 C 
BRANCH  20  21
ATOM     21  C   UNL     1      19.536   7.885  -7.049  1.00  0.00     0.000 C 
BRANCH  21  22
ATOM     22  C   UNL     1      20.125   9.016  -7.906  1.00  0.00     0.000 C 
BRANCH  22  23
ATOM     23  C   UNL     1      19.813  10.387  -7.292  1.00  0.00     0.000 C 
BRANCH  23  24
ATOM     24  C   UNL     1      18.302  10.590  -7.134  1.00  0.00    -0.000 C 
BRANCH  24  25
ATOM     25  C   UNL     1      17.978  11.387  -5.864  1.00  0.00    -0.000 C 
BRANCH  25  26
ATOM     26  C   UNL     1      18.927  12.580  -5.643  1.00  0.00    -0.000 C 
BRANCH  26  27
ATOM     27  C   UNL     1      18.234  13.956  -5.745  1.00  0.00    -0.000 C 
BRANCH  27  28
ATOM     28  C   UNL     1      16.703  13.855  -5.606  1.00  0.00    -0.000 C 
BRANCH  28  29
ATOM     29  C   UNL     1      15.956  14.264  -6.888  1.00  0.00    -0.000 C 
BRANCH  29  30
ATOM     30  C   UNL     1      15.018  13.188  -7.467  1.00  0.00    -0.000 C 
BRANCH  30  31
ATOM     31  C   UNL     1      15.208  12.976  -8.976  1.00  0.00    -0.003 C 
ATOM     32  C   UNL     1      16.670  13.150  -9.378  1.00  0.00     0.004 C 
ENDBRANCH  30  31
ENDBRANCH  29  30
ENDBRANCH  28  29
ENDBRANCH  27  28
ENDBRANCH  26  27
ENDBRANCH  25  26
ENDBRANCH  24  25
ENDBRANCH  23  24
ENDBRANCH  22  23
ENDBRANCH  21  22
ENDBRANCH  20  21
ENDBRANCH  19  20
ENDBRANCH  18  19
ENDBRANCH   1  18
TORSDOF 28
ENDMDL
MODEL 7
REMARK VINA RESULT:    -3.584      1.112      2.046
REMARK INTER + INTRA:         -12.650
REMARK INTER:                 -10.231
REMARK INTRA:                  -2.419
REMARK UNBOUND:                -3.199
REMARK SMILES CCCCCCCCCCCCCCCCCCCCCCCCCCCCCC(=O)[O-]
REMARK SMILES IDX 16 1 17 2 18 3 19 4 20 5 21 6 22 7 23 8 24 9 25 10 26 11
REMARK SMILES IDX 27 12 28 13 29 14 30 15 31 16 32 17 15 18 14 19 13 20 12 21
REMARK SMILES IDX 11 22 10 23 9 24 8 25 7 26 6 27 5 28 4 29 3 30 2 31 1 32
REMARK H PARENT
REMARK Flexibility Score: inf
ROOT
ATOM      1  C   UNL     1      15.762   4.291  -6.731  1.00  0.00     0.000 C 
ENDROOT
BRANCH   1   2
ATOM      2  C   UNL     1      16.318   3.659  -5.443  1.00  0.00     0.000 C 
BRANCH   2   3
ATOM      3  C   UNL     1      16.767   2.198  -5.655  1.00  0.00     0.000 C 
BRANCH   3   4
ATOM      4  C   UNL     1      17.572   1.969  -6.950  1.00  0.00     0.000 C 
BRANCH   4   5
ATOM      5  C   UNL     1      18.760   2.920  -7.164  1.00  0.00     0.000 C 
BRANCH   5   6
ATOM      6  C   UNL     1      20.045   2.449  -6.461  1.00  0.00     0.000 C 
BRANCH   6   7
ATOM      7  C   UNL     1      19.904   2.424  -4.929  1.00  0.00     0.000 C 
BRANCH   7   8
ATOM      8  C   UNL     1      19.817   3.829  -4.297  1.00  0.00     0.000 C 
BRANCH   8   9
ATOM      9  C   UNL     1      19.628   3.768  -2.774  1.00  0.00     0.000 C 
BRANCH   9  10
ATOM     10  C   UNL     1      18.340   3.011  -2.413  1.00  0.00     0.000 C 
BRANCH  10  11
ATOM     11  C   UNL     1      17.318   3.891  -1.678  1.00  0.00     0.000 C 
BRANCH  11  12
ATOM     12  C   UNL     1      16.610   3.144  -0.534  1.00  0.00     0.000 C 
BRANCH  12  13
ATOM     13  C   UNL     1      17.491   3.007   0.718  1.00  0.00     0.006 C 
BRANCH  13  14
ATOM     14  C   UNL     1      18.474   4.174   0.881  1.00  0.00     0.053 C 
BRANCH  14  15
ATOM     15  C   UNL     1      18.226   4.890   2.171  1.00  0.00     0.041 C 
ATOM     16  O   UNL     1      17.506   4.365   3.060  1.00  0.00    -0.550 OA
ATOM     17  O   UNL     1      18.822   6.123   2.407  1.00  0.00    -0.550 OA
ENDBRANCH  14  15
ENDBRANCH  13  14
ENDBRANCH  12  13
ENDBRANCH  11  12
ENDBRANCH  10  11
ENDBRANCH   9  10
ENDBRANCH   8   9
ENDBRANCH   7   8
ENDBRANCH   6   7
ENDBRANCH   5   6
ENDBRANCH   4   5
ENDBRANCH   3   4
ENDBRANCH   2   3
ENDBRANCH   1   2
BRANCH   1  18
ATOM     18  C   UNL     1      16.211   5.750  -6.925  1.00  0.00     0.000 C 
BRANCH  18  19
ATOM     19  C   UNL     1      17.518   5.925  -7.725  1.00  0.00     0.000 C 
BRANCH  19  20
ATOM     20  C   UNL     1      18.768   6.260  -6.884  1.00  0.00     0.000 C 
BRANCH  20  21
ATOM     21  C   UNL     1      19.798   7.173  -7.572  1.00  0.00     0.000 C 
BRANCH  21  22
ATOM     22  C   UNL     1      20.031   8.494  -6.823  1.00  0.00     0.000 C 
BRANCH  22  23
ATOM     23  C   UNL     1      20.118   9.671  -7.804  1.00  0.00     0.000 C 
BRANCH  23  24
ATOM     24  C   UNL     1      19.079  10.746  -7.468  1.00  0.00    -0.000 C 
BRANCH  24  25
ATOM     25  C   UNL     1      18.826  10.822  -5.957  1.00  0.00    -0.000 C 
BRANCH  25  26
ATOM     26  C   UNL     1      19.800  11.767  -5.229  1.00  0.00    -0.000 C 
BRANCH  26  27
ATOM     27  C   UNL     1      19.454  13.264  -5.389  1.00  0.00    -0.000 C 
BRANCH  27  28
ATOM     28  C   UNL     1      18.194  13.664  -4.600  1.00  0.00    -0.000 C 
BRANCH  28  29
ATOM     29  C   UNL     1      17.491  14.905  -5.178  1.00  0.00    -0.000 C 
BRANCH  29  30
ATOM     30  C   UNL     1      16.197  14.615  -5.961  1.00  0.00    -0.000 C 
BRANCH  30  31
ATOM     31  C   UNL     1      16.189  13.224  -6.611  1.00  0.00    -0.003 C 
ATOM     32  C   UNL     1      14.977  13.050  -7.524  1.00  0.00     0.004 C 
ENDBRANCH  30  31
ENDBRANCH  29  30
ENDBRANCH  28  29
ENDBRANCH  27  28
ENDBRANCH  26  27
ENDBRANCH  25  26
ENDBRANCH  24  25
ENDBRANCH  23  24
ENDBRANCH  22  23
ENDBRANCH  21  22
ENDBRANCH  20  21
ENDBRANCH  19  20
ENDBRANCH  18  19
ENDBRANCH   1  18
TORSDOF 28
ENDMDL
MODEL 8
REMARK VINA RESULT:    -3.445      3.222     10.346
REMARK INTER + INTRA:         -12.284
REMARK INTER:                  -9.064
REMARK INTRA:                  -3.220
REMARK UNBOUND:                -3.199
REMARK SMILES CCCCCCCCCCCCCCCCCCCCCCCCCCCCCC(=O)[O-]
REMARK SMILES IDX 16 1 17 2 18 3 19 4 20 5 21 6 22 7 23 8 24 9 25 10 26 11
REMARK SMILES IDX 27 12 28 13 29 14 30 15 31 16 32 17 15 18 14 19 13 20 12 21
REMARK SMILES IDX 11 22 10 23 9 24 8 25 7 26 6 27 5 28 4 29 3 30 2 31 1 32
REMARK H PARENT
REMARK Flexibility Score: inf
ROOT
ATOM      1  C   UNL     1      19.428  10.397  -6.850  1.00  0.00     0.000 C 
ENDROOT
BRANCH   1   2
ATOM      2  C   UNL     1      19.068  11.362  -7.993  1.00  0.00     0.000 C 
BRANCH   2   3
ATOM      3  C   UNL     1      20.097  12.503  -8.142  1.00  0.00     0.000 C 
BRANCH   3   4
ATOM      4  C   UNL     1      19.767  13.503  -9.269  1.00  0.00     0.000 C 
BRANCH   4   5
ATOM      5  C   UNL     1      18.405  13.300  -9.951  1.00  0.00     0.000 C 
BRANCH   5   6
ATOM      6  C   UNL     1      17.529  14.565  -9.938  1.00  0.00     0.000 C 
BRANCH   6   7
ATOM      7  C   UNL     1      16.063  14.264  -9.585  1.00  0.00     0.000 C 
BRANCH   7   8
ATOM      8  C   UNL     1      15.849  12.852  -9.003  1.00  0.00     0.000 C 
BRANCH   8   9
ATOM      9  C   UNL     1      15.250  12.893  -7.589  1.00  0.00     0.000 C 
BRANCH   9  10
ATOM     10  C   UNL     1      16.298  13.356  -6.565  1.00  0.00     0.000 C 
BRANCH  10  11
ATOM     11  C   UNL     1      16.011  14.760  -6.011  1.00  0.00     0.000 C 
BRANCH  11  12
ATOM     12  C   UNL     1      17.264  15.428  -5.418  1.00  0.00     0.000 C 
BRANCH  12  13
ATOM     13  C   UNL     1      18.531  15.147  -6.243  1.00  0.00     0.006 C 
BRANCH  13  14
ATOM     14  C   UNL     1      19.791  15.038  -5.376  1.00  0.00     0.053 C 
BRANCH  14  15
ATOM     15  C   UNL     1      19.575  14.067  -4.258  1.00  0.00     0.041 C 
ATOM     16  O   UNL     1      19.569  14.465  -3.064  1.00  0.00    -0.550 OA
ATOM     17  O   UNL     1      19.340  12.727  -4.538  1.00  0.00    -0.550 OA
ENDBRANCH  14  15
ENDBRANCH  13  14
ENDBRANCH  12  13
ENDBRANCH  11  12
ENDBRANCH  10  11
ENDBRANCH   9  10
ENDBRANCH   8   9
ENDBRANCH   7   8
ENDBRANCH   6   7
ENDBRANCH   5   6
ENDBRANCH   4   5
ENDBRANCH   3   4
ENDBRANCH   2   3
ENDBRANCH   1   2
BRANCH   1  18
ATOM     18  C   UNL     1      19.032   8.941  -7.147  1.00  0.00     0.000 C 
BRANCH  18  19
ATOM     19  C   UNL     1      20.104   8.115  -7.887  1.00  0.00     0.000 C 
BRANCH  19  20
ATOM     20  C   UNL     1      19.999   6.585  -7.713  1.00  0.00     0.000 C 
BRANCH  20  21
ATOM     21  C   UNL     1      18.756   6.095  -6.948  1.00  0.00     0.000 C 
BRANCH  21  22
ATOM     22  C   UNL     1      17.946   5.044  -7.721  1.00  0.00     0.000 C 
BRANCH  22  23
ATOM     23  C   UNL     1      18.022   3.677  -7.029  1.00  0.00     0.000 C 
BRANCH  23  24
ATOM     24  C   UNL     1      18.908   3.740  -5.779  1.00  0.00    -0.000 C 
BRANCH  24  25
ATOM     25  C   UNL     1      18.924   2.395  -5.042  1.00  0.00    -0.000 C 
BRANCH  25  26
ATOM     26  C   UNL     1      18.639   2.531  -3.534  1.00  0.00    -0.000 C 
BRANCH  26  27
ATOM     27  C   UNL     1      18.075   3.910  -3.128  1.00  0.00    -0.000 C 
BRANCH  27  28
ATOM     28  C   UNL     1      19.056   4.711  -2.253  1.00  0.00    -0.000 C 
BRANCH  28  29
ATOM     29  C   UNL     1      18.416   5.231  -0.953  1.00  0.00    -0.000 C 
BRANCH  29  30
ATOM     30  C   UNL     1      18.148   4.155   0.116  1.00  0.00    -0.000 C 
BRANCH  30  31
ATOM     31  C   UNL     1      18.072   4.729   1.538  1.00  0.00    -0.003 C 
ATOM     32  C   UNL     1      18.460   6.205   1.558  1.00  0.00     0.004 C 
ENDBRANCH  30  31
ENDBRANCH  29  30
ENDBRANCH  28  29
ENDBRANCH  27  28
ENDBRANCH  26  27
ENDBRANCH  25  26
ENDBRANCH  24  25
ENDBRANCH  23  24
ENDBRANCH  22  23
ENDBRANCH  21  22
ENDBRANCH  20  21
ENDBRANCH  19  20
ENDBRANCH  18  19
ENDBRANCH   1  18
TORSDOF 28
ENDMDL
MODEL 9
REMARK VINA RESULT:    -3.415      4.028     10.629
REMARK INTER + INTRA:         -12.203
REMARK INTER:                  -9.229
REMARK INTRA:                  -2.974
REMARK UNBOUND:                -3.199
REMARK SMILES CCCCCCCCCCCCCCCCCCCCCCCCCCCCCC(=O)[O-]
REMARK SMILES IDX 16 1 17 2 18 3 19 4 20 5 21 6 22 7 23 8 24 9 25 10 26 11
REMARK SMILES IDX 27 12 28 13 29 14 30 15 31 16 32 17 15 18 14 19 13 20 12 21
REMARK SMILES IDX 11 22 10 23 9 24 8 25 7 26 6 27 5 28 4 29 3 30 2 31 1 32
REMARK H PARENT
REMARK Flexibility Score: inf
ROOT
ATOM      1  C   UNL     1      19.781   6.957  -7.070  1.00  0.00     0.000 C 
ENDROOT
BRANCH   1   2
ATOM      2  C   UNL     1      20.125   8.302  -7.732  1.00  0.00     0.000 C 
BRANCH   2   3
ATOM      3  C   UNL     1      19.275   9.463  -7.174  1.00  0.00     0.000 C 
BRANCH   3   4
ATOM      4  C   UNL     1      19.855  10.862  -7.464  1.00  0.00     0.000 C 
BRANCH   4   5
ATOM      5  C   UNL     1      19.008  11.747  -8.392  1.00  0.00     0.000 C 
BRANCH   5   6
ATOM      6  C   UNL     1      19.813  12.887  -9.040  1.00  0.00     0.000 C 
BRANCH   6   7
ATOM      7  C   UNL     1      18.913  13.926  -9.731  1.00  0.00     0.000 C 
BRANCH   7   8
ATOM      8  C   UNL     1      18.856  15.278  -8.992  1.00  0.00     0.000 C 
BRANCH   8   9
ATOM      9  C   UNL     1      19.593  15.233  -7.645  1.00  0.00     0.000 C 
BRANCH   9  10
ATOM     10  C   UNL     1      18.596  15.166  -6.478  1.00  0.00     0.000 C 
BRANCH  10  11
ATOM     11  C   UNL     1      18.822  13.948  -5.570  1.00  0.00     0.000 C 
BRANCH  11  12
ATOM     12  C   UNL     1      17.505  13.270  -5.152  1.00  0.00     0.000 C 
BRANCH  12  13
ATOM     13  C   UNL     1      16.315  13.704  -6.022  1.00  0.00     0.006 C 
BRANCH  13  14
ATOM     14  C   UNL     1      15.951  12.665  -7.090  1.00  0.00     0.053 C 
BRANCH  14  15
ATOM     15  C   UNL     1      15.079  13.278  -8.140  1.00  0.00     0.041 C 
ATOM     16  O   UNL     1      13.895  13.609  -7.869  1.00  0.00    -0.550 OA
ATOM     17  O   UNL     1      15.586  13.518  -9.411  1.00  0.00    -0.550 OA
ENDBRANCH  14  15
ENDBRANCH  13  14
ENDBRANCH  12  13
ENDBRANCH  11  12
ENDBRANCH  10  11
ENDBRANCH   9  10
ENDBRANCH   8   9
ENDBRANCH   7   8
ENDBRANCH   6   7
ENDBRANCH   5   6
ENDBRANCH   4   5
ENDBRANCH   3   4
ENDBRANCH   2   3
ENDBRANCH   1   2
BRANCH   1  18
ATOM     18  C   UNL     1      18.432   6.386  -7.538  1.00  0.00     0.000 C 
BRANCH  18  19
ATOM     19  C   UNL     1      17.837   5.296  -6.624  1.00  0.00     0.000 C 
BRANCH  19  20
ATOM     20  C   UNL     1      17.634   3.916  -7.284  1.00  0.00     0.000 C 
BRANCH  20  21
ATOM     21  C   UNL     1      18.307   2.735  -6.560  1.00  0.00     0.000 C 
BRANCH  21  22
ATOM     22  C   UNL     1      19.688   3.086  -5.988  1.00  0.00     0.000 C 
BRANCH  22  23
ATOM     23  C   UNL     1      19.704   2.929  -4.462  1.00  0.00     0.000 C 
BRANCH  23  24
ATOM     24  C   UNL     1      19.921   4.279  -3.770  1.00  0.00    -0.000 C 
BRANCH  24  25
ATOM     25  C   UNL     1      19.037   4.413  -2.524  1.00  0.00    -0.000 C 
BRANCH  25  26
ATOM     26  C   UNL     1      17.775   3.532  -2.582  1.00  0.00    -0.000 C 
BRANCH  26  27
ATOM     27  C   UNL     1      17.536   2.698  -1.304  1.00  0.00    -0.000 C 
BRANCH  27  28
ATOM     28  C   UNL     1      17.090   3.565  -0.112  1.00  0.00    -0.000 C 
BRANCH  28  29
ATOM     29  C   UNL     1      18.065   3.500   1.076  1.00  0.00    -0.000 C 
BRANCH  29  30
ATOM     30  C   UNL     1      17.498   4.010   2.414  1.00  0.00    -0.000 C 
BRANCH  30  31
ATOM     31  C   UNL     1      18.334   5.141   3.028  1.00  0.00    -0.003 C 
ATOM     32  C   UNL     1      19.177   5.842   1.966  1.00  0.00     0.004 C 
ENDBRANCH  30  31
ENDBRANCH  29  30
ENDBRANCH  28  29
ENDBRANCH  27  28
ENDBRANCH  26  27
ENDBRANCH  25  26
ENDBRANCH  24  25
ENDBRANCH  23  24
ENDBRANCH  22  23
ENDBRANCH  21  22
ENDBRANCH  20  21
ENDBRANCH  19  20
ENDBRANCH  18  19
ENDBRANCH   1  18
TORSDOF 28
ENDMDL
