MODEL 1
REMARK VINA RESULT:   102.400      0.000      0.000
REMARK INTER + INTRA:         111.330
REMARK INTER:                 111.379
REMARK INTRA:                  -0.049
REMARK UNBOUND:                -0.049
REMARK SMILES C[C@H]1[C@@H](C)CC[C@@]2(C(=O)[O-])CC[C@]3(C)C(=CC[C@@H]4[C@]5(C)CC[C@@H](O)C(C)(C)[C@@H]5CC[C@@]43C)[C@@H]12
REMARK SMILES IDX 7 1 6 2 11 3 33 4 5 5 12 6 15 7 2 8 3 9 13 10 16 11 1 12
REMARK SMILES IDX 4 13 14 14 31 15 17 16 18 17 30 18 32 19 19 20 29 21 28 22
REMARK SMILES IDX 21 23 20 24 25 25 22 26 23 27 26 28 27 29 8 30 9 31 10 32
REMARK SMILES IDX 24 33
REMARK H PARENT 24 34
REMARK Flexibility Score: inf
ROOT
ATOM      1  C   UNL     1      27.584  28.741   1.609  1.00  0.00     0.017 C 
ATOM      2  C   UNL     1      27.291  27.381   0.906  1.00  0.00     0.014 C 
ATOM      3  C   UNL     1      27.589  29.848   0.527  1.00  0.00     0.014 C 
ATOM      4  C   UNL     1      26.516  29.014   2.776  1.00  0.00     0.030 C 
ATOM      5  C   UNL     1      27.313  26.168   1.858  1.00  0.00     0.004 C 
ATOM      6  C   UNL     1      26.190  30.346   0.174  1.00  0.00     0.013 C 
ATOM      7  C   UNL     1      25.450  30.119   2.542  1.00  0.00    -0.063 C 
ATOM      8  C   UNL     1      25.885  27.681   3.356  1.00  0.00    -0.003 C 
ATOM      9  C   UNL     1      26.913  26.521   3.304  1.00  0.00    -0.011 C 
ATOM     10  C   UNL     1      25.485  31.084   1.358  1.00  0.00    -0.006 C 
ATOM     11  C   UNL     1      24.638  30.419   3.571  1.00  0.00    -0.027 C 
ATOM     12  C   UNL     1      24.522  27.281   2.735  1.00  0.00     0.008 C 
ATOM     13  C   UNL     1      26.461  25.267   4.072  1.00  0.00     0.008 C 
ATOM     14  C   UNL     1      26.384  32.287   1.796  1.00  0.00     0.017 C 
ATOM     15  C   UNL     1      24.004  31.611   0.964  1.00  0.00    -0.020 C 
ATOM     16  C   UNL     1      23.352  31.160   3.419  1.00  0.00     0.032 C 
ATOM     17  C   UNL     1      23.233  32.158   2.236  1.00  0.00     0.006 C 
ATOM     18  C   UNL     1      23.143  30.458   0.390  1.00  0.00     0.008 C 
ATOM     19  C   UNL     1      24.152  32.736  -0.112  1.00  0.00     0.012 C 
ATOM     20  C   UNL     1      21.712  32.642   2.003  1.00  0.00    -0.025 C 
ATOM     21  C   UNL     1      21.714  30.847  -0.005  1.00  0.00     0.005 C 
ATOM     22  C   UNL     1      20.881  31.732   0.983  1.00  0.00     0.003 C 
ATOM     23  C   UNL     1      20.960  32.763   3.383  1.00  0.00     0.010 C 
ATOM     24  C   UNL     1      21.736  34.117   1.466  1.00  0.00     0.012 C 
ATOM     25  C   UNL     1      19.591  31.006   1.557  1.00  0.00    -0.006 C 
ATOM     26  C   UNL     1      19.456  33.013   3.287  1.00  0.00     0.033 C 
ATOM     27  C   UNL     1      18.700  32.021   2.371  1.00  0.00     0.120 C 
ATOM     28  C   UNL     1      18.711  30.452   0.389  1.00  0.00     0.014 C 
ATOM     29  C   UNL     1      19.950  29.778   2.440  1.00  0.00     0.014 C 
ENDROOT
BRANCH   1  30
ATOM     30  C   UNL     1      29.022  28.671   2.132  1.00  0.00     0.048 C 
ATOM     31  O   UNL     1      29.283  28.615   3.367  1.00  0.00    -0.550 OA
ATOM     32  O   UNL     1      30.084  28.728   1.232  1.00  0.00    -0.550 OA
ENDBRANCH   1  30
BRANCH  27  33
ATOM     33  O   UNL     1      17.831  32.747   1.531  1.00  0.00    -0.393 OA
ATOM     34  H   UNL     1      16.904  32.462   1.736  1.00  0.00     0.210 HD
ENDBRANCH  27  33
TORSDOF 2
ENDMDL
