MODEL 1
REMARK VINA RESULT:    -3.552      0.000      0.000
REMARK INTER + INTRA:          -7.120
REMARK INTER:                  -6.459
REMARK INTRA:                  -0.661
REMARK UNBOUND:                -0.661
REMARK SMILES CCCCCCCCCCCCCCCC(=O)[O-]
REMARK SMILES IDX 9 1 10 2 11 3 12 4 13 5 14 6 15 7 16 8 17 9 18 10 8 11 7 12
REMARK SMILES IDX 6 13 5 14 4 15 3 16 2 17 1 18
REMARK H PARENT
REMARK Flexibility Score: inf
ROOT
ATOM      1  C   UNL     1     121.199  70.193   0.361  1.00  0.00     0.000 C 
ENDROOT
BRANCH   1   2
ATOM      2  C   UNL     1     120.731  69.979  -1.083  1.00  0.00     0.000 C 
BRANCH   2   3
ATOM      3  C   UNL     1     120.187  68.556  -1.280  1.00  0.00     0.000 C 
BRANCH   3   4
ATOM      4  C   UNL     1     119.944  68.215  -2.758  1.00  0.00     0.000 C 
BRANCH   4   5
ATOM      5  C   UNL     1     119.990  69.456  -3.667  1.00  0.00     0.000 C 
BRANCH   5   6
ATOM      6  C   UNL     1     120.275  69.102  -5.136  1.00  0.00     0.006 C 
BRANCH   6   7
ATOM      7  C   UNL     1     120.074  67.611  -5.432  1.00  0.00     0.053 C 
BRANCH   7   8
ATOM      8  C   UNL     1     120.658  67.261  -6.764  1.00  0.00     0.041 C 
ATOM      9  O   UNL     1     120.389  66.155  -7.304  1.00  0.00    -0.550 OA
ATOM     10  O   UNL     1     121.461  68.176  -7.432  1.00  0.00    -0.550 OA
ENDBRANCH   7   8
ENDBRANCH   6   7
ENDBRANCH   5   6
ENDBRANCH   4   5
ENDBRANCH   3   4
ENDBRANCH   2   3
ENDBRANCH   1   2
BRANCH   1  11
ATOM     11  C   UNL     1     120.462  71.370   1.010  1.00  0.00     0.000 C 
BRANCH  11  12
ATOM     12  C   UNL     1     121.311  72.012   2.114  1.00  0.00    -0.000 C 
BRANCH  12  13
ATOM     13  C   UNL     1     120.519  73.098   2.856  1.00  0.00    -0.000 C 
BRANCH  13  14
ATOM     14  C   UNL     1     119.883  72.589   4.163  1.00  0.00    -0.000 C 
BRANCH  14  15
ATOM     15  C   UNL     1     120.161  71.110   4.491  1.00  0.00    -0.000 C 
BRANCH  15  16
ATOM     16  C   UNL     1     120.508  70.823   5.964  1.00  0.00    -0.000 C 
BRANCH  16  17
ATOM     17  C   UNL     1     120.520  72.082   6.856  1.00  0.00    -0.003 C 
ATOM     18  C   UNL     1     119.975  71.814   8.259  1.00  0.00     0.004 C 
ENDBRANCH  16  17
ENDBRANCH  15  16
ENDBRANCH  14  15
ENDBRANCH  13  14
ENDBRANCH  12  13
ENDBRANCH  11  12
ENDBRANCH   1  11
TORSDOF 14
ENDMDL
MODEL 2
REMARK VINA RESULT:    -3.526      5.527     11.067
REMARK INTER + INTRA:          -7.073
REMARK INTER:                  -6.649
REMARK INTRA:                  -0.423
REMARK UNBOUND:                -0.661
REMARK SMILES CCCCCCCCCCCCCCCC(=O)[O-]
REMARK SMILES IDX 9 1 10 2 11 3 12 4 13 5 14 6 15 7 16 8 17 9 18 10 8 11 7 12
REMARK SMILES IDX 6 13 5 14 4 15 3 16 2 17 1 18
REMARK H PARENT
REMARK Flexibility Score: inf
ROOT
ATOM      1  C   UNL     1     120.524  70.214   0.460  1.00  0.00     0.000 C 
ENDROOT
BRANCH   1   2
ATOM      2  C   UNL     1     119.988  71.402   1.268  1.00  0.00     0.000 C 
BRANCH   2   3
ATOM      3  C   UNL     1     121.021  71.875   2.302  1.00  0.00     0.000 C 
BRANCH   3   4
ATOM      4  C   UNL     1     120.370  72.393   3.593  1.00  0.00     0.000 C 
BRANCH   4   5
ATOM      5  C   UNL     1     119.966  71.257   4.550  1.00  0.00     0.000 C 
BRANCH   5   6
ATOM      6  C   UNL     1     120.931  71.114   5.738  1.00  0.00     0.006 C 
BRANCH   6   7
ATOM      7  C   UNL     1     120.202  71.076   7.088  1.00  0.00     0.053 C 
BRANCH   7   8
ATOM      8  C   UNL     1     120.375  72.375   7.810  1.00  0.00     0.041 C 
ATOM      9  O   UNL     1     120.261  73.465   7.190  1.00  0.00    -0.550 OA
ATOM     10  O   UNL     1     120.614  72.382   9.178  1.00  0.00    -0.550 OA
ENDBRANCH   7   8
ENDBRANCH   6   7
ENDBRANCH   5   6
ENDBRANCH   4   5
ENDBRANCH   3   4
ENDBRANCH   2   3
ENDBRANCH   1   2
BRANCH   1  11
ATOM     11  C   UNL     1     119.880  70.158  -0.930  1.00  0.00     0.000 C 
BRANCH  11  12
ATOM     12  C   UNL     1     119.928  68.736  -1.503  1.00  0.00    -0.000 C 
BRANCH  12  13
ATOM     13  C   UNL     1     120.123  68.763  -3.025  1.00  0.00    -0.000 C 
BRANCH  13  14
ATOM     14  C   UNL     1     120.027  67.366  -3.667  1.00  0.00    -0.000 C 
BRANCH  14  15
ATOM     15  C   UNL     1     120.157  67.344  -5.202  1.00  0.00    -0.000 C 
BRANCH  15  16
ATOM     16  C   UNL     1     121.086  66.249  -5.761  1.00  0.00    -0.000 C 
BRANCH  16  17
ATOM     17  C   UNL     1     121.195  66.254  -7.301  1.00  0.00    -0.003 C 
ATOM     18  C   UNL     1     121.312  67.664  -7.879  1.00  0.00     0.004 C 
ENDBRANCH  16  17
ENDBRANCH  15  16
ENDBRANCH  14  15
ENDBRANCH  13  14
ENDBRANCH  12  13
ENDBRANCH  11  12
ENDBRANCH   1  11
TORSDOF 14
ENDMDL
MODEL 3
REMARK VINA RESULT:    -3.488      1.029      1.641
REMARK INTER + INTRA:          -7.004
REMARK INTER:                  -6.793
REMARK INTRA:                  -0.211
REMARK UNBOUND:                -0.661
REMARK SMILES CCCCCCCCCCCCCCCC(=O)[O-]
REMARK SMILES IDX 9 1 10 2 11 3 12 4 13 5 14 6 15 7 16 8 17 9 18 10 8 11 7 12
REMARK SMILES IDX 6 13 5 14 4 15 3 16 2 17 1 18
REMARK H PARENT
REMARK Flexibility Score: inf
ROOT
ATOM      1  C   UNL     1     121.132  68.915  -0.269  1.00  0.00     0.000 C 
ENDROOT
BRANCH   1   2
ATOM      2  C   UNL     1     119.937  68.924  -1.230  1.00  0.00     0.000 C 
BRANCH   2   3
ATOM      3  C   UNL     1     120.234  69.779  -2.470  1.00  0.00     0.000 C 
BRANCH   3   4
ATOM      4  C   UNL     1     119.875  69.064  -3.782  1.00  0.00     0.000 C 
BRANCH   4   5
ATOM      5  C   UNL     1     120.688  69.584  -4.981  1.00  0.00     0.000 C 
BRANCH   5   6
ATOM      6  C   UNL     1     120.303  68.893  -6.299  1.00  0.00     0.006 C 
BRANCH   6   7
ATOM      7  C   UNL     1     121.051  67.570  -6.512  1.00  0.00     0.053 C 
BRANCH   7   8
ATOM      8  C   UNL     1     121.248  67.311  -7.971  1.00  0.00     0.041 C 
ATOM      9  O   UNL     1     122.190  67.870  -8.593  1.00  0.00    -0.550 OA
ATOM     10  O   UNL     1     120.419  66.416  -8.636  1.00  0.00    -0.550 OA
ENDBRANCH   7   8
ENDBRANCH   6   7
ENDBRANCH   5   6
ENDBRANCH   4   5
ENDBRANCH   3   4
ENDBRANCH   2   3
ENDBRANCH   1   2
BRANCH   1  11
ATOM     11  C   UNL     1     121.330  70.292   0.376  1.00  0.00     0.000 C 
BRANCH  11  12
ATOM     12  C   UNL     1     120.029  71.104   0.351  1.00  0.00    -0.000 C 
BRANCH  12  13
ATOM     13  C   UNL     1     119.875  71.935   1.633  1.00  0.00    -0.000 C 
BRANCH  13  14
ATOM     14  C   UNL     1     120.837  71.495   2.752  1.00  0.00    -0.000 C 
BRANCH  14  15
ATOM     15  C   UNL     1     120.506  72.048   4.151  1.00  0.00    -0.000 C 
BRANCH  15  16
ATOM     16  C   UNL     1     120.647  71.035   5.303  1.00  0.00    -0.000 C 
BRANCH  16  17
ATOM     17  C   UNL     1     120.038  71.520   6.636  1.00  0.00    -0.003 C 
ATOM     18  C   UNL     1     121.049  71.512   7.782  1.00  0.00     0.004 C 
ENDBRANCH  16  17
ENDBRANCH  15  16
ENDBRANCH  14  15
ENDBRANCH  13  14
ENDBRANCH  12  13
ENDBRANCH  11  12
ENDBRANCH   1  11
TORSDOF 14
ENDMDL
MODEL 4
REMARK VINA RESULT:    -3.462      4.568     10.153
REMARK INTER + INTRA:          -6.956
REMARK INTER:                  -6.326
REMARK INTRA:                  -0.630
REMARK UNBOUND:                -0.661
REMARK SMILES CCCCCCCCCCCCCCCC(=O)[O-]
REMARK SMILES IDX 9 1 10 2 11 3 12 4 13 5 14 6 15 7 16 8 17 9 18 10 8 11 7 12
REMARK SMILES IDX 6 13 5 14 4 15 3 16 2 17 1 18
REMARK H PARENT
REMARK Flexibility Score: inf
ROOT
ATOM      1  C   UNL     1     119.875  69.652  -1.171  1.00  0.00     0.000 C 
ENDROOT
BRANCH   1   2
ATOM      2  C   UNL     1     120.691  69.422   0.107  1.00  0.00     0.000 C 
BRANCH   2   3
ATOM      3  C   UNL     1     121.170  70.754   0.701  1.00  0.00     0.000 C 
BRANCH   3   4
ATOM      4  C   UNL     1     120.209  71.915   0.402  1.00  0.00     0.000 C 
BRANCH   4   5
ATOM      5  C   UNL     1     119.876  72.745   1.655  1.00  0.00     0.000 C 
BRANCH   5   6
ATOM      6  C   UNL     1     120.843  72.471   2.818  1.00  0.00     0.006 C 
BRANCH   6   7
ATOM      7  C   UNL     1     120.125  72.370   4.170  1.00  0.00     0.053 C 
BRANCH   7   8
ATOM      8  C   UNL     1     120.836  71.407   5.067  1.00  0.00     0.041 C 
ATOM      9  O   UNL     1     121.826  70.755   4.640  1.00  0.00    -0.550 OA
ATOM     10  O   UNL     1     120.435  71.264   6.389  1.00  0.00    -0.550 OA
ENDBRANCH   7   8
ENDBRANCH   6   7
ENDBRANCH   5   6
ENDBRANCH   4   5
ENDBRANCH   3   4
ENDBRANCH   2   3
ENDBRANCH   1   2
BRANCH   1  11
ATOM     11  C   UNL     1     120.790  69.751  -2.398  1.00  0.00     0.000 C 
BRANCH  11  12
ATOM     12  C   UNL     1     120.017  69.444  -3.687  1.00  0.00    -0.000 C 
BRANCH  12  13
ATOM     13  C   UNL     1     120.577  70.250  -4.868  1.00  0.00    -0.000 C 
BRANCH  13  14
ATOM     14  C   UNL     1     119.978  69.826  -6.222  1.00  0.00    -0.000 C 
BRANCH  14  15
ATOM     15  C   UNL     1     120.729  68.688  -6.940  1.00  0.00    -0.000 C 
BRANCH  15  16
ATOM     16  C   UNL     1     120.245  67.267  -6.593  1.00  0.00    -0.000 C 
BRANCH  16  17
ATOM     17  C   UNL     1     120.851  66.168  -7.490  1.00  0.00    -0.003 C 
ATOM     18  C   UNL     1     121.078  64.855  -6.741  1.00  0.00     0.004 C 
ENDBRANCH  16  17
ENDBRANCH  15  16
ENDBRANCH  14  15
ENDBRANCH  13  14
ENDBRANCH  12  13
ENDBRANCH  11  12
ENDBRANCH   1  11
TORSDOF 14
ENDMDL
MODEL 5
REMARK VINA RESULT:    -3.459      4.565     10.415
REMARK INTER + INTRA:          -6.950
REMARK INTER:                  -6.302
REMARK INTRA:                  -0.648
REMARK UNBOUND:                -0.661
REMARK SMILES CCCCCCCCCCCCCCCC(=O)[O-]
REMARK SMILES IDX 9 1 10 2 11 3 12 4 13 5 14 6 15 7 16 8 17 9 18 10 8 11 7 12
REMARK SMILES IDX 6 13 5 14 4 15 3 16 2 17 1 18
REMARK H PARENT
REMARK Flexibility Score: inf
ROOT
ATOM      1  C   UNL     1     120.907  68.420  -0.949  1.00  0.00     0.000 C 
ENDROOT
BRANCH   1   2
ATOM      2  C   UNL     1     121.351  69.879  -0.787  1.00  0.00     0.000 C 
BRANCH   2   3
ATOM      3  C   UNL     1     120.161  70.780  -0.427  1.00  0.00     0.000 C 
BRANCH   3   4
ATOM      4  C   UNL     1     119.989  70.956   1.089  1.00  0.00     0.000 C 
BRANCH   4   5
ATOM      5  C   UNL     1     120.450  72.341   1.580  1.00  0.00     0.000 C 
BRANCH   5   6
ATOM      6  C   UNL     1     121.066  72.294   2.987  1.00  0.00     0.006 C 
BRANCH   6   7
ATOM      7  C   UNL     1     120.052  71.883   4.062  1.00  0.00     0.053 C 
BRANCH   7   8
ATOM      8  C   UNL     1     120.685  70.955   5.049  1.00  0.00     0.041 C 
ATOM      9  O   UNL     1     121.916  70.696   4.977  1.00  0.00    -0.550 OA
ATOM     10  O   UNL     1     119.925  70.411   6.077  1.00  0.00    -0.550 OA
ENDBRANCH   7   8
ENDBRANCH   6   7
ENDBRANCH   5   6
ENDBRANCH   4   5
ENDBRANCH   3   4
ENDBRANCH   2   3
ENDBRANCH   1   2
BRANCH   1  11
ATOM     11  C   UNL     1     120.000  68.254  -2.174  1.00  0.00     0.000 C 
BRANCH  11  12
ATOM     12  C   UNL     1     120.294  66.937  -2.903  1.00  0.00    -0.000 C 
BRANCH  12  13
ATOM     13  C   UNL     1     119.876  67.021  -4.378  1.00  0.00    -0.000 C 
BRANCH  13  14
ATOM     14  C   UNL     1     120.169  65.726  -5.159  1.00  0.00    -0.000 C 
BRANCH  14  15
ATOM     15  C   UNL     1     121.367  65.804  -6.124  1.00  0.00    -0.000 C 
BRANCH  15  16
ATOM     16  C   UNL     1     121.025  65.572  -7.608  1.00  0.00    -0.000 C 
BRANCH  16  17
ATOM     17  C   UNL     1     120.342  66.778  -8.286  1.00  0.00    -0.003 C 
ATOM     18  C   UNL     1     120.925  68.116  -7.832  1.00  0.00     0.004 C 
ENDBRANCH  16  17
ENDBRANCH  15  16
ENDBRANCH  14  15
ENDBRANCH  13  14
ENDBRANCH  12  13
ENDBRANCH  11  12
ENDBRANCH   1  11
TORSDOF 14
ENDMDL
MODEL 6
REMARK VINA RESULT:    -3.352      6.438     11.506
REMARK INTER + INTRA:          -6.755
REMARK INTER:                  -6.301
REMARK INTRA:                  -0.454
REMARK UNBOUND:                -0.661
REMARK SMILES CCCCCCCCCCCCCCCC(=O)[O-]
REMARK SMILES IDX 9 1 10 2 11 3 12 4 13 5 14 6 15 7 16 8 17 9 18 10 8 11 7 12
REMARK SMILES IDX 6 13 5 14 4 15 3 16 2 17 1 18
REMARK H PARENT
REMARK Flexibility Score: inf
ROOT
ATOM      1  C   UNL     1     120.857  72.049   2.192  1.00  0.00     0.000 C 
ENDROOT
BRANCH   1   2
ATOM      2  C   UNL     1     119.986  71.411   3.281  1.00  0.00     0.000 C 
BRANCH   2   3
ATOM      3  C   UNL     1     120.155  72.144   4.620  1.00  0.00     0.000 C 
BRANCH   3   4
ATOM      4  C   UNL     1     120.638  71.216   5.746  1.00  0.00     0.000 C 
BRANCH   4   5
ATOM      5  C   UNL     1     119.879  71.441   7.066  1.00  0.00     0.000 C 
BRANCH   5   6
ATOM      6  C   UNL     1     120.803  71.894   8.208  1.00  0.00     0.006 C 
BRANCH   6   7
ATOM      7  C   UNL     1     120.463  73.300   8.719  1.00  0.00     0.053 C 
BRANCH   7   8
ATOM      8  C   UNL     1     120.153  73.262  10.182  1.00  0.00     0.041 C 
ATOM      9  O   UNL     1     120.184  72.169  10.809  1.00  0.00    -0.550 OA
ATOM     10  O   UNL     1     119.875  74.440  10.864  1.00  0.00    -0.550 OA
ENDBRANCH   7   8
ENDBRANCH   6   7
ENDBRANCH   5   6
ENDBRANCH   4   5
ENDBRANCH   3   4
ENDBRANCH   2   3
ENDBRANCH   1   2
BRANCH   1  11
ATOM     11  C   UNL     1     120.210  71.897   0.810  1.00  0.00     0.000 C 
BRANCH  11  12
ATOM     12  C   UNL     1     120.185  70.427   0.373  1.00  0.00    -0.000 C 
BRANCH  12  13
ATOM     13  C   UNL     1     120.484  70.295  -1.127  1.00  0.00    -0.000 C 
BRANCH  13  14
ATOM     14  C   UNL     1     119.909  69.006  -1.743  1.00  0.00    -0.000 C 
BRANCH  14  15
ATOM     15  C   UNL     1     120.092  68.873  -3.267  1.00  0.00    -0.000 C 
BRANCH  15  16
ATOM     16  C   UNL     1     119.930  70.185  -4.059  1.00  0.00    -0.000 C 
BRANCH  16  17
ATOM     17  C   UNL     1     120.620  70.166  -5.440  1.00  0.00    -0.003 C 
ATOM     18  C   UNL     1     119.880  69.297  -6.456  1.00  0.00     0.004 C 
ENDBRANCH  16  17
ENDBRANCH  15  16
ENDBRANCH  14  15
ENDBRANCH  13  14
ENDBRANCH  12  13
ENDBRANCH  11  12
ENDBRANCH   1  11
TORSDOF 14
ENDMDL
MODEL 7
REMARK VINA RESULT:    -3.058      5.995     10.448
REMARK INTER + INTRA:          -6.221
REMARK INTER:                  -6.654
REMARK INTRA:                   0.433
REMARK UNBOUND:                -0.661
REMARK SMILES CCCCCCCCCCCCCCCC(=O)[O-]
REMARK SMILES IDX 9 1 10 2 11 3 12 4 13 5 14 6 15 7 16 8 17 9 18 10 8 11 7 12
REMARK SMILES IDX 6 13 5 14 4 15 3 16 2 17 1 18
REMARK H PARENT
REMARK Flexibility Score: inf
ROOT
ATOM      1  C   UNL     1     120.680  72.600   1.109  1.00  0.00     0.000 C 
ENDROOT
BRANCH   1   2
ATOM      2  C   UNL     1     120.835  73.238   2.494  1.00  0.00     0.000 C 
BRANCH   2   3
ATOM      3  C   UNL     1     121.265  72.194   3.536  1.00  0.00     0.000 C 
BRANCH   3   4
ATOM      4  C   UNL     1     120.103  71.295   3.986  1.00  0.00     0.000 C 
BRANCH   4   5
ATOM      5  C   UNL     1     120.208  70.890   5.467  1.00  0.00     0.000 C 
BRANCH   5   6
ATOM      6  C   UNL     1     119.891  72.054   6.421  1.00  0.00     0.006 C 
BRANCH   6   7
ATOM      7  C   UNL     1     121.076  72.416   7.324  1.00  0.00     0.053 C 
BRANCH   7   8
ATOM      8  C   UNL     1     120.598  72.768   8.697  1.00  0.00     0.041 C 
ATOM      9  O   UNL     1     120.243  73.948   8.961  1.00  0.00    -0.550 OA
ATOM     10  O   UNL     1     120.498  71.784   9.672  1.00  0.00    -0.550 OA
ENDBRANCH   7   8
ENDBRANCH   6   7
ENDBRANCH   5   6
ENDBRANCH   4   5
ENDBRANCH   3   4
ENDBRANCH   2   3
ENDBRANCH   1   2
BRANCH   1  11
ATOM     11  C   UNL     1     121.127  71.134   1.124  1.00  0.00     0.000 C 
BRANCH  11  12
ATOM     12  C   UNL     1     119.924  70.192   1.266  1.00  0.00    -0.000 C 
BRANCH  12  13
ATOM     13  C   UNL     1     119.881  69.179   0.114  1.00  0.00    -0.000 C 
BRANCH  13  14
ATOM     14  C   UNL     1     120.098  69.828  -1.265  1.00  0.00    -0.000 C 
BRANCH  14  15
ATOM     15  C   UNL     1     119.875  68.893  -2.469  1.00  0.00    -0.000 C 
BRANCH  15  16
ATOM     16  C   UNL     1     120.110  67.397  -2.184  1.00  0.00    -0.000 C 
BRANCH  16  17
ATOM     17  C   UNL     1     119.886  66.488  -3.412  1.00  0.00    -0.003 C 
ATOM     18  C   UNL     1     120.633  66.980  -4.652  1.00  0.00     0.004 C 
ENDBRANCH  16  17
ENDBRANCH  15  16
ENDBRANCH  14  15
ENDBRANCH  13  14
ENDBRANCH  12  13
ENDBRANCH  11  12
ENDBRANCH   1  11
TORSDOF 14
ENDMDL
MODEL 8
REMARK VINA RESULT:    -2.901      1.347      2.242
REMARK INTER + INTRA:          -5.937
REMARK INTER:                  -5.655
REMARK INTRA:                  -0.282
REMARK UNBOUND:                -0.661
REMARK SMILES CCCCCCCCCCCCCCCC(=O)[O-]
REMARK SMILES IDX 9 1 10 2 11 3 12 4 13 5 14 6 15 7 16 8 17 9 18 10 8 11 7 12
REMARK SMILES IDX 6 13 5 14 4 15 3 16 2 17 1 18
REMARK H PARENT
REMARK Flexibility Score: inf
ROOT
ATOM      1  C   UNL     1     122.147  68.440  -0.656  1.00  0.00     0.000 C 
ENDROOT
BRANCH   1   2
ATOM      2  C   UNL     1     121.397  67.108  -0.537  1.00  0.00     0.000 C 
BRANCH   2   3
ATOM      3  C   UNL     1     119.997  67.207  -1.163  1.00  0.00     0.000 C 
BRANCH   3   4
ATOM      4  C   UNL     1     119.900  66.476  -2.510  1.00  0.00     0.000 C 
BRANCH   4   5
ATOM      5  C   UNL     1     119.878  67.443  -3.708  1.00  0.00     0.000 C 
BRANCH   5   6
ATOM      6  C   UNL     1     120.550  66.850  -4.957  1.00  0.00     0.006 C 
BRANCH   6   7
ATOM      7  C   UNL     1     119.923  67.359  -6.262  1.00  0.00     0.053 C 
BRANCH   7   8
ATOM      8  C   UNL     1     120.811  68.376  -6.905  1.00  0.00     0.041 C 
ATOM      9  O   UNL     1     120.872  69.546  -6.445  1.00  0.00    -0.550 OA
ATOM     10  O   UNL     1     121.608  68.017  -7.985  1.00  0.00    -0.550 OA
ENDBRANCH   7   8
ENDBRANCH   6   7
ENDBRANCH   5   6
ENDBRANCH   4   5
ENDBRANCH   3   4
ENDBRANCH   2   3
ENDBRANCH   1   2
BRANCH   1  11
ATOM     11  C   UNL     1     121.173  69.602  -0.890  1.00  0.00     0.000 C 
BRANCH  11  12
ATOM     12  C   UNL     1     120.252  69.800   0.320  1.00  0.00    -0.000 C 
BRANCH  12  13
ATOM     13  C   UNL     1     119.875  71.279   0.488  1.00  0.00    -0.000 C 
BRANCH  13  14
ATOM     14  C   UNL     1     120.615  71.958   1.655  1.00  0.00    -0.000 C 
BRANCH  14  15
ATOM     15  C   UNL     1     120.225  71.452   3.057  1.00  0.00    -0.000 C 
BRANCH  15  16
ATOM     16  C   UNL     1     120.208  72.530   4.158  1.00  0.00    -0.000 C 
BRANCH  16  17
ATOM     17  C   UNL     1     120.098  71.958   5.587  1.00  0.00    -0.003 C 
ATOM     18  C   UNL     1     119.932  73.047   6.646  1.00  0.00     0.004 C 
ENDBRANCH  16  17
ENDBRANCH  15  16
ENDBRANCH  14  15
ENDBRANCH  13  14
ENDBRANCH  12  13
ENDBRANCH  11  12
ENDBRANCH   1  11
TORSDOF 14
ENDMDL
MODEL 9
REMARK VINA RESULT:    -2.333      1.090      1.940
REMARK INTER + INTRA:          -4.904
REMARK INTER:                  -4.512
REMARK INTRA:                  -0.392
REMARK UNBOUND:                -0.661
REMARK SMILES CCCCCCCCCCCCCCCC(=O)[O-]
REMARK SMILES IDX 9 1 10 2 11 3 12 4 13 5 14 6 15 7 16 8 17 9 18 10 8 11 7 12
REMARK SMILES IDX 6 13 5 14 4 15 3 16 2 17 1 18
REMARK H PARENT
REMARK Flexibility Score: inf
ROOT
ATOM      1  C   UNL     1     121.126  70.947   2.113  1.00  0.00     0.000 C 
ENDROOT
BRANCH   1   2
ATOM      2  C   UNL     1     120.782  70.994   0.620  1.00  0.00     0.000 C 
BRANCH   2   3
ATOM      3  C   UNL     1     120.599  69.578   0.053  1.00  0.00     0.000 C 
BRANCH   3   4
ATOM      4  C   UNL     1     120.432  69.569  -1.474  1.00  0.00     0.000 C 
BRANCH   4   5
ATOM      5  C   UNL     1     120.206  68.154  -2.036  1.00  0.00     0.000 C 
BRANCH   5   6
ATOM      6  C   UNL     1     119.899  68.159  -3.543  1.00  0.00     0.006 C 
BRANCH   6   7
ATOM      7  C   UNL     1     120.086  66.780  -4.188  1.00  0.00     0.053 C 
BRANCH   7   8
ATOM      8  C   UNL     1     120.584  66.924  -5.591  1.00  0.00     0.041 C 
ATOM      9  O   UNL     1     120.537  65.946  -6.383  1.00  0.00    -0.550 OA
ATOM     10  O   UNL     1     121.056  68.151  -6.037  1.00  0.00    -0.550 OA
ENDBRANCH   7   8
ENDBRANCH   6   7
ENDBRANCH   5   6
ENDBRANCH   4   5
ENDBRANCH   3   4
ENDBRANCH   2   3
ENDBRANCH   1   2
BRANCH   1  11
ATOM     11  C   UNL     1     121.274  72.361   2.689  1.00  0.00     0.000 C 
BRANCH  11  12
ATOM     12  C   UNL     1     119.917  72.915   3.143  1.00  0.00    -0.000 C 
BRANCH  12  13
ATOM     13  C   UNL     1     119.944  73.278   4.635  1.00  0.00    -0.000 C 
BRANCH  13  14
ATOM     14  C   UNL     1     120.499  72.145   5.518  1.00  0.00    -0.000 C 
BRANCH  14  15
ATOM     15  C   UNL     1     119.875  72.048   6.923  1.00  0.00    -0.000 C 
BRANCH  15  16
ATOM     16  C   UNL     1     120.887  71.934   8.079  1.00  0.00    -0.000 C 
BRANCH  16  17
ATOM     17  C   UNL     1     120.283  72.238   9.466  1.00  0.00    -0.003 C 
ATOM     18  C   UNL     1     120.067  70.977  10.303  1.00  0.00     0.004 C 
ENDBRANCH  16  17
ENDBRANCH  15  16
ENDBRANCH  14  15
ENDBRANCH  13  14
ENDBRANCH  12  13
ENDBRANCH  11  12
ENDBRANCH   1  11
TORSDOF 14
ENDMDL
