MODEL 1
REMARK VINA RESULT:    -4.316      0.000      0.000
REMARK INTER + INTRA:         -11.219
REMARK INTER:                  -9.363
REMARK INTRA:                  -1.856
REMARK UNBOUND:                -1.856
REMARK SMILES CCCCCCCCCCCCCCCCCCCCCC(=O)[O-]
REMARK SMILES IDX 12 1 11 2 10 3 9 4 8 5 7 6 6 7 5 8 4 9 3 10 2 11 1 12 13 13
REMARK SMILES IDX 14 14 15 15 16 16 17 17 18 18 19 19 20 20 21 21 22 22 23 23
REMARK SMILES IDX 24 24
REMARK H PARENT
REMARK Flexibility Score: inf
ROOT
ATOM      1  C   UNL     1      -8.273 -13.471  -3.359  1.00  0.00     0.000 C 
ENDROOT
BRANCH   1   2
ATOM      2  C   UNL     1      -6.974 -12.657  -3.505  1.00  0.00     0.000 C 
BRANCH   2   3
ATOM      3  C   UNL     1      -5.793 -13.500  -4.016  1.00  0.00     0.000 C 
BRANCH   3   4
ATOM      4  C   UNL     1      -5.346 -13.105  -5.437  1.00  0.00    -0.000 C 
BRANCH   4   5
ATOM      5  C   UNL     1      -6.036 -11.855  -6.020  1.00  0.00    -0.000 C 
BRANCH   5   6
ATOM      6  C   UNL     1      -6.943 -12.113  -7.241  1.00  0.00    -0.000 C 
BRANCH   6   7
ATOM      7  C   UNL     1      -7.932 -13.282  -7.079  1.00  0.00    -0.000 C 
BRANCH   7   8
ATOM      8  C   UNL     1      -9.366 -12.911  -7.483  1.00  0.00    -0.000 C 
BRANCH   8   9
ATOM      9  C   UNL     1     -10.365 -13.318  -6.395  1.00  0.00    -0.000 C 
BRANCH   9  10
ATOM     10  C   UNL     1     -11.460 -12.253  -6.224  1.00  0.00    -0.000 C 
BRANCH  10  11
ATOM     11  C   UNL     1     -12.104 -12.287  -4.830  1.00  0.00    -0.003 C 
ATOM     12  C   UNL     1     -13.477 -11.611  -4.796  1.00  0.00     0.004 C 
ENDBRANCH  10  11
ENDBRANCH   9  10
ENDBRANCH   8   9
ENDBRANCH   7   8
ENDBRANCH   6   7
ENDBRANCH   5   6
ENDBRANCH   4   5
ENDBRANCH   3   4
ENDBRANCH   2   3
ENDBRANCH   1   2
BRANCH   1  13
ATOM     13  C   UNL     1      -9.322 -12.872  -2.403  1.00  0.00     0.000 C 
BRANCH  13  14
ATOM     14  C   UNL     1     -10.391 -13.891  -1.973  1.00  0.00     0.000 C 
BRANCH  14  15
ATOM     15  C   UNL     1     -11.284 -13.360  -0.839  1.00  0.00     0.000 C 
BRANCH  15  16
ATOM     16  C   UNL     1     -12.510 -12.591  -1.365  1.00  0.00     0.000 C 
BRANCH  16  17
ATOM     17  C   UNL     1     -13.209 -11.763  -0.269  1.00  0.00     0.000 C 
BRANCH  17  18
ATOM     18  C   UNL     1     -12.907 -12.206   1.176  1.00  0.00     0.000 C 
BRANCH  18  19
ATOM     19  C   UNL     1     -13.497 -11.298   2.272  1.00  0.00     0.000 C 
BRANCH  19  20
ATOM     20  C   UNL     1     -12.635 -11.231   3.552  1.00  0.00     0.006 C 
BRANCH  20  21
ATOM     21  C   UNL     1     -12.928  -9.979   4.389  1.00  0.00     0.053 C 
BRANCH  21  22
ATOM     22  C   UNL     1     -12.196 -10.037   5.692  1.00  0.00     0.041 C 
ATOM     23  O   UNL     1     -12.616  -9.386   6.684  1.00  0.00    -0.550 OA
ATOM     24  O   UNL     1     -11.016 -10.765   5.794  1.00  0.00    -0.550 OA
ENDBRANCH  21  22
ENDBRANCH  20  21
ENDBRANCH  19  20
ENDBRANCH  18  19
ENDBRANCH  17  18
ENDBRANCH  16  17
ENDBRANCH  15  16
ENDBRANCH  14  15
ENDBRANCH  13  14
ENDBRANCH   1  13
TORSDOF 20
ENDMDL
MODEL 2
REMARK VINA RESULT:    -4.230      4.152      9.617
REMARK INTER + INTRA:         -11.033
REMARK INTER:                  -9.112
REMARK INTRA:                  -1.920
REMARK UNBOUND:                -1.856
REMARK SMILES CCCCCCCCCCCCCCCCCCCCCC(=O)[O-]
REMARK SMILES IDX 12 1 11 2 10 3 9 4 8 5 7 6 6 7 5 8 4 9 3 10 2 11 1 12 13 13
REMARK SMILES IDX 14 14 15 15 16 16 17 17 18 18 19 19 20 20 21 21 22 22 23 23
REMARK SMILES IDX 24 24
REMARK H PARENT
REMARK Flexibility Score: inf
ROOT
ATOM      1  C   UNL     1     -14.194 -11.138  -2.906  1.00  0.00     0.000 C 
ENDROOT
BRANCH   1   2
ATOM      2  C   UNL     1     -15.014 -12.249  -2.223  1.00  0.00     0.000 C 
BRANCH   2   3
ATOM      3  C   UNL     1     -14.438 -12.665  -0.858  1.00  0.00     0.000 C 
BRANCH   3   4
ATOM      4  C   UNL     1     -13.306 -11.738  -0.378  1.00  0.00    -0.000 C 
BRANCH   4   5
ATOM      5  C   UNL     1     -13.172 -11.600   1.152  1.00  0.00    -0.000 C 
BRANCH   5   6
ATOM      6  C   UNL     1     -12.973 -12.925   1.917  1.00  0.00    -0.000 C 
BRANCH   6   7
ATOM      7  C   UNL     1     -13.866 -13.097   3.160  1.00  0.00    -0.000 C 
BRANCH   7   8
ATOM      8  C   UNL     1     -13.060 -13.290   4.452  1.00  0.00    -0.000 C 
BRANCH   8   9
ATOM      9  C   UNL     1     -11.717 -12.555   4.377  1.00  0.00    -0.000 C 
BRANCH   9  10
ATOM     10  C   UNL     1     -11.574 -11.549   5.530  1.00  0.00    -0.000 C 
BRANCH  10  11
ATOM     11  C   UNL     1     -11.609 -10.091   5.049  1.00  0.00    -0.003 C 
ATOM     12  C   UNL     1     -12.921  -9.729   4.351  1.00  0.00     0.004 C 
ENDBRANCH  10  11
ENDBRANCH   9  10
ENDBRANCH   8   9
ENDBRANCH   7   8
ENDBRANCH   6   7
ENDBRANCH   5   6
ENDBRANCH   4   5
ENDBRANCH   3   4
ENDBRANCH   2   3
ENDBRANCH   1   2
BRANCH   1  13
ATOM     13  C   UNL     1     -13.611 -11.503  -4.284  1.00  0.00     0.000 C 
BRANCH  13  14
ATOM     14  C   UNL     1     -13.677 -13.011  -4.582  1.00  0.00     0.000 C 
BRANCH  14  15
ATOM     15  C   UNL     1     -12.287 -13.623  -4.820  1.00  0.00     0.000 C 
BRANCH  15  16
ATOM     16  C   UNL     1     -11.158 -12.785  -4.192  1.00  0.00     0.000 C 
BRANCH  16  17
ATOM     17  C   UNL     1     -10.791 -13.249  -2.770  1.00  0.00     0.000 C 
BRANCH  17  18
ATOM     18  C   UNL     1      -9.313 -13.053  -2.381  1.00  0.00     0.000 C 
BRANCH  18  19
ATOM     19  C   UNL     1      -8.293 -13.535  -3.430  1.00  0.00     0.000 C 
BRANCH  19  20
ATOM     20  C   UNL     1      -7.003 -12.688  -3.478  1.00  0.00     0.006 C 
BRANCH  20  21
ATOM     21  C   UNL     1      -5.876 -13.382  -4.255  1.00  0.00     0.053 C 
BRANCH  21  22
ATOM     22  C   UNL     1      -5.496 -12.577  -5.457  1.00  0.00     0.041 C 
ATOM     23  O   UNL     1      -4.492 -12.899  -6.144  1.00  0.00    -0.550 OA
ATOM     24  O   UNL     1      -6.218 -11.435  -5.785  1.00  0.00    -0.550 OA
ENDBRANCH  21  22
ENDBRANCH  20  21
ENDBRANCH  19  20
ENDBRANCH  18  19
ENDBRANCH  17  18
ENDBRANCH  16  17
ENDBRANCH  15  16
ENDBRANCH  14  15
ENDBRANCH  13  14
ENDBRANCH   1  13
TORSDOF 20
ENDMDL
MODEL 3
REMARK VINA RESULT:    -4.207      1.020      3.472
REMARK INTER + INTRA:         -10.982
REMARK INTER:                  -9.191
REMARK INTRA:                  -1.791
REMARK UNBOUND:                -1.856
REMARK SMILES CCCCCCCCCCCCCCCCCCCCCC(=O)[O-]
REMARK SMILES IDX 12 1 11 2 10 3 9 4 8 5 7 6 6 7 5 8 4 9 3 10 2 11 1 12 13 13
REMARK SMILES IDX 14 14 15 15 16 16 17 17 18 18 19 19 20 20 21 21 22 22 23 23
REMARK SMILES IDX 24 24
REMARK H PARENT
REMARK Flexibility Score: inf
ROOT
ATOM      1  C   UNL     1     -12.144 -12.402  -4.282  1.00  0.00     0.000 C 
ENDROOT
BRANCH   1   2
ATOM      2  C   UNL     1     -10.922 -13.313  -4.063  1.00  0.00     0.000 C 
BRANCH   2   3
ATOM      3  C   UNL     1     -10.454 -13.348  -2.598  1.00  0.00     0.000 C 
BRANCH   3   4
ATOM      4  C   UNL     1      -9.012 -12.836  -2.417  1.00  0.00    -0.000 C 
BRANCH   4   5
ATOM      5  C   UNL     1      -7.995 -13.355  -3.454  1.00  0.00    -0.000 C 
BRANCH   5   6
ATOM      6  C   UNL     1      -6.692 -12.537  -3.563  1.00  0.00    -0.000 C 
BRANCH   6   7
ATOM      7  C   UNL     1      -5.812 -12.879  -4.779  1.00  0.00    -0.000 C 
BRANCH   7   8
ATOM      8  C   UNL     1      -5.852 -11.799  -5.869  1.00  0.00    -0.000 C 
BRANCH   8   9
ATOM      9  C   UNL     1      -6.463 -12.347  -7.163  1.00  0.00    -0.000 C 
BRANCH   9  10
ATOM     10  C   UNL     1      -6.881 -13.817  -6.996  1.00  0.00    -0.000 C 
BRANCH  10  11
ATOM     11  C   UNL     1      -8.405 -14.006  -7.042  1.00  0.00    -0.003 C 
ATOM     12  C   UNL     1      -9.155 -12.706  -7.339  1.00  0.00     0.004 C 
ENDBRANCH  10  11
ENDBRANCH   9  10
ENDBRANCH   8   9
ENDBRANCH   7   8
ENDBRANCH   6   7
ENDBRANCH   5   6
ENDBRANCH   4   5
ENDBRANCH   3   4
ENDBRANCH   2   3
ENDBRANCH   1   2
BRANCH   1  13
ATOM     13  C   UNL     1     -13.390 -12.763  -3.451  1.00  0.00     0.000 C 
BRANCH  13  14
ATOM     14  C   UNL     1     -13.847 -11.619  -2.529  1.00  0.00     0.000 C 
BRANCH  14  15
ATOM     15  C   UNL     1     -14.047 -12.082  -1.076  1.00  0.00     0.000 C 
BRANCH  15  16
ATOM     16  C   UNL     1     -12.798 -11.849  -0.206  1.00  0.00     0.000 C 
BRANCH  16  17
ATOM     17  C   UNL     1     -12.973 -12.360   1.237  1.00  0.00     0.000 C 
BRANCH  17  18
ATOM     18  C   UNL     1     -13.822 -11.456   2.151  1.00  0.00     0.000 C 
BRANCH  18  19
ATOM     19  C   UNL     1     -13.362 -11.400   3.621  1.00  0.00     0.000 C 
BRANCH  19  20
ATOM     20  C   UNL     1     -12.754 -10.040   4.030  1.00  0.00     0.006 C 
BRANCH  20  21
ATOM     21  C   UNL     1     -11.602 -10.193   5.032  1.00  0.00     0.053 C 
BRANCH  21  22
ATOM     22  C   UNL     1     -12.096 -10.004   6.430  1.00  0.00     0.041 C 
ATOM     23  O   UNL     1     -11.332 -10.219   7.407  1.00  0.00    -0.550 OA
ATOM     24  O   UNL     1     -13.420  -9.647   6.657  1.00  0.00    -0.550 OA
ENDBRANCH  21  22
ENDBRANCH  20  21
ENDBRANCH  19  20
ENDBRANCH  18  19
ENDBRANCH  17  18
ENDBRANCH  16  17
ENDBRANCH  15  16
ENDBRANCH  14  15
ENDBRANCH  13  14
ENDBRANCH   1  13
TORSDOF 20
ENDMDL
MODEL 4
REMARK VINA RESULT:    -4.153      1.159      3.460
REMARK INTER + INTRA:         -10.865
REMARK INTER:                  -8.980
REMARK INTRA:                  -1.885
REMARK UNBOUND:                -1.856
REMARK SMILES CCCCCCCCCCCCCCCCCCCCCC(=O)[O-]
REMARK SMILES IDX 12 1 11 2 10 3 9 4 8 5 7 6 6 7 5 8 4 9 3 10 2 11 1 12 13 13
REMARK SMILES IDX 14 14 15 15 16 16 17 17 18 18 19 19 20 20 21 21 22 22 23 23
REMARK SMILES IDX 24 24
REMARK H PARENT
REMARK Flexibility Score: inf
ROOT
ATOM      1  C   UNL     1     -11.127 -12.844  -3.702  1.00  0.00     0.000 C 
ENDROOT
BRANCH   1   2
ATOM      2  C   UNL     1     -10.859 -13.311  -5.145  1.00  0.00     0.000 C 
BRANCH   2   3
ATOM      3  C   UNL     1      -9.507 -14.029  -5.302  1.00  0.00     0.000 C 
BRANCH   3   4
ATOM      4  C   UNL     1      -8.996 -14.031  -6.755  1.00  0.00    -0.000 C 
BRANCH   4   5
ATOM      5  C   UNL     1      -8.895 -12.643  -7.419  1.00  0.00    -0.000 C 
BRANCH   5   6
ATOM      6  C   UNL     1      -7.470 -12.059  -7.512  1.00  0.00    -0.000 C 
BRANCH   6   7
ATOM      7  C   UNL     1      -6.474 -12.905  -8.326  1.00  0.00    -0.000 C 
BRANCH   7   8
ATOM      8  C   UNL     1      -5.054 -12.879  -7.746  1.00  0.00    -0.000 C 
BRANCH   8   9
ATOM      9  C   UNL     1      -5.073 -12.476  -6.267  1.00  0.00    -0.000 C 
BRANCH   9  10
ATOM     10  C   UNL     1      -4.774 -13.682  -5.362  1.00  0.00    -0.000 C 
BRANCH  10  11
ATOM     11  C   UNL     1      -5.770 -13.809  -4.200  1.00  0.00    -0.003 C 
ATOM     12  C   UNL     1      -6.489 -12.494  -3.890  1.00  0.00     0.004 C 
ENDBRANCH  10  11
ENDBRANCH   9  10
ENDBRANCH   8   9
ENDBRANCH   7   8
ENDBRANCH   6   7
ENDBRANCH   5   6
ENDBRANCH   4   5
ENDBRANCH   3   4
ENDBRANCH   2   3
ENDBRANCH   1   2
BRANCH   1  13
ATOM     13  C   UNL     1     -10.041 -13.220  -2.676  1.00  0.00     0.000 C 
BRANCH  13  14
ATOM     14  C   UNL     1     -10.566 -13.248  -1.231  1.00  0.00     0.000 C 
BRANCH  14  15
ATOM     15  C   UNL     1     -12.040 -12.819  -1.134  1.00  0.00     0.000 C 
BRANCH  15  16
ATOM     16  C   UNL     1     -12.573 -12.866   0.310  1.00  0.00     0.000 C 
BRANCH  16  17
ATOM     17  C   UNL     1     -13.217 -11.537   0.751  1.00  0.00     0.000 C 
BRANCH  17  18
ATOM     18  C   UNL     1     -13.860 -11.557   2.151  1.00  0.00     0.000 C 
BRANCH  18  19
ATOM     19  C   UNL     1     -12.862 -11.580   3.325  1.00  0.00     0.000 C 
BRANCH  19  20
ATOM     20  C   UNL     1     -12.518 -10.178   3.875  1.00  0.00     0.006 C 
BRANCH  20  21
ATOM     21  C   UNL     1     -11.424 -10.224   4.950  1.00  0.00     0.053 C 
BRANCH  21  22
ATOM     22  C   UNL     1     -12.033 -10.273   6.315  1.00  0.00     0.041 C 
ATOM     23  O   UNL     1     -11.486 -10.943   7.230  1.00  0.00    -0.550 OA
ATOM     24  O   UNL     1     -13.238  -9.626   6.563  1.00  0.00    -0.550 OA
ENDBRANCH  21  22
ENDBRANCH  20  21
ENDBRANCH  19  20
ENDBRANCH  18  19
ENDBRANCH  17  18
ENDBRANCH  16  17
ENDBRANCH  15  16
ENDBRANCH  14  15
ENDBRANCH  13  14
ENDBRANCH   1  13
TORSDOF 20
ENDMDL
MODEL 5
REMARK VINA RESULT:    -4.149      1.539      4.773
REMARK INTER + INTRA:         -10.857
REMARK INTER:                  -9.493
REMARK INTRA:                  -1.364
REMARK UNBOUND:                -1.856
REMARK SMILES CCCCCCCCCCCCCCCCCCCCCC(=O)[O-]
REMARK SMILES IDX 12 1 11 2 10 3 9 4 8 5 7 6 6 7 5 8 4 9 3 10 2 11 1 12 13 13
REMARK SMILES IDX 14 14 15 15 16 16 17 17 18 18 19 19 20 20 21 21 22 22 23 23
REMARK SMILES IDX 24 24
REMARK H PARENT
REMARK Flexibility Score: inf
ROOT
ATOM      1  C   UNL     1     -14.342 -11.386  -3.893  1.00  0.00     0.000 C 
ENDROOT
BRANCH   1   2
ATOM      2  C   UNL     1     -13.179 -11.768  -4.828  1.00  0.00     0.000 C 
BRANCH   2   3
ATOM      3  C   UNL     1     -12.517 -13.104  -4.447  1.00  0.00     0.000 C 
BRANCH   3   4
ATOM      4  C   UNL     1     -11.012 -12.963  -4.152  1.00  0.00    -0.000 C 
BRANCH   4   5
ATOM      5  C   UNL     1     -10.601 -13.218  -2.688  1.00  0.00    -0.000 C 
BRANCH   5   6
ATOM      6  C   UNL     1      -9.125 -12.919  -2.357  1.00  0.00    -0.000 C 
BRANCH   6   7
ATOM      7  C   UNL     1      -8.117 -13.353  -3.438  1.00  0.00    -0.000 C 
BRANCH   7   8
ATOM      8  C   UNL     1      -6.873 -12.456  -3.489  1.00  0.00    -0.000 C 
BRANCH   8   9
ATOM      9  C   UNL     1      -5.758 -13.111  -4.311  1.00  0.00    -0.000 C 
BRANCH   9  10
ATOM     10  C   UNL     1      -5.587 -12.410  -5.668  1.00  0.00    -0.000 C 
BRANCH  10  11
ATOM     11  C   UNL     1      -4.585 -13.131  -6.583  1.00  0.00    -0.003 C 
ATOM     12  C   UNL     1      -4.784 -12.792  -8.062  1.00  0.00     0.004 C 
ENDBRANCH  10  11
ENDBRANCH   9  10
ENDBRANCH   8   9
ENDBRANCH   7   8
ENDBRANCH   6   7
ENDBRANCH   5   6
ENDBRANCH   4   5
ENDBRANCH   3   4
ENDBRANCH   2   3
ENDBRANCH   1   2
BRANCH   1  13
ATOM     13  C   UNL     1     -13.984 -11.305  -2.397  1.00  0.00     0.000 C 
BRANCH  13  14
ATOM     14  C   UNL     1     -14.598 -12.448  -1.571  1.00  0.00     0.000 C 
BRANCH  14  15
ATOM     15  C   UNL     1     -13.614 -13.018  -0.536  1.00  0.00     0.000 C 
BRANCH  15  16
ATOM     16  C   UNL     1     -12.756 -11.925   0.127  1.00  0.00     0.000 C 
BRANCH  16  17
ATOM     17  C   UNL     1     -13.389 -11.372   1.417  1.00  0.00     0.000 C 
BRANCH  17  18
ATOM     18  C   UNL     1     -13.152 -12.226   2.678  1.00  0.00     0.000 C 
BRANCH  18  19
ATOM     19  C   UNL     1     -13.109 -11.436   4.001  1.00  0.00     0.000 C 
BRANCH  19  20
ATOM     20  C   UNL     1     -11.678 -11.179   4.523  1.00  0.00     0.006 C 
BRANCH  20  21
ATOM     21  C   UNL     1     -11.561  -9.846   5.275  1.00  0.00     0.053 C 
BRANCH  21  22
ATOM     22  C   UNL     1     -12.053  -9.992   6.679  1.00  0.00     0.041 C 
ATOM     23  O   UNL     1     -11.242 -10.233   7.612  1.00  0.00    -0.550 OA
ATOM     24  O   UNL     1     -13.413  -9.919   6.951  1.00  0.00    -0.550 OA
ENDBRANCH  21  22
ENDBRANCH  20  21
ENDBRANCH  19  20
ENDBRANCH  18  19
ENDBRANCH  17  18
ENDBRANCH  16  17
ENDBRANCH  15  16
ENDBRANCH  14  15
ENDBRANCH  13  14
ENDBRANCH   1  13
TORSDOF 20
ENDMDL
MODEL 6
REMARK VINA RESULT:    -4.054      1.184      2.388
REMARK INTER + INTRA:         -10.649
REMARK INTER:                  -9.246
REMARK INTRA:                  -1.403
REMARK UNBOUND:                -1.856
REMARK SMILES CCCCCCCCCCCCCCCCCCCCCC(=O)[O-]
REMARK SMILES IDX 12 1 11 2 10 3 9 4 8 5 7 6 6 7 5 8 4 9 3 10 2 11 1 12 13 13
REMARK SMILES IDX 14 14 15 15 16 16 17 17 18 18 19 19 20 20 21 21 22 22 23 23
REMARK SMILES IDX 24 24
REMARK H PARENT
REMARK Flexibility Score: inf
ROOT
ATOM      1  C   UNL     1     -10.193 -13.940  -1.989  1.00  0.00     0.000 C 
ENDROOT
BRANCH   1   2
ATOM      2  C   UNL     1      -9.131 -12.899  -2.389  1.00  0.00     0.000 C 
BRANCH   2   3
ATOM      3  C   UNL     1      -8.130 -13.434  -3.428  1.00  0.00     0.000 C 
BRANCH   3   4
ATOM      4  C   UNL     1      -6.828 -12.612  -3.483  1.00  0.00    -0.000 C 
BRANCH   4   5
ATOM      5  C   UNL     1      -5.849 -13.004  -4.609  1.00  0.00    -0.000 C 
BRANCH   5   6
ATOM      6  C   UNL     1      -5.695 -11.965  -5.738  1.00  0.00    -0.000 C 
BRANCH   6   7
ATOM      7  C   UNL     1      -5.569 -12.559  -7.153  1.00  0.00    -0.000 C 
BRANCH   7   8
ATOM      8  C   UNL     1      -6.808 -13.358  -7.579  1.00  0.00    -0.000 C 
BRANCH   8   9
ATOM      9  C   UNL     1      -7.622 -12.591  -8.626  1.00  0.00    -0.000 C 
BRANCH   9  10
ATOM     10  C   UNL     1      -8.740 -11.771  -7.965  1.00  0.00    -0.000 C 
BRANCH  10  11
ATOM     11  C   UNL     1     -10.048 -12.563  -7.822  1.00  0.00    -0.003 C 
ATOM     12  C   UNL     1     -10.372 -12.916  -6.369  1.00  0.00     0.004 C 
ENDBRANCH  10  11
ENDBRANCH   9  10
ENDBRANCH   8   9
ENDBRANCH   7   8
ENDBRANCH   6   7
ENDBRANCH   5   6
ENDBRANCH   4   5
ENDBRANCH   3   4
ENDBRANCH   2   3
ENDBRANCH   1   2
BRANCH   1  13
ATOM     13  C   UNL     1     -11.347 -13.402  -1.122  1.00  0.00     0.000 C 
BRANCH  13  14
ATOM     14  C   UNL     1     -12.553 -12.932  -1.954  1.00  0.00     0.000 C 
BRANCH  14  15
ATOM     15  C   UNL     1     -13.527 -12.066  -1.138  1.00  0.00     0.000 C 
BRANCH  15  16
ATOM     16  C   UNL     1     -12.955 -11.670   0.235  1.00  0.00     0.000 C 
BRANCH  16  17
ATOM     17  C   UNL     1     -13.867 -12.089   1.404  1.00  0.00     0.000 C 
BRANCH  17  18
ATOM     18  C   UNL     1     -13.357 -11.695   2.804  1.00  0.00     0.000 C 
BRANCH  18  19
ATOM     19  C   UNL     1     -14.026 -10.447   3.412  1.00  0.00     0.000 C 
BRANCH  19  20
ATOM     20  C   UNL     1     -13.378  -9.978   4.733  1.00  0.00     0.006 C 
BRANCH  20  21
ATOM     21  C   UNL     1     -11.845 -10.021   4.681  1.00  0.00     0.053 C 
BRANCH  21  22
ATOM     22  C   UNL     1     -11.310 -10.921   5.748  1.00  0.00     0.041 C 
ATOM     23  O   UNL     1     -11.401 -10.591   6.960  1.00  0.00    -0.550 OA
ATOM     24  O   UNL     1     -10.659 -12.099   5.402  1.00  0.00    -0.550 OA
ENDBRANCH  21  22
ENDBRANCH  20  21
ENDBRANCH  19  20
ENDBRANCH  18  19
ENDBRANCH  17  18
ENDBRANCH  16  17
ENDBRANCH  15  16
ENDBRANCH  14  15
ENDBRANCH  13  14
ENDBRANCH   1  13
TORSDOF 20
ENDMDL
MODEL 7
REMARK VINA RESULT:    -3.994      4.211     10.464
REMARK INTER + INTRA:         -10.520
REMARK INTER:                  -9.121
REMARK INTRA:                  -1.399
REMARK UNBOUND:                -1.856
REMARK SMILES CCCCCCCCCCCCCCCCCCCCCC(=O)[O-]
REMARK SMILES IDX 12 1 11 2 10 3 9 4 8 5 7 6 6 7 5 8 4 9 3 10 2 11 1 12 13 13
REMARK SMILES IDX 14 14 15 15 16 16 17 17 18 18 19 19 20 20 21 21 22 22 23 23
REMARK SMILES IDX 24 24
REMARK H PARENT
REMARK Flexibility Score: inf
ROOT
ATOM      1  C   UNL     1     -10.117 -13.003  -1.979  1.00  0.00     0.000 C 
ENDROOT
BRANCH   1   2
ATOM      2  C   UNL     1     -10.612 -14.121  -1.043  1.00  0.00     0.000 C 
BRANCH   2   3
ATOM      3  C   UNL     1     -11.966 -13.799  -0.388  1.00  0.00     0.000 C 
BRANCH   3   4
ATOM      4  C   UNL     1     -12.612 -12.517  -0.947  1.00  0.00    -0.000 C 
BRANCH   4   5
ATOM      5  C   UNL     1     -13.216 -11.570   0.109  1.00  0.00    -0.000 C 
BRANCH   5   6
ATOM      6  C   UNL     1     -13.565 -12.227   1.460  1.00  0.00    -0.000 C 
BRANCH   6   7
ATOM      7  C   UNL     1     -13.774 -11.243   2.626  1.00  0.00    -0.000 C 
BRANCH   7   8
ATOM      8  C   UNL     1     -12.616 -11.256   3.634  1.00  0.00    -0.000 C 
BRANCH   8   9
ATOM      9  C   UNL     1     -12.533  -9.927   4.391  1.00  0.00    -0.000 C 
BRANCH   9  10
ATOM     10  C   UNL     1     -13.758  -9.731   5.298  1.00  0.00    -0.000 C 
BRANCH  10  11
ATOM     11  C   UNL     1     -13.389  -9.695   6.789  1.00  0.00    -0.003 C 
ATOM     12  C   UNL     1     -11.879  -9.760   7.027  1.00  0.00     0.004 C 
ENDBRANCH  10  11
ENDBRANCH   9  10
ENDBRANCH   8   9
ENDBRANCH   7   8
ENDBRANCH   6   7
ENDBRANCH   5   6
ENDBRANCH   4   5
ENDBRANCH   3   4
ENDBRANCH   2   3
ENDBRANCH   1   2
BRANCH   1  13
ATOM     13  C   UNL     1      -9.751 -13.452  -3.406  1.00  0.00     0.000 C 
BRANCH  13  14
ATOM     14  C   UNL     1      -8.288 -13.910  -3.533  1.00  0.00     0.000 C 
BRANCH  14  15
ATOM     15  C   UNL     1      -7.297 -12.737  -3.463  1.00  0.00     0.000 C 
BRANCH  15  16
ATOM     16  C   UNL     1      -6.000 -13.013  -4.246  1.00  0.00     0.000 C 
BRANCH  16  17
ATOM     17  C   UNL     1      -5.752 -11.986  -5.367  1.00  0.00     0.000 C 
BRANCH  17  18
ATOM     18  C   UNL     1      -5.348 -12.589  -6.727  1.00  0.00     0.000 C 
BRANCH  18  19
ATOM     19  C   UNL     1      -6.055 -13.909  -7.089  1.00  0.00     0.000 C 
BRANCH  19  20
ATOM     20  C   UNL     1      -7.095 -13.765  -8.222  1.00  0.00     0.006 C 
BRANCH  20  21
ATOM     21  C   UNL     1      -7.366 -12.299  -8.584  1.00  0.00     0.053 C 
BRANCH  21  22
ATOM     22  C   UNL     1      -8.689 -11.862  -8.041  1.00  0.00     0.041 C 
ATOM     23  O   UNL     1      -9.399 -11.044  -8.684  1.00  0.00    -0.550 OA
ATOM     24  O   UNL     1      -9.113 -12.312  -6.797  1.00  0.00    -0.550 OA
ENDBRANCH  21  22
ENDBRANCH  20  21
ENDBRANCH  19  20
ENDBRANCH  18  19
ENDBRANCH  17  18
ENDBRANCH  16  17
ENDBRANCH  15  16
ENDBRANCH  14  15
ENDBRANCH  13  14
ENDBRANCH   1  13
TORSDOF 20
ENDMDL
MODEL 8
REMARK VINA RESULT:    -3.977      1.339      3.537
REMARK INTER + INTRA:         -10.483
REMARK INTER:                  -8.975
REMARK INTRA:                  -1.508
REMARK UNBOUND:                -1.856
REMARK SMILES CCCCCCCCCCCCCCCCCCCCCC(=O)[O-]
REMARK SMILES IDX 12 1 11 2 10 3 9 4 8 5 7 6 6 7 5 8 4 9 3 10 2 11 1 12 13 13
REMARK SMILES IDX 14 14 15 15 16 16 17 17 18 18 19 19 20 20 21 21 22 22 23 23
REMARK SMILES IDX 24 24
REMARK H PARENT
REMARK Flexibility Score: inf
ROOT
ATOM      1  C   UNL     1     -11.908 -12.974  -1.896  1.00  0.00     0.000 C 
ENDROOT
BRANCH   1   2
ATOM      2  C   UNL     1     -10.648 -13.779  -2.266  1.00  0.00     0.000 C 
BRANCH   2   3
ATOM      3  C   UNL     1      -9.395 -12.898  -2.411  1.00  0.00     0.000 C 
BRANCH   3   4
ATOM      4  C   UNL     1      -8.321 -13.530  -3.316  1.00  0.00    -0.000 C 
BRANCH   4   5
ATOM      5  C   UNL     1      -7.050 -12.680  -3.521  1.00  0.00    -0.000 C 
BRANCH   5   6
ATOM      6  C   UNL     1      -5.827 -13.446  -4.065  1.00  0.00    -0.000 C 
BRANCH   6   7
ATOM      7  C   UNL     1      -5.289 -12.934  -5.414  1.00  0.00    -0.000 C 
BRANCH   7   8
ATOM      8  C   UNL     1      -6.157 -11.823  -6.021  1.00  0.00    -0.000 C 
BRANCH   8   9
ATOM      9  C   UNL     1      -6.779 -12.276  -7.347  1.00  0.00    -0.000 C 
BRANCH   9  10
ATOM     10  C   UNL     1      -7.904 -13.295  -7.108  1.00  0.00    -0.000 C 
BRANCH  10  11
ATOM     11  C   UNL     1      -9.298 -12.710  -7.378  1.00  0.00    -0.003 C 
ATOM     12  C   UNL     1     -10.313 -13.072  -6.291  1.00  0.00     0.004 C 
ENDBRANCH  10  11
ENDBRANCH   9  10
ENDBRANCH   8   9
ENDBRANCH   7   8
ENDBRANCH   6   7
ENDBRANCH   5   6
ENDBRANCH   4   5
ENDBRANCH   3   4
ENDBRANCH   2   3
ENDBRANCH   1   2
BRANCH   1  13
ATOM     13  C   UNL     1     -12.217 -12.888  -0.390  1.00  0.00     0.000 C 
BRANCH  13  14
ATOM     14  C   UNL     1     -13.102 -11.684  -0.027  1.00  0.00     0.000 C 
BRANCH  14  15
ATOM     15  C   UNL     1     -13.540 -11.700   1.447  1.00  0.00     0.000 C 
BRANCH  15  16
ATOM     16  C   UNL     1     -12.603 -12.544   2.331  1.00  0.00     0.000 C 
BRANCH  16  17
ATOM     17  C   UNL     1     -12.914 -12.402   3.833  1.00  0.00     0.000 C 
BRANCH  17  18
ATOM     18  C   UNL     1     -11.701 -12.064   4.722  1.00  0.00     0.000 C 
BRANCH  18  19
ATOM     19  C   UNL     1     -11.440 -10.559   4.922  1.00  0.00     0.000 C 
BRANCH  19  20
ATOM     20  C   UNL     1     -12.431  -9.881   5.893  1.00  0.00     0.006 C 
BRANCH  20  21
ATOM     21  C   UNL     1     -11.725  -9.229   7.089  1.00  0.00     0.053 C 
BRANCH  21  22
ATOM     22  C   UNL     1     -11.873 -10.079   8.311  1.00  0.00     0.041 C 
ATOM     23  O   UNL     1     -12.441  -9.620   9.337  1.00  0.00    -0.550 OA
ATOM     24  O   UNL     1     -11.332 -11.358   8.338  1.00  0.00    -0.550 OA
ENDBRANCH  21  22
ENDBRANCH  20  21
ENDBRANCH  19  20
ENDBRANCH  18  19
ENDBRANCH  17  18
ENDBRANCH  16  17
ENDBRANCH  15  16
ENDBRANCH  14  15
ENDBRANCH  13  14
ENDBRANCH   1  13
TORSDOF 20
ENDMDL
MODEL 9
REMARK VINA RESULT:    -3.951      4.279     10.840
REMARK INTER + INTRA:         -10.427
REMARK INTER:                  -8.948
REMARK INTRA:                  -1.479
REMARK UNBOUND:                -1.856
REMARK SMILES CCCCCCCCCCCCCCCCCCCCCC(=O)[O-]
REMARK SMILES IDX 12 1 11 2 10 3 9 4 8 5 7 6 6 7 5 8 4 9 3 10 2 11 1 12 13 13
REMARK SMILES IDX 14 14 15 15 16 16 17 17 18 18 19 19 20 20 21 21 22 22 23 23
REMARK SMILES IDX 24 24
REMARK H PARENT
REMARK Flexibility Score: inf
ROOT
ATOM      1  C   UNL     1     -11.669 -13.565  -0.226  1.00  0.00     0.000 C 
ENDROOT
BRANCH   1   2
ATOM      2  C   UNL     1     -12.358 -12.221  -0.526  1.00  0.00     0.000 C 
BRANCH   2   3
ATOM      3  C   UNL     1     -13.247 -11.732   0.630  1.00  0.00     0.000 C 
BRANCH   3   4
ATOM      4  C   UNL     1     -14.072 -12.863   1.271  1.00  0.00    -0.000 C 
BRANCH   4   5
ATOM      5  C   UNL     1     -13.923 -13.002   2.800  1.00  0.00    -0.000 C 
BRANCH   5   6
ATOM      6  C   UNL     1     -12.505 -12.743   3.349  1.00  0.00    -0.000 C 
BRANCH   6   7
ATOM      7  C   UNL     1     -12.435 -11.743   4.518  1.00  0.00    -0.000 C 
BRANCH   7   8
ATOM      8  C   UNL     1     -13.006 -10.364   4.160  1.00  0.00    -0.000 C 
BRANCH   8   9
ATOM      9  C   UNL     1     -13.484  -9.626   5.416  1.00  0.00    -0.000 C 
BRANCH   9  10
ATOM     10  C   UNL     1     -12.849 -10.222   6.682  1.00  0.00    -0.000 C 
BRANCH  10  11
ATOM     11  C   UNL     1     -12.041  -9.188   7.480  1.00  0.00    -0.003 C 
ATOM     12  C   UNL     1     -12.882  -8.465   8.534  1.00  0.00     0.004 C 
ENDBRANCH  10  11
ENDBRANCH   9  10
ENDBRANCH   8   9
ENDBRANCH   7   8
ENDBRANCH   6   7
ENDBRANCH   5   6
ENDBRANCH   4   5
ENDBRANCH   3   4
ENDBRANCH   2   3
ENDBRANCH   1   2
BRANCH   1  13
ATOM     13  C   UNL     1     -10.794 -14.125  -1.363  1.00  0.00     0.000 C 
BRANCH  13  14
ATOM     14  C   UNL     1      -9.875 -13.062  -1.991  1.00  0.00     0.000 C 
BRANCH  14  15
ATOM     15  C   UNL     1      -9.576 -13.346  -3.472  1.00  0.00     0.000 C 
BRANCH  15  16
ATOM     16  C   UNL     1      -8.230 -14.067  -3.674  1.00  0.00     0.000 C 
BRANCH  16  17
ATOM     17  C   UNL     1      -7.042 -13.092  -3.779  1.00  0.00     0.000 C 
BRANCH  17  18
ATOM     18  C   UNL     1      -5.721 -13.722  -4.260  1.00  0.00     0.000 C 
BRANCH  18  19
ATOM     19  C   UNL     1      -4.999 -12.948  -5.380  1.00  0.00     0.000 C 
BRANCH  19  20
ATOM     20  C   UNL     1      -5.907 -11.946  -6.126  1.00  0.00     0.006 C 
BRANCH  20  21
ATOM     21  C   UNL     1      -6.333 -12.459  -7.508  1.00  0.00     0.053 C 
BRANCH  21  22
ATOM     22  C   UNL     1      -7.779 -12.163  -7.752  1.00  0.00     0.041 C 
ATOM     23  O   UNL     1      -8.136 -11.581  -8.810  1.00  0.00    -0.550 OA
ATOM     24  O   UNL     1      -8.726 -12.478  -6.786  1.00  0.00    -0.550 OA
ENDBRANCH  21  22
ENDBRANCH  20  21
ENDBRANCH  19  20
ENDBRANCH  18  19
ENDBRANCH  17  18
ENDBRANCH  16  17
ENDBRANCH  15  16
ENDBRANCH  14  15
ENDBRANCH  13  14
ENDBRANCH   1  13
TORSDOF 20
ENDMDL
