MODEL 1
REMARK VINA RESULT:    -4.291      0.000      0.000
REMARK INTER + INTRA:          -8.876
REMARK INTER:                  -7.302
REMARK INTRA:                  -1.575
REMARK UNBOUND:                -1.575
REMARK SMILES CCCCCCCCCCCCCC(=O)[O-]
REMARK SMILES IDX 8 1 9 2 10 3 11 4 12 5 13 6 14 7 15 8 16 9 7 10 6 11 5 12
REMARK SMILES IDX 4 13 3 14 2 15 1 16
REMARK H PARENT
REMARK Flexibility Score: inf
ROOT
ATOM      1  C   UNL     1     -10.289   3.827  19.364  1.00  0.00     0.000 C 
ENDROOT
BRANCH   1   2
ATOM      2  C   UNL     1     -11.583   3.346  18.692  1.00  0.00     0.000 C 
BRANCH   2   3
ATOM      3  C   UNL     1     -11.591   3.699  17.198  1.00  0.00     0.000 C 
BRANCH   3   4
ATOM      4  C   UNL     1     -12.446   2.735  16.359  1.00  0.00     0.000 C 
BRANCH   4   5
ATOM      5  C   UNL     1     -11.779   1.363  16.124  1.00  0.00     0.006 C 
BRANCH   5   6
ATOM      6  C   UNL     1     -10.409   1.493  15.444  1.00  0.00     0.053 C 
BRANCH   6   7
ATOM      7  C   UNL     1     -10.325   0.587  14.257  1.00  0.00     0.041 C 
ATOM      8  O   UNL     1      -9.222   0.402  13.677  1.00  0.00    -0.550 OA
ATOM      9  O   UNL     1     -11.455  -0.093  13.819  1.00  0.00    -0.550 OA
ENDBRANCH   6   7
ENDBRANCH   5   6
ENDBRANCH   4   5
ENDBRANCH   3   4
ENDBRANCH   2   3
ENDBRANCH   1   2
BRANCH   1  10
ATOM     10  C   UNL     1      -9.483   2.678  19.998  1.00  0.00     0.000 C 
BRANCH  10  11
ATOM     11  C   UNL     1      -8.635   1.851  19.011  1.00  0.00    -0.000 C 
BRANCH  11  12
ATOM     12  C   UNL     1      -9.182   0.448  18.691  1.00  0.00    -0.000 C 
BRANCH  12  13
ATOM     13  C   UNL     1      -8.873  -0.579  19.794  1.00  0.00    -0.000 C 
BRANCH  13  14
ATOM     14  C   UNL     1     -10.122  -1.356  20.242  1.00  0.00    -0.000 C 
BRANCH  14  15
ATOM     15  C   UNL     1     -11.406  -0.519  20.145  1.00  0.00    -0.003 C 
ATOM     16  C   UNL     1     -11.737   0.133  21.485  1.00  0.00     0.004 C 
ENDBRANCH  14  15
ENDBRANCH  13  14
ENDBRANCH  12  13
ENDBRANCH  11  12
ENDBRANCH  10  11
ENDBRANCH   1  10
TORSDOF 12
ENDMDL
MODEL 2
REMARK VINA RESULT:    -4.255      1.563      2.061
REMARK INTER + INTRA:          -8.815
REMARK INTER:                  -7.468
REMARK INTRA:                  -1.347
REMARK UNBOUND:                -1.575
REMARK SMILES CCCCCCCCCCCCCC(=O)[O-]
REMARK SMILES IDX 8 1 9 2 10 3 11 4 12 5 13 6 14 7 15 8 16 9 7 10 6 11 5 12
REMARK SMILES IDX 4 13 3 14 2 15 1 16
REMARK H PARENT
REMARK Flexibility Score: inf
ROOT
ATOM      1  C   UNL     1     -10.950   1.674  18.893  1.00  0.00     0.000 C 
ENDROOT
BRANCH   1   2
ATOM      2  C   UNL     1     -11.354   2.324  17.562  1.00  0.00     0.000 C 
BRANCH   2   3
ATOM      3  C   UNL     1     -10.165   3.057  16.925  1.00  0.00     0.000 C 
BRANCH   3   4
ATOM      4  C   UNL     1      -9.745   2.455  15.573  1.00  0.00     0.000 C 
BRANCH   4   5
ATOM      5  C   UNL     1     -10.014   0.938  15.462  1.00  0.00     0.006 C 
BRANCH   5   6
ATOM      6  C   UNL     1     -10.543   0.544  14.076  1.00  0.00     0.053 C 
BRANCH   6   7
ATOM      7  C   UNL     1     -12.002   0.224  14.145  1.00  0.00     0.041 C 
ATOM      8  O   UNL     1     -12.687   0.596  15.134  1.00  0.00    -0.550 OA
ATOM      9  O   UNL     1     -12.618  -0.443  13.093  1.00  0.00    -0.550 OA
ENDBRANCH   6   7
ENDBRANCH   5   6
ENDBRANCH   4   5
ENDBRANCH   3   4
ENDBRANCH   2   3
ENDBRANCH   1   2
BRANCH   1  10
ATOM     10  C   UNL     1      -9.440   1.776  19.172  1.00  0.00     0.000 C 
BRANCH  10  11
ATOM     11  C   UNL     1      -8.709   0.427  19.322  1.00  0.00    -0.000 C 
BRANCH  11  12
ATOM     12  C   UNL     1      -9.611  -0.819  19.255  1.00  0.00    -0.000 C 
BRANCH  12  13
ATOM     13  C   UNL     1      -9.939  -1.394  20.643  1.00  0.00    -0.000 C 
BRANCH  13  14
ATOM     14  C   UNL     1      -8.925  -0.961  21.714  1.00  0.00    -0.000 C 
BRANCH  14  15
ATOM     15  C   UNL     1      -9.546  -0.050  22.784  1.00  0.00    -0.003 C 
ATOM     16  C   UNL     1     -10.991   0.298  22.435  1.00  0.00     0.004 C 
ENDBRANCH  14  15
ENDBRANCH  13  14
ENDBRANCH  12  13
ENDBRANCH  11  12
ENDBRANCH  10  11
ENDBRANCH   1  10
TORSDOF 12
ENDMDL
MODEL 3
REMARK VINA RESULT:    -4.114      1.450      2.640
REMARK INTER + INTRA:          -8.575
REMARK INTER:                  -7.183
REMARK INTRA:                  -1.391
REMARK UNBOUND:                -1.575
REMARK SMILES CCCCCCCCCCCCCC(=O)[O-]
REMARK SMILES IDX 8 1 9 2 10 3 11 4 12 5 13 6 14 7 15 8 16 9 7 10 6 11 5 12
REMARK SMILES IDX 4 13 3 14 2 15 1 16
REMARK H PARENT
REMARK Flexibility Score: inf
ROOT
ATOM      1  C   UNL     1      -9.629   0.567  18.732  1.00  0.00     0.000 C 
ENDROOT
BRANCH   1   2
ATOM      2  C   UNL     1      -9.015   1.970  18.835  1.00  0.00     0.000 C 
BRANCH   2   3
ATOM      3  C   UNL     1      -9.721   2.950  17.887  1.00  0.00     0.000 C 
BRANCH   3   4
ATOM      4  C   UNL     1      -9.365   2.716  16.409  1.00  0.00     0.000 C 
BRANCH   4   5
ATOM      5  C   UNL     1     -10.595   2.655  15.478  1.00  0.00     0.006 C 
BRANCH   5   6
ATOM      6  C   UNL     1     -11.317   1.304  15.561  1.00  0.00     0.053 C 
BRANCH   6   7
ATOM      7  C   UNL     1     -11.113   0.523  14.301  1.00  0.00     0.041 C 
ATOM      8  O   UNL     1      -9.955   0.170  13.955  1.00  0.00    -0.550 OA
ATOM      9  O   UNL     1     -12.207   0.143  13.533  1.00  0.00    -0.550 OA
ENDBRANCH   6   7
ENDBRANCH   5   6
ENDBRANCH   4   5
ENDBRANCH   3   4
ENDBRANCH   2   3
ENDBRANCH   1   2
BRANCH   1  10
ATOM     10  C   UNL     1      -8.816  -0.496  19.492  1.00  0.00     0.000 C 
BRANCH  10  11
ATOM     11  C   UNL     1      -9.553  -1.165  20.670  1.00  0.00    -0.000 C 
BRANCH  11  12
ATOM     12  C   UNL     1      -8.929  -0.925  22.056  1.00  0.00    -0.000 C 
BRANCH  12  13
ATOM     13  C   UNL     1      -9.679   0.142  22.871  1.00  0.00    -0.000 C 
BRANCH  13  14
ATOM     14  C   UNL     1     -11.026   0.528  22.238  1.00  0.00    -0.000 C 
BRANCH  14  15
ATOM     15  C   UNL     1     -11.155   2.039  21.997  1.00  0.00    -0.003 C 
ATOM     16  C   UNL     1     -12.146   2.333  20.873  1.00  0.00     0.004 C 
ENDBRANCH  14  15
ENDBRANCH  13  14
ENDBRANCH  12  13
ENDBRANCH  11  12
ENDBRANCH  10  11
ENDBRANCH   1  10
TORSDOF 12
ENDMDL
MODEL 4
REMARK VINA RESULT:    -4.064      1.397      2.221
REMARK INTER + INTRA:          -8.490
REMARK INTER:                  -6.873
REMARK INTRA:                  -1.617
REMARK UNBOUND:                -1.575
REMARK SMILES CCCCCCCCCCCCCC(=O)[O-]
REMARK SMILES IDX 8 1 9 2 10 3 11 4 12 5 13 6 14 7 15 8 16 9 7 10 6 11 5 12
REMARK SMILES IDX 4 13 3 14 2 15 1 16
REMARK H PARENT
REMARK Flexibility Score: inf
ROOT
ATOM      1  C   UNL     1      -7.885   3.436  18.990  1.00  0.00     0.000 C 
ENDROOT
BRANCH   1   2
ATOM      2  C   UNL     1      -8.480   2.917  17.673  1.00  0.00     0.000 C 
BRANCH   2   3
ATOM      3  C   UNL     1      -9.640   3.807  17.205  1.00  0.00     0.000 C 
BRANCH   3   4
ATOM      4  C   UNL     1     -10.415   3.207  16.020  1.00  0.00     0.000 C 
BRANCH   4   5
ATOM      5  C   UNL     1     -10.476   1.665  16.038  1.00  0.00     0.006 C 
BRANCH   5   6
ATOM      6  C   UNL     1     -11.826   1.132  15.538  1.00  0.00     0.053 C 
BRANCH   6   7
ATOM      7  C   UNL     1     -11.650   0.378  14.258  1.00  0.00     0.041 C 
ATOM      8  O   UNL     1     -12.641   0.155  13.513  1.00  0.00    -0.550 OA
ATOM      9  O   UNL     1     -10.384  -0.036  13.863  1.00  0.00    -0.550 OA
ENDBRANCH   6   7
ENDBRANCH   5   6
ENDBRANCH   4   5
ENDBRANCH   3   4
ENDBRANCH   2   3
ENDBRANCH   1   2
BRANCH   1  10
ATOM     10  C   UNL     1      -8.956   3.703  20.063  1.00  0.00     0.000 C 
BRANCH  10  11
ATOM     11  C   UNL     1      -9.584   2.443  20.690  1.00  0.00    -0.000 C 
BRANCH  11  12
ATOM     12  C   UNL     1     -11.018   2.125  20.229  1.00  0.00    -0.000 C 
BRANCH  12  13
ATOM     13  C   UNL     1     -11.129   0.766  19.518  1.00  0.00    -0.000 C 
BRANCH  13  14
ATOM     14  C   UNL     1      -9.790   0.013  19.475  1.00  0.00    -0.000 C 
BRANCH  14  15
ATOM     15  C   UNL     1      -9.794  -1.253  20.344  1.00  0.00    -0.003 C 
ATOM     16  C   UNL     1      -9.076  -1.010  21.669  1.00  0.00     0.004 C 
ENDBRANCH  14  15
ENDBRANCH  13  14
ENDBRANCH  12  13
ENDBRANCH  11  12
ENDBRANCH  10  11
ENDBRANCH   1  10
TORSDOF 12
ENDMDL
MODEL 5
REMARK VINA RESULT:    -4.041      3.415      6.095
REMARK INTER + INTRA:          -8.451
REMARK INTER:                  -7.084
REMARK INTRA:                  -1.367
REMARK UNBOUND:                -1.575
REMARK SMILES CCCCCCCCCCCCCC(=O)[O-]
REMARK SMILES IDX 8 1 9 2 10 3 11 4 12 5 13 6 14 7 15 8 16 9 7 10 6 11 5 12
REMARK SMILES IDX 4 13 3 14 2 15 1 16
REMARK H PARENT
REMARK Flexibility Score: inf
ROOT
ATOM      1  C   UNL     1      -9.969   2.784  19.739  1.00  0.00     0.000 C 
ENDROOT
BRANCH   1   2
ATOM      2  C   UNL     1      -8.928   1.893  19.046  1.00  0.00     0.000 C 
BRANCH   2   3
ATOM      3  C   UNL     1      -9.481   0.479  18.815  1.00  0.00     0.000 C 
BRANCH   3   4
ATOM      4  C   UNL     1      -8.724  -0.597  19.611  1.00  0.00     0.000 C 
BRANCH   4   5
ATOM      5  C   UNL     1      -9.552  -1.215  20.758  1.00  0.00     0.006 C 
BRANCH   5   6
ATOM      6  C   UNL     1      -9.037  -0.789  22.140  1.00  0.00     0.053 C 
BRANCH   6   7
ATOM      7  C   UNL     1      -9.828   0.370  22.658  1.00  0.00     0.041 C 
ATOM      8  O   UNL     1     -11.026   0.528  22.304  1.00  0.00    -0.550 OA
ATOM      9  O   UNL     1      -9.258   1.248  23.572  1.00  0.00    -0.550 OA
ENDBRANCH   6   7
ENDBRANCH   5   6
ENDBRANCH   4   5
ENDBRANCH   3   4
ENDBRANCH   2   3
ENDBRANCH   1   2
BRANCH   1  10
ATOM     10  C   UNL     1     -10.562   3.850  18.800  1.00  0.00     0.000 C 
BRANCH  10  11
ATOM     11  C   UNL     1     -12.066   3.695  18.501  1.00  0.00    -0.000 C 
BRANCH  11  12
ATOM     12  C   UNL     1     -12.419   3.438  17.024  1.00  0.00    -0.000 C 
BRANCH  12  13
ATOM     13  C   UNL     1     -11.866   2.101  16.503  1.00  0.00    -0.000 C 
BRANCH  13  14
ATOM     14  C   UNL     1     -10.827   2.290  15.385  1.00  0.00    -0.000 C 
BRANCH  14  15
ATOM     15  C   UNL     1      -9.797   1.151  15.337  1.00  0.00    -0.003 C 
ATOM     16  C   UNL     1      -9.732   0.530  13.944  1.00  0.00     0.004 C 
ENDBRANCH  14  15
ENDBRANCH  13  14
ENDBRANCH  12  13
ENDBRANCH  11  12
ENDBRANCH  10  11
ENDBRANCH   1  10
TORSDOF 12
ENDMDL
MODEL 6
REMARK VINA RESULT:    -3.986      3.398      6.381
REMARK INTER + INTRA:          -8.357
REMARK INTER:                  -7.031
REMARK INTRA:                  -1.326
REMARK UNBOUND:                -1.575
REMARK SMILES CCCCCCCCCCCCCC(=O)[O-]
REMARK SMILES IDX 8 1 9 2 10 3 11 4 12 5 13 6 14 7 15 8 16 9 7 10 6 11 5 12
REMARK SMILES IDX 4 13 3 14 2 15 1 16
REMARK H PARENT
REMARK Flexibility Score: inf
ROOT
ATOM      1  C   UNL     1      -9.246   0.910  18.790  1.00  0.00     0.000 C 
ENDROOT
BRANCH   1   2
ATOM      2  C   UNL     1      -8.711  -0.412  19.359  1.00  0.00     0.000 C 
BRANCH   2   3
ATOM      3  C   UNL     1      -9.624  -0.941  20.474  1.00  0.00     0.000 C 
BRANCH   3   4
ATOM      4  C   UNL     1      -8.970  -0.876  21.865  1.00  0.00     0.000 C 
BRANCH   4   5
ATOM      5  C   UNL     1      -9.821  -0.130  22.915  1.00  0.00     0.006 C 
BRANCH   5   6
ATOM      6  C   UNL     1     -10.423   1.167  22.356  1.00  0.00     0.053 C 
BRANCH   6   7
ATOM      7  C   UNL     1     -11.911   1.158  22.501  1.00  0.00     0.041 C 
ATOM      8  O   UNL     1     -12.599   2.105  22.037  1.00  0.00    -0.550 OA
ATOM      9  O   UNL     1     -12.545   0.079  23.105  1.00  0.00    -0.550 OA
ENDBRANCH   6   7
ENDBRANCH   5   6
ENDBRANCH   4   5
ENDBRANCH   3   4
ENDBRANCH   2   3
ENDBRANCH   1   2
BRANCH   1  10
ATOM     10  C   UNL     1     -10.781   0.931  18.674  1.00  0.00     0.000 C 
BRANCH  10  11
ATOM     11  C   UNL     1     -11.426   2.328  18.771  1.00  0.00    -0.000 C 
BRANCH  11  12
ATOM     12  C   UNL     1     -11.913   2.921  17.436  1.00  0.00    -0.000 C 
BRANCH  12  13
ATOM     13  C   UNL     1     -11.665   1.984  16.242  1.00  0.00    -0.000 C 
BRANCH  13  14
ATOM     14  C   UNL     1     -10.473   2.430  15.380  1.00  0.00    -0.000 C 
BRANCH  14  15
ATOM     15  C   UNL     1      -9.513   1.277  15.054  1.00  0.00    -0.003 C 
ATOM     16  C   UNL     1     -10.159   0.281  14.094  1.00  0.00     0.004 C 
ENDBRANCH  14  15
ENDBRANCH  13  14
ENDBRANCH  12  13
ENDBRANCH  11  12
ENDBRANCH  10  11
ENDBRANCH   1  10
TORSDOF 12
ENDMDL
MODEL 7
REMARK VINA RESULT:    -3.982      2.788      5.249
REMARK INTER + INTRA:          -8.350
REMARK INTER:                  -6.666
REMARK INTRA:                  -1.684
REMARK UNBOUND:                -1.575
REMARK SMILES CCCCCCCCCCCCCC(=O)[O-]
REMARK SMILES IDX 8 1 9 2 10 3 11 4 12 5 13 6 14 7 15 8 16 9 7 10 6 11 5 12
REMARK SMILES IDX 4 13 3 14 2 15 1 16
REMARK H PARENT
REMARK Flexibility Score: inf
ROOT
ATOM      1  C   UNL     1     -10.676   4.363  19.019  1.00  0.00     0.000 C 
ENDROOT
BRANCH   1   2
ATOM      2  C   UNL     1      -9.179   4.315  18.685  1.00  0.00     0.000 C 
BRANCH   2   3
ATOM      3  C   UNL     1      -8.602   2.915  18.943  1.00  0.00     0.000 C 
BRANCH   3   4
ATOM      4  C   UNL     1      -9.681   1.881  19.308  1.00  0.00     0.000 C 
BRANCH   4   5
ATOM      5  C   UNL     1      -9.498   0.521  18.600  1.00  0.00     0.006 C 
BRANCH   5   6
ATOM      6  C   UNL     1      -8.701  -0.474  19.454  1.00  0.00     0.053 C 
BRANCH   6   7
ATOM      7  C   UNL     1      -9.550  -1.009  20.563  1.00  0.00     0.041 C 
ATOM      8  O   UNL     1      -9.068  -1.150  21.718  1.00  0.00    -0.550 OA
ATOM      9  O   UNL     1     -10.888  -1.305  20.334  1.00  0.00    -0.550 OA
ENDBRANCH   6   7
ENDBRANCH   5   6
ENDBRANCH   4   5
ENDBRANCH   3   4
ENDBRANCH   2   3
ENDBRANCH   1   2
BRANCH   1  10
ATOM     10  C   UNL     1     -11.478   5.239  18.039  1.00  0.00     0.000 C 
BRANCH  10  11
ATOM     11  C   UNL     1     -11.980   4.515  16.774  1.00  0.00    -0.000 C 
BRANCH  11  12
ATOM     12  C   UNL     1     -12.243   3.007  16.942  1.00  0.00    -0.000 C 
BRANCH  12  13
ATOM     13  C   UNL     1     -11.715   2.174  15.761  1.00  0.00    -0.000 C 
BRANCH  13  14
ATOM     14  C   UNL     1     -10.200   2.339  15.555  1.00  0.00    -0.000 C 
BRANCH  14  15
ATOM     15  C   UNL     1      -9.575   1.161  14.795  1.00  0.00    -0.003 C 
ATOM     16  C   UNL     1     -10.647   0.325  14.101  1.00  0.00     0.004 C 
ENDBRANCH  14  15
ENDBRANCH  13  14
ENDBRANCH  12  13
ENDBRANCH  11  12
ENDBRANCH  10  11
ENDBRANCH   1  10
TORSDOF 12
ENDMDL
MODEL 8
REMARK VINA RESULT:    -3.931      1.255      2.300
REMARK INTER + INTRA:          -8.263
REMARK INTER:                  -6.517
REMARK INTRA:                  -1.746
REMARK UNBOUND:                -1.575
REMARK SMILES CCCCCCCCCCCCCC(=O)[O-]
REMARK SMILES IDX 8 1 9 2 10 3 11 4 12 5 13 6 14 7 15 8 16 9 7 10 6 11 5 12
REMARK SMILES IDX 4 13 3 14 2 15 1 16
REMARK H PARENT
REMARK Flexibility Score: inf
ROOT
ATOM      1  C   UNL     1     -10.828   5.458  18.181  1.00  0.00     0.000 C 
ENDROOT
BRANCH   1   2
ATOM      2  C   UNL     1     -11.638   5.282  16.889  1.00  0.00     0.000 C 
BRANCH   2   3
ATOM      3  C   UNL     1     -11.323   3.936  16.221  1.00  0.00     0.000 C 
BRANCH   3   4
ATOM      4  C   UNL     1     -12.005   2.747  16.919  1.00  0.00     0.000 C 
BRANCH   4   5
ATOM      5  C   UNL     1     -11.614   1.376  16.328  1.00  0.00     0.006 C 
BRANCH   5   6
ATOM      6  C   UNL     1     -10.293   1.436  15.548  1.00  0.00     0.053 C 
BRANCH   6   7
ATOM      7  C   UNL     1     -10.373   0.592  14.316  1.00  0.00     0.041 C 
ATOM      8  O   UNL     1      -9.322   0.144  13.786  1.00  0.00    -0.550 OA
ATOM      9  O   UNL     1     -11.611   0.258  13.781  1.00  0.00    -0.550 OA
ENDBRANCH   6   7
ENDBRANCH   5   6
ENDBRANCH   4   5
ENDBRANCH   3   4
ENDBRANCH   2   3
ENDBRANCH   1   2
BRANCH   1  10
ATOM     10  C   UNL     1      -9.312   5.308  17.959  1.00  0.00     0.000 C 
BRANCH  10  11
ATOM     11  C   UNL     1      -8.510   4.868  19.200  1.00  0.00    -0.000 C 
BRANCH  11  12
ATOM     12  C   UNL     1      -7.655   3.601  19.014  1.00  0.00    -0.000 C 
BRANCH  12  13
ATOM     13  C   UNL     1      -8.494   2.364  18.652  1.00  0.00    -0.000 C 
BRANCH  13  14
ATOM     14  C   UNL     1      -9.550   2.034  19.721  1.00  0.00    -0.000 C 
BRANCH  14  15
ATOM     15  C   UNL     1     -10.043   0.583  19.638  1.00  0.00    -0.003 C 
ATOM     16  C   UNL     1      -8.903  -0.363  19.267  1.00  0.00     0.004 C 
ENDBRANCH  14  15
ENDBRANCH  13  14
ENDBRANCH  12  13
ENDBRANCH  11  12
ENDBRANCH  10  11
ENDBRANCH   1  10
TORSDOF 12
ENDMDL
MODEL 9
REMARK VINA RESULT:    -3.924      1.496      3.655
REMARK INTER + INTRA:          -8.252
REMARK INTER:                  -6.201
REMARK INTRA:                  -2.050
REMARK UNBOUND:                -1.575
REMARK SMILES CCCCCCCCCCCCCC(=O)[O-]
REMARK SMILES IDX 8 1 9 2 10 3 11 4 12 5 13 6 14 7 15 8 16 9 7 10 6 11 5 12
REMARK SMILES IDX 4 13 3 14 2 15 1 16
REMARK H PARENT
REMARK Flexibility Score: inf
ROOT
ATOM      1  C   UNL     1      -8.764  -0.483  19.644  1.00  0.00     0.000 C 
ENDROOT
BRANCH   1   2
ATOM      2  C   UNL     1      -9.486   0.407  18.622  1.00  0.00     0.000 C 
BRANCH   2   3
ATOM      3  C   UNL     1      -9.007   1.862  18.724  1.00  0.00     0.000 C 
BRANCH   3   4
ATOM      4  C   UNL     1     -10.130   2.882  18.474  1.00  0.00     0.000 C 
BRANCH   4   5
ATOM      5  C   UNL     1     -11.465   2.237  18.041  1.00  0.00     0.006 C 
BRANCH   5   6
ATOM      6  C   UNL     1     -11.881   2.661  16.626  1.00  0.00     0.053 C 
BRANCH   6   7
ATOM      7  C   UNL     1     -11.643   1.548  15.656  1.00  0.00     0.041 C 
ATOM      8  O   UNL     1     -12.608   0.855  15.238  1.00  0.00    -0.550 OA
ATOM      9  O   UNL     1     -10.363   1.305  15.174  1.00  0.00    -0.550 OA
ENDBRANCH   6   7
ENDBRANCH   5   6
ENDBRANCH   4   5
ENDBRANCH   3   4
ENDBRANCH   2   3
ENDBRANCH   1   2
BRANCH   1  10
ATOM     10  C   UNL     1      -9.681  -0.935  20.795  1.00  0.00     0.000 C 
BRANCH  10  11
ATOM     11  C   UNL     1     -11.142  -0.455  20.694  1.00  0.00    -0.000 C 
BRANCH  11  12
ATOM     12  C   UNL     1     -11.662   0.328  21.914  1.00  0.00    -0.000 C 
BRANCH  12  13
ATOM     13  C   UNL     1     -12.170   1.733  21.550  1.00  0.00    -0.000 C 
BRANCH  13  14
ATOM     14  C   UNL     1     -11.349   2.848  22.220  1.00  0.00    -0.000 C 
BRANCH  14  15
ATOM     15  C   UNL     1      -9.847   2.533  22.262  1.00  0.00    -0.003 C 
ATOM     16  C   UNL     1      -9.016   3.786  21.996  1.00  0.00     0.004 C 
ENDBRANCH  14  15
ENDBRANCH  13  14
ENDBRANCH  12  13
ENDBRANCH  11  12
ENDBRANCH  10  11
ENDBRANCH   1  10
TORSDOF 12
ENDMDL
