MODEL 1
REMARK VINA RESULT:    -3.412      0.000      0.000
REMARK INTER + INTRA:          -9.162
REMARK INTER:                  -6.604
REMARK INTRA:                  -2.558
REMARK UNBOUND:                -2.558
REMARK SMILES CCCCCCCCCCCCCCCCCC(=O)[O-]
REMARK SMILES IDX 10 1 11 2 12 3 13 4 14 5 15 6 16 7 17 8 18 9 19 10 20 11
REMARK SMILES IDX 9 12 8 13 7 14 6 15 5 16 4 17 3 18 2 19 1 20
REMARK H PARENT
REMARK Flexibility Score: inf
ROOT
ATOM      1  C   UNL     1      61.707  32.446  60.826  1.00  0.00     0.000 C 
ENDROOT
BRANCH   1   2
ATOM      2  C   UNL     1      61.234  31.113  61.442  1.00  0.00     0.000 C 
BRANCH   2   3
ATOM      3  C   UNL     1      62.358  30.153  61.869  1.00  0.00     0.000 C 
BRANCH   3   4
ATOM      4  C   UNL     1      62.231  28.760  61.229  1.00  0.00     0.000 C 
BRANCH   4   5
ATOM      5  C   UNL     1      63.584  28.181  60.777  1.00  0.00     0.000 C 
BRANCH   5   6
ATOM      6  C   UNL     1      64.192  28.837  59.523  1.00  0.00     0.000 C 
BRANCH   6   7
ATOM      7  C   UNL     1      65.600  29.406  59.766  1.00  0.00     0.006 C 
BRANCH   7   8
ATOM      8  C   UNL     1      66.116  29.093  61.176  1.00  0.00     0.053 C 
BRANCH   8   9
ATOM      9  C   UNL     1      67.507  28.535  61.146  1.00  0.00     0.041 C 
ATOM     10  O   UNL     1      67.813  27.641  60.314  1.00  0.00    -0.550 OA
ATOM     11  O   UNL     1      68.472  29.031  62.013  1.00  0.00    -0.550 OA
ENDBRANCH   8   9
ENDBRANCH   7   8
ENDBRANCH   6   7
ENDBRANCH   5   6
ENDBRANCH   4   5
ENDBRANCH   3   4
ENDBRANCH   2   3
ENDBRANCH   1   2
BRANCH   1  12
ATOM     12  C   UNL     1      62.711  32.311  59.665  1.00  0.00     0.000 C 
BRANCH  12  13
ATOM     13  C   UNL     1      64.117  32.875  59.954  1.00  0.00    -0.000 C 
BRANCH  13  14
ATOM     14  C   UNL     1      64.307  33.447  61.373  1.00  0.00    -0.000 C 
BRANCH  14  15
ATOM     15  C   UNL     1      64.675  34.943  61.431  1.00  0.00    -0.000 C 
BRANCH  15  16
ATOM     16  C   UNL     1      64.637  35.690  60.080  1.00  0.00    -0.000 C 
BRANCH  16  17
ATOM     17  C   UNL     1      63.435  36.637  59.898  1.00  0.00    -0.000 C 
BRANCH  17  18
ATOM     18  C   UNL     1      62.440  36.613  61.081  1.00  0.00    -0.000 C 
BRANCH  18  19
ATOM     19  C   UNL     1      61.069  36.020  60.715  1.00  0.00    -0.003 C 
ATOM     20  C   UNL     1      60.938  35.707  59.226  1.00  0.00     0.004 C 
ENDBRANCH  18  19
ENDBRANCH  17  18
ENDBRANCH  16  17
ENDBRANCH  15  16
ENDBRANCH  14  15
ENDBRANCH  13  14
ENDBRANCH  12  13
ENDBRANCH   1  12
TORSDOF 16
ENDMDL
MODEL 2
REMARK VINA RESULT:    -3.297      1.415      2.954
REMARK INTER + INTRA:          -8.939
REMARK INTER:                  -6.182
REMARK INTRA:                  -2.757
REMARK UNBOUND:                -2.558
REMARK SMILES CCCCCCCCCCCCCCCCCC(=O)[O-]
REMARK SMILES IDX 10 1 11 2 12 3 13 4 14 5 15 6 16 7 17 8 18 9 19 10 20 11
REMARK SMILES IDX 9 12 8 13 7 14 6 15 5 16 4 17 3 18 2 19 1 20
REMARK H PARENT
REMARK Flexibility Score: inf
ROOT
ATOM      1  C   UNL     1      60.368  32.282  59.356  1.00  0.00     0.000 C 
ENDROOT
BRANCH   1   2
ATOM      2  C   UNL     1      61.094  31.009  59.836  1.00  0.00     0.000 C 
BRANCH   2   3
ATOM      3  C   UNL     1      61.091  30.786  61.358  1.00  0.00     0.000 C 
BRANCH   3   4
ATOM      4  C   UNL     1      62.250  29.896  61.836  1.00  0.00     0.000 C 
BRANCH   4   5
ATOM      5  C   UNL     1      62.013  28.400  61.557  1.00  0.00     0.000 C 
BRANCH   5   6
ATOM      6  C   UNL     1      63.266  27.603  61.149  1.00  0.00     0.000 C 
BRANCH   6   7
ATOM      7  C   UNL     1      64.306  28.458  60.407  1.00  0.00     0.006 C 
BRANCH   7   8
ATOM      8  C   UNL     1      65.681  27.781  60.354  1.00  0.00     0.053 C 
BRANCH   8   9
ATOM      9  C   UNL     1      66.790  28.762  60.587  1.00  0.00     0.041 C 
ATOM     10  O   UNL     1      67.312  28.869  61.728  1.00  0.00    -0.550 OA
ATOM     11  O   UNL     1      67.269  29.532  59.535  1.00  0.00    -0.550 OA
ENDBRANCH   8   9
ENDBRANCH   7   8
ENDBRANCH   6   7
ENDBRANCH   5   6
ENDBRANCH   4   5
ENDBRANCH   3   4
ENDBRANCH   2   3
ENDBRANCH   1   2
BRANCH   1  12
ATOM     12  C   UNL     1      61.202  33.211  58.452  1.00  0.00     0.000 C 
BRANCH  12  13
ATOM     13  C   UNL     1      61.469  34.614  59.033  1.00  0.00    -0.000 C 
BRANCH  13  14
ATOM     14  C   UNL     1      61.755  34.645  60.547  1.00  0.00    -0.000 C 
BRANCH  14  15
ATOM     15  C   UNL     1      63.073  35.337  60.950  1.00  0.00    -0.000 C 
BRANCH  15  16
ATOM     16  C   UNL     1      64.312  34.418  61.013  1.00  0.00    -0.000 C 
BRANCH  16  17
ATOM     17  C   UNL     1      63.998  32.911  61.080  1.00  0.00    -0.000 C 
BRANCH  17  18
ATOM     18  C   UNL     1      64.879  32.051  60.145  1.00  0.00    -0.000 C 
BRANCH  18  19
ATOM     19  C   UNL     1      64.640  32.330  58.652  1.00  0.00    -0.003 C 
ATOM     20  C   UNL     1      64.254  31.076  57.870  1.00  0.00     0.004 C 
ENDBRANCH  18  19
ENDBRANCH  17  18
ENDBRANCH  16  17
ENDBRANCH  15  16
ENDBRANCH  14  15
ENDBRANCH  13  14
ENDBRANCH  12  13
ENDBRANCH   1  12
TORSDOF 16
ENDMDL
MODEL 3
REMARK VINA RESULT:    -3.212      2.739      4.908
REMARK INTER + INTRA:          -8.775
REMARK INTER:                  -7.628
REMARK INTRA:                  -1.147
REMARK UNBOUND:                -2.558
REMARK SMILES CCCCCCCCCCCCCCCCCC(=O)[O-]
REMARK SMILES IDX 10 1 11 2 12 3 13 4 14 5 15 6 16 7 17 8 18 9 19 10 20 11
REMARK SMILES IDX 9 12 8 13 7 14 6 15 5 16 4 17 3 18 2 19 1 20
REMARK H PARENT
REMARK Flexibility Score: inf
ROOT
ATOM      1  C   UNL     1      64.967  30.035  60.054  1.00  0.00     0.000 C 
ENDROOT
BRANCH   1   2
ATOM      2  C   UNL     1      66.430  29.569  60.203  1.00  0.00     0.000 C 
BRANCH   2   3
ATOM      3  C   UNL     1      66.612  28.163  60.802  1.00  0.00     0.000 C 
BRANCH   3   4
ATOM      4  C   UNL     1      68.089  27.754  60.929  1.00  0.00     0.000 C 
BRANCH   4   5
ATOM      5  C   UNL     1      69.009  28.932  61.298  1.00  0.00     0.000 C 
BRANCH   5   6
ATOM      6  C   UNL     1      69.990  29.368  60.194  1.00  0.00     0.000 C 
BRANCH   6   7
ATOM      7  C   UNL     1      71.449  29.431  60.677  1.00  0.00     0.006 C 
BRANCH   7   8
ATOM      8  C   UNL     1      71.769  30.753  61.384  1.00  0.00     0.053 C 
BRANCH   8   9
ATOM      9  C   UNL     1      71.795  31.902  60.422  1.00  0.00     0.041 C 
ATOM     10  O   UNL     1      71.470  33.057  60.805  1.00  0.00    -0.550 OA
ATOM     11  O   UNL     1      72.213  31.702  59.113  1.00  0.00    -0.550 OA
ENDBRANCH   8   9
ENDBRANCH   7   8
ENDBRANCH   6   7
ENDBRANCH   5   6
ENDBRANCH   4   5
ENDBRANCH   3   4
ENDBRANCH   2   3
ENDBRANCH   1   2
BRANCH   1  12
ATOM     12  C   UNL     1      64.191  30.193  61.376  1.00  0.00     0.000 C 
BRANCH  12  13
ATOM     13  C   UNL     1      62.773  29.586  61.373  1.00  0.00    -0.000 C 
BRANCH  13  14
ATOM     14  C   UNL     1      61.652  30.558  61.792  1.00  0.00    -0.000 C 
BRANCH  14  15
ATOM     15  C   UNL     1      61.064  31.410  60.649  1.00  0.00    -0.000 C 
BRANCH  15  16
ATOM     16  C   UNL     1      61.396  32.917  60.706  1.00  0.00    -0.000 C 
BRANCH  16  17
ATOM     17  C   UNL     1      62.720  33.314  60.026  1.00  0.00    -0.000 C 
BRANCH  17  18
ATOM     18  C   UNL     1      63.799  33.817  61.013  1.00  0.00    -0.000 C 
BRANCH  18  19
ATOM     19  C   UNL     1      63.822  35.347  61.166  1.00  0.00    -0.003 C 
ATOM     20  C   UNL     1      65.083  35.854  61.861  1.00  0.00     0.004 C 
ENDBRANCH  18  19
ENDBRANCH  17  18
ENDBRANCH  16  17
ENDBRANCH  15  16
ENDBRANCH  14  15
ENDBRANCH  13  14
ENDBRANCH  12  13
ENDBRANCH   1  12
TORSDOF 16
ENDMDL
MODEL 4
REMARK VINA RESULT:    -3.193     11.119     12.808
REMARK INTER + INTRA:          -8.739
REMARK INTER:                  -5.832
REMARK INTRA:                  -2.907
REMARK UNBOUND:                -2.558
REMARK SMILES CCCCCCCCCCCCCCCCCC(=O)[O-]
REMARK SMILES IDX 10 1 11 2 12 3 13 4 14 5 15 6 16 7 17 8 18 9 19 10 20 11
REMARK SMILES IDX 9 12 8 13 7 14 6 15 5 16 4 17 3 18 2 19 1 20
REMARK H PARENT
REMARK Flexibility Score: inf
ROOT
ATOM      1  C   UNL     1      58.166  27.302  52.901  1.00  0.00     0.000 C 
ENDROOT
BRANCH   1   2
ATOM      2  C   UNL     1      57.910  28.789  52.581  1.00  0.00     0.000 C 
BRANCH   2   3
ATOM      3  C   UNL     1      59.169  29.669  52.501  1.00  0.00     0.000 C 
BRANCH   3   4
ATOM      4  C   UNL     1      59.888  29.564  51.146  1.00  0.00     0.000 C 
BRANCH   4   5
ATOM      5  C   UNL     1      58.935  29.218  49.986  1.00  0.00     0.000 C 
BRANCH   5   6
ATOM      6  C   UNL     1      59.433  28.113  49.037  1.00  0.00     0.000 C 
BRANCH   6   7
ATOM      7  C   UNL     1      60.694  27.400  49.553  1.00  0.00     0.006 C 
BRANCH   7   8
ATOM      8  C   UNL     1      60.446  25.913  49.834  1.00  0.00     0.053 C 
BRANCH   8   9
ATOM      9  C   UNL     1      60.826  25.544  51.236  1.00  0.00     0.041 C 
ATOM     10  O   UNL     1      60.549  24.402  51.688  1.00  0.00    -0.550 OA
ATOM     11  O   UNL     1      61.517  26.451  52.030  1.00  0.00    -0.550 OA
ENDBRANCH   8   9
ENDBRANCH   7   8
ENDBRANCH   6   7
ENDBRANCH   5   6
ENDBRANCH   4   5
ENDBRANCH   3   4
ENDBRANCH   2   3
ENDBRANCH   1   2
BRANCH   1  12
ATOM     12  C   UNL     1      56.963  26.366  52.670  1.00  0.00     0.000 C 
BRANCH  12  13
ATOM     13  C   UNL     1      57.071  25.466  51.421  1.00  0.00    -0.000 C 
BRANCH  13  14
ATOM     14  C   UNL     1      56.677  26.148  50.096  1.00  0.00    -0.000 C 
BRANCH  14  15
ATOM     15  C   UNL     1      55.202  25.968  49.682  1.00  0.00    -0.000 C 
BRANCH  15  16
ATOM     16  C   UNL     1      54.306  27.213  49.861  1.00  0.00    -0.000 C 
BRANCH  16  17
ATOM     17  C   UNL     1      55.052  28.492  50.287  1.00  0.00    -0.000 C 
BRANCH  17  18
ATOM     18  C   UNL     1      54.117  29.623  50.772  1.00  0.00    -0.000 C 
BRANCH  18  19
ATOM     19  C   UNL     1      54.367  30.041  52.230  1.00  0.00    -0.003 C 
ATOM     20  C   UNL     1      54.224  28.881  53.212  1.00  0.00     0.004 C 
ENDBRANCH  18  19
ENDBRANCH  17  18
ENDBRANCH  16  17
ENDBRANCH  15  16
ENDBRANCH  14  15
ENDBRANCH  13  14
ENDBRANCH  12  13
ENDBRANCH   1  12
TORSDOF 16
ENDMDL
MODEL 5
REMARK VINA RESULT:    -3.185     11.394     13.273
REMARK INTER + INTRA:          -8.723
REMARK INTER:                  -6.279
REMARK INTRA:                  -2.445
REMARK UNBOUND:                -2.558
REMARK SMILES CCCCCCCCCCCCCCCCCC(=O)[O-]
REMARK SMILES IDX 10 1 11 2 12 3 13 4 14 5 15 6 16 7 17 8 18 9 19 10 20 11
REMARK SMILES IDX 9 12 8 13 7 14 6 15 5 16 4 17 3 18 2 19 1 20
REMARK H PARENT
REMARK Flexibility Score: inf
ROOT
ATOM      1  C   UNL     1      58.845  28.764  52.471  1.00  0.00     0.000 C 
ENDROOT
BRANCH   1   2
ATOM      2  C   UNL     1      59.067  29.520  51.145  1.00  0.00     0.000 C 
BRANCH   2   3
ATOM      3  C   UNL     1      58.512  28.822  49.891  1.00  0.00     0.000 C 
BRANCH   3   4
ATOM      4  C   UNL     1      59.509  27.832  49.266  1.00  0.00     0.000 C 
BRANCH   4   5
ATOM      5  C   UNL     1      60.945  28.012  49.793  1.00  0.00     0.000 C 
BRANCH   5   6
ATOM      6  C   UNL     1      61.764  26.715  49.922  1.00  0.00     0.000 C 
BRANCH   6   7
ATOM      7  C   UNL     1      60.885  25.457  50.023  1.00  0.00     0.006 C 
BRANCH   7   8
ATOM      8  C   UNL     1      61.717  24.180  50.190  1.00  0.00     0.053 C 
BRANCH   8   9
ATOM      9  C   UNL     1      60.873  22.948  50.060  1.00  0.00     0.041 C 
ATOM     10  O   UNL     1      60.019  22.669  50.942  1.00  0.00    -0.550 OA
ATOM     11  O   UNL     1      61.007  22.129  48.946  1.00  0.00    -0.550 OA
ENDBRANCH   8   9
ENDBRANCH   7   8
ENDBRANCH   6   7
ENDBRANCH   5   6
ENDBRANCH   4   5
ENDBRANCH   3   4
ENDBRANCH   2   3
ENDBRANCH   1   2
BRANCH   1  12
ATOM     12  C   UNL     1      57.372  28.605  52.895  1.00  0.00     0.000 C 
BRANCH  12  13
ATOM     13  C   UNL     1      56.479  29.831  52.613  1.00  0.00    -0.000 C 
BRANCH  13  14
ATOM     14  C   UNL     1      55.052  29.496  52.133  1.00  0.00    -0.000 C 
BRANCH  14  15
ATOM     15  C   UNL     1      54.918  29.221  50.621  1.00  0.00    -0.000 C 
BRANCH  15  16
ATOM     16  C   UNL     1      54.185  27.915  50.246  1.00  0.00    -0.000 C 
BRANCH  16  17
ATOM     17  C   UNL     1      55.105  26.763  49.795  1.00  0.00    -0.000 C 
BRANCH  17  18
ATOM     18  C   UNL     1      55.690  25.941  50.966  1.00  0.00    -0.000 C 
BRANCH  18  19
ATOM     19  C   UNL     1      57.174  25.583  50.781  1.00  0.00    -0.003 C 
ATOM     20  C   UNL     1      57.831  25.098  52.071  1.00  0.00     0.004 C 
ENDBRANCH  18  19
ENDBRANCH  17  18
ENDBRANCH  16  17
ENDBRANCH  15  16
ENDBRANCH  14  15
ENDBRANCH  13  14
ENDBRANCH  12  13
ENDBRANCH   1  12
TORSDOF 16
ENDMDL
MODEL 6
REMARK VINA RESULT:    -3.173      1.879      5.683
REMARK INTER + INTRA:          -8.699
REMARK INTER:                  -5.999
REMARK INTRA:                  -2.700
REMARK UNBOUND:                -2.558
REMARK SMILES CCCCCCCCCCCCCCCCCC(=O)[O-]
REMARK SMILES IDX 10 1 11 2 12 3 13 4 14 5 15 6 16 7 17 8 18 9 19 10 20 11
REMARK SMILES IDX 9 12 8 13 7 14 6 15 5 16 4 17 3 18 2 19 1 20
REMARK H PARENT
REMARK Flexibility Score: inf
ROOT
ATOM      1  C   UNL     1      61.258  33.701  58.408  1.00  0.00     0.000 C 
ENDROOT
BRANCH   1   2
ATOM      2  C   UNL     1      61.264  35.043  59.168  1.00  0.00     0.000 C 
BRANCH   2   3
ATOM      3  C   UNL     1      61.727  34.966  60.633  1.00  0.00     0.000 C 
BRANCH   3   4
ATOM      4  C   UNL     1      63.020  35.755  60.895  1.00  0.00     0.000 C 
BRANCH   4   5
ATOM      5  C   UNL     1      64.181  34.864  61.374  1.00  0.00     0.000 C 
BRANCH   5   6
ATOM      6  C   UNL     1      64.140  33.408  60.876  1.00  0.00     0.000 C 
BRANCH   6   7
ATOM      7  C   UNL     1      64.814  33.223  59.506  1.00  0.00     0.006 C 
BRANCH   7   8
ATOM      8  C   UNL     1      64.599  31.814  58.940  1.00  0.00     0.053 C 
BRANCH   8   9
ATOM      9  C   UNL     1      65.806  30.948  59.139  1.00  0.00     0.041 C 
ATOM     10  O   UNL     1      66.730  30.942  58.283  1.00  0.00    -0.550 OA
ATOM     11  O   UNL     1      65.925  30.176  60.287  1.00  0.00    -0.550 OA
ENDBRANCH   8   9
ENDBRANCH   7   8
ENDBRANCH   6   7
ENDBRANCH   5   6
ENDBRANCH   4   5
ENDBRANCH   3   4
ENDBRANCH   2   3
ENDBRANCH   1   2
BRANCH   1  12
ATOM     12  C   UNL     1      60.352  32.610  59.012  1.00  0.00     0.000 C 
BRANCH  12  13
ATOM     13  C   UNL     1      61.102  31.435  59.672  1.00  0.00    -0.000 C 
BRANCH  13  14
ATOM     14  C   UNL     1      61.062  31.425  61.213  1.00  0.00    -0.000 C 
BRANCH  14  15
ATOM     15  C   UNL     1      61.958  30.364  61.884  1.00  0.00    -0.000 C 
BRANCH  15  16
ATOM     16  C   UNL     1      62.643  29.370  60.922  1.00  0.00    -0.000 C 
BRANCH  16  17
ATOM     17  C   UNL     1      62.620  27.900  61.386  1.00  0.00    -0.000 C 
BRANCH  17  18
ATOM     18  C   UNL     1      61.211  27.266  61.368  1.00  0.00    -0.000 C 
BRANCH  18  19
ATOM     19  C   UNL     1      60.415  27.578  60.089  1.00  0.00    -0.003 C 
ATOM     20  C   UNL     1      59.093  28.286  60.373  1.00  0.00     0.004 C 
ENDBRANCH  18  19
ENDBRANCH  17  18
ENDBRANCH  16  17
ENDBRANCH  15  16
ENDBRANCH  14  15
ENDBRANCH  13  14
ENDBRANCH  12  13
ENDBRANCH   1  12
TORSDOF 16
ENDMDL
MODEL 7
REMARK VINA RESULT:    -3.117      1.251      2.678
REMARK INTER + INTRA:          -8.592
REMARK INTER:                  -6.432
REMARK INTRA:                  -2.160
REMARK UNBOUND:                -2.558
REMARK SMILES CCCCCCCCCCCCCCCCCC(=O)[O-]
REMARK SMILES IDX 10 1 11 2 12 3 13 4 14 5 15 6 16 7 17 8 18 9 19 10 20 11
REMARK SMILES IDX 9 12 8 13 7 14 6 15 5 16 4 17 3 18 2 19 1 20
REMARK H PARENT
REMARK Flexibility Score: inf
ROOT
ATOM      1  C   UNL     1      63.609  33.172  59.594  1.00  0.00     0.000 C 
ENDROOT
BRANCH   1   2
ATOM      2  C   UNL     1      62.262  32.422  59.551  1.00  0.00     0.000 C 
BRANCH   2   3
ATOM      3  C   UNL     1      61.390  32.566  60.811  1.00  0.00     0.000 C 
BRANCH   3   4
ATOM      4  C   UNL     1      60.999  31.212  61.426  1.00  0.00     0.000 C 
BRANCH   4   5
ATOM      5  C   UNL     1      62.218  30.359  61.825  1.00  0.00     0.000 C 
BRANCH   5   6
ATOM      6  C   UNL     1      62.331  29.002  61.106  1.00  0.00     0.000 C 
BRANCH   6   7
ATOM      7  C   UNL     1      63.557  28.913  60.182  1.00  0.00     0.006 C 
BRANCH   7   8
ATOM      8  C   UNL     1      64.599  27.912  60.697  1.00  0.00     0.053 C 
BRANCH   8   9
ATOM      9  C   UNL     1      65.980  28.494  60.684  1.00  0.00     0.041 C 
ATOM     10  O   UNL     1      66.985  27.744  60.791  1.00  0.00    -0.550 OA
ATOM     11  O   UNL     1      66.154  29.862  60.517  1.00  0.00    -0.550 OA
ENDBRANCH   8   9
ENDBRANCH   7   8
ENDBRANCH   6   7
ENDBRANCH   5   6
ENDBRANCH   4   5
ENDBRANCH   3   4
ENDBRANCH   2   3
ENDBRANCH   1   2
BRANCH   1  12
ATOM     12  C   UNL     1      64.147  33.472  61.007  1.00  0.00     0.000 C 
BRANCH  12  13
ATOM     13  C   UNL     1      64.667  34.910  61.212  1.00  0.00    -0.000 C 
BRANCH  13  14
ATOM     14  C   UNL     1      63.825  36.006  60.530  1.00  0.00    -0.000 C 
BRANCH  14  15
ATOM     15  C   UNL     1      62.486  36.329  61.223  1.00  0.00    -0.000 C 
BRANCH  15  16
ATOM     16  C   UNL     1      61.416  36.988  60.325  1.00  0.00    -0.000 C 
BRANCH  16  17
ATOM     17  C   UNL     1      60.405  36.009  59.698  1.00  0.00    -0.000 C 
BRANCH  17  18
ATOM     18  C   UNL     1      60.743  35.615  58.242  1.00  0.00    -0.000 C 
BRANCH  18  19
ATOM     19  C   UNL     1      59.878  34.463  57.703  1.00  0.00    -0.003 C 
ATOM     20  C   UNL     1      58.409  34.850  57.546  1.00  0.00     0.004 C 
ENDBRANCH  18  19
ENDBRANCH  17  18
ENDBRANCH  16  17
ENDBRANCH  15  16
ENDBRANCH  14  15
ENDBRANCH  13  14
ENDBRANCH  12  13
ENDBRANCH   1  12
TORSDOF 16
ENDMDL
MODEL 8
REMARK VINA RESULT:    -3.091     11.343     13.016
REMARK INTER + INTRA:          -8.541
REMARK INTER:                  -6.124
REMARK INTRA:                  -2.417
REMARK UNBOUND:                -2.558
REMARK SMILES CCCCCCCCCCCCCCCCCC(=O)[O-]
REMARK SMILES IDX 10 1 11 2 12 3 13 4 14 5 15 6 16 7 17 8 18 9 19 10 20 11
REMARK SMILES IDX 9 12 8 13 7 14 6 15 5 16 4 17 3 18 2 19 1 20
REMARK H PARENT
REMARK Flexibility Score: inf
ROOT
ATOM      1  C   UNL     1      57.870  28.150  52.304  1.00  0.00     0.000 C 
ENDROOT
BRANCH   1   2
ATOM      2  C   UNL     1      58.625  29.180  51.440  1.00  0.00     0.000 C 
BRANCH   2   3
ATOM      3  C   UNL     1      58.220  29.215  49.956  1.00  0.00     0.000 C 
BRANCH   3   4
ATOM      4  C   UNL     1      59.292  28.621  49.028  1.00  0.00     0.000 C 
BRANCH   4   5
ATOM      5  C   UNL     1      60.575  28.213  49.777  1.00  0.00     0.000 C 
BRANCH   5   6
ATOM      6  C   UNL     1      60.949  26.723  49.673  1.00  0.00     0.000 C 
BRANCH   6   7
ATOM      7  C   UNL     1      62.228  26.370  50.451  1.00  0.00     0.006 C 
BRANCH   7   8
ATOM      8  C   UNL     1      63.300  27.461  50.330  1.00  0.00     0.053 C 
BRANCH   8   9
ATOM      9  C   UNL     1      64.139  27.279  49.102  1.00  0.00     0.041 C 
ATOM     10  O   UNL     1      63.866  27.910  48.048  1.00  0.00    -0.550 OA
ATOM     11  O   UNL     1      65.244  26.437  49.136  1.00  0.00    -0.550 OA
ENDBRANCH   8   9
ENDBRANCH   7   8
ENDBRANCH   6   7
ENDBRANCH   5   6
ENDBRANCH   4   5
ENDBRANCH   3   4
ENDBRANCH   2   3
ENDBRANCH   1   2
BRANCH   1  12
ATOM     12  C   UNL     1      58.561  26.779  52.441  1.00  0.00     0.000 C 
BRANCH  12  13
ATOM     13  C   UNL     1      57.794  25.600  51.808  1.00  0.00    -0.000 C 
BRANCH  13  14
ATOM     14  C   UNL     1      56.982  25.957  50.547  1.00  0.00    -0.000 C 
BRANCH  14  15
ATOM     15  C   UNL     1      55.450  25.871  50.709  1.00  0.00    -0.000 C 
BRANCH  15  16
ATOM     16  C   UNL     1      54.625  26.484  49.557  1.00  0.00    -0.000 C 
BRANCH  16  17
ATOM     17  C   UNL     1      53.836  27.753  49.930  1.00  0.00    -0.000 C 
BRANCH  17  18
ATOM     18  C   UNL     1      54.727  28.917  50.420  1.00  0.00    -0.000 C 
BRANCH  18  19
ATOM     19  C   UNL     1      54.204  29.592  51.699  1.00  0.00    -0.003 C 
ATOM     20  C   UNL     1      54.300  28.689  52.927  1.00  0.00     0.004 C 
ENDBRANCH  18  19
ENDBRANCH  17  18
ENDBRANCH  16  17
ENDBRANCH  15  16
ENDBRANCH  14  15
ENDBRANCH  13  14
ENDBRANCH  12  13
ENDBRANCH   1  12
TORSDOF 16
ENDMDL
MODEL 9
REMARK VINA RESULT:    -3.072      1.743      2.542
REMARK INTER + INTRA:          -8.503
REMARK INTER:                  -5.734
REMARK INTRA:                  -2.769
REMARK UNBOUND:                -2.558
REMARK SMILES CCCCCCCCCCCCCCCCCC(=O)[O-]
REMARK SMILES IDX 10 1 11 2 12 3 13 4 14 5 15 6 16 7 17 8 18 9 19 10 20 11
REMARK SMILES IDX 9 12 8 13 7 14 6 15 5 16 4 17 3 18 2 19 1 20
REMARK H PARENT
REMARK Flexibility Score: inf
ROOT
ATOM      1  C   UNL     1      61.966  31.042  57.843  1.00  0.00     0.000 C 
ENDROOT
BRANCH   1   2
ATOM      2  C   UNL     1      60.955  31.568  58.882  1.00  0.00     0.000 C 
BRANCH   2   3
ATOM      3  C   UNL     1      60.536  30.555  59.962  1.00  0.00     0.000 C 
BRANCH   3   4
ATOM      4  C   UNL     1      61.146  30.863  61.339  1.00  0.00     0.000 C 
BRANCH   4   5
ATOM      5  C   UNL     1      62.230  29.852  61.756  1.00  0.00     0.000 C 
BRANCH   5   6
ATOM      6  C   UNL     1      63.681  30.345  61.603  1.00  0.00     0.000 C 
BRANCH   6   7
ATOM      7  C   UNL     1      64.355  29.839  60.317  1.00  0.00     0.006 C 
BRANCH   7   8
ATOM      8  C   UNL     1      65.882  29.972  60.372  1.00  0.00     0.053 C 
BRANCH   8   9
ATOM      9  C   UNL     1      66.524  28.740  60.933  1.00  0.00     0.041 C 
ATOM     10  O   UNL     1      66.071  27.601  60.645  1.00  0.00    -0.550 OA
ATOM     11  O   UNL     1      67.644  28.851  61.747  1.00  0.00    -0.550 OA
ENDBRANCH   8   9
ENDBRANCH   7   8
ENDBRANCH   6   7
ENDBRANCH   5   6
ENDBRANCH   4   5
ENDBRANCH   3   4
ENDBRANCH   2   3
ENDBRANCH   1   2
BRANCH   1  12
ATOM     12  C   UNL     1      62.645  32.126  56.983  1.00  0.00     0.000 C 
BRANCH  12  13
ATOM     13  C   UNL     1      62.068  33.546  57.154  1.00  0.00    -0.000 C 
BRANCH  13  14
ATOM     14  C   UNL     1      63.120  34.674  57.177  1.00  0.00    -0.000 C 
BRANCH  14  15
ATOM     15  C   UNL     1      64.505  34.265  57.718  1.00  0.00    -0.000 C 
BRANCH  15  16
ATOM     16  C   UNL     1      64.819  34.728  59.157  1.00  0.00    -0.000 C 
BRANCH  16  17
ATOM     17  C   UNL     1      64.444  33.718  60.258  1.00  0.00    -0.000 C 
BRANCH  17  18
ATOM     18  C   UNL     1      63.025  33.926  60.835  1.00  0.00    -0.000 C 
BRANCH  18  19
ATOM     19  C   UNL     1      62.635  35.407  60.981  1.00  0.00    -0.003 C 
ATOM     20  C   UNL     1      61.304  35.738  60.311  1.00  0.00     0.004 C 
ENDBRANCH  18  19
ENDBRANCH  17  18
ENDBRANCH  16  17
ENDBRANCH  15  16
ENDBRANCH  14  15
ENDBRANCH  13  14
ENDBRANCH  12  13
ENDBRANCH   1  12
TORSDOF 16
ENDMDL
