MODEL 1
REMARK VINA RESULT:    -7.486      0.000      0.000
REMARK INTER + INTRA:         -10.953
REMARK INTER:                  -9.893
REMARK INTRA:                  -1.061
REMARK UNBOUND:                -1.061
REMARK SMILES CC[C@@H](C=C[C@H](C)[C@H]1CC[C@H]2[C@H]3CC=C4C[C@@H](O)CC[C@]4(C)[C@H]3CC[C@@]12C)C(C)C
REMARK SMILES IDX 6 1 7 2 5 3 4 4 3 5 2 6 1 7 28 8 29 9 30 10 8 11 9 12 26 13
REMARK SMILES IDX 10 14 11 15 25 16 27 17 12 18 24 19 23 20 13 21 21 22 14 23
REMARK SMILES IDX 15 24 20 25 22 26 16 27 19 28 17 29 18 30
REMARK H PARENT 18 31
REMARK Flexibility Score: inf
ROOT
ATOM      1  C   UNL     1     106.628 122.880 118.402  1.00  0.00     0.012 C 
ATOM      2  C   UNL     1     107.129 124.268 117.951  1.00  0.00     0.012 C 
ENDROOT
BRANCH   1   3
ATOM      3  C   UNL     1     107.774 122.166 119.098  1.00  0.00    -0.028 C 
ATOM      4  C   UNL     1     107.689 120.878 119.477  1.00  0.00    -0.027 C 
BRANCH   4   5
ATOM      5  C   UNL     1     108.733 120.154 120.315  1.00  0.00     0.014 C 
BRANCH   5   6
ATOM      6  C   UNL     1     108.936 120.796 121.712  1.00  0.00     0.004 C 
ATOM      7  C   UNL     1     108.498 119.874 122.851  1.00  0.00     0.004 C 
ENDBRANCH   5   6
BRANCH   5   8
ATOM      8  C   UNL     1     110.056 119.918 119.518  1.00  0.00    -0.011 C 
ATOM      9  C   UNL     1     111.308 119.794 120.405  1.00  0.00     0.008 C 
ATOM     10  C   UNL     1     109.947 118.686 118.604  1.00  0.00     0.008 C 
ENDBRANCH   5   8
ENDBRANCH   4   5
ENDBRANCH   1   3
BRANCH   1  11
ATOM     11  C   UNL     1     105.335 122.915 119.303  1.00  0.00     0.002 C 
ATOM     12  C   UNL     1     104.795 124.343 119.510  1.00  0.00     0.005 C 
ATOM     13  C   UNL     1     104.071 122.112 118.776  1.00  0.00    -0.026 C 
ATOM     14  C   UNL     1     103.812 124.551 118.383  1.00  0.00     0.005 C 
ATOM     15  C   UNL     1     103.069 123.220 118.296  1.00  0.00    -0.001 C 
ATOM     16  C   UNL     1     104.358 121.068 117.655  1.00  0.00     0.007 C 
ATOM     17  C   UNL     1     103.463 121.344 119.984  1.00  0.00     0.012 C 
ATOM     18  C   UNL     1     102.321 122.967 116.952  1.00  0.00     0.000 C 
ATOM     19  C   UNL     1     103.117 120.548 116.892  1.00  0.00     0.005 C 
ATOM     20  C   UNL     1     101.875 121.491 116.868  1.00  0.00     0.003 C 
ATOM     21  C   UNL     1     103.064 123.380 115.664  1.00  0.00     0.031 C 
ATOM     22  C   UNL     1     100.908 121.243 115.640  1.00  0.00    -0.008 C 
ATOM     23  C   UNL     1     102.337 122.946 114.421  1.00  0.00    -0.027 C 
ATOM     24  C   UNL     1     101.393 121.973 114.383  1.00  0.00    -0.065 C 
ATOM     25  C   UNL     1      99.475 121.783 115.961  1.00  0.00     0.014 C 
ATOM     26  C   UNL     1     100.792 119.713 115.362  1.00  0.00     0.016 C 
ATOM     27  C   UNL     1     100.505 121.882 113.164  1.00  0.00     0.063 C 
ATOM     28  C   UNL     1      98.518 121.790 114.743  1.00  0.00     0.033 C 
ATOM     29  C   UNL     1      99.135 122.487 113.516  1.00  0.00     0.118 C 
BRANCH  29  30
ATOM     30  O   UNL     1      98.258 122.358 112.428  1.00  0.00    -0.393 OA
ATOM     31  H   UNL     1      98.060 121.389 112.334  1.00  0.00     0.210 HD
ENDBRANCH  29  30
ENDBRANCH   1  11
TORSDOF 6
ENDMDL
MODEL 2
REMARK VINA RESULT:    -7.466      3.845      6.365
REMARK INTER + INTRA:         -10.927
REMARK INTER:                  -9.990
REMARK INTRA:                  -0.936
REMARK UNBOUND:                -1.061
REMARK SMILES CC[C@@H](C=C[C@H](C)[C@H]1CC[C@H]2[C@H]3CC=C4C[C@@H](O)CC[C@]4(C)[C@H]3CC[C@@]12C)C(C)C
REMARK SMILES IDX 6 1 7 2 5 3 4 4 3 5 2 6 1 7 28 8 29 9 30 10 8 11 9 12 26 13
REMARK SMILES IDX 10 14 11 15 25 16 27 17 12 18 24 19 23 20 13 21 21 22 14 23
REMARK SMILES IDX 15 24 20 25 22 26 16 27 19 28 17 29 18 30
REMARK H PARENT 18 31
REMARK Flexibility Score: inf
ROOT
ATOM      1  C   UNL     1     106.775 123.246 117.949  1.00  0.00     0.012 C 
ATOM      2  C   UNL     1     107.697 124.484 117.936  1.00  0.00     0.012 C 
ENDROOT
BRANCH   1   3
ATOM      3  C   UNL     1     107.348 122.240 118.933  1.00  0.00    -0.028 C 
ATOM      4  C   UNL     1     108.673 122.090 119.112  1.00  0.00    -0.027 C 
BRANCH   4   5
ATOM      5  C   UNL     1     109.312 120.999 119.958  1.00  0.00     0.014 C 
BRANCH   5   6
ATOM      6  C   UNL     1     108.923 119.570 119.492  1.00  0.00     0.004 C 
ATOM      7  C   UNL     1     110.060 118.867 118.748  1.00  0.00     0.004 C 
ENDBRANCH   5   6
BRANCH   5   8
ATOM      8  C   UNL     1     109.108 121.253 121.486  1.00  0.00    -0.011 C 
ATOM      9  C   UNL     1     108.489 120.064 122.242  1.00  0.00     0.008 C 
ATOM     10  C   UNL     1     110.425 121.668 122.165  1.00  0.00     0.008 C 
ENDBRANCH   5   8
ENDBRANCH   4   5
ENDBRANCH   1   3
BRANCH   1  11
ATOM     11  C   UNL     1     105.262 123.562 118.258  1.00  0.00     0.002 C 
ATOM     12  C   UNL     1     104.299 122.854 117.286  1.00  0.00     0.005 C 
ATOM     13  C   UNL     1     104.721 123.143 119.691  1.00  0.00    -0.026 C 
ATOM     14  C   UNL     1     103.985 121.533 117.947  1.00  0.00     0.005 C 
ATOM     15  C   UNL     1     103.809 121.895 119.421  1.00  0.00    -0.001 C 
ATOM     16  C   UNL     1     105.813 122.840 120.760  1.00  0.00     0.007 C 
ATOM     17  C   UNL     1     103.855 124.317 120.228  1.00  0.00     0.012 C 
ATOM     18  C   UNL     1     103.929 120.699 120.414  1.00  0.00     0.000 C 
ATOM     19  C   UNL     1     105.322 122.096 122.025  1.00  0.00     0.005 C 
ATOM     20  C   UNL     1     104.038 121.226 121.860  1.00  0.00     0.003 C 
ATOM     21  C   UNL     1     105.050 119.678 120.125  1.00  0.00     0.031 C 
ATOM     22  C   UNL     1     103.921 120.054 122.918  1.00  0.00    -0.008 C 
ATOM     23  C   UNL     1     105.191 118.660 121.224  1.00  0.00    -0.027 C 
ATOM     24  C   UNL     1     104.721 118.821 122.486  1.00  0.00    -0.065 C 
ATOM     25  C   UNL     1     102.429 119.605 123.066  1.00  0.00     0.014 C 
ATOM     26  C   UNL     1     104.411 120.553 124.312  1.00  0.00     0.016 C 
ATOM     27  C   UNL     1     104.618 117.604 123.374  1.00  0.00     0.063 C 
ATOM     28  C   UNL     1     102.240 118.319 123.907  1.00  0.00     0.033 C 
ATOM     29  C   UNL     1     103.144 117.167 123.429  1.00  0.00     0.118 C 
BRANCH  29  30
ATOM     30  O   UNL     1     102.997 116.078 124.302  1.00  0.00    -0.393 OA
ATOM     31  H   UNL     1     102.679 115.313 123.753  1.00  0.00     0.210 HD
ENDBRANCH  29  30
ENDBRANCH   1  11
TORSDOF 6
ENDMDL
MODEL 3
REMARK VINA RESULT:    -7.417      0.941      1.707
REMARK INTER + INTRA:         -10.862
REMARK INTER:                  -9.938
REMARK INTRA:                  -0.923
REMARK UNBOUND:                -1.061
REMARK SMILES CC[C@@H](C=C[C@H](C)[C@H]1CC[C@H]2[C@H]3CC=C4C[C@@H](O)CC[C@]4(C)[C@H]3CC[C@@]12C)C(C)C
REMARK SMILES IDX 6 1 7 2 5 3 4 4 3 5 2 6 1 7 28 8 29 9 30 10 8 11 9 12 26 13
REMARK SMILES IDX 10 14 11 15 25 16 27 17 12 18 24 19 23 20 13 21 21 22 14 23
REMARK SMILES IDX 15 24 20 25 22 26 16 27 19 28 17 29 18 30
REMARK H PARENT 18 31
REMARK Flexibility Score: inf
ROOT
ATOM      1  C   UNL     1     105.939 122.755 118.331  1.00  0.00     0.012 C 
ATOM      2  C   UNL     1     106.667 124.079 118.017  1.00  0.00     0.012 C 
ENDROOT
BRANCH   1   3
ATOM      3  C   UNL     1     106.864 121.894 119.175  1.00  0.00    -0.028 C 
ATOM      4  C   UNL     1     108.199 122.068 119.176  1.00  0.00    -0.027 C 
BRANCH   4   5
ATOM      5  C   UNL     1     109.188 121.144 119.870  1.00  0.00     0.014 C 
BRANCH   5   6
ATOM      6  C   UNL     1     109.031 119.661 119.441  1.00  0.00     0.004 C 
ATOM      7  C   UNL     1     110.341 119.057 118.931  1.00  0.00     0.004 C 
ENDBRANCH   5   6
BRANCH   5   8
ATOM      8  C   UNL     1     109.205 121.366 121.417  1.00  0.00    -0.011 C 
ATOM      9  C   UNL     1     108.405 120.318 122.209  1.00  0.00     0.008 C 
ATOM     10  C   UNL     1     110.645 121.434 121.957  1.00  0.00     0.008 C 
ENDBRANCH   5   8
ENDBRANCH   4   5
ENDBRANCH   1   3
BRANCH   1  11
ATOM     11  C   UNL     1     104.529 122.932 119.014  1.00  0.00     0.002 C 
ATOM     12  C   UNL     1     104.089 124.407 119.091  1.00  0.00     0.005 C 
ATOM     13  C   UNL     1     103.298 122.212 118.316  1.00  0.00    -0.026 C 
ATOM     14  C   UNL     1     103.316 124.646 117.817  1.00  0.00     0.005 C 
ATOM     15  C   UNL     1     102.483 123.376 117.651  1.00  0.00    -0.001 C 
ATOM     16  C   UNL     1     103.665 121.102 117.285  1.00  0.00     0.007 C 
ATOM     17  C   UNL     1     102.446 121.548 119.434  1.00  0.00     0.012 C 
ATOM     18  C   UNL     1     101.934 123.129 116.214  1.00  0.00     0.000 C 
ATOM     19  C   UNL     1     102.518 120.653 116.350  1.00  0.00     0.005 C 
ATOM     20  C   UNL     1     101.381 121.692 116.102  1.00  0.00     0.003 C 
ATOM     21  C   UNL     1     102.902 123.426 115.049  1.00  0.00     0.031 C 
ATOM     22  C   UNL     1     100.599 121.471 114.744  1.00  0.00    -0.008 C 
ATOM     23  C   UNL     1     102.342 123.000 113.719  1.00  0.00    -0.027 C 
ATOM     24  C   UNL     1     101.335 122.106 113.560  1.00  0.00    -0.065 C 
ATOM     25  C   UNL     1      99.186 122.138 114.817  1.00  0.00     0.014 C 
ATOM     26  C   UNL     1     100.396 119.945 114.495  1.00  0.00     0.016 C 
ATOM     27  C   UNL     1     100.644 122.036 112.218  1.00  0.00     0.063 C 
ATOM     28  C   UNL     1      98.435 122.171 113.464  1.00  0.00     0.033 C 
ATOM     29  C   UNL     1      99.293 122.764 112.330  1.00  0.00     0.118 C 
BRANCH  29  30
ATOM     30  O   UNL     1      98.589 122.661 111.121  1.00  0.00    -0.393 OA
ATOM     31  H   UNL     1      98.108 123.521 110.996  1.00  0.00     0.210 HD
ENDBRANCH  29  30
ENDBRANCH   1  11
TORSDOF 6
ENDMDL
MODEL 4
REMARK VINA RESULT:    -7.237      3.844      8.969
REMARK INTER + INTRA:         -10.625
REMARK INTER:                  -9.207
REMARK INTRA:                  -1.418
REMARK UNBOUND:                -1.061
REMARK SMILES CC[C@@H](C=C[C@H](C)[C@H]1CC[C@H]2[C@H]3CC=C4C[C@@H](O)CC[C@]4(C)[C@H]3CC[C@@]12C)C(C)C
REMARK SMILES IDX 6 1 7 2 5 3 4 4 3 5 2 6 1 7 28 8 29 9 30 10 8 11 9 12 26 13
REMARK SMILES IDX 10 14 11 15 25 16 27 17 12 18 24 19 23 20 13 21 21 22 14 23
REMARK SMILES IDX 15 24 20 25 22 26 16 27 19 28 17 29 18 30
REMARK H PARENT 18 31
REMARK Flexibility Score: inf
ROOT
ATOM      1  C   UNL     1     102.217 120.970 119.414  1.00  0.00     0.012 C 
ATOM      2  C   UNL     1     101.083 119.988 119.779  1.00  0.00     0.012 C 
ENDROOT
BRANCH   1   3
ATOM      3  C   UNL     1     101.716 121.882 118.307  1.00  0.00    -0.028 C 
ATOM      4  C   UNL     1     101.407 123.173 118.529  1.00  0.00    -0.027 C 
BRANCH   4   5
ATOM      5  C   UNL     1     100.753 124.092 117.508  1.00  0.00     0.014 C 
BRANCH   5   6
ATOM      6  C   UNL     1     101.726 125.163 116.950  1.00  0.00     0.004 C 
ATOM      7  C   UNL     1     103.090 125.133 117.641  1.00  0.00     0.004 C 
ENDBRANCH   5   6
BRANCH   5   8
ATOM      8  C   UNL     1      99.397 124.667 118.029  1.00  0.00    -0.011 C 
ATOM      9  C   UNL     1      98.986 124.144 119.417  1.00  0.00     0.008 C 
ATOM     10  C   UNL     1      99.408 126.206 118.039  1.00  0.00     0.008 C 
ENDBRANCH   5   8
ENDBRANCH   4   5
ENDBRANCH   1   3
BRANCH   1  11
ATOM     11  C   UNL     1     102.782 121.795 120.632  1.00  0.00     0.002 C 
ATOM     12  C   UNL     1     102.761 120.996 121.950  1.00  0.00     0.005 C 
ATOM     13  C   UNL     1     104.285 122.295 120.525  1.00  0.00    -0.026 C 
ATOM     14  C   UNL     1     104.104 120.309 122.007  1.00  0.00     0.005 C 
ATOM     15  C   UNL     1     105.081 121.377 121.517  1.00  0.00    -0.001 C 
ATOM     16  C   UNL     1     104.902 122.269 119.093  1.00  0.00     0.007 C 
ATOM     17  C   UNL     1     104.329 123.767 121.024  1.00  0.00     0.012 C 
ATOM     18  C   UNL     1     106.462 120.838 121.035  1.00  0.00     0.000 C 
ATOM     19  C   UNL     1     106.441 122.404 119.026  1.00  0.00     0.005 C 
ATOM     20  C   UNL     1     107.231 121.952 120.292  1.00  0.00     0.003 C 
ATOM     21  C   UNL     1     106.438 119.545 120.192  1.00  0.00     0.031 C 
ATOM     22  C   UNL     1     108.727 121.530 119.995  1.00  0.00    -0.008 C 
ATOM     23  C   UNL     1     107.793 119.200 119.637  1.00  0.00    -0.027 C 
ATOM     24  C   UNL     1     108.819 120.078 119.512  1.00  0.00    -0.065 C 
ATOM     25  C   UNL     1     109.589 121.636 121.297  1.00  0.00     0.014 C 
ATOM     26  C   UNL     1     109.344 122.490 118.933  1.00  0.00     0.016 C 
ATOM     27  C   UNL     1     110.207 119.531 119.277  1.00  0.00     0.063 C 
ATOM     28  C   UNL     1     111.008 121.032 121.162  1.00  0.00     0.033 C 
ATOM     29  C   UNL     1     110.985 119.597 120.602  1.00  0.00     0.118 C 
BRANCH  29  30
ATOM     30  O   UNL     1     112.305 119.161 120.408  1.00  0.00    -0.393 OA
ATOM     31  H   UNL     1     112.259 118.369 119.810  1.00  0.00     0.210 HD
ENDBRANCH  29  30
ENDBRANCH   1  11
TORSDOF 6
ENDMDL
MODEL 5
REMARK VINA RESULT:    -7.234      3.843      7.347
REMARK INTER + INTRA:         -10.620
REMARK INTER:                  -9.669
REMARK INTRA:                  -0.952
REMARK UNBOUND:                -1.061
REMARK SMILES CC[C@@H](C=C[C@H](C)[C@H]1CC[C@H]2[C@H]3CC=C4C[C@@H](O)CC[C@]4(C)[C@H]3CC[C@@]12C)C(C)C
REMARK SMILES IDX 6 1 7 2 5 3 4 4 3 5 2 6 1 7 28 8 29 9 30 10 8 11 9 12 26 13
REMARK SMILES IDX 10 14 11 15 25 16 27 17 12 18 24 19 23 20 13 21 21 22 14 23
REMARK SMILES IDX 15 24 20 25 22 26 16 27 19 28 17 29 18 30
REMARK H PARENT 18 31
REMARK Flexibility Score: inf
ROOT
ATOM      1  C   UNL     1     109.553 120.672 120.165  1.00  0.00     0.012 C 
ATOM      2  C   UNL     1     110.010 119.487 119.288  1.00  0.00     0.012 C 
ENDROOT
BRANCH   1   3
ATOM      3  C   UNL     1     108.149 121.065 119.736  1.00  0.00    -0.028 C 
ATOM      4  C   UNL     1     107.890 122.238 119.129  1.00  0.00    -0.027 C 
BRANCH   4   5
ATOM      5  C   UNL     1     106.494 122.759 118.820  1.00  0.00     0.014 C 
BRANCH   5   6
ATOM      6  C   UNL     1     105.514 121.638 118.385  1.00  0.00     0.004 C 
ATOM      7  C   UNL     1     104.069 122.130 118.282  1.00  0.00     0.004 C 
ENDBRANCH   5   6
BRANCH   5   8
ATOM      8  C   UNL     1     106.534 123.986 117.853  1.00  0.00    -0.011 C 
ATOM      9  C   UNL     1     105.808 125.232 118.391  1.00  0.00     0.008 C 
ATOM     10  C   UNL     1     107.979 124.354 117.474  1.00  0.00     0.008 C 
ENDBRANCH   5   8
ENDBRANCH   4   5
ENDBRANCH   1   3
BRANCH   1  11
ATOM     11  C   UNL     1     109.629 120.403 121.716  1.00  0.00     0.002 C 
ATOM     12  C   UNL     1     110.049 121.653 122.514  1.00  0.00     0.005 C 
ATOM     13  C   UNL     1     108.290 119.938 122.431  1.00  0.00    -0.026 C 
ATOM     14  C   UNL     1     108.751 122.340 122.867  1.00  0.00     0.005 C 
ATOM     15  C   UNL     1     107.822 121.190 123.252  1.00  0.00    -0.001 C 
ATOM     16  C   UNL     1     107.168 119.417 121.482  1.00  0.00     0.007 C 
ATOM     17  C   UNL     1     108.653 118.780 123.403  1.00  0.00     0.012 C 
ATOM     18  C   UNL     1     106.302 121.531 123.224  1.00  0.00     0.000 C 
ATOM     19  C   UNL     1     105.759 119.304 122.112  1.00  0.00     0.005 C 
ATOM     20  C   UNL     1     105.470 120.235 123.330  1.00  0.00     0.003 C 
ATOM     21  C   UNL     1     105.813 122.390 122.039  1.00  0.00     0.031 C 
ATOM     22  C   UNL     1     103.933 120.544 123.547  1.00  0.00    -0.008 C 
ATOM     23  C   UNL     1     104.315 122.524 122.010  1.00  0.00    -0.027 C 
ATOM     24  C   UNL     1     103.457 121.692 122.651  1.00  0.00    -0.065 C 
ATOM     25  C   UNL     1     103.670 120.976 125.027  1.00  0.00     0.014 C 
ATOM     26  C   UNL     1     103.094 119.260 123.267  1.00  0.00     0.016 C 
ATOM     27  C   UNL     1     102.024 122.138 122.829  1.00  0.00     0.063 C 
ATOM     28  C   UNL     1     102.241 121.514 125.281  1.00  0.00     0.033 C 
ATOM     29  C   UNL     1     101.841 122.614 124.281  1.00  0.00     0.118 C 
BRANCH  29  30
ATOM     30  O   UNL     1     100.503 122.972 124.505  1.00  0.00    -0.393 OA
ATOM     31  H   UNL     1      99.979 122.615 123.740  1.00  0.00     0.210 HD
ENDBRANCH  29  30
ENDBRANCH   1  11
TORSDOF 6
ENDMDL
MODEL 6
REMARK VINA RESULT:    -7.210      3.608      8.502
REMARK INTER + INTRA:         -10.588
REMARK INTER:                  -9.486
REMARK INTRA:                  -1.102
REMARK UNBOUND:                -1.061
REMARK SMILES CC[C@@H](C=C[C@H](C)[C@H]1CC[C@H]2[C@H]3CC=C4C[C@@H](O)CC[C@]4(C)[C@H]3CC[C@@]12C)C(C)C
REMARK SMILES IDX 6 1 7 2 5 3 4 4 3 5 2 6 1 7 28 8 29 9 30 10 8 11 9 12 26 13
REMARK SMILES IDX 10 14 11 15 25 16 27 17 12 18 24 19 23 20 13 21 21 22 14 23
REMARK SMILES IDX 15 24 20 25 22 26 16 27 19 28 17 29 18 30
REMARK H PARENT 18 31
REMARK Flexibility Score: inf
ROOT
ATOM      1  C   UNL     1     101.866 120.832 120.175  1.00  0.00     0.012 C 
ATOM      2  C   UNL     1     101.417 122.223 120.673  1.00  0.00     0.012 C 
ENDROOT
BRANCH   1   3
ATOM      3  C   UNL     1     102.991 121.029 119.173  1.00  0.00    -0.028 C 
ATOM      4  C   UNL     1     103.272 122.232 118.640  1.00  0.00    -0.027 C 
BRANCH   4   5
ATOM      5  C   UNL     1     104.273 122.468 117.519  1.00  0.00     0.014 C 
BRANCH   5   6
ATOM      6  C   UNL     1     105.415 123.436 117.924  1.00  0.00     0.004 C 
ATOM      7  C   UNL     1     105.094 124.220 119.198  1.00  0.00     0.004 C 
ENDBRANCH   5   6
BRANCH   5   8
ATOM      8  C   UNL     1     103.564 122.837 116.176  1.00  0.00    -0.011 C 
ATOM      9  C   UNL     1     102.962 121.631 115.433  1.00  0.00     0.008 C 
ATOM     10  C   UNL     1     102.479 123.906 116.391  1.00  0.00     0.008 C 
ENDBRANCH   5   8
ENDBRANCH   4   5
ENDBRANCH   1   3
BRANCH   1  11
ATOM     11  C   UNL     1     102.279 119.831 121.320  1.00  0.00     0.002 C 
ATOM     12  C   UNL     1     102.504 118.398 120.802  1.00  0.00     0.005 C 
ATOM     13  C   UNL     1     103.619 120.156 122.108  1.00  0.00    -0.026 C 
ATOM     14  C   UNL     1     103.970 118.339 120.450  1.00  0.00     0.005 C 
ATOM     15  C   UNL     1     104.650 119.092 121.592  1.00  0.00    -0.001 C 
ATOM     16  C   UNL     1     104.159 121.609 121.946  1.00  0.00     0.007 C 
ATOM     17  C   UNL     1     103.343 119.927 123.621  1.00  0.00     0.012 C 
ATOM     18  C   UNL     1     106.095 119.591 121.287  1.00  0.00     0.000 C 
ATOM     19  C   UNL     1     105.621 121.833 122.399  1.00  0.00     0.005 C 
ATOM     20  C   UNL     1     106.550 120.581 122.380  1.00  0.00     0.003 C 
ATOM     21  C   UNL     1     106.332 120.189 119.885  1.00  0.00     0.031 C 
ATOM     22  C   UNL     1     108.089 120.930 122.248  1.00  0.00    -0.008 C 
ATOM     23  C   UNL     1     107.704 120.792 119.746  1.00  0.00    -0.027 C 
ATOM     24  C   UNL     1     108.492 121.157 120.787  1.00  0.00    -0.065 C 
ATOM     25  C   UNL     1     108.961 119.747 122.786  1.00  0.00     0.014 C 
ATOM     26  C   UNL     1     108.418 122.193 123.100  1.00  0.00     0.016 C 
ATOM     27  C   UNL     1     109.957 121.414 120.523  1.00  0.00     0.063 C 
ATOM     28  C   UNL     1     110.474 119.898 122.494  1.00  0.00     0.033 C 
ATOM     29  C   UNL     1     110.758 120.194 121.009  1.00  0.00     0.118 C 
BRANCH  29  30
ATOM     30  O   UNL     1     112.133 120.423 120.844  1.00  0.00    -0.393 OA
ATOM     31  H   UNL     1     112.463 120.807 121.699  1.00  0.00     0.210 HD
ENDBRANCH  29  30
ENDBRANCH   1  11
TORSDOF 6
ENDMDL
MODEL 7
REMARK VINA RESULT:    -7.037      2.283      4.212
REMARK INTER + INTRA:         -10.361
REMARK INTER:                  -9.171
REMARK INTRA:                  -1.189
REMARK UNBOUND:                -1.061
REMARK SMILES CC[C@@H](C=C[C@H](C)[C@H]1CC[C@H]2[C@H]3CC=C4C[C@@H](O)CC[C@]4(C)[C@H]3CC[C@@]12C)C(C)C
REMARK SMILES IDX 6 1 7 2 5 3 4 4 3 5 2 6 1 7 28 8 29 9 30 10 8 11 9 12 26 13
REMARK SMILES IDX 10 14 11 15 25 16 27 17 12 18 24 19 23 20 13 21 21 22 14 23
REMARK SMILES IDX 15 24 20 25 22 26 16 27 19 28 17 29 18 30
REMARK H PARENT 18 31
REMARK Flexibility Score: inf
ROOT
ATOM      1  C   UNL     1     106.164 120.211 122.263  1.00  0.00     0.012 C 
ATOM      2  C   UNL     1     105.447 119.307 123.288  1.00  0.00     0.012 C 
ENDROOT
BRANCH   1   3
ATOM      3  C   UNL     1     107.596 120.412 122.729  1.00  0.00    -0.028 C 
ATOM      4  C   UNL     1     108.437 121.262 122.111  1.00  0.00    -0.027 C 
BRANCH   4   5
ATOM      5  C   UNL     1     109.920 121.391 122.425  1.00  0.00     0.014 C 
BRANCH   5   6
ATOM      6  C   UNL     1     110.251 122.655 123.262  1.00  0.00     0.004 C 
ATOM      7  C   UNL     1     109.036 123.188 124.024  1.00  0.00     0.004 C 
ENDBRANCH   5   6
BRANCH   5   8
ATOM      8  C   UNL     1     110.802 121.219 121.147  1.00  0.00    -0.011 C 
ATOM      9  C   UNL     1     111.552 119.877 121.080  1.00  0.00     0.008 C 
ATOM     10  C   UNL     1     109.973 121.412 119.865  1.00  0.00     0.008 C 
ENDBRANCH   5   8
ENDBRANCH   4   5
ENDBRANCH   1   3
BRANCH   1  11
ATOM     11  C   UNL     1     106.108 119.685 120.778  1.00  0.00     0.002 C 
ATOM     12  C   UNL     1     105.196 118.453 120.620  1.00  0.00     0.005 C 
ATOM     13  C   UNL     1     105.562 120.694 119.680  1.00  0.00    -0.026 C 
ATOM     14  C   UNL     1     103.835 119.018 120.295  1.00  0.00     0.005 C 
ATOM     15  C   UNL     1     104.134 120.154 119.319  1.00  0.00    -0.001 C 
ATOM     16  C   UNL     1     105.522 122.193 120.105  1.00  0.00     0.007 C 
ATOM     17  C   UNL     1     106.492 120.587 118.438  1.00  0.00     0.012 C 
ATOM     18  C   UNL     1     102.995 121.207 119.159  1.00  0.00     0.000 C 
ATOM     19  C   UNL     1     104.674 123.122 119.204  1.00  0.00     0.005 C 
ATOM     20  C   UNL     1     103.524 122.442 118.400  1.00  0.00     0.003 C 
ATOM     21  C   UNL     1     102.273 121.637 120.454  1.00  0.00     0.031 C 
ATOM     22  C   UNL     1     102.351 123.429 118.004  1.00  0.00    -0.008 C 
ATOM     23  C   UNL     1     101.312 122.771 120.220  1.00  0.00    -0.027 C 
ATOM     24  C   UNL     1     101.348 123.601 119.149  1.00  0.00    -0.065 C 
ATOM     25  C   UNL     1     101.558 122.865 116.779  1.00  0.00     0.014 C 
ATOM     26  C   UNL     1     102.943 124.812 117.595  1.00  0.00     0.016 C 
ATOM     27  C   UNL     1     100.135 124.455 118.862  1.00  0.00     0.063 C 
ATOM     28  C   UNL     1     100.259 123.644 116.459  1.00  0.00     0.033 C 
ATOM     29  C   UNL     1      99.359 123.819 117.697  1.00  0.00     0.118 C 
BRANCH  29  30
ATOM     30  O   UNL     1      98.261 124.622 117.354  1.00  0.00    -0.393 OA
ATOM     31  H   UNL     1      97.502 124.007 117.173  1.00  0.00     0.210 HD
ENDBRANCH  29  30
ENDBRANCH   1  11
TORSDOF 6
ENDMDL
MODEL 8
REMARK VINA RESULT:    -6.911      2.129      3.304
REMARK INTER + INTRA:         -10.193
REMARK INTER:                  -9.455
REMARK INTRA:                  -0.738
REMARK UNBOUND:                -1.061
REMARK SMILES CC[C@@H](C=C[C@H](C)[C@H]1CC[C@H]2[C@H]3CC=C4C[C@@H](O)CC[C@]4(C)[C@H]3CC[C@@]12C)C(C)C
REMARK SMILES IDX 6 1 7 2 5 3 4 4 3 5 2 6 1 7 28 8 29 9 30 10 8 11 9 12 26 13
REMARK SMILES IDX 10 14 11 15 25 16 27 17 12 18 24 19 23 20 13 21 21 22 14 23
REMARK SMILES IDX 15 24 20 25 22 26 16 27 19 28 17 29 18 30
REMARK H PARENT 18 31
REMARK Flexibility Score: inf
ROOT
ATOM      1  C   UNL     1     105.673 121.255 119.461  1.00  0.00     0.012 C 
ATOM      2  C   UNL     1     105.094 120.752 118.121  1.00  0.00     0.012 C 
ENDROOT
BRANCH   1   3
ATOM      3  C   UNL     1     107.117 120.791 119.557  1.00  0.00    -0.028 C 
ATOM      4  C   UNL     1     107.974 121.305 120.458  1.00  0.00    -0.027 C 
BRANCH   4   5
ATOM      5  C   UNL     1     109.464 121.003 120.501  1.00  0.00     0.014 C 
BRANCH   5   6
ATOM      6  C   UNL     1     109.881 119.881 119.514  1.00  0.00     0.004 C 
ATOM      7  C   UNL     1     111.274 119.323 119.815  1.00  0.00     0.004 C 
ENDBRANCH   5   6
BRANCH   5   8
ATOM      8  C   UNL     1     109.972 120.791 121.964  1.00  0.00    -0.011 C 
ATOM      9  C   UNL     1     110.280 122.097 122.716  1.00  0.00     0.008 C 
ATOM     10  C   UNL     1     108.981 119.945 122.783  1.00  0.00     0.008 C 
ENDBRANCH   5   8
ENDBRANCH   4   5
ENDBRANCH   1   3
BRANCH   1  11
ATOM     11  C   UNL     1     105.548 122.810 119.683  1.00  0.00     0.002 C 
ATOM     12  C   UNL     1     106.062 123.623 118.479  1.00  0.00     0.005 C 
ATOM     13  C   UNL     1     104.088 123.386 119.924  1.00  0.00    -0.026 C 
ATOM     14  C   UNL     1     104.852 123.820 117.600  1.00  0.00     0.005 C 
ATOM     15  C   UNL     1     103.728 124.127 118.588  1.00  0.00    -0.001 C 
ATOM     16  C   UNL     1     103.006 122.333 120.310  1.00  0.00     0.007 C 
ATOM     17  C   UNL     1     104.173 124.415 121.086  1.00  0.00     0.012 C 
ATOM     18  C   UNL     1     102.286 123.928 118.032  1.00  0.00     0.000 C 
ATOM     19  C   UNL     1     101.538 122.810 120.195  1.00  0.00     0.005 C 
ATOM     20  C   UNL     1     101.265 123.970 119.189  1.00  0.00     0.003 C 
ATOM     21  C   UNL     1     102.054 122.680 117.154  1.00  0.00     0.031 C 
ATOM     22  C   UNL     1      99.776 124.014 118.654  1.00  0.00    -0.008 C 
ATOM     23  C   UNL     1     100.604 122.488 116.806  1.00  0.00    -0.027 C 
ATOM     24  C   UNL     1      99.570 123.050 117.481  1.00  0.00    -0.065 C 
ATOM     25  C   UNL     1      99.429 125.449 118.135  1.00  0.00     0.014 C 
ATOM     26  C   UNL     1      98.790 123.672 119.812  1.00  0.00     0.016 C 
ATOM     27  C   UNL     1      98.208 123.064 116.827  1.00  0.00     0.063 C 
ATOM     28  C   UNL     1      98.076 125.537 117.388  1.00  0.00     0.033 C 
ATOM     29  C   UNL     1      97.949 124.477 116.277  1.00  0.00     0.118 C 
BRANCH  29  30
ATOM     30  O   UNL     1      96.662 124.549 115.722  1.00  0.00    -0.393 OA
ATOM     31  H   UNL     1      96.277 123.635 115.775  1.00  0.00     0.210 HD
ENDBRANCH  29  30
ENDBRANCH   1  11
TORSDOF 6
ENDMDL
MODEL 9
REMARK VINA RESULT:    -6.882      6.394      9.592
REMARK INTER + INTRA:         -10.156
REMARK INTER:                  -9.056
REMARK INTRA:                  -1.100
REMARK UNBOUND:                -1.061
REMARK SMILES CC[C@@H](C=C[C@H](C)[C@H]1CC[C@H]2[C@H]3CC=C4C[C@@H](O)CC[C@]4(C)[C@H]3CC[C@@]12C)C(C)C
REMARK SMILES IDX 6 1 7 2 5 3 4 4 3 5 2 6 1 7 28 8 29 9 30 10 8 11 9 12 26 13
REMARK SMILES IDX 10 14 11 15 25 16 27 17 12 18 24 19 23 20 13 21 21 22 14 23
REMARK SMILES IDX 15 24 20 25 22 26 16 27 19 28 17 29 18 30
REMARK H PARENT 18 31
REMARK Flexibility Score: inf
ROOT
ATOM      1  C   UNL     1     104.846 118.869 121.671  1.00  0.00     0.012 C 
ATOM      2  C   UNL     1     104.528 117.488 121.059  1.00  0.00     0.012 C 
ENDROOT
BRANCH   1   3
ATOM      3  C   UNL     1     106.013 119.469 120.906  1.00  0.00    -0.028 C 
ATOM      4  C   UNL     1     106.935 120.247 121.503  1.00  0.00    -0.027 C 
BRANCH   4   5
ATOM      5  C   UNL     1     108.031 121.005 120.768  1.00  0.00     0.014 C 
BRANCH   5   6
ATOM      6  C   UNL     1     107.755 121.141 119.248  1.00  0.00     0.004 C 
ATOM      7  C   UNL     1     107.096 122.474 118.889  1.00  0.00     0.004 C 
ENDBRANCH   5   6
BRANCH   5   8
ATOM      8  C   UNL     1     109.451 120.453 121.116  1.00  0.00    -0.011 C 
ATOM      9  C   UNL     1     110.597 121.428 120.794  1.00  0.00     0.008 C 
ATOM     10  C   UNL     1     109.539 120.022 122.590  1.00  0.00     0.008 C 
ENDBRANCH   5   8
ENDBRANCH   4   5
ENDBRANCH   1   3
BRANCH   1  11
ATOM     11  C   UNL     1     103.619 119.857 121.724  1.00  0.00     0.002 C 
ATOM     12  C   UNL     1     102.283 119.160 121.402  1.00  0.00     0.005 C 
ATOM     13  C   UNL     1     103.337 120.577 123.110  1.00  0.00    -0.026 C 
ATOM     14  C   UNL     1     101.755 118.698 122.738  1.00  0.00     0.005 C 
ATOM     15  C   UNL     1     102.056 119.868 123.673  1.00  0.00    -0.001 C 
ATOM     16  C   UNL     1     104.512 120.547 124.135  1.00  0.00     0.007 C 
ATOM     17  C   UNL     1     103.020 122.070 122.809  1.00  0.00     0.012 C 
ATOM     18  C   UNL     1     102.046 119.520 125.193  1.00  0.00     0.000 C 
ATOM     19  C   UNL     1     104.139 120.916 125.590  1.00  0.00     0.005 C 
ATOM     20  C   UNL     1     102.653 120.685 126.003  1.00  0.00     0.003 C 
ATOM     21  C   UNL     1     102.704 118.183 125.594  1.00  0.00     0.031 C 
ATOM     22  C   UNL     1     102.447 120.483 127.559  1.00  0.00    -0.008 C 
ATOM     23  C   UNL     1     102.793 118.016 127.087  1.00  0.00    -0.027 C 
ATOM     24  C   UNL     1     102.711 119.034 127.980  1.00  0.00    -0.065 C 
ATOM     25  C   UNL     1     100.971 120.816 127.958  1.00  0.00     0.014 C 
ATOM     26  C   UNL     1     103.384 121.451 128.344  1.00  0.00     0.016 C 
ATOM     27  C   UNL     1     102.464 118.696 129.432  1.00  0.00     0.063 C 
ATOM     28  C   UNL     1     100.612 120.434 129.415  1.00  0.00     0.033 C 
ATOM     29  C   UNL     1     100.985 118.977 129.750  1.00  0.00     0.118 C 
BRANCH  29  30
ATOM     30  O   UNL     1     100.732 118.741 131.109  1.00  0.00    -0.393 OA
ATOM     31  H   UNL     1     101.541 118.299 131.478  1.00  0.00     0.210 HD
ENDBRANCH  29  30
ENDBRANCH   1  11
TORSDOF 6
ENDMDL
