MODEL 1
REMARK VINA RESULT:     0.911      0.000      0.000
REMARK INTER + INTRA:           1.608
REMARK INTER:                   1.097
REMARK INTRA:                   0.511
REMARK UNBOUND:                 0.511
REMARK SMILES O=c1c(O)c(-c2ccc(O)c(O)c2)oc2cc(O)cc(O)c12
REMARK SMILES IDX 5 1 3 2 2 3 1 4 22 5 20 6 19 7 17 8 16 9 15 10 14 11 6 12
REMARK SMILES IDX 7 13 8 14 9 15 13 16 11 17 10 18 12 20 4 22 21 24 18 26
REMARK H PARENT 10 19 12 21 4 23 21 25 18 27
REMARK Flexibility Score: inf
ROOT
ATOM      1  C   UNL     1     -10.662  -3.391  10.960  1.00  0.00     0.180 A 
ATOM      2  C   UNL     1     -10.304  -2.788  12.179  1.00  0.00     0.208 A 
ATOM      3  C   UNL     1     -10.224  -3.582  13.334  1.00  0.00     0.238 A 
ATOM      4  O   UNL     1      -9.850  -3.047  14.410  1.00  0.00    -0.285 OA
ATOM      5  C   UNL     1     -10.517  -4.966  13.260  1.00  0.00     0.111 A 
ATOM      6  C   UNL     1     -10.505  -5.856  14.375  1.00  0.00     0.134 A 
ATOM      7  C   UNL     1     -10.683  -7.229  14.164  1.00  0.00     0.093 A 
ATOM      8  C   UNL     1     -10.937  -7.735  12.890  1.00  0.00     0.123 A 
ATOM      9  C   UNL     1     -11.009  -6.865  11.801  1.00  0.00     0.094 A 
ATOM     10  C   UNL     1     -10.800  -5.494  11.975  1.00  0.00     0.146 A 
ATOM     11  O   UNL     1     -10.866  -4.703  10.911  1.00  0.00    -0.452 OA
ENDROOT
BRANCH   1  12
ATOM     12  C   UNL     1     -10.792  -2.617   9.706  1.00  0.00     0.025 A 
ATOM     13  C   UNL     1     -10.743  -1.215   9.750  1.00  0.00     0.016 A 
ATOM     14  C   UNL     1     -10.843  -0.466   8.575  1.00  0.00     0.051 A 
ATOM     15  C   UNL     1     -10.979  -1.107   7.336  1.00  0.00     0.157 A 
ATOM     16  C   UNL     1     -10.908  -3.259   8.458  1.00  0.00     0.062 A 
ATOM     17  C   UNL     1     -11.006  -2.512   7.279  1.00  0.00     0.158 A 
BRANCH  15  18
ATOM     18  O   UNL     1     -11.081  -0.357   6.166  1.00  0.00    -0.504 OA
ATOM     19  H   UNL     1     -11.096   0.656   6.184  1.00  0.00     0.293 HD
ENDBRANCH  15  18
BRANCH  17  20
ATOM     20  O   UNL     1     -11.125  -3.180   6.062  1.00  0.00    -0.504 OA
ATOM     21  H   UNL     1     -10.640  -4.049   5.874  1.00  0.00     0.293 HD
ENDBRANCH  17  20
ENDBRANCH   1  12
BRANCH   2  22
ATOM     22  O   UNL     1      -9.998  -1.425  12.225  1.00  0.00    -0.502 OA
ATOM     23  H   UNL     1      -9.561  -0.940  11.450  1.00  0.00     0.293 HD
ENDBRANCH   2  22
BRANCH   6  24
ATOM     24  O   UNL     1     -10.352  -5.444  15.703  1.00  0.00    -0.507 OA
ATOM     25  H   UNL     1     -10.860  -4.685  16.130  1.00  0.00     0.293 HD
ENDBRANCH   6  24
BRANCH   8  26
ATOM     26  O   UNL     1     -11.125  -9.105  12.718  1.00  0.00    -0.508 OA
ATOM     27  H   UNL     1     -10.543  -9.644  12.088  1.00  0.00     0.293 HD
ENDBRANCH   8  26
TORSDOF 6
ENDMDL
MODEL 2
REMARK VINA RESULT:     2.651      4.007      9.610
REMARK INTER + INTRA:           3.705
REMARK INTER:                   3.805
REMARK INTRA:                  -0.100
REMARK UNBOUND:                 0.511
REMARK SMILES O=c1c(O)c(-c2ccc(O)c(O)c2)oc2cc(O)cc(O)c12
REMARK SMILES IDX 5 1 3 2 2 3 1 4 22 5 20 6 19 7 17 8 16 9 15 10 14 11 6 12
REMARK SMILES IDX 7 13 8 14 9 15 13 16 11 17 10 18 12 20 4 22 21 24 18 26
REMARK H PARENT 10 19 12 21 4 23 21 25 18 27
REMARK Flexibility Score: inf
ROOT
ATOM      1  C   UNL     1     -10.182  -6.988  17.071  1.00  0.00     0.180 A 
ATOM      2  C   UNL     1      -9.833  -7.792  15.972  1.00  0.00     0.208 A 
ATOM      3  C   UNL     1      -9.833  -7.226  14.688  1.00  0.00     0.238 A 
ATOM      4  O   UNL     1      -9.466  -7.936  13.714  1.00  0.00    -0.285 OA
ATOM      5  C   UNL     1     -10.196  -5.868  14.515  1.00  0.00     0.111 A 
ATOM      6  C   UNL     1     -10.269  -5.202  13.255  1.00  0.00     0.134 A 
ATOM      7  C   UNL     1     -10.513  -3.824  13.215  1.00  0.00     0.093 A 
ATOM      8  C   UNL     1     -10.751  -3.101  14.383  1.00  0.00     0.123 A 
ATOM      9  C   UNL     1     -10.741  -3.753  15.617  1.00  0.00     0.094 A 
ATOM     10  C   UNL     1     -10.465  -5.121  15.691  1.00  0.00     0.146 A 
ATOM     11  O   UNL     1     -10.454  -5.701  16.885  1.00  0.00    -0.452 OA
ENDROOT
BRANCH   1  12
ATOM     12  C   UNL     1     -10.230  -7.519  18.452  1.00  0.00     0.025 A 
ATOM     13  C   UNL     1     -11.079  -8.596  18.751  1.00  0.00     0.016 A 
ATOM     14  C   UNL     1     -11.124  -9.125  20.043  1.00  0.00     0.051 A 
ATOM     15  C   UNL     1     -10.309  -8.596  21.053  1.00  0.00     0.157 A 
ATOM     16  C   UNL     1      -9.398  -7.003  19.464  1.00  0.00     0.062 A 
ATOM     17  C   UNL     1      -9.439  -7.532  20.759  1.00  0.00     0.158 A 
BRANCH  15  18
ATOM     18  O   UNL     1     -10.358  -9.125  22.342  1.00  0.00    -0.504 OA
ATOM     19  H   UNL     1     -11.183  -9.033  22.923  1.00  0.00     0.293 HD
ENDBRANCH  15  18
BRANCH  17  20
ATOM     20  O   UNL     1      -8.605  -6.994  21.737  1.00  0.00    -0.504 OA
ATOM     21  H   UNL     1      -8.676  -7.260  22.712  1.00  0.00     0.293 HD
ENDBRANCH  17  20
ENDBRANCH   1  12
BRANCH   2  22
ATOM     22  O   UNL     1      -9.457  -9.123  16.167  1.00  0.00    -0.502 OA
ATOM     23  H   UNL     1      -9.172  -9.726  15.404  1.00  0.00     0.293 HD
ENDBRANCH   2  22
BRANCH   6  24
ATOM     24  O   UNL     1     -10.137  -5.849  12.022  1.00  0.00    -0.507 OA
ATOM     25  H   UNL     1     -10.038  -5.379  11.135  1.00  0.00     0.293 HD
ENDBRANCH   6  24
BRANCH   8  26
ATOM     26  O   UNL     1     -11.006  -1.733  14.305  1.00  0.00    -0.508 OA
ATOM     27  H   UNL     1     -11.932  -1.378  14.096  1.00  0.00     0.293 HD
ENDBRANCH   8  26
TORSDOF 6
ENDMDL
MODEL 3
REMARK VINA RESULT:     3.791      9.796     11.377
REMARK INTER + INTRA:           5.078
REMARK INTER:                   5.244
REMARK INTRA:                  -0.166
REMARK UNBOUND:                 0.511
REMARK SMILES O=c1c(O)c(-c2ccc(O)c(O)c2)oc2cc(O)cc(O)c12
REMARK SMILES IDX 5 1 3 2 2 3 1 4 22 5 20 6 19 7 17 8 16 9 15 10 14 11 6 12
REMARK SMILES IDX 7 13 8 14 9 15 13 16 11 17 10 18 12 20 4 22 21 24 18 26
REMARK H PARENT 10 19 12 21 4 23 21 25 18 27
REMARK Flexibility Score: inf
ROOT
ATOM      1  C   UNL     1      -7.738  -3.537  22.003  1.00  0.00     0.180 A 
ATOM      2  C   UNL     1      -8.122  -3.519  23.355  1.00  0.00     0.208 A 
ATOM      3  C   UNL     1      -8.749  -4.651  23.900  1.00  0.00     0.238 A 
ATOM      4  O   UNL     1      -9.040  -4.650  25.125  1.00  0.00    -0.285 OA
ATOM      5  C   UNL     1      -8.999  -5.781  23.083  1.00  0.00     0.111 A 
ATOM      6  C   UNL     1      -9.662  -6.966  23.521  1.00  0.00     0.134 A 
ATOM      7  C   UNL     1      -9.739  -8.071  22.664  1.00  0.00     0.093 A 
ATOM      8  C   UNL     1      -9.235  -8.012  21.365  1.00  0.00     0.123 A 
ATOM      9  C   UNL     1      -8.636  -6.837  20.907  1.00  0.00     0.094 A 
ATOM     10  C   UNL     1      -8.513  -5.730  21.751  1.00  0.00     0.146 A 
ATOM     11  O   UNL     1      -7.927  -4.636  21.280  1.00  0.00    -0.452 OA
ENDROOT
BRANCH   1  12
ATOM     12  C   UNL     1      -7.096  -2.375  21.350  1.00  0.00     0.025 A 
ATOM     13  C   UNL     1      -5.804  -1.989  21.740  1.00  0.00     0.016 A 
ATOM     14  C   UNL     1      -5.171  -0.907  21.122  1.00  0.00     0.051 A 
ATOM     15  C   UNL     1      -5.813  -0.204  20.094  1.00  0.00     0.157 A 
ATOM     16  C   UNL     1      -7.730  -1.680  20.303  1.00  0.00     0.062 A 
ATOM     17  C   UNL     1      -7.098  -0.597  19.680  1.00  0.00     0.158 A 
BRANCH  15  18
ATOM     18  O   UNL     1      -5.180   0.876  19.482  1.00  0.00    -0.504 OA
ATOM     19  H   UNL     1      -5.373   1.831  19.759  1.00  0.00     0.293 HD
ENDBRANCH  15  18
BRANCH  17  20
ATOM     20  O   UNL     1      -7.758   0.072  18.651  1.00  0.00    -0.504 OA
ATOM     21  H   UNL     1      -7.543  -0.094  17.675  1.00  0.00     0.293 HD
ENDBRANCH  17  20
ENDBRANCH   1  12
BRANCH   2  22
ATOM     22  O   UNL     1      -7.846  -2.403  24.148  1.00  0.00    -0.502 OA
ATOM     23  H   UNL     1      -7.141  -1.719  23.899  1.00  0.00     0.293 HD
ENDBRANCH   2  22
BRANCH   6  24
ATOM     24  O   UNL     1     -10.283  -7.098  24.767  1.00  0.00    -0.507 OA
ATOM     25  H   UNL     1      -9.969  -6.653  25.615  1.00  0.00     0.293 HD
ENDBRANCH   6  24
BRANCH   8  26
ATOM     26  O   UNL     1      -9.342  -9.125  20.534  1.00  0.00    -0.508 OA
ATOM     27  H   UNL     1     -10.227  -9.597  20.393  1.00  0.00     0.293 HD
ENDBRANCH   8  26
TORSDOF 6
ENDMDL
