MODEL 1
REMARK VINA RESULT:    -7.137      0.000      0.000
REMARK INTER + INTRA:         -20.607
REMARK INTER:                 -18.819
REMARK INTRA:                  -1.788
REMARK UNBOUND:                -1.788
REMARK SMILES CCCCCCCCCCCCCCCCCCCCCCCCCCCCCC(=O)[O-]
REMARK SMILES IDX 16 1 17 2 18 3 19 4 20 5 21 6 22 7 23 8 24 9 25 10 26 11
REMARK SMILES IDX 27 12 28 13 29 14 30 15 31 16 32 17 15 18 14 19 13 20 12 21
REMARK SMILES IDX 11 22 10 23 9 24 8 25 7 26 6 27 5 28 4 29 3 30 2 31 1 32
REMARK H PARENT
REMARK Flexibility Score: inf
ROOT
ATOM      1  C   UNL     1      25.884  -8.591  20.659  1.00  0.00     0.000 C 
ENDROOT
BRANCH   1   2
ATOM      2  C   UNL     1      24.397  -8.241  20.850  1.00  0.00     0.000 C 
BRANCH   2   3
ATOM      3  C   UNL     1      23.636  -9.307  21.656  1.00  0.00     0.000 C 
BRANCH   3   4
ATOM      4  C   UNL     1      23.126  -8.784  23.006  1.00  0.00     0.000 C 
BRANCH   4   5
ATOM      5  C   UNL     1      22.837  -9.945  23.970  1.00  0.00     0.000 C 
BRANCH   5   6
ATOM      6  C   UNL     1      21.689  -9.637  24.942  1.00  0.00     0.000 C 
BRANCH   6   7
ATOM      7  C   UNL     1      20.713  -8.583  24.397  1.00  0.00     0.000 C 
BRANCH   7   8
ATOM      8  C   UNL     1      19.516  -8.333  25.333  1.00  0.00     0.000 C 
BRANCH   8   9
ATOM      9  C   UNL     1      18.719  -7.056  24.990  1.00  0.00     0.000 C 
BRANCH   9  10
ATOM     10  C   UNL     1      17.505  -7.355  24.092  1.00  0.00     0.000 C 
BRANCH  10  11
ATOM     11  C   UNL     1      16.184  -7.443  24.876  1.00  0.00     0.000 C 
BRANCH  11  12
ATOM     12  C   UNL     1      14.975  -6.782  24.190  1.00  0.00     0.000 C 
BRANCH  12  13
ATOM     13  C   UNL     1      14.394  -5.609  24.994  1.00  0.00     0.006 C 
BRANCH  13  14
ATOM     14  C   UNL     1      15.463  -4.972  25.891  1.00  0.00     0.053 C 
BRANCH  14  15
ATOM     15  C   UNL     1      16.284  -3.988  25.117  1.00  0.00     0.041 C 
ATOM     16  O   UNL     1      15.762  -3.327  24.180  1.00  0.00    -0.550 OA
ATOM     17  O   UNL     1      17.619  -3.777  25.450  1.00  0.00    -0.550 OA
ENDBRANCH  14  15
ENDBRANCH  13  14
ENDBRANCH  12  13
ENDBRANCH  11  12
ENDBRANCH  10  11
ENDBRANCH   9  10
ENDBRANCH   8   9
ENDBRANCH   7   8
ENDBRANCH   6   7
ENDBRANCH   5   6
ENDBRANCH   4   5
ENDBRANCH   3   4
ENDBRANCH   2   3
ENDBRANCH   1   2
BRANCH   1  18
ATOM     18  C   UNL     1      26.666  -7.492  19.915  1.00  0.00     0.000 C 
BRANCH  18  19
ATOM     19  C   UNL     1      25.836  -6.258  19.510  1.00  0.00     0.000 C 
BRANCH  19  20
ATOM     20  C   UNL     1      26.658  -4.958  19.503  1.00  0.00     0.000 C 
BRANCH  20  21
ATOM     21  C   UNL     1      27.515  -4.857  18.233  1.00  0.00     0.000 C 
BRANCH  21  22
ATOM     22  C   UNL     1      28.960  -4.406  18.521  1.00  0.00     0.000 C 
BRANCH  22  23
ATOM     23  C   UNL     1      29.111  -3.419  19.696  1.00  0.00     0.000 C 
BRANCH  23  24
ATOM     24  C   UNL     1      29.243  -1.936  19.293  1.00  0.00    -0.000 C 
BRANCH  24  25
ATOM     25  C   UNL     1      28.151  -1.007  19.854  1.00  0.00    -0.000 C 
BRANCH  25  26
ATOM     26  C   UNL     1      27.085  -1.763  20.666  1.00  0.00    -0.000 C 
BRANCH  26  27
ATOM     27  C   UNL     1      25.649  -1.467  20.199  1.00  0.00    -0.000 C 
BRANCH  27  28
ATOM     28  C   UNL     1      25.410  -0.030  19.691  1.00  0.00    -0.000 C 
BRANCH  28  29
ATOM     29  C   UNL     1      24.031   0.215  19.046  1.00  0.00    -0.000 C 
BRANCH  29  30
ATOM     30  C   UNL     1      23.592   1.692  18.988  1.00  0.00    -0.000 C 
BRANCH  30  31
ATOM     31  C   UNL     1      24.175   2.493  17.810  1.00  0.00    -0.003 C 
ATOM     32  C   UNL     1      23.258   2.508  16.588  1.00  0.00     0.004 C 
ENDBRANCH  30  31
ENDBRANCH  29  30
ENDBRANCH  28  29
ENDBRANCH  27  28
ENDBRANCH  26  27
ENDBRANCH  25  26
ENDBRANCH  24  25
ENDBRANCH  23  24
ENDBRANCH  22  23
ENDBRANCH  21  22
ENDBRANCH  20  21
ENDBRANCH  19  20
ENDBRANCH  18  19
ENDBRANCH   1  18
TORSDOF 28
ENDMDL
MODEL 2
REMARK VINA RESULT:    -6.955      2.907     11.012
REMARK INTER + INTRA:         -20.128
REMARK INTER:                 -18.199
REMARK INTRA:                  -1.928
REMARK UNBOUND:                -1.788
REMARK SMILES CCCCCCCCCCCCCCCCCCCCCCCCCCCCCC(=O)[O-]
REMARK SMILES IDX 16 1 17 2 18 3 19 4 20 5 21 6 22 7 23 8 24 9 25 10 26 11
REMARK SMILES IDX 27 12 28 13 29 14 30 15 31 16 32 17 15 18 14 19 13 20 12 21
REMARK SMILES IDX 11 22 10 23 9 24 8 25 7 26 6 27 5 28 4 29 3 30 2 31 1 32
REMARK H PARENT
REMARK Flexibility Score: inf
ROOT
ATOM      1  C   UNL     1      25.024  -8.440  20.839  1.00  0.00     0.000 C 
ENDROOT
BRANCH   1   2
ATOM      2  C   UNL     1      24.880  -6.909  20.877  1.00  0.00     0.000 C 
BRANCH   2   3
ATOM      3  C   UNL     1      24.472  -6.318  19.517  1.00  0.00     0.000 C 
BRANCH   3   4
ATOM      4  C   UNL     1      25.109  -4.947  19.247  1.00  0.00     0.000 C 
BRANCH   4   5
ATOM      5  C   UNL     1      26.574  -4.923  19.708  1.00  0.00     0.000 C 
BRANCH   5   6
ATOM      6  C   UNL     1      27.523  -4.357  18.641  1.00  0.00     0.000 C 
BRANCH   6   7
ATOM      7  C   UNL     1      28.916  -4.027  19.198  1.00  0.00     0.000 C 
BRANCH   7   8
ATOM      8  C   UNL     1      29.428  -2.645  18.752  1.00  0.00     0.000 C 
BRANCH   8   9
ATOM      9  C   UNL     1      29.227  -1.539  19.811  1.00  0.00     0.000 C 
BRANCH   9  10
ATOM     10  C   UNL     1      28.163  -0.513  19.382  1.00  0.00     0.000 C 
BRANCH  10  11
ATOM     11  C   UNL     1      26.959  -0.461  20.337  1.00  0.00     0.000 C 
BRANCH  11  12
ATOM     12  C   UNL     1      25.765  -1.342  19.928  1.00  0.00     0.000 C 
BRANCH  12  13
ATOM     13  C   UNL     1      24.467  -0.543  19.730  1.00  0.00     0.006 C 
BRANCH  13  14
ATOM     14  C   UNL     1      24.765   0.880  19.243  1.00  0.00     0.053 C 
BRANCH  14  15
ATOM     15  C   UNL     1      23.541   1.500  18.644  1.00  0.00     0.041 C 
ATOM     16  O   UNL     1      23.597   2.036  17.505  1.00  0.00    -0.550 OA
ATOM     17  O   UNL     1      22.330   1.458  19.328  1.00  0.00    -0.550 OA
ENDBRANCH  14  15
ENDBRANCH  13  14
ENDBRANCH  12  13
ENDBRANCH  11  12
ENDBRANCH  10  11
ENDBRANCH   9  10
ENDBRANCH   8   9
ENDBRANCH   7   8
ENDBRANCH   6   7
ENDBRANCH   5   6
ENDBRANCH   4   5
ENDBRANCH   3   4
ENDBRANCH   2   3
ENDBRANCH   1   2
BRANCH   1  18
ATOM     18  C   UNL     1      23.731  -9.173  21.246  1.00  0.00     0.000 C 
BRANCH  18  19
ATOM     19  C   UNL     1      23.282  -8.948  22.703  1.00  0.00     0.000 C 
BRANCH  19  20
ATOM     20  C   UNL     1      22.868 -10.249  23.411  1.00  0.00     0.000 C 
BRANCH  20  21
ATOM     21  C   UNL     1      22.468  -9.977  24.869  1.00  0.00     0.000 C 
BRANCH  21  22
ATOM     22  C   UNL     1      22.862 -11.122  25.821  1.00  0.00     0.000 C 
BRANCH  22  23
ATOM     23  C   UNL     1      22.362 -10.964  27.271  1.00  0.00     0.000 C 
BRANCH  23  24
ATOM     24  C   UNL     1      21.364  -9.809  27.498  1.00  0.00    -0.000 C 
BRANCH  24  25
ATOM     25  C   UNL     1      19.886 -10.230  27.579  1.00  0.00    -0.000 C 
BRANCH  25  26
ATOM     26  C   UNL     1      18.974  -9.376  26.681  1.00  0.00    -0.000 C 
BRANCH  26  27
ATOM     27  C   UNL     1      19.757  -8.498  25.689  1.00  0.00    -0.000 C 
BRANCH  27  28
ATOM     28  C   UNL     1      18.906  -7.842  24.582  1.00  0.00    -0.000 C 
BRANCH  28  29
ATOM     29  C   UNL     1      17.758  -6.945  25.085  1.00  0.00    -0.000 C 
BRANCH  29  30
ATOM     30  C   UNL     1      16.437  -7.076  24.300  1.00  0.00    -0.000 C 
BRANCH  30  31
ATOM     31  C   UNL     1      15.348  -6.063  24.694  1.00  0.00    -0.003 C 
ATOM     32  C   UNL     1      14.026  -6.726  25.075  1.00  0.00     0.004 C 
ENDBRANCH  30  31
ENDBRANCH  29  30
ENDBRANCH  28  29
ENDBRANCH  27  28
ENDBRANCH  26  27
ENDBRANCH  25  26
ENDBRANCH  24  25
ENDBRANCH  23  24
ENDBRANCH  22  23
ENDBRANCH  21  22
ENDBRANCH  20  21
ENDBRANCH  19  20
ENDBRANCH  18  19
ENDBRANCH   1  18
TORSDOF 28
ENDMDL
MODEL 3
REMARK VINA RESULT:    -6.932      5.665     11.640
REMARK INTER + INTRA:         -20.066
REMARK INTER:                 -17.923
REMARK INTRA:                  -2.143
REMARK UNBOUND:                -1.788
REMARK SMILES CCCCCCCCCCCCCCCCCCCCCCCCCCCCCC(=O)[O-]
REMARK SMILES IDX 16 1 17 2 18 3 19 4 20 5 21 6 22 7 23 8 24 9 25 10 26 11
REMARK SMILES IDX 27 12 28 13 29 14 30 15 31 16 32 17 15 18 14 19 13 20 12 21
REMARK SMILES IDX 11 22 10 23 9 24 8 25 7 26 6 27 5 28 4 29 3 30 2 31 1 32
REMARK H PARENT
REMARK Flexibility Score: inf
ROOT
ATOM      1  C   UNL     1      23.079   2.298  16.416  1.00  0.00     0.000 C 
ENDROOT
BRANCH   1   2
ATOM      2  C   UNL     1      24.033   2.367  17.622  1.00  0.00     0.000 C 
BRANCH   2   3
ATOM      3  C   UNL     1      23.649   1.382  18.738  1.00  0.00     0.000 C 
BRANCH   3   4
ATOM      4  C   UNL     1      24.868   0.751  19.424  1.00  0.00     0.000 C 
BRANCH   4   5
ATOM      5  C   UNL     1      24.601  -0.721  19.771  1.00  0.00     0.000 C 
BRANCH   5   6
ATOM      6  C   UNL     1      25.892  -1.542  19.909  1.00  0.00     0.000 C 
BRANCH   6   7
ATOM      7  C   UNL     1      27.035  -0.750  20.560  1.00  0.00     0.000 C 
BRANCH   7   8
ATOM      8  C   UNL     1      28.243  -0.560  19.624  1.00  0.00     0.000 C 
BRANCH   8   9
ATOM      9  C   UNL     1      29.336  -1.637  19.798  1.00  0.00     0.000 C 
BRANCH   9  10
ATOM     10  C   UNL     1      29.369  -2.625  18.618  1.00  0.00     0.000 C 
BRANCH  10  11
ATOM     11  C   UNL     1      29.022  -4.066  19.030  1.00  0.00     0.000 C 
BRANCH  11  12
ATOM     12  C   UNL     1      27.613  -4.537  18.625  1.00  0.00     0.000 C 
BRANCH  12  13
ATOM     13  C   UNL     1      26.770  -5.008  19.820  1.00  0.00     0.006 C 
BRANCH  13  14
ATOM     14  C   UNL     1      25.348  -5.378  19.380  1.00  0.00     0.053 C 
BRANCH  14  15
ATOM     15  C   UNL     1      24.947  -6.703  19.950  1.00  0.00     0.041 C 
ATOM     16  O   UNL     1      25.828  -7.539  20.289  1.00  0.00    -0.550 OA
ATOM     17  O   UNL     1      23.602  -7.005  20.137  1.00  0.00    -0.550 OA
ENDBRANCH  14  15
ENDBRANCH  13  14
ENDBRANCH  12  13
ENDBRANCH  11  12
ENDBRANCH  10  11
ENDBRANCH   9  10
ENDBRANCH   8   9
ENDBRANCH   7   8
ENDBRANCH   6   7
ENDBRANCH   5   6
ENDBRANCH   4   5
ENDBRANCH   3   4
ENDBRANCH   2   3
ENDBRANCH   1   2
BRANCH   1  18
ATOM     18  C   UNL     1      22.855   3.670  15.752  1.00  0.00     0.000 C 
BRANCH  18  19
ATOM     19  C   UNL     1      22.207   3.622  14.354  1.00  0.00     0.000 C 
BRANCH  19  20
ATOM     20  C   UNL     1      22.478   4.888  13.524  1.00  0.00     0.000 C 
BRANCH  20  21
ATOM     21  C   UNL     1      23.258   4.549  12.245  1.00  0.00     0.000 C 
BRANCH  21  22
ATOM     22  C   UNL     1      22.399   3.818  11.196  1.00  0.00     0.000 C 
BRANCH  22  23
ATOM     23  C   UNL     1      20.924   4.264  11.138  1.00  0.00     0.000 C 
BRANCH  23  24
ATOM     24  C   UNL     1      19.893   3.169  11.479  1.00  0.00    -0.000 C 
BRANCH  24  25
ATOM     25  C   UNL     1      18.896   3.534  12.594  1.00  0.00    -0.000 C 
BRANCH  25  26
ATOM     26  C   UNL     1      18.246   2.298  13.239  1.00  0.00    -0.000 C 
BRANCH  26  27
ATOM     27  C   UNL     1      18.893   1.908  14.580  1.00  0.00    -0.000 C 
BRANCH  27  28
ATOM     28  C   UNL     1      17.959   1.188  15.573  1.00  0.00    -0.000 C 
BRANCH  28  29
ATOM     29  C   UNL     1      16.784   0.423  14.930  1.00  0.00    -0.000 C 
BRANCH  29  30
ATOM     30  C   UNL     1      15.473   0.443  15.740  1.00  0.00    -0.000 C 
BRANCH  30  31
ATOM     31  C   UNL     1      14.643  -0.851  15.657  1.00  0.00    -0.003 C 
ATOM     32  C   UNL     1      15.499  -2.114  15.721  1.00  0.00     0.004 C 
ENDBRANCH  30  31
ENDBRANCH  29  30
ENDBRANCH  28  29
ENDBRANCH  27  28
ENDBRANCH  26  27
ENDBRANCH  25  26
ENDBRANCH  24  25
ENDBRANCH  23  24
ENDBRANCH  22  23
ENDBRANCH  21  22
ENDBRANCH  20  21
ENDBRANCH  19  20
ENDBRANCH  18  19
ENDBRANCH   1  18
TORSDOF 28
ENDMDL
MODEL 4
REMARK VINA RESULT:    -6.885      2.784     10.700
REMARK INTER + INTRA:         -19.944
REMARK INTER:                 -17.647
REMARK INTRA:                  -2.297
REMARK UNBOUND:                -1.788
REMARK SMILES CCCCCCCCCCCCCCCCCCCCCCCCCCCCCC(=O)[O-]
REMARK SMILES IDX 16 1 17 2 18 3 19 4 20 5 21 6 22 7 23 8 24 9 25 10 26 11
REMARK SMILES IDX 27 12 28 13 29 14 30 15 31 16 32 17 15 18 14 19 13 20 12 21
REMARK SMILES IDX 11 22 10 23 9 24 8 25 7 26 6 27 5 28 4 29 3 30 2 31 1 32
REMARK H PARENT
REMARK Flexibility Score: inf
ROOT
ATOM      1  C   UNL     1      25.671  -7.560  20.055  1.00  0.00     0.000 C 
ENDROOT
BRANCH   1   2
ATOM      2  C   UNL     1      24.513  -6.813  19.370  1.00  0.00     0.000 C 
BRANCH   2   3
ATOM      3  C   UNL     1      24.451  -5.327  19.762  1.00  0.00     0.000 C 
BRANCH   3   4
ATOM      4  C   UNL     1      25.375  -4.446  18.911  1.00  0.00     0.000 C 
BRANCH   4   5
ATOM      5  C   UNL     1      26.672  -4.121  19.667  1.00  0.00     0.000 C 
BRANCH   5   6
ATOM      6  C   UNL     1      27.932  -4.482  18.867  1.00  0.00     0.000 C 
BRANCH   6   7
ATOM      7  C   UNL     1      29.207  -3.848  19.446  1.00  0.00     0.000 C 
BRANCH   7   8
ATOM      8  C   UNL     1      29.478  -2.436  18.896  1.00  0.00     0.000 C 
BRANCH   8   9
ATOM      9  C   UNL     1      29.176  -1.309  19.908  1.00  0.00     0.000 C 
BRANCH   9  10
ATOM     10  C   UNL     1      28.169  -0.287  19.352  1.00  0.00     0.000 C 
BRANCH  10  11
ATOM     11  C   UNL     1      27.007  -0.002  20.319  1.00  0.00     0.000 C 
BRANCH  11  12
ATOM     12  C   UNL     1      25.845  -1.011  20.255  1.00  0.00     0.000 C 
BRANCH  12  13
ATOM     13  C   UNL     1      24.593  -0.444  19.568  1.00  0.00     0.006 C 
BRANCH  13  14
ATOM     14  C   UNL     1      24.762   1.048  19.258  1.00  0.00     0.053 C 
BRANCH  14  15
ATOM     15  C   UNL     1      23.519   1.602  18.634  1.00  0.00     0.041 C 
ATOM     16  O   UNL     1      23.567   2.134  17.493  1.00  0.00    -0.550 OA
ATOM     17  O   UNL     1      22.300   1.503  19.298  1.00  0.00    -0.550 OA
ENDBRANCH  14  15
ENDBRANCH  13  14
ENDBRANCH  12  13
ENDBRANCH  11  12
ENDBRANCH  10  11
ENDBRANCH   9  10
ENDBRANCH   8   9
ENDBRANCH   7   8
ENDBRANCH   6   7
ENDBRANCH   5   6
ENDBRANCH   4   5
ENDBRANCH   3   4
ENDBRANCH   2   3
ENDBRANCH   1   2
BRANCH   1  18
ATOM     18  C   UNL     1      25.189  -8.702  20.968  1.00  0.00     0.000 C 
BRANCH  18  19
ATOM     19  C   UNL     1      24.025  -8.341  21.911  1.00  0.00     0.000 C 
BRANCH  19  20
ATOM     20  C   UNL     1      23.159  -9.554  22.289  1.00  0.00     0.000 C 
BRANCH  20  21
ATOM     21  C   UNL     1      22.827  -9.546  23.789  1.00  0.00     0.000 C 
BRANCH  21  22
ATOM     22  C   UNL     1      21.566  -8.722  24.117  1.00  0.00     0.000 C 
BRANCH  22  23
ATOM     23  C   UNL     1      20.752  -9.234  25.323  1.00  0.00     0.000 C 
BRANCH  23  24
ATOM     24  C   UNL     1      19.335  -8.639  25.456  1.00  0.00    -0.000 C 
BRANCH  24  25
ATOM     25  C   UNL     1      19.171  -7.210  24.907  1.00  0.00    -0.000 C 
BRANCH  25  26
ATOM     26  C   UNL     1      18.218  -7.141  23.702  1.00  0.00    -0.000 C 
BRANCH  26  27
ATOM     27  C   UNL     1      16.843  -7.774  23.984  1.00  0.00    -0.000 C 
BRANCH  27  28
ATOM     28  C   UNL     1      15.660  -6.785  24.009  1.00  0.00    -0.000 C 
BRANCH  28  29
ATOM     29  C   UNL     1      15.077  -6.496  25.406  1.00  0.00    -0.000 C 
BRANCH  29  30
ATOM     30  C   UNL     1      15.520  -5.160  26.034  1.00  0.00    -0.000 C 
BRANCH  30  31
ATOM     31  C   UNL     1      15.891  -4.062  25.021  1.00  0.00    -0.003 C 
ATOM     32  C   UNL     1      17.390  -3.769  24.981  1.00  0.00     0.004 C 
ENDBRANCH  30  31
ENDBRANCH  29  30
ENDBRANCH  28  29
ENDBRANCH  27  28
ENDBRANCH  26  27
ENDBRANCH  25  26
ENDBRANCH  24  25
ENDBRANCH  23  24
ENDBRANCH  22  23
ENDBRANCH  21  22
ENDBRANCH  20  21
ENDBRANCH  19  20
ENDBRANCH  18  19
ENDBRANCH   1  18
TORSDOF 28
ENDMDL
MODEL 5
REMARK VINA RESULT:    -6.832      1.654      3.160
REMARK INTER + INTRA:         -19.803
REMARK INTER:                 -17.963
REMARK INTRA:                  -1.839
REMARK UNBOUND:                -1.788
REMARK SMILES CCCCCCCCCCCCCCCCCCCCCCCCCCCCCC(=O)[O-]
REMARK SMILES IDX 16 1 17 2 18 3 19 4 20 5 21 6 22 7 23 8 24 9 25 10 26 11
REMARK SMILES IDX 27 12 28 13 29 14 30 15 31 16 32 17 15 18 14 19 13 20 12 21
REMARK SMILES IDX 11 22 10 23 9 24 8 25 7 26 6 27 5 28 4 29 3 30 2 31 1 32
REMARK H PARENT
REMARK Flexibility Score: inf
ROOT
ATOM      1  C   UNL     1      23.449  -8.977  21.363  1.00  0.00     0.000 C 
ENDROOT
BRANCH   1   2
ATOM      2  C   UNL     1      23.214  -8.910  22.882  1.00  0.00     0.000 C 
BRANCH   2   3
ATOM      3  C   UNL     1      22.903 -10.286  23.495  1.00  0.00     0.000 C 
BRANCH   3   4
ATOM      4  C   UNL     1      22.731 -10.236  25.019  1.00  0.00     0.000 C 
BRANCH   4   5
ATOM      5  C   UNL     1      23.116 -11.579  25.658  1.00  0.00     0.000 C 
BRANCH   5   6
ATOM      6  C   UNL     1      23.571 -11.433  27.118  1.00  0.00     0.000 C 
BRANCH   6   7
ATOM      7  C   UNL     1      22.626 -10.554  27.951  1.00  0.00     0.000 C 
BRANCH   7   8
ATOM      8  C   UNL     1      21.278 -11.235  28.248  1.00  0.00     0.000 C 
BRANCH   8   9
ATOM      9  C   UNL     1      20.055 -10.338  27.960  1.00  0.00     0.000 C 
BRANCH   9  10
ATOM     10  C   UNL     1      20.335  -9.320  26.839  1.00  0.00     0.000 C 
BRANCH  10  11
ATOM     11  C   UNL     1      19.066  -8.900  26.078  1.00  0.00     0.000 C 
BRANCH  11  12
ATOM     12  C   UNL     1      19.276  -7.802  25.020  1.00  0.00     0.000 C 
BRANCH  12  13
ATOM     13  C   UNL     1      17.959  -7.268  24.436  1.00  0.00     0.006 C 
BRANCH  13  14
ATOM     14  C   UNL     1      17.105  -6.602  25.522  1.00  0.00     0.053 C 
BRANCH  14  15
ATOM     15  C   UNL     1      15.770  -6.204  24.973  1.00  0.00     0.041 C 
ATOM     16  O   UNL     1      14.847  -7.057  24.875  1.00  0.00    -0.550 OA
ATOM     17  O   UNL     1      15.533  -4.885  24.600  1.00  0.00    -0.550 OA
ENDBRANCH  14  15
ENDBRANCH  13  14
ENDBRANCH  12  13
ENDBRANCH  11  12
ENDBRANCH  10  11
ENDBRANCH   9  10
ENDBRANCH   8   9
ENDBRANCH   7   8
ENDBRANCH   6   7
ENDBRANCH   5   6
ENDBRANCH   4   5
ENDBRANCH   3   4
ENDBRANCH   2   3
ENDBRANCH   1   2
BRANCH   1  18
ATOM     18  C   UNL     1      24.552  -8.013  20.886  1.00  0.00     0.000 C 
BRANCH  18  19
ATOM     19  C   UNL     1      25.932  -8.660  20.655  1.00  0.00     0.000 C 
BRANCH  19  20
ATOM     20  C   UNL     1      26.835  -7.832  19.726  1.00  0.00     0.000 C 
BRANCH  20  21
ATOM     21  C   UNL     1      26.601  -6.328  19.929  1.00  0.00     0.000 C 
BRANCH  21  22
ATOM     22  C   UNL     1      26.319  -5.583  18.610  1.00  0.00     0.000 C 
BRANCH  22  23
ATOM     23  C   UNL     1      27.340  -4.484  18.253  1.00  0.00     0.000 C 
BRANCH  23  24
ATOM     24  C   UNL     1      28.766  -4.713  18.795  1.00  0.00    -0.000 C 
BRANCH  24  25
ATOM     25  C   UNL     1      29.443  -3.470  19.399  1.00  0.00    -0.000 C 
BRANCH  25  26
ATOM     26  C   UNL     1      28.863  -2.153  18.856  1.00  0.00    -0.000 C 
BRANCH  26  27
ATOM     27  C   UNL     1      28.520  -1.142  19.965  1.00  0.00    -0.000 C 
BRANCH  27  28
ATOM     28  C   UNL     1      27.256  -1.473  20.784  1.00  0.00    -0.000 C 
BRANCH  28  29
ATOM     29  C   UNL     1      26.078  -2.041  19.968  1.00  0.00    -0.000 C 
BRANCH  29  30
ATOM     30  C   UNL     1      24.815  -1.156  19.945  1.00  0.00    -0.000 C 
BRANCH  30  31
ATOM     31  C   UNL     1      25.082   0.346  19.741  1.00  0.00    -0.003 C 
ATOM     32  C   UNL     1      23.978   1.045  18.950  1.00  0.00     0.004 C 
ENDBRANCH  30  31
ENDBRANCH  29  30
ENDBRANCH  28  29
ENDBRANCH  27  28
ENDBRANCH  26  27
ENDBRANCH  25  26
ENDBRANCH  24  25
ENDBRANCH  23  24
ENDBRANCH  22  23
ENDBRANCH  21  22
ENDBRANCH  20  21
ENDBRANCH  19  20
ENDBRANCH  18  19
ENDBRANCH   1  18
TORSDOF 28
ENDMDL
MODEL 6
REMARK VINA RESULT:    -6.795      4.036     11.522
REMARK INTER + INTRA:         -19.705
REMARK INTER:                 -17.380
REMARK INTRA:                  -2.325
REMARK UNBOUND:                -1.788
REMARK SMILES CCCCCCCCCCCCCCCCCCCCCCCCCCCCCC(=O)[O-]
REMARK SMILES IDX 16 1 17 2 18 3 19 4 20 5 21 6 22 7 23 8 24 9 25 10 26 11
REMARK SMILES IDX 27 12 28 13 29 14 30 15 31 16 32 17 15 18 14 19 13 20 12 21
REMARK SMILES IDX 11 22 10 23 9 24 8 25 7 26 6 27 5 28 4 29 3 30 2 31 1 32
REMARK H PARENT
REMARK Flexibility Score: inf
ROOT
ATOM      1  C   UNL     1      23.252  -8.919  21.433  1.00  0.00     0.000 C 
ENDROOT
BRANCH   1   2
ATOM      2  C   UNL     1      24.285  -8.165  20.578  1.00  0.00     0.000 C 
BRANCH   2   3
ATOM      3  C   UNL     1      25.639  -8.889  20.507  1.00  0.00     0.000 C 
BRANCH   3   4
ATOM      4  C   UNL     1      26.826  -7.926  20.368  1.00  0.00     0.000 C 
BRANCH   4   5
ATOM      5  C   UNL     1      26.637  -6.994  19.161  1.00  0.00     0.000 C 
BRANCH   5   6
ATOM      6  C   UNL     1      26.613  -5.510  19.554  1.00  0.00     0.000 C 
BRANCH   6   7
ATOM      7  C   UNL     1      25.215  -4.885  19.437  1.00  0.00     0.000 C 
BRANCH   7   8
ATOM      8  C   UNL     1      25.255  -3.389  19.074  1.00  0.00     0.000 C 
BRANCH   8   9
ATOM      9  C   UNL     1      25.522  -2.466  20.283  1.00  0.00     0.000 C 
BRANCH   9  10
ATOM     10  C   UNL     1      25.362  -0.978  19.922  1.00  0.00     0.000 C 
BRANCH  10  11
ATOM     11  C   UNL     1      26.704  -0.281  19.640  1.00  0.00     0.000 C 
BRANCH  11  12
ATOM     12  C   UNL     1      27.874  -0.736  20.532  1.00  0.00     0.000 C 
BRANCH  12  13
ATOM     13  C   UNL     1      29.038  -1.342  19.735  1.00  0.00     0.006 C 
BRANCH  13  14
ATOM     14  C   UNL     1      29.197  -2.836  20.040  1.00  0.00     0.053 C 
BRANCH  14  15
ATOM     15  C   UNL     1      30.073  -3.494  19.020  1.00  0.00     0.041 C 
ATOM     16  O   UNL     1      31.297  -3.200  18.952  1.00  0.00    -0.550 OA
ATOM     17  O   UNL     1      29.547  -4.456  18.163  1.00  0.00    -0.550 OA
ENDBRANCH  14  15
ENDBRANCH  13  14
ENDBRANCH  12  13
ENDBRANCH  11  12
ENDBRANCH  10  11
ENDBRANCH   9  10
ENDBRANCH   8   9
ENDBRANCH   7   8
ENDBRANCH   6   7
ENDBRANCH   5   6
ENDBRANCH   4   5
ENDBRANCH   3   4
ENDBRANCH   2   3
ENDBRANCH   1   2
BRANCH   1  18
ATOM     18  C   UNL     1      23.497  -8.760  22.946  1.00  0.00     0.000 C 
BRANCH  18  19
ATOM     19  C   UNL     1      22.436  -9.413  23.853  1.00  0.00     0.000 C 
BRANCH  19  20
ATOM     20  C   UNL     1      22.806 -10.845  24.274  1.00  0.00     0.000 C 
BRANCH  20  21
ATOM     21  C   UNL     1      23.062 -10.924  25.787  1.00  0.00     0.000 C 
BRANCH  21  22
ATOM     22  C   UNL     1      22.855 -12.341  26.355  1.00  0.00     0.000 C 
BRANCH  22  23
ATOM     23  C   UNL     1      22.254 -12.390  27.775  1.00  0.00     0.000 C 
BRANCH  23  24
ATOM     24  C   UNL     1      21.465 -11.133  28.197  1.00  0.00    -0.000 C 
BRANCH  24  25
ATOM     25  C   UNL     1      19.943 -11.329  28.324  1.00  0.00    -0.000 C 
BRANCH  25  26
ATOM     26  C   UNL     1      19.143 -10.408  27.388  1.00  0.00    -0.000 C 
BRANCH  26  27
ATOM     27  C   UNL     1      19.962  -9.205  26.884  1.00  0.00    -0.000 C 
BRANCH  27  28
ATOM     28  C   UNL     1      19.497  -8.617  25.536  1.00  0.00    -0.000 C 
BRANCH  28  29
ATOM     29  C   UNL     1      18.165  -7.843  25.584  1.00  0.00    -0.000 C 
BRANCH  29  30
ATOM     30  C   UNL     1      18.058  -6.667  24.593  1.00  0.00    -0.000 C 
BRANCH  30  31
ATOM     31  C   UNL     1      16.774  -5.828  24.721  1.00  0.00    -0.003 C 
ATOM     32  C   UNL     1      16.994  -4.512  25.466  1.00  0.00     0.004 C 
ENDBRANCH  30  31
ENDBRANCH  29  30
ENDBRANCH  28  29
ENDBRANCH  27  28
ENDBRANCH  26  27
ENDBRANCH  25  26
ENDBRANCH  24  25
ENDBRANCH  23  24
ENDBRANCH  22  23
ENDBRANCH  21  22
ENDBRANCH  20  21
ENDBRANCH  19  20
ENDBRANCH  18  19
ENDBRANCH   1  18
TORSDOF 28
ENDMDL
MODEL 7
REMARK VINA RESULT:    -6.749      3.164     10.515
REMARK INTER + INTRA:         -19.586
REMARK INTER:                 -17.710
REMARK INTRA:                  -1.875
REMARK UNBOUND:                -1.788
REMARK SMILES CCCCCCCCCCCCCCCCCCCCCCCCCCCCCC(=O)[O-]
REMARK SMILES IDX 16 1 17 2 18 3 19 4 20 5 21 6 22 7 23 8 24 9 25 10 26 11
REMARK SMILES IDX 27 12 28 13 29 14 30 15 31 16 32 17 15 18 14 19 13 20 12 21
REMARK SMILES IDX 11 22 10 23 9 24 8 25 7 26 6 27 5 28 4 29 3 30 2 31 1 32
REMARK H PARENT
REMARK Flexibility Score: inf
ROOT
ATOM      1  C   UNL     1      24.428  -5.943  19.502  1.00  0.00     0.000 C 
ENDROOT
BRANCH   1   2
ATOM      2  C   UNL     1      25.026  -4.566  19.164  1.00  0.00     0.000 C 
BRANCH   2   3
ATOM      3  C   UNL     1      26.393  -4.667  18.468  1.00  0.00     0.000 C 
BRANCH   3   4
ATOM      4  C   UNL     1      27.570  -4.470  19.432  1.00  0.00     0.000 C 
BRANCH   4   5
ATOM      5  C   UNL     1      28.910  -4.546  18.684  1.00  0.00     0.000 C 
BRANCH   5   6
ATOM      6  C   UNL     1      29.852  -3.385  19.033  1.00  0.00     0.000 C 
BRANCH   6   7
ATOM      7  C   UNL     1      29.179  -2.011  18.902  1.00  0.00     0.000 C 
BRANCH   7   8
ATOM      8  C   UNL     1      29.385  -1.121  20.141  1.00  0.00     0.000 C 
BRANCH   8   9
ATOM      9  C   UNL     1      28.065  -0.655  20.795  1.00  0.00     0.000 C 
BRANCH   9  10
ATOM     10  C   UNL     1      26.950  -0.440  19.757  1.00  0.00     0.000 C 
BRANCH  10  11
ATOM     11  C   UNL     1      25.731  -1.350  19.986  1.00  0.00     0.000 C 
BRANCH  11  12
ATOM     12  C   UNL     1      24.377  -0.620  20.047  1.00  0.00     0.000 C 
BRANCH  12  13
ATOM     13  C   UNL     1      24.065   0.177  18.771  1.00  0.00     0.006 C 
BRANCH  13  14
ATOM     14  C   UNL     1      23.921   1.673  19.077  1.00  0.00     0.053 C 
BRANCH  14  15
ATOM     15  C   UNL     1      23.739   2.455  17.815  1.00  0.00     0.041 C 
ATOM     16  O   UNL     1      24.023   3.683  17.783  1.00  0.00    -0.550 OA
ATOM     17  O   UNL     1      23.283   1.824  16.661  1.00  0.00    -0.550 OA
ENDBRANCH  14  15
ENDBRANCH  13  14
ENDBRANCH  12  13
ENDBRANCH  11  12
ENDBRANCH  10  11
ENDBRANCH   9  10
ENDBRANCH   8   9
ENDBRANCH   7   8
ENDBRANCH   6   7
ENDBRANCH   5   6
ENDBRANCH   4   5
ENDBRANCH   3   4
ENDBRANCH   2   3
ENDBRANCH   1   2
BRANCH   1  18
ATOM     18  C   UNL     1      25.433  -7.094  19.309  1.00  0.00     0.000 C 
BRANCH  18  19
ATOM     19  C   UNL     1      25.897  -7.782  20.608  1.00  0.00     0.000 C 
BRANCH  19  20
ATOM     20  C   UNL     1      25.193  -9.126  20.860  1.00  0.00     0.000 C 
BRANCH  20  21
ATOM     21  C   UNL     1      23.734  -8.910  21.287  1.00  0.00     0.000 C 
BRANCH  21  22
ATOM     22  C   UNL     1      23.596  -8.522  22.772  1.00  0.00     0.000 C 
BRANCH  22  23
ATOM     23  C   UNL     1      22.613  -9.391  23.582  1.00  0.00     0.000 C 
BRANCH  23  24
ATOM     24  C   UNL     1      21.377  -8.647  24.128  1.00  0.00    -0.000 C 
BRANCH  24  25
ATOM     25  C   UNL     1      20.868  -9.140  25.494  1.00  0.00    -0.000 C 
BRANCH  25  26
ATOM     26  C   UNL     1      19.483  -8.574  25.854  1.00  0.00    -0.000 C 
BRANCH  26  27
ATOM     27  C   UNL     1      18.703  -8.067  24.628  1.00  0.00    -0.000 C 
BRANCH  27  28
ATOM     28  C   UNL     1      17.883  -6.781  24.860  1.00  0.00    -0.000 C 
BRANCH  28  29
ATOM     29  C   UNL     1      16.373  -6.908  24.579  1.00  0.00    -0.000 C 
BRANCH  29  30
ATOM     30  C   UNL     1      15.530  -5.683  24.985  1.00  0.00    -0.000 C 
BRANCH  30  31
ATOM     31  C   UNL     1      16.313  -4.567  25.699  1.00  0.00    -0.003 C 
ATOM     32  C   UNL     1      16.822  -3.490  24.743  1.00  0.00     0.004 C 
ENDBRANCH  30  31
ENDBRANCH  29  30
ENDBRANCH  28  29
ENDBRANCH  27  28
ENDBRANCH  26  27
ENDBRANCH  25  26
ENDBRANCH  24  25
ENDBRANCH  23  24
ENDBRANCH  22  23
ENDBRANCH  21  22
ENDBRANCH  20  21
ENDBRANCH  19  20
ENDBRANCH  18  19
ENDBRANCH   1  18
TORSDOF 28
ENDMDL
MODEL 8
REMARK VINA RESULT:    -6.737      1.252      2.348
REMARK INTER + INTRA:         -19.553
REMARK INTER:                 -18.183
REMARK INTRA:                  -1.370
REMARK UNBOUND:                -1.788
REMARK SMILES CCCCCCCCCCCCCCCCCCCCCCCCCCCCCC(=O)[O-]
REMARK SMILES IDX 16 1 17 2 18 3 19 4 20 5 21 6 22 7 23 8 24 9 25 10 26 11
REMARK SMILES IDX 27 12 28 13 29 14 30 15 31 16 32 17 15 18 14 19 13 20 12 21
REMARK SMILES IDX 11 22 10 23 9 24 8 25 7 26 6 27 5 28 4 29 3 30 2 31 1 32
REMARK H PARENT
REMARK Flexibility Score: inf
ROOT
ATOM      1  C   UNL     1      26.275  -5.952  20.142  1.00  0.00     0.000 C 
ENDROOT
BRANCH   1   2
ATOM      2  C   UNL     1      26.541  -7.410  19.726  1.00  0.00     0.000 C 
BRANCH   2   3
ATOM      3  C   UNL     1      25.682  -8.416  20.508  1.00  0.00     0.000 C 
BRANCH   3   4
ATOM      4  C   UNL     1      24.403  -7.791  21.083  1.00  0.00     0.000 C 
BRANCH   4   5
ATOM      5  C   UNL     1      23.334  -8.864  21.335  1.00  0.00     0.000 C 
BRANCH   5   6
ATOM      6  C   UNL     1      23.328  -9.366  22.786  1.00  0.00     0.000 C 
BRANCH   6   7
ATOM      7  C   UNL     1      22.194  -8.754  23.624  1.00  0.00     0.000 C 
BRANCH   7   8
ATOM      8  C   UNL     1      21.814  -9.618  24.840  1.00  0.00     0.000 C 
BRANCH   8   9
ATOM      9  C   UNL     1      20.583  -9.093  25.611  1.00  0.00     0.000 C 
BRANCH   9  10
ATOM     10  C   UNL     1      19.892  -7.931  24.875  1.00  0.00     0.000 C 
BRANCH  10  11
ATOM     11  C   UNL     1      18.406  -7.784  25.245  1.00  0.00     0.000 C 
BRANCH  11  12
ATOM     12  C   UNL     1      17.597  -6.848  24.328  1.00  0.00     0.000 C 
BRANCH  12  13
ATOM     13  C   UNL     1      16.102  -7.200  24.278  1.00  0.00     0.006 C 
BRANCH  13  14
ATOM     14  C   UNL     1      15.245  -6.042  24.803  1.00  0.00     0.053 C 
BRANCH  14  15
ATOM     15  C   UNL     1      15.036  -6.166  26.279  1.00  0.00     0.041 C 
ATOM     16  O   UNL     1      15.513  -7.151  26.906  1.00  0.00    -0.550 OA
ATOM     17  O   UNL     1      14.342  -5.179  26.972  1.00  0.00    -0.550 OA
ENDBRANCH  14  15
ENDBRANCH  13  14
ENDBRANCH  12  13
ENDBRANCH  11  12
ENDBRANCH  10  11
ENDBRANCH   9  10
ENDBRANCH   8   9
ENDBRANCH   7   8
ENDBRANCH   6   7
ENDBRANCH   5   6
ENDBRANCH   4   5
ENDBRANCH   3   4
ENDBRANCH   2   3
ENDBRANCH   1   2
BRANCH   1  18
ATOM     18  C   UNL     1      26.013  -5.025  18.940  1.00  0.00     0.000 C 
BRANCH  18  19
ATOM     19  C   UNL     1      27.188  -4.884  17.954  1.00  0.00     0.000 C 
BRANCH  19  20
ATOM     20  C   UNL     1      28.553  -5.169  18.601  1.00  0.00     0.000 C 
BRANCH  20  21
ATOM     21  C   UNL     1      29.442  -3.916  18.582  1.00  0.00     0.000 C 
BRANCH  21  22
ATOM     22  C   UNL     1      29.181  -2.979  19.777  1.00  0.00     0.000 C 
BRANCH  22  23
ATOM     23  C   UNL     1      29.381  -1.479  19.482  1.00  0.00     0.000 C 
BRANCH  23  24
ATOM     24  C   UNL     1      28.086  -0.644  19.420  1.00  0.00    -0.000 C 
BRANCH  24  25
ATOM     25  C   UNL     1      27.108  -0.868  20.588  1.00  0.00    -0.000 C 
BRANCH  25  26
ATOM     26  C   UNL     1      25.945  -1.806  20.220  1.00  0.00    -0.000 C 
BRANCH  26  27
ATOM     27  C   UNL     1      24.750  -1.065  19.593  1.00  0.00    -0.000 C 
BRANCH  27  28
ATOM     28  C   UNL     1      24.856   0.473  19.602  1.00  0.00    -0.000 C 
BRANCH  28  29
ATOM     29  C   UNL     1      23.578   1.220  19.170  1.00  0.00    -0.000 C 
BRANCH  29  30
ATOM     30  C   UNL     1      23.790   2.305  18.095  1.00  0.00    -0.000 C 
BRANCH  30  31
ATOM     31  C   UNL     1      23.264   1.940  16.695  1.00  0.00    -0.003 C 
ATOM     32  C   UNL     1      22.839   3.160  15.881  1.00  0.00     0.004 C 
ENDBRANCH  30  31
ENDBRANCH  29  30
ENDBRANCH  28  29
ENDBRANCH  27  28
ENDBRANCH  26  27
ENDBRANCH  25  26
ENDBRANCH  24  25
ENDBRANCH  23  24
ENDBRANCH  22  23
ENDBRANCH  21  22
ENDBRANCH  20  21
ENDBRANCH  19  20
ENDBRANCH  18  19
ENDBRANCH   1  18
TORSDOF 28
ENDMDL
MODEL 9
REMARK VINA RESULT:    -6.700      4.879     10.689
REMARK INTER + INTRA:         -19.455
REMARK INTER:                 -17.917
REMARK INTRA:                  -1.538
REMARK UNBOUND:                -1.788
REMARK SMILES CCCCCCCCCCCCCCCCCCCCCCCCCCCCCC(=O)[O-]
REMARK SMILES IDX 16 1 17 2 18 3 19 4 20 5 21 6 22 7 23 8 24 9 25 10 26 11
REMARK SMILES IDX 27 12 28 13 29 14 30 15 31 16 32 17 15 18 14 19 13 20 12 21
REMARK SMILES IDX 11 22 10 23 9 24 8 25 7 26 6 27 5 28 4 29 3 30 2 31 1 32
REMARK H PARENT
REMARK Flexibility Score: inf
ROOT
ATOM      1  C   UNL     1      23.877   1.011  18.923  1.00  0.00     0.000 C 
ENDROOT
BRANCH   1   2
ATOM      2  C   UNL     1      25.191   0.663  19.645  1.00  0.00     0.000 C 
BRANCH   2   3
ATOM      3  C   UNL     1      25.417  -0.853  19.767  1.00  0.00     0.000 C 
BRANCH   3   4
ATOM      4  C   UNL     1      26.654  -1.207  20.604  1.00  0.00     0.000 C 
BRANCH   4   5
ATOM      5  C   UNL     1      27.863  -0.360  20.182  1.00  0.00     0.000 C 
BRANCH   5   6
ATOM      6  C   UNL     1      28.874  -1.149  19.337  1.00  0.00     0.000 C 
BRANCH   6   7
ATOM      7  C   UNL     1      29.163  -2.547  19.904  1.00  0.00     0.000 C 
BRANCH   7   8
ATOM      8  C   UNL     1      29.581  -3.559  18.821  1.00  0.00     0.000 C 
BRANCH   8   9
ATOM      9  C   UNL     1      28.468  -4.565  18.454  1.00  0.00     0.000 C 
BRANCH   9  10
ATOM     10  C   UNL     1      27.150  -4.265  19.189  1.00  0.00     0.000 C 
BRANCH  10  11
ATOM     11  C   UNL     1      26.224  -5.489  19.286  1.00  0.00     0.000 C 
BRANCH  11  12
ATOM     12  C   UNL     1      26.725  -6.613  20.212  1.00  0.00     0.000 C 
BRANCH  12  13
ATOM     13  C   UNL     1      25.807  -7.845  20.214  1.00  0.00     0.006 C 
BRANCH  13  14
ATOM     14  C   UNL     1      24.365  -7.459  19.860  1.00  0.00     0.053 C 
BRANCH  14  15
ATOM     15  C   UNL     1      23.407  -8.016  20.865  1.00  0.00     0.041 C 
ATOM     16  O   UNL     1      22.190  -8.159  20.569  1.00  0.00    -0.550 OA
ATOM     17  O   UNL     1      23.861  -8.409  22.121  1.00  0.00    -0.550 OA
ENDBRANCH  14  15
ENDBRANCH  13  14
ENDBRANCH  12  13
ENDBRANCH  11  12
ENDBRANCH  10  11
ENDBRANCH   9  10
ENDBRANCH   8   9
ENDBRANCH   7   8
ENDBRANCH   6   7
ENDBRANCH   5   6
ENDBRANCH   4   5
ENDBRANCH   3   4
ENDBRANCH   2   3
ENDBRANCH   1   2
BRANCH   1  18
ATOM     18  C   UNL     1      24.002   2.251  18.019  1.00  0.00     0.000 C 
BRANCH  18  19
ATOM     19  C   UNL     1      23.246   2.163  16.679  1.00  0.00     0.000 C 
BRANCH  19  20
ATOM     20  C   UNL     1      22.993   3.540  16.040  1.00  0.00     0.000 C 
BRANCH  20  21
ATOM     21  C   UNL     1      22.163   3.405  14.755  1.00  0.00     0.000 C 
BRANCH  21  22
ATOM     22  C   UNL     1      22.525   4.463  13.696  1.00  0.00     0.000 C 
BRANCH  22  23
ATOM     23  C   UNL     1      22.035   4.147  12.268  1.00  0.00     0.000 C 
BRANCH  23  24
ATOM     24  C   UNL     1      20.672   4.763  11.890  1.00  0.00    -0.000 C 
BRANCH  24  25
ATOM     25  C   UNL     1      19.516   3.756  11.754  1.00  0.00    -0.000 C 
BRANCH  25  26
ATOM     26  C   UNL     1      19.652   2.559  12.710  1.00  0.00    -0.000 C 
BRANCH  26  27
ATOM     27  C   UNL     1      18.428   2.376  13.624  1.00  0.00    -0.000 C 
BRANCH  27  28
ATOM     28  C   UNL     1      18.597   1.326  14.742  1.00  0.00    -0.000 C 
BRANCH  28  29
ATOM     29  C   UNL     1      17.348   1.093  15.615  1.00  0.00    -0.000 C 
BRANCH  29  30
ATOM     30  C   UNL     1      16.257   0.216  14.970  1.00  0.00    -0.000 C 
BRANCH  30  31
ATOM     31  C   UNL     1      15.081  -0.138  15.898  1.00  0.00    -0.003 C 
ATOM     32  C   UNL     1      15.095  -1.598  16.348  1.00  0.00     0.004 C 
ENDBRANCH  30  31
ENDBRANCH  29  30
ENDBRANCH  28  29
ENDBRANCH  27  28
ENDBRANCH  26  27
ENDBRANCH  25  26
ENDBRANCH  24  25
ENDBRANCH  23  24
ENDBRANCH  22  23
ENDBRANCH  21  22
ENDBRANCH  20  21
ENDBRANCH  19  20
ENDBRANCH  18  19
ENDBRANCH   1  18
TORSDOF 28
ENDMDL
