MODEL 1
REMARK VINA RESULT:    -4.238      0.000      0.000
REMARK INTER + INTRA:         -10.829
REMARK INTER:                  -8.203
REMARK INTRA:                  -2.627
REMARK UNBOUND:                -2.627
REMARK SMILES CCCCCCCCCCCCCCCCCC(=O)[O-]
REMARK SMILES IDX 10 1 11 2 12 3 13 4 14 5 15 6 16 7 17 8 18 9 19 10 20 11
REMARK SMILES IDX 9 12 8 13 7 14 6 15 5 16 4 17 3 18 2 19 1 20
REMARK H PARENT
REMARK Flexibility Score: inf
ROOT
ATOM      1  C   UNL     1       6.367  77.023  39.774  1.00  0.00     0.000 C 
ENDROOT
BRANCH   1   2
ATOM      2  C   UNL     1       5.156  76.238  39.244  1.00  0.00     0.000 C 
BRANCH   2   3
ATOM      3  C   UNL     1       5.313  75.805  37.774  1.00  0.00     0.000 C 
BRANCH   3   4
ATOM      4  C   UNL     1       6.760  75.560  37.306  1.00  0.00     0.000 C 
BRANCH   4   5
ATOM      5  C   UNL     1       6.925  74.246  36.525  1.00  0.00     0.000 C 
BRANCH   5   6
ATOM      6  C   UNL     1       8.091  73.382  37.041  1.00  0.00     0.000 C 
BRANCH   6   7
ATOM      7  C   UNL     1       7.680  72.097  37.790  1.00  0.00     0.006 C 
BRANCH   7   8
ATOM      8  C   UNL     1       7.716  72.211  39.322  1.00  0.00     0.053 C 
BRANCH   8   9
ATOM      9  C   UNL     1       6.420  72.717  39.879  1.00  0.00     0.041 C 
ATOM     10  O   UNL     1       5.335  72.456  39.294  1.00  0.00    -0.550 OA
ATOM     11  O   UNL     1       6.408  73.447  41.060  1.00  0.00    -0.550 OA
ENDBRANCH   8   9
ENDBRANCH   7   8
ENDBRANCH   6   7
ENDBRANCH   5   6
ENDBRANCH   4   5
ENDBRANCH   3   4
ENDBRANCH   2   3
ENDBRANCH   1   2
BRANCH   1  12
ATOM     12  C   UNL     1       5.987  78.412  40.313  1.00  0.00     0.000 C 
BRANCH  12  13
ATOM     13  C   UNL     1       4.924  79.139  39.460  1.00  0.00    -0.000 C 
BRANCH  13  14
ATOM     14  C   UNL     1       5.561  80.055  38.400  1.00  0.00    -0.000 C 
BRANCH  14  15
ATOM     15  C   UNL     1       5.875  79.318  37.089  1.00  0.00    -0.000 C 
BRANCH  15  16
ATOM     16  C   UNL     1       7.304  79.580  36.590  1.00  0.00    -0.000 C 
BRANCH  16  17
ATOM     17  C   UNL     1       8.294  79.635  37.764  1.00  0.00    -0.000 C 
BRANCH  17  18
ATOM     18  C   UNL     1       9.554  78.783  37.526  1.00  0.00    -0.000 C 
BRANCH  18  19
ATOM     19  C   UNL     1       9.462  77.810  36.337  1.00  0.00    -0.003 C 
ATOM     20  C   UNL     1      10.527  76.715  36.376  1.00  0.00     0.004 C 
ENDBRANCH  18  19
ENDBRANCH  17  18
ENDBRANCH  16  17
ENDBRANCH  15  16
ENDBRANCH  14  15
ENDBRANCH  13  14
ENDBRANCH  12  13
ENDBRANCH   1  12
TORSDOF 16
ENDMDL
MODEL 2
REMARK VINA RESULT:    -4.186      1.012      1.602
REMARK INTER + INTRA:         -10.727
REMARK INTER:                  -7.849
REMARK INTRA:                  -2.878
REMARK UNBOUND:                -2.627
REMARK SMILES CCCCCCCCCCCCCCCCCC(=O)[O-]
REMARK SMILES IDX 10 1 11 2 12 3 13 4 14 5 15 6 16 7 17 8 18 9 19 10 20 11
REMARK SMILES IDX 9 12 8 13 7 14 6 15 5 16 4 17 3 18 2 19 1 20
REMARK H PARENT
REMARK Flexibility Score: inf
ROOT
ATOM      1  C   UNL     1       6.263  76.501  39.442  1.00  0.00     0.000 C 
ENDROOT
BRANCH   1   2
ATOM      2  C   UNL     1       4.870  75.854  39.381  1.00  0.00     0.000 C 
BRANCH   2   3
ATOM      3  C   UNL     1       4.572  75.187  38.025  1.00  0.00     0.000 C 
BRANCH   3   4
ATOM      4  C   UNL     1       5.617  75.433  36.921  1.00  0.00     0.000 C 
BRANCH   4   5
ATOM      5  C   UNL     1       6.323  74.146  36.463  1.00  0.00     0.000 C 
BRANCH   5   6
ATOM      6  C   UNL     1       7.698  73.947  37.127  1.00  0.00     0.000 C 
BRANCH   6   7
ATOM      7  C   UNL     1       7.919  72.571  37.790  1.00  0.00     0.006 C 
BRANCH   7   8
ATOM      8  C   UNL     1       6.626  71.829  38.167  1.00  0.00     0.053 C 
BRANCH   8   9
ATOM      9  C   UNL     1       6.130  72.219  39.525  1.00  0.00     0.041 C 
ATOM     10  O   UNL     1       6.849  72.922  40.284  1.00  0.00    -0.550 OA
ATOM     11  O   UNL     1       4.861  71.835  39.939  1.00  0.00    -0.550 OA
ENDBRANCH   8   9
ENDBRANCH   7   8
ENDBRANCH   6   7
ENDBRANCH   5   6
ENDBRANCH   4   5
ENDBRANCH   3   4
ENDBRANCH   2   3
ENDBRANCH   1   2
BRANCH   1  12
ATOM     12  C   UNL     1       6.231  77.935  39.996  1.00  0.00     0.000 C 
BRANCH  12  13
ATOM     13  C   UNL     1       5.264  78.871  39.239  1.00  0.00    -0.000 C 
BRANCH  13  14
ATOM     14  C   UNL     1       5.995  79.737  38.198  1.00  0.00    -0.000 C 
BRANCH  14  15
ATOM     15  C   UNL     1       6.016  79.097  36.802  1.00  0.00    -0.000 C 
BRANCH  15  16
ATOM     16  C   UNL     1       7.411  79.123  36.159  1.00  0.00    -0.000 C 
BRANCH  16  17
ATOM     17  C   UNL     1       8.302  78.012  36.736  1.00  0.00    -0.000 C 
BRANCH  17  18
ATOM     18  C   UNL     1       9.642  78.539  37.278  1.00  0.00    -0.000 C 
BRANCH  18  19
ATOM     19  C   UNL     1       9.617  78.974  38.754  1.00  0.00    -0.003 C 
ATOM     20  C   UNL     1       9.603  80.492  38.931  1.00  0.00     0.004 C 
ENDBRANCH  18  19
ENDBRANCH  17  18
ENDBRANCH  16  17
ENDBRANCH  15  16
ENDBRANCH  14  15
ENDBRANCH  13  14
ENDBRANCH  12  13
ENDBRANCH   1  12
TORSDOF 16
ENDMDL
MODEL 3
REMARK VINA RESULT:    -4.183      3.747      6.732
REMARK INTER + INTRA:         -10.722
REMARK INTER:                  -8.654
REMARK INTRA:                  -2.068
REMARK UNBOUND:                -2.627
REMARK SMILES CCCCCCCCCCCCCCCCCC(=O)[O-]
REMARK SMILES IDX 10 1 11 2 12 3 13 4 14 5 15 6 16 7 17 8 18 9 19 10 20 11
REMARK SMILES IDX 9 12 8 13 7 14 6 15 5 16 4 17 3 18 2 19 1 20
REMARK H PARENT
REMARK Flexibility Score: inf
ROOT
ATOM      1  C   UNL     1       7.370  78.430  36.526  1.00  0.00     0.000 C 
ENDROOT
BRANCH   1   2
ATOM      2  C   UNL     1       8.842  78.332  36.094  1.00  0.00     0.000 C 
BRANCH   2   3
ATOM      3  C   UNL     1       9.829  78.513  37.263  1.00  0.00     0.000 C 
BRANCH   3   4
ATOM      4  C   UNL     1       9.262  78.207  38.663  1.00  0.00     0.000 C 
BRANCH   4   5
ATOM      5  C   UNL     1       9.537  79.325  39.681  1.00  0.00     0.000 C 
BRANCH   5   6
ATOM      6  C   UNL     1      10.174  80.575  39.044  1.00  0.00     0.000 C 
BRANCH   6   7
ATOM      7  C   UNL     1      11.473  81.068  39.714  1.00  0.00     0.006 C 
BRANCH   7   8
ATOM      8  C   UNL     1      11.277  81.695  41.103  1.00  0.00     0.053 C 
BRANCH   8   9
ATOM      9  C   UNL     1      12.078  80.992  42.155  1.00  0.00     0.041 C 
ATOM     10  O   UNL     1      11.923  79.757  42.349  1.00  0.00    -0.550 OA
ATOM     11  O   UNL     1      13.019  81.694  42.898  1.00  0.00    -0.550 OA
ENDBRANCH   8   9
ENDBRANCH   7   8
ENDBRANCH   6   7
ENDBRANCH   5   6
ENDBRANCH   4   5
ENDBRANCH   3   4
ENDBRANCH   2   3
ENDBRANCH   1   2
BRANCH   1  12
ATOM     12  C   UNL     1       6.712  79.754  36.106  1.00  0.00     0.000 C 
BRANCH  12  13
ATOM     13  C   UNL     1       5.688  80.290  37.131  1.00  0.00    -0.000 C 
BRANCH  13  14
ATOM     14  C   UNL     1       6.130  80.026  38.581  1.00  0.00    -0.000 C 
BRANCH  14  15
ATOM     15  C   UNL     1       5.138  79.144  39.353  1.00  0.00    -0.000 C 
BRANCH  15  16
ATOM     16  C   UNL     1       5.831  78.019  40.137  1.00  0.00    -0.000 C 
BRANCH  16  17
ATOM     17  C   UNL     1       5.903  76.732  39.300  1.00  0.00    -0.000 C 
BRANCH  17  18
ATOM     18  C   UNL     1       4.522  76.094  39.062  1.00  0.00    -0.000 C 
BRANCH  18  19
ATOM     19  C   UNL     1       4.424  74.605  39.440  1.00  0.00    -0.003 C 
ATOM     20  C   UNL     1       5.789  73.943  39.624  1.00  0.00     0.004 C 
ENDBRANCH  18  19
ENDBRANCH  17  18
ENDBRANCH  16  17
ENDBRANCH  15  16
ENDBRANCH  14  15
ENDBRANCH  13  14
ENDBRANCH  12  13
ENDBRANCH   1  12
TORSDOF 16
ENDMDL
MODEL 4
REMARK VINA RESULT:    -4.151      1.561      3.896
REMARK INTER + INTRA:         -10.660
REMARK INTER:                  -8.447
REMARK INTRA:                  -2.213
REMARK UNBOUND:                -2.627
REMARK SMILES CCCCCCCCCCCCCCCCCC(=O)[O-]
REMARK SMILES IDX 10 1 11 2 12 3 13 4 14 5 15 6 16 7 17 8 18 9 19 10 20 11
REMARK SMILES IDX 9 12 8 13 7 14 6 15 5 16 4 17 3 18 2 19 1 20
REMARK H PARENT
REMARK Flexibility Score: inf
ROOT
ATOM      1  C   UNL     1       7.978  75.809  37.009  1.00  0.00     0.000 C 
ENDROOT
BRANCH   1   2
ATOM      2  C   UNL     1       7.008  76.296  38.098  1.00  0.00     0.000 C 
BRANCH   2   3
ATOM      3  C   UNL     1       5.529  76.174  37.687  1.00  0.00     0.000 C 
BRANCH   3   4
ATOM      4  C   UNL     1       4.527  76.036  38.849  1.00  0.00     0.000 C 
BRANCH   4   5
ATOM      5  C   UNL     1       3.801  74.681  38.860  1.00  0.00     0.000 C 
BRANCH   5   6
ATOM      6  C   UNL     1       4.306  73.720  37.767  1.00  0.00     0.000 C 
BRANCH   6   7
ATOM      7  C   UNL     1       4.962  72.421  38.280  1.00  0.00     0.006 C 
BRANCH   7   8
ATOM      8  C   UNL     1       6.338  72.616  38.936  1.00  0.00     0.053 C 
BRANCH   8   9
ATOM      9  C   UNL     1       7.135  71.349  38.959  1.00  0.00     0.041 C 
ATOM     10  O   UNL     1       8.355  71.374  39.272  1.00  0.00    -0.550 OA
ATOM     11  O   UNL     1       6.523  70.136  38.668  1.00  0.00    -0.550 OA
ENDBRANCH   8   9
ENDBRANCH   7   8
ENDBRANCH   6   7
ENDBRANCH   5   6
ENDBRANCH   4   5
ENDBRANCH   3   4
ENDBRANCH   2   3
ENDBRANCH   1   2
BRANCH   1  12
ATOM     12  C   UNL     1       9.122  76.801  36.742  1.00  0.00     0.000 C 
BRANCH  12  13
ATOM     13  C   UNL     1       8.642  78.249  36.497  1.00  0.00    -0.000 C 
BRANCH  13  14
ATOM     14  C   UNL     1       9.182  79.224  37.557  1.00  0.00    -0.000 C 
BRANCH  14  15
ATOM     15  C   UNL     1       8.083  80.109  38.165  1.00  0.00    -0.000 C 
BRANCH  15  16
ATOM     16  C   UNL     1       6.820  80.168  37.293  1.00  0.00    -0.000 C 
BRANCH  16  17
ATOM     17  C   UNL     1       5.554  80.021  38.151  1.00  0.00    -0.000 C 
BRANCH  17  18
ATOM     18  C   UNL     1       5.833  79.396  39.530  1.00  0.00    -0.000 C 
BRANCH  18  19
ATOM     19  C   UNL     1       4.646  79.430  40.508  1.00  0.00    -0.003 C 
ATOM     20  C   UNL     1       5.078  79.485  41.973  1.00  0.00     0.004 C 
ENDBRANCH  18  19
ENDBRANCH  17  18
ENDBRANCH  16  17
ENDBRANCH  15  16
ENDBRANCH  14  15
ENDBRANCH  13  14
ENDBRANCH  12  13
ENDBRANCH   1  12
TORSDOF 16
ENDMDL
MODEL 5
REMARK VINA RESULT:    -4.141      2.443      5.860
REMARK INTER + INTRA:         -10.641
REMARK INTER:                  -7.808
REMARK INTRA:                  -2.833
REMARK UNBOUND:                -2.627
REMARK SMILES CCCCCCCCCCCCCCCCCC(=O)[O-]
REMARK SMILES IDX 10 1 11 2 12 3 13 4 14 5 15 6 16 7 17 8 18 9 19 10 20 11
REMARK SMILES IDX 9 12 8 13 7 14 6 15 5 16 4 17 3 18 2 19 1 20
REMARK H PARENT
REMARK Flexibility Score: inf
ROOT
ATOM      1  C   UNL     1       6.027  76.398  39.554  1.00  0.00     0.000 C 
ENDROOT
BRANCH   1   2
ATOM      2  C   UNL     1       6.124  77.897  39.880  1.00  0.00     0.000 C 
BRANCH   2   3
ATOM      3  C   UNL     1       5.458  78.792  38.819  1.00  0.00     0.000 C 
BRANCH   3   4
ATOM      4  C   UNL     1       6.208  80.095  38.483  1.00  0.00     0.000 C 
BRANCH   4   5
ATOM      5  C   UNL     1       6.669  80.163  37.018  1.00  0.00     0.000 C 
BRANCH   5   6
ATOM      6  C   UNL     1       7.030  78.783  36.437  1.00  0.00     0.000 C 
BRANCH   6   7
ATOM      7  C   UNL     1       8.540  78.505  36.287  1.00  0.00     0.006 C 
BRANCH   7   8
ATOM      8  C   UNL     1       9.188  77.820  37.501  1.00  0.00     0.053 C 
BRANCH   8   9
ATOM      9  C   UNL     1       9.665  78.811  38.517  1.00  0.00     0.041 C 
ATOM     10  O   UNL     1       9.455  78.611  39.743  1.00  0.00    -0.550 OA
ATOM     11  O   UNL     1      10.370  79.938  38.114  1.00  0.00    -0.550 OA
ENDBRANCH   8   9
ENDBRANCH   7   8
ENDBRANCH   6   7
ENDBRANCH   5   6
ENDBRANCH   4   5
ENDBRANCH   3   4
ENDBRANCH   2   3
ENDBRANCH   1   2
BRANCH   1  12
ATOM     12  C   UNL     1       4.588  75.945  39.255  1.00  0.00     0.000 C 
BRANCH  12  13
ATOM     13  C   UNL     1       4.444  75.178  37.922  1.00  0.00    -0.000 C 
BRANCH  13  14
ATOM     14  C   UNL     1       5.657  75.391  36.999  1.00  0.00    -0.000 C 
BRANCH  14  15
ATOM     15  C   UNL     1       6.316  74.072  36.570  1.00  0.00    -0.000 C 
BRANCH  15  16
ATOM     16  C   UNL     1       7.618  73.784  37.333  1.00  0.00    -0.000 C 
BRANCH  16  17
ATOM     17  C   UNL     1       7.513  72.470  38.123  1.00  0.00    -0.000 C 
BRANCH  17  18
ATOM     18  C   UNL     1       7.337  72.693  39.636  1.00  0.00    -0.000 C 
BRANCH  18  19
ATOM     19  C   UNL     1       5.882  72.633  40.134  1.00  0.00    -0.003 C 
ATOM     20  C   UNL     1       5.050  71.565  39.424  1.00  0.00     0.004 C 
ENDBRANCH  18  19
ENDBRANCH  17  18
ENDBRANCH  16  17
ENDBRANCH  15  16
ENDBRANCH  14  15
ENDBRANCH  13  14
ENDBRANCH  12  13
ENDBRANCH   1  12
TORSDOF 16
ENDMDL
MODEL 6
REMARK VINA RESULT:    -4.107      2.864      6.163
REMARK INTER + INTRA:         -10.576
REMARK INTER:                  -7.745
REMARK INTRA:                  -2.831
REMARK UNBOUND:                -2.627
REMARK SMILES CCCCCCCCCCCCCCCCCC(=O)[O-]
REMARK SMILES IDX 10 1 11 2 12 3 13 4 14 5 15 6 16 7 17 8 18 9 19 10 20 11
REMARK SMILES IDX 9 12 8 13 7 14 6 15 5 16 4 17 3 18 2 19 1 20
REMARK H PARENT
REMARK Flexibility Score: inf
ROOT
ATOM      1  C   UNL     1       6.295  76.328  39.500  1.00  0.00     0.000 C 
ENDROOT
BRANCH   1   2
ATOM      2  C   UNL     1       5.199  77.388  39.302  1.00  0.00     0.000 C 
BRANCH   2   3
ATOM      3  C   UNL     1       5.688  78.822  39.575  1.00  0.00     0.000 C 
BRANCH   3   4
ATOM      4  C   UNL     1       5.575  79.799  38.389  1.00  0.00     0.000 C 
BRANCH   4   5
ATOM      5  C   UNL     1       6.045  79.187  37.059  1.00  0.00     0.000 C 
BRANCH   5   6
ATOM      6  C   UNL     1       7.468  79.627  36.665  1.00  0.00     0.000 C 
BRANCH   6   7
ATOM      7  C   UNL     1       8.570  78.569  36.881  1.00  0.00     0.006 C 
BRANCH   7   8
ATOM      8  C   UNL     1       9.189  78.569  38.287  1.00  0.00     0.053 C 
BRANCH   8   9
ATOM      9  C   UNL     1       9.638  79.935  38.704  1.00  0.00     0.041 C 
ATOM     10  O   UNL     1      10.697  80.426  38.228  1.00  0.00    -0.550 OA
ATOM     11  O   UNL     1       8.873  80.679  39.592  1.00  0.00    -0.550 OA
ENDBRANCH   8   9
ENDBRANCH   7   8
ENDBRANCH   6   7
ENDBRANCH   5   6
ENDBRANCH   4   5
ENDBRANCH   3   4
ENDBRANCH   2   3
ENDBRANCH   1   2
BRANCH   1  12
ATOM     12  C   UNL     1       6.761  75.697  38.178  1.00  0.00     0.000 C 
BRANCH  12  13
ATOM     13  C   UNL     1       5.643  75.582  37.118  1.00  0.00    -0.000 C 
BRANCH  13  14
ATOM     14  C   UNL     1       5.218  74.121  36.885  1.00  0.00    -0.000 C 
BRANCH  14  15
ATOM     15  C   UNL     1       4.311  73.581  38.001  1.00  0.00    -0.000 C 
BRANCH  15  16
ATOM     16  C   UNL     1       4.835  72.269  38.606  1.00  0.00    -0.000 C 
BRANCH  16  17
ATOM     17  C   UNL     1       5.558  72.530  39.937  1.00  0.00    -0.000 C 
BRANCH  17  18
ATOM     18  C   UNL     1       7.088  72.590  39.786  1.00  0.00    -0.000 C 
BRANCH  18  19
ATOM     19  C   UNL     1       7.680  71.583  38.784  1.00  0.00    -0.003 C 
ATOM     20  C   UNL     1       8.411  72.254  37.622  1.00  0.00     0.004 C 
ENDBRANCH  18  19
ENDBRANCH  17  18
ENDBRANCH  16  17
ENDBRANCH  15  16
ENDBRANCH  14  15
ENDBRANCH  13  14
ENDBRANCH  12  13
ENDBRANCH   1  12
TORSDOF 16
ENDMDL
MODEL 7
REMARK VINA RESULT:    -4.065      2.574      6.135
REMARK INTER + INTRA:         -10.494
REMARK INTER:                  -8.018
REMARK INTRA:                  -2.476
REMARK UNBOUND:                -2.627
REMARK SMILES CCCCCCCCCCCCCCCCCC(=O)[O-]
REMARK SMILES IDX 10 1 11 2 12 3 13 4 14 5 15 6 16 7 17 8 18 9 19 10 20 11
REMARK SMILES IDX 9 12 8 13 7 14 6 15 5 16 4 17 3 18 2 19 1 20
REMARK H PARENT
REMARK Flexibility Score: inf
ROOT
ATOM      1  C   UNL     1       4.392  75.815  38.871  1.00  0.00     0.000 C 
ENDROOT
BRANCH   1   2
ATOM      2  C   UNL     1       5.587  76.734  39.174  1.00  0.00     0.000 C 
BRANCH   2   3
ATOM      3  C   UNL     1       5.175  78.194  39.441  1.00  0.00     0.000 C 
BRANCH   3   4
ATOM      4  C   UNL     1       5.718  79.230  38.439  1.00  0.00     0.000 C 
BRANCH   4   5
ATOM      5  C   UNL     1       6.125  78.610  37.092  1.00  0.00     0.000 C 
BRANCH   5   6
ATOM      6  C   UNL     1       7.348  79.298  36.459  1.00  0.00     0.000 C 
BRANCH   6   7
ATOM      7  C   UNL     1       8.613  78.422  36.343  1.00  0.00     0.006 C 
BRANCH   7   8
ATOM      8  C   UNL     1       9.077  77.792  37.666  1.00  0.00     0.053 C 
BRANCH   8   9
ATOM      9  C   UNL     1       9.547  78.823  38.645  1.00  0.00     0.041 C 
ATOM     10  O   UNL     1      10.333  79.736  38.276  1.00  0.00    -0.550 OA
ATOM     11  O   UNL     1       9.090  78.796  39.957  1.00  0.00    -0.550 OA
ENDBRANCH   8   9
ENDBRANCH   7   8
ENDBRANCH   6   7
ENDBRANCH   5   6
ENDBRANCH   4   5
ENDBRANCH   3   4
ENDBRANCH   2   3
ENDBRANCH   1   2
BRANCH   1  12
ATOM     12  C   UNL     1       4.484  74.461  39.593  1.00  0.00     0.000 C 
BRANCH  12  13
ATOM     13  C   UNL     1       5.855  74.202  40.254  1.00  0.00    -0.000 C 
BRANCH  13  14
ATOM     14  C   UNL     1       6.292  72.732  40.121  1.00  0.00    -0.000 C 
BRANCH  14  15
ATOM     15  C   UNL     1       5.147  71.810  39.678  1.00  0.00    -0.000 C 
BRANCH  15  16
ATOM     16  C   UNL     1       5.573  70.820  38.583  1.00  0.00    -0.000 C 
BRANCH  16  17
ATOM     17  C   UNL     1       5.295  71.395  37.185  1.00  0.00    -0.000 C 
BRANCH  17  18
ATOM     18  C   UNL     1       6.501  72.151  36.598  1.00  0.00    -0.000 C 
BRANCH  18  19
ATOM     19  C   UNL     1       6.250  73.640  36.303  1.00  0.00    -0.003 C 
ATOM     20  C   UNL     1       7.398  74.542  36.758  1.00  0.00     0.004 C 
ENDBRANCH  18  19
ENDBRANCH  17  18
ENDBRANCH  16  17
ENDBRANCH  15  16
ENDBRANCH  14  15
ENDBRANCH  13  14
ENDBRANCH  12  13
ENDBRANCH   1  12
TORSDOF 16
ENDMDL
MODEL 8
REMARK VINA RESULT:    -4.050      3.591      6.688
REMARK INTER + INTRA:         -10.466
REMARK INTER:                  -8.205
REMARK INTRA:                  -2.261
REMARK UNBOUND:                -2.627
REMARK SMILES CCCCCCCCCCCCCCCCCC(=O)[O-]
REMARK SMILES IDX 10 1 11 2 12 3 13 4 14 5 15 6 16 7 17 8 18 9 19 10 20 11
REMARK SMILES IDX 9 12 8 13 7 14 6 15 5 16 4 17 3 18 2 19 1 20
REMARK H PARENT
REMARK Flexibility Score: inf
ROOT
ATOM      1  C   UNL     1       5.913  80.030  37.713  1.00  0.00     0.000 C 
ENDROOT
BRANCH   1   2
ATOM      2  C   UNL     1       5.567  79.462  39.099  1.00  0.00     0.000 C 
BRANCH   2   3
ATOM      3  C   UNL     1       6.788  79.358  40.031  1.00  0.00     0.000 C 
BRANCH   3   4
ATOM      4  C   UNL     1       7.981  80.262  39.666  1.00  0.00     0.000 C 
BRANCH   4   5
ATOM      5  C   UNL     1       9.328  79.521  39.697  1.00  0.00     0.000 C 
BRANCH   5   6
ATOM      6  C   UNL     1      10.417  80.220  38.862  1.00  0.00     0.000 C 
BRANCH   6   7
ATOM      7  C   UNL     1      11.591  80.813  39.669  1.00  0.00     0.006 C 
BRANCH   7   8
ATOM      8  C   UNL     1      11.206  81.345  41.058  1.00  0.00     0.053 C 
BRANCH   8   9
ATOM      9  C   UNL     1      11.862  80.570  42.159  1.00  0.00     0.041 C 
ATOM     10  O   UNL     1      12.264  81.161  43.197  1.00  0.00    -0.550 OA
ATOM     11  O   UNL     1      11.999  79.192  42.055  1.00  0.00    -0.550 OA
ENDBRANCH   8   9
ENDBRANCH   7   8
ENDBRANCH   6   7
ENDBRANCH   5   6
ENDBRANCH   4   5
ENDBRANCH   3   4
ENDBRANCH   2   3
ENDBRANCH   1   2
BRANCH   1  12
ATOM     12  C   UNL     1       6.301  78.940  36.701  1.00  0.00     0.000 C 
BRANCH  12  13
ATOM     13  C   UNL     1       7.800  78.946  36.328  1.00  0.00    -0.000 C 
BRANCH  13  14
ATOM     14  C   UNL     1       8.481  77.605  36.654  1.00  0.00    -0.000 C 
BRANCH  14  15
ATOM     15  C   UNL     1       7.664  76.746  37.631  1.00  0.00    -0.000 C 
BRANCH  15  16
ATOM     16  C   UNL     1       7.360  75.346  37.076  1.00  0.00    -0.000 C 
BRANCH  16  17
ATOM     17  C   UNL     1       5.858  75.033  37.172  1.00  0.00    -0.000 C 
BRANCH  17  18
ATOM     18  C   UNL     1       5.107  75.981  38.124  1.00  0.00    -0.000 C 
BRANCH  18  19
ATOM     19  C   UNL     1       4.099  75.292  39.061  1.00  0.00    -0.003 C 
ATOM     20  C   UNL     1       4.677  74.062  39.760  1.00  0.00     0.004 C 
ENDBRANCH  18  19
ENDBRANCH  17  18
ENDBRANCH  16  17
ENDBRANCH  15  16
ENDBRANCH  14  15
ENDBRANCH  13  14
ENDBRANCH  12  13
ENDBRANCH   1  12
TORSDOF 16
ENDMDL
MODEL 9
REMARK VINA RESULT:    -4.034      1.917      2.593
REMARK INTER + INTRA:         -10.434
REMARK INTER:                  -8.050
REMARK INTRA:                  -2.383
REMARK UNBOUND:                -2.627
REMARK SMILES CCCCCCCCCCCCCCCCCC(=O)[O-]
REMARK SMILES IDX 10 1 11 2 12 3 13 4 14 5 15 6 16 7 17 8 18 9 19 10 20 11
REMARK SMILES IDX 9 12 8 13 7 14 6 15 5 16 4 17 3 18 2 19 1 20
REMARK H PARENT
REMARK Flexibility Score: inf
ROOT
ATOM      1  C   UNL     1       5.595  75.938  39.618  1.00  0.00     0.000 C 
ENDROOT
BRANCH   1   2
ATOM      2  C   UNL     1       4.190  75.954  38.994  1.00  0.00     0.000 C 
BRANCH   2   3
ATOM      3  C   UNL     1       3.785  74.600  38.381  1.00  0.00     0.000 C 
BRANCH   3   4
ATOM      4  C   UNL     1       4.803  73.459  38.563  1.00  0.00     0.000 C 
BRANCH   4   5
ATOM      5  C   UNL     1       5.419  72.984  37.237  1.00  0.00     0.000 C 
BRANCH   5   6
ATOM      6  C   UNL     1       6.274  74.065  36.550  1.00  0.00     0.000 C 
BRANCH   6   7
ATOM      7  C   UNL     1       7.723  74.188  37.067  1.00  0.00     0.006 C 
BRANCH   7   8
ATOM      8  C   UNL     1       8.717  73.210  36.422  1.00  0.00     0.053 C 
BRANCH   8   9
ATOM      9  C   UNL     1       9.329  72.284  37.427  1.00  0.00     0.041 C 
ATOM     10  O   UNL     1       8.641  71.853  38.392  1.00  0.00    -0.550 OA
ATOM     11  O   UNL     1      10.646  71.870  37.282  1.00  0.00    -0.550 OA
ENDBRANCH   8   9
ENDBRANCH   7   8
ENDBRANCH   6   7
ENDBRANCH   5   6
ENDBRANCH   4   5
ENDBRANCH   3   4
ENDBRANCH   2   3
ENDBRANCH   1   2
BRANCH   1  12
ATOM     12  C   UNL     1       6.365  77.249  39.387  1.00  0.00     0.000 C 
BRANCH  12  13
ATOM     13  C   UNL     1       5.451  78.483  39.217  1.00  0.00    -0.000 C 
BRANCH  13  14
ATOM     14  C   UNL     1       6.037  79.502  38.225  1.00  0.00    -0.000 C 
BRANCH  14  15
ATOM     15  C   UNL     1       6.187  78.932  36.806  1.00  0.00    -0.000 C 
BRANCH  15  16
ATOM     16  C   UNL     1       7.596  79.139  36.231  1.00  0.00    -0.000 C 
BRANCH  16  17
ATOM     17  C   UNL     1       8.482  77.911  36.495  1.00  0.00    -0.000 C 
BRANCH  17  18
ATOM     18  C   UNL     1       9.816  78.269  37.175  1.00  0.00    -0.000 C 
BRANCH  18  19
ATOM     19  C   UNL     1       9.757  79.487  38.114  1.00  0.00    -0.003 C 
ATOM     20  C   UNL     1       9.594  79.101  39.584  1.00  0.00     0.004 C 
ENDBRANCH  18  19
ENDBRANCH  17  18
ENDBRANCH  16  17
ENDBRANCH  15  16
ENDBRANCH  14  15
ENDBRANCH  13  14
ENDBRANCH  12  13
ENDBRANCH   1  12
TORSDOF 16
ENDMDL
