MODEL 1
REMARK VINA RESULT:    -8.251      0.000      0.000
REMARK INTER + INTRA:         -15.541
REMARK INTER:                 -13.557
REMARK INTRA:                  -1.983
REMARK UNBOUND:                -1.983
REMARK SMILES C[C@H]1O[C@H](OC[C@H]2O[C@H](Oc3c(-c4ccc(O)c(O)c4)oc4cc(O)cc(O)c4c3=O)[C@@H](O)[C@@H](O)[C@@H]2O)[C@H](O)[C@@H](O)[C@H]1O
REMARK SMILES IDX 7 1 36 2 34 3 32 4 9 5 8 6 6 7 5 8 4 9 1 10 2 11 42 12 3 13
REMARK SMILES IDX 40 14 38 15 43 16 41 18 39 20 37 22 35 24 10 26 11 27 12 28
REMARK SMILES IDX 30 29 21 30 29 31 31 32 22 33 27 34 23 35 26 36 24 37 13 38
REMARK SMILES IDX 20 39 14 40 18 41 15 42 16 43 19 44 17 46 28 48 25 50 33 52
REMARK H PARENT 43 17 41 19 39 21 37 23 35 25 19 45 17 47 28 49 25 51 33 53
REMARK Flexibility Score: inf
ROOT
ATOM      1  C   UNL     1       0.683 -18.611  27.100  1.00  0.00     0.180 C 
ATOM      2  C   UNL     1       0.165 -18.878  25.665  1.00  0.00     0.177 C 
ATOM      3  C   UNL     1      -0.481 -20.274  25.594  1.00  0.00     0.180 C 
ATOM      4  C   UNL     1      -1.489 -20.481  26.743  1.00  0.00     0.214 C 
ATOM      5  C   UNL     1      -0.873 -20.062  28.096  1.00  0.00     0.339 C 
ATOM      6  O   UNL     1      -0.369 -18.737  28.044  1.00  0.00    -0.332 OA
ENDROOT
BRANCH   1   7
ATOM      7  C   UNL     1       1.258 -17.194  27.227  1.00  0.00     0.198 C 
BRANCH   7   8
ATOM      8  O   UNL     1       0.445 -16.279  26.522  1.00  0.00    -0.347 OA
BRANCH   8   9
ATOM      9  C   UNL     1       0.035 -15.200  27.353  1.00  0.00     0.281 C 
ATOM     10  C   UNL     1       0.814 -12.445  25.032  1.00  0.00     0.041 C 
ATOM     11  C   UNL     1       0.090 -13.687  25.554  1.00  0.00     0.150 C 
ATOM     12  C   UNL     1      -1.443 -13.487  25.551  1.00  0.00     0.174 C 
ATOM     13  O   UNL     1       0.560 -13.975  26.862  1.00  0.00    -0.344 OA
ATOM     14  C   UNL     1      -2.114 -14.763  26.085  1.00  0.00     0.179 C 
ATOM     15  C   UNL     1      -1.508 -15.150  27.442  1.00  0.00     0.202 C 
BRANCH  12  16
ATOM     16  O   UNL     1      -1.799 -12.395  26.361  1.00  0.00    -0.388 OA
ATOM     17  H   UNL     1      -0.964 -12.052  26.774  1.00  0.00     0.211 HD
ENDBRANCH  12  16
BRANCH  14  18
ATOM     18  O   UNL     1      -3.497 -14.563  26.229  1.00  0.00    -0.387 OA
ATOM     19  H   UNL     1      -3.945 -15.296  25.733  1.00  0.00     0.211 HD
ENDBRANCH  14  18
BRANCH  15  20
ATOM     20  O   UNL     1      -2.014 -16.398  27.838  1.00  0.00    -0.385 OA
ATOM     21  H   UNL     1      -2.338 -16.292  28.771  1.00  0.00     0.211 HD
ENDBRANCH  15  20
ENDBRANCH   8   9
ENDBRANCH   7   8
ENDBRANCH   1   7
BRANCH   2  22
ATOM     22  O   UNL     1       1.234 -18.816  24.754  1.00  0.00    -0.387 OA
ATOM     23  H   UNL     1       1.680 -19.702  24.769  1.00  0.00     0.211 HD
ENDBRANCH   2  22
BRANCH   3  24
ATOM     24  O   UNL     1      -1.116 -20.436  24.352  1.00  0.00    -0.387 OA
ATOM     25  H   UNL     1      -0.588 -21.107  23.847  1.00  0.00     0.211 HD
ENDBRANCH   3  24
BRANCH   5  26
ATOM     26  O   UNL     1       0.155 -20.975  28.498  1.00  0.00    -0.454 OA
BRANCH  26  27
ATOM     27  C   UNL     1      -0.105 -22.304  28.852  1.00  0.00     0.214 A 
ATOM     28  C   UNL     1       0.486 -23.383  28.166  1.00  0.00     0.180 A 
ATOM     29  C   UNL     1      -0.980 -22.570  29.911  1.00  0.00     0.239 A 
ATOM     30  O   UNL     1       0.247 -24.626  28.570  1.00  0.00    -0.452 OA
ATOM     31  C   UNL     1      -1.188 -23.902  30.340  1.00  0.00     0.111 A 
ATOM     32  O   UNL     1      -1.579 -21.601  30.447  1.00  0.00    -0.285 OA
ATOM     33  C   UNL     1      -0.545 -24.924  29.593  1.00  0.00     0.146 A 
ATOM     34  C   UNL     1      -2.008 -24.280  31.445  1.00  0.00     0.134 A 
ATOM     35  C   UNL     1      -0.748 -26.270  29.910  1.00  0.00     0.094 A 
ATOM     36  C   UNL     1      -2.223 -25.638  31.713  1.00  0.00     0.093 A 
ATOM     37  C   UNL     1      -1.594 -26.629  30.955  1.00  0.00     0.123 A 
BRANCH  28  38
ATOM     38  C   UNL     1       1.359 -23.192  26.986  1.00  0.00     0.025 A 
ATOM     39  C   UNL     1       0.892 -23.444  25.683  1.00  0.00     0.062 A 
ATOM     40  C   UNL     1       2.691 -22.788  27.169  1.00  0.00     0.016 A 
ATOM     41  C   UNL     1       1.730 -23.255  24.577  1.00  0.00     0.158 A 
ATOM     42  C   UNL     1       3.530 -22.602  26.068  1.00  0.00     0.051 A 
ATOM     43  C   UNL     1       3.054 -22.827  24.769  1.00  0.00     0.157 A 
BRANCH  41  44
ATOM     44  O   UNL     1       1.228 -23.499  23.299  1.00  0.00    -0.504 OA
ATOM     45  H   UNL     1       0.260 -23.749  23.140  1.00  0.00     0.293 HD
ENDBRANCH  41  44
BRANCH  43  46
ATOM     46  O   UNL     1       3.892 -22.634  23.672  1.00  0.00    -0.504 OA
ATOM     47  H   UNL     1       4.888 -22.486  23.785  1.00  0.00     0.293 HD
ENDBRANCH  43  46
ENDBRANCH  28  38
BRANCH  34  48
ATOM     48  O   UNL     1      -2.607 -23.371  32.321  1.00  0.00    -0.507 OA
ATOM     49  H   UNL     1      -2.935 -23.594  33.248  1.00  0.00     0.293 HD
ENDBRANCH  34  48
BRANCH  37  50
ATOM     50  O   UNL     1      -1.800 -27.978  31.239  1.00  0.00    -0.508 OA
ATOM     51  H   UNL     1      -2.682 -28.313  31.609  1.00  0.00     0.293 HD
ENDBRANCH  37  50
ENDBRANCH  26  27
ENDBRANCH   5  26
BRANCH   4  52
ATOM     52  O   UNL     1      -2.693 -19.793  26.501  1.00  0.00    -0.384 OA
ATOM     53  H   UNL     1      -3.151 -20.229  25.737  1.00  0.00     0.211 HD
ENDBRANCH   4  52
TORSDOF 16
ENDMDL
MODEL 2
REMARK VINA RESULT:    -7.836      2.524      3.819
REMARK INTER + INTRA:         -14.859
REMARK INTER:                 -13.622
REMARK INTRA:                  -1.237
REMARK UNBOUND:                -1.983
REMARK SMILES C[C@H]1O[C@H](OC[C@H]2O[C@H](Oc3c(-c4ccc(O)c(O)c4)oc4cc(O)cc(O)c4c3=O)[C@@H](O)[C@@H](O)[C@@H]2O)[C@H](O)[C@@H](O)[C@H]1O
REMARK SMILES IDX 7 1 36 2 34 3 32 4 9 5 8 6 6 7 5 8 4 9 1 10 2 11 42 12 3 13
REMARK SMILES IDX 40 14 38 15 43 16 41 18 39 20 37 22 35 24 10 26 11 27 12 28
REMARK SMILES IDX 30 29 21 30 29 31 31 32 22 33 27 34 23 35 26 36 24 37 13 38
REMARK SMILES IDX 20 39 14 40 18 41 15 42 16 43 19 44 17 46 28 48 25 50 33 52
REMARK H PARENT 43 17 41 19 39 21 37 23 35 25 19 45 17 47 28 49 25 51 33 53
REMARK Flexibility Score: inf
ROOT
ATOM      1  C   UNL     1      -0.061 -18.932  28.977  1.00  0.00     0.180 C 
ATOM      2  C   UNL     1      -1.459 -19.596  29.039  1.00  0.00     0.177 C 
ATOM      3  C   UNL     1      -1.310 -21.108  29.283  1.00  0.00     0.180 C 
ATOM      4  C   UNL     1      -0.357 -21.392  30.462  1.00  0.00     0.214 C 
ATOM      5  C   UNL     1       0.946 -20.572  30.324  1.00  0.00     0.339 C 
ATOM      6  O   UNL     1       0.669 -19.190  30.166  1.00  0.00    -0.332 OA
ENDROOT
BRANCH   1   7
ATOM      7  C   UNL     1      -0.176 -17.410  28.819  1.00  0.00     0.198 C 
BRANCH   7   8
ATOM      8  O   UNL     1       0.498 -16.996  27.649  1.00  0.00    -0.347 OA
BRANCH   8   9
ATOM      9  C   UNL     1      -0.264 -17.279  26.482  1.00  0.00     0.281 C 
ATOM     10  C   UNL     1      -2.881 -14.726  26.952  1.00  0.00     0.041 C 
ATOM     11  C   UNL     1      -1.478 -15.275  26.691  1.00  0.00     0.150 C 
ATOM     12  C   UNL     1      -0.860 -14.657  25.416  1.00  0.00     0.174 C 
ATOM     13  O   UNL     1      -1.553 -16.689  26.582  1.00  0.00    -0.344 OA
ATOM     14  C   UNL     1       0.544 -15.246  25.205  1.00  0.00     0.179 C 
ATOM     15  C   UNL     1       0.481 -16.780  25.222  1.00  0.00     0.202 C 
BRANCH  12  16
ATOM     16  O   UNL     1      -1.661 -14.937  24.294  1.00  0.00    -0.388 OA
ATOM     17  H   UNL     1      -1.252 -14.470  23.519  1.00  0.00     0.211 HD
ENDBRANCH  12  16
BRANCH  14  18
ATOM     18  O   UNL     1       1.075 -14.812  23.979  1.00  0.00    -0.387 OA
ATOM     19  H   UNL     1       0.351 -14.318  23.513  1.00  0.00     0.211 HD
ENDBRANCH  14  18
BRANCH  15  20
ATOM     20  O   UNL     1       1.784 -17.300  25.189  1.00  0.00    -0.385 OA
ATOM     21  H   UNL     1       1.785 -18.111  25.760  1.00  0.00     0.211 HD
ENDBRANCH  15  20
ENDBRANCH   8   9
ENDBRANCH   7   8
ENDBRANCH   1   7
BRANCH   2  22
ATOM     22  O   UNL     1      -2.140 -19.387  27.828  1.00  0.00    -0.387 OA
ATOM     23  H   UNL     1      -1.624 -19.855  27.121  1.00  0.00     0.211 HD
ENDBRANCH   2  22
BRANCH   3  24
ATOM     24  O   UNL     1      -2.572 -21.672  29.530  1.00  0.00    -0.387 OA
ATOM     25  H   UNL     1      -2.957 -21.183  30.303  1.00  0.00     0.211 HD
ENDBRANCH   3  24
BRANCH   5  26
ATOM     26  O   UNL     1       1.744 -21.054  29.236  1.00  0.00    -0.454 OA
BRANCH  26  27
ATOM     27  C   UNL     1       2.082 -22.403  29.081  1.00  0.00     0.214 A 
ATOM     28  C   UNL     1       1.969 -23.057  27.839  1.00  0.00     0.180 A 
ATOM     29  C   UNL     1       2.539 -23.124  30.190  1.00  0.00     0.239 A 
ATOM     30  O   UNL     1       2.349 -24.325  27.730  1.00  0.00    -0.452 OA
ATOM     31  C   UNL     1       2.969 -24.463  30.034  1.00  0.00     0.111 A 
ATOM     32  O   UNL     1       2.539 -22.555  31.313  1.00  0.00    -0.285 OA
ATOM     33  C   UNL     1       2.824 -25.037  28.744  1.00  0.00     0.146 A 
ATOM     34  C   UNL     1       3.510 -25.268  31.081  1.00  0.00     0.134 A 
ATOM     35  C   UNL     1       3.164 -26.374  28.520  1.00  0.00     0.094 A 
ATOM     36  C   UNL     1       3.804 -26.615  30.835  1.00  0.00     0.093 A 
ATOM     37  C   UNL     1       3.638 -27.167  29.562  1.00  0.00     0.123 A 
BRANCH  28  38
ATOM     38  C   UNL     1       1.418 -22.390  26.637  1.00  0.00     0.025 A 
ATOM     39  C   UNL     1       0.066 -22.010  26.567  1.00  0.00     0.062 A 
ATOM     40  C   UNL     1       2.249 -22.168  25.528  1.00  0.00     0.016 A 
ATOM     41  C   UNL     1      -0.438 -21.378  25.425  1.00  0.00     0.158 A 
ATOM     42  C   UNL     1       1.749 -21.540  24.386  1.00  0.00     0.051 A 
ATOM     43  C   UNL     1       0.408 -21.137  24.329  1.00  0.00     0.157 A 
BRANCH  41  44
ATOM     44  O   UNL     1      -1.780 -20.999  25.396  1.00  0.00    -0.504 OA
ATOM     45  H   UNL     1      -2.518 -21.610  25.724  1.00  0.00     0.293 HD
ENDBRANCH  41  44
BRANCH  43  46
ATOM     46  O   UNL     1      -0.087 -20.504  23.190  1.00  0.00    -0.504 OA
ATOM     47  H   UNL     1      -0.256 -21.015  22.331  1.00  0.00     0.293 HD
ENDBRANCH  43  46
ENDBRANCH  28  38
BRANCH  34  48
ATOM     48  O   UNL     1       3.801 -24.792  32.363  1.00  0.00    -0.507 OA
ATOM     49  H   UNL     1       4.574 -24.187  32.591  1.00  0.00     0.293 HD
ENDBRANCH  34  48
BRANCH  37  50
ATOM     50  O   UNL     1       3.950 -28.503  29.321  1.00  0.00    -0.508 OA
ATOM     51  H   UNL     1       3.274 -29.140  28.914  1.00  0.00     0.293 HD
ENDBRANCH  37  50
ENDBRANCH  26  27
ENDBRANCH   5  26
BRANCH   4  52
ATOM     52  O   UNL     1      -0.981 -21.145  31.700  1.00  0.00    -0.384 OA
ATOM     53  H   UNL     1      -1.737 -21.780  31.798  1.00  0.00     0.211 HD
ENDBRANCH   4  52
TORSDOF 16
ENDMDL
MODEL 3
REMARK VINA RESULT:    -7.785      2.596      4.331
REMARK INTER + INTRA:         -14.774
REMARK INTER:                 -12.377
REMARK INTRA:                  -2.398
REMARK UNBOUND:                -1.983
REMARK SMILES C[C@H]1O[C@H](OC[C@H]2O[C@H](Oc3c(-c4ccc(O)c(O)c4)oc4cc(O)cc(O)c4c3=O)[C@@H](O)[C@@H](O)[C@@H]2O)[C@H](O)[C@@H](O)[C@H]1O
REMARK SMILES IDX 7 1 36 2 34 3 32 4 9 5 8 6 6 7 5 8 4 9 1 10 2 11 42 12 3 13
REMARK SMILES IDX 40 14 38 15 43 16 41 18 39 20 37 22 35 24 10 26 11 27 12 28
REMARK SMILES IDX 30 29 21 30 29 31 31 32 22 33 27 34 23 35 26 36 24 37 13 38
REMARK SMILES IDX 20 39 14 40 18 41 15 42 16 43 19 44 17 46 28 48 25 50 33 52
REMARK H PARENT 43 17 41 19 39 21 37 23 35 25 19 45 17 47 28 49 25 51 33 53
REMARK Flexibility Score: inf
ROOT
ATOM      1  C   UNL     1       0.818 -18.770  26.324  1.00  0.00     0.180 C 
ATOM      2  C   UNL     1       0.308 -18.829  24.863  1.00  0.00     0.177 C 
ATOM      3  C   UNL     1       0.319 -20.285  24.364  1.00  0.00     0.180 C 
ATOM      4  C   UNL     1      -0.367 -21.226  25.374  1.00  0.00     0.214 C 
ATOM      5  C   UNL     1       0.157 -20.973  26.805  1.00  0.00     0.339 C 
ATOM      6  O   UNL     1       0.034 -19.606  27.162  1.00  0.00    -0.332 OA
ENDROOT
BRANCH   1   7
ATOM      7  C   UNL     1       0.740 -17.343  26.882  1.00  0.00     0.198 C 
BRANCH   7   8
ATOM      8  O   UNL     1      -0.571 -17.073  27.333  1.00  0.00    -0.347 OA
BRANCH   8   9
ATOM      9  C   UNL     1      -0.606 -15.924  28.170  1.00  0.00     0.281 C 
ATOM     10  C   UNL     1      -0.866 -13.371  25.525  1.00  0.00     0.041 C 
ATOM     11  C   UNL     1      -1.305 -14.549  26.395  1.00  0.00     0.150 C 
ATOM     12  C   UNL     1      -2.703 -14.307  27.006  1.00  0.00     0.174 C 
ATOM     13  O   UNL     1      -0.336 -14.754  27.412  1.00  0.00    -0.344 OA
ATOM     14  C   UNL     1      -3.089 -15.520  27.868  1.00  0.00     0.179 C 
ATOM     15  C   UNL     1      -1.975 -15.823  28.882  1.00  0.00     0.202 C 
BRANCH  12  16
ATOM     16  O   UNL     1      -2.698 -13.148  27.803  1.00  0.00    -0.388 OA
ATOM     17  H   UNL     1      -3.373 -12.527  27.421  1.00  0.00     0.211 HD
ENDBRANCH  12  16
BRANCH  14  18
ATOM     18  O   UNL     1      -4.290 -15.270  28.553  1.00  0.00    -0.387 OA
ATOM     19  H   UNL     1      -4.109 -14.527  29.184  1.00  0.00     0.211 HD
ENDBRANCH  14  18
BRANCH  15  20
ATOM     20  O   UNL     1      -2.268 -17.023  29.549  1.00  0.00    -0.385 OA
ATOM     21  H   UNL     1      -1.946 -16.918  30.482  1.00  0.00     0.211 HD
ENDBRANCH  15  20
ENDBRANCH   8   9
ENDBRANCH   7   8
ENDBRANCH   1   7
BRANCH   2  22
ATOM     22  O   UNL     1       1.137 -18.050  24.038  1.00  0.00    -0.387 OA
ATOM     23  H   UNL     1       2.020 -17.990  24.487  1.00  0.00     0.211 HD
ENDBRANCH   2  22
BRANCH   3  24
ATOM     24  O   UNL     1      -0.320 -20.360  23.115  1.00  0.00    -0.387 OA
ATOM     25  H   UNL     1      -0.134 -21.265  22.754  1.00  0.00     0.211 HD
ENDBRANCH   3  24
BRANCH   5  26
ATOM     26  O   UNL     1       1.515 -21.408  26.941  1.00  0.00    -0.454 OA
BRANCH  26  27
ATOM     27  C   UNL     1       1.914 -22.368  27.877  1.00  0.00     0.214 A 
ATOM     28  C   UNL     1       1.928 -22.095  29.259  1.00  0.00     0.180 A 
ATOM     29  C   UNL     1       2.315 -23.632  27.431  1.00  0.00     0.239 A 
ATOM     30  O   UNL     1       2.268 -23.054  30.113  1.00  0.00    -0.452 OA
ATOM     31  C   UNL     1       2.637 -24.644  28.367  1.00  0.00     0.111 A 
ATOM     32  O   UNL     1       2.393 -23.829  26.190  1.00  0.00    -0.285 OA
ATOM     33  C   UNL     1       2.618 -24.278  29.738  1.00  0.00     0.146 A 
ATOM     34  C   UNL     1       2.997 -25.981  28.023  1.00  0.00     0.134 A 
ATOM     35  C   UNL     1       2.985 -25.199  30.723  1.00  0.00     0.094 A 
ATOM     36  C   UNL     1       3.398 -26.869  29.030  1.00  0.00     0.093 A 
ATOM     37  C   UNL     1       3.388 -26.485  30.373  1.00  0.00     0.123 A 
BRANCH  28  38
ATOM     38  C   UNL     1       1.597 -20.761  29.808  1.00  0.00     0.025 A 
ATOM     39  C   UNL     1       0.362 -20.514  30.434  1.00  0.00     0.062 A 
ATOM     40  C   UNL     1       2.515 -19.708  29.668  1.00  0.00     0.016 A 
ATOM     41  C   UNL     1       0.065 -19.247  30.951  1.00  0.00     0.158 A 
ATOM     42  C   UNL     1       2.221 -18.442  30.180  1.00  0.00     0.051 A 
ATOM     43  C   UNL     1       1.001 -18.206  30.827  1.00  0.00     0.157 A 
BRANCH  41  44
ATOM     44  O   UNL     1      -1.163 -19.043  31.579  1.00  0.00    -0.504 OA
ATOM     45  H   UNL     1      -2.030 -19.391  31.191  1.00  0.00     0.293 HD
ENDBRANCH  41  44
BRANCH  43  46
ATOM     46  O   UNL     1       0.713 -16.943  31.342  1.00  0.00    -0.504 OA
ATOM     47  H   UNL     1       0.990 -16.097  30.858  1.00  0.00     0.293 HD
ENDBRANCH  43  46
ENDBRANCH  28  38
BRANCH  34  48
ATOM     48  O   UNL     1       2.951 -26.495  26.723  1.00  0.00    -0.507 OA
ATOM     49  H   UNL     1       2.823 -27.468  26.492  1.00  0.00     0.293 HD
ENDBRANCH  34  48
BRANCH  37  50
ATOM     50  O   UNL     1       3.772 -27.379  31.370  1.00  0.00    -0.508 OA
ATOM     51  H   UNL     1       4.585 -27.208  31.951  1.00  0.00     0.293 HD
ENDBRANCH  37  50
ENDBRANCH  26  27
ENDBRANCH   5  26
BRANCH   4  52
ATOM     52  O   UNL     1      -1.769 -21.106  25.319  1.00  0.00    -0.384 OA
ATOM     53  H   UNL     1      -1.993 -20.150  25.181  1.00  0.00     0.211 HD
ENDBRANCH   4  52
TORSDOF 16
ENDMDL
MODEL 4
REMARK VINA RESULT:    -7.771      3.867      8.153
REMARK INTER + INTRA:         -14.751
REMARK INTER:                 -12.859
REMARK INTRA:                  -1.892
REMARK UNBOUND:                -1.983
REMARK SMILES C[C@H]1O[C@H](OC[C@H]2O[C@H](Oc3c(-c4ccc(O)c(O)c4)oc4cc(O)cc(O)c4c3=O)[C@@H](O)[C@@H](O)[C@@H]2O)[C@H](O)[C@@H](O)[C@H]1O
REMARK SMILES IDX 7 1 36 2 34 3 32 4 9 5 8 6 6 7 5 8 4 9 1 10 2 11 42 12 3 13
REMARK SMILES IDX 40 14 38 15 43 16 41 18 39 20 37 22 35 24 10 26 11 27 12 28
REMARK SMILES IDX 30 29 21 30 29 31 31 32 22 33 27 34 23 35 26 36 24 37 13 38
REMARK SMILES IDX 20 39 14 40 18 41 15 42 16 43 19 44 17 46 28 48 25 50 33 52
REMARK H PARENT 43 17 41 19 39 21 37 23 35 25 19 45 17 47 28 49 25 51 33 53
REMARK Flexibility Score: inf
ROOT
ATOM      1  C   UNL     1      -3.269 -14.466  28.188  1.00  0.00     0.180 C 
ATOM      2  C   UNL     1      -2.925 -13.081  28.789  1.00  0.00     0.177 C 
ATOM      3  C   UNL     1      -1.437 -12.764  28.553  1.00  0.00     0.180 C 
ATOM      4  C   UNL     1      -1.043 -12.996  27.080  1.00  0.00     0.214 C 
ATOM      5  C   UNL     1      -1.554 -14.367  26.585  1.00  0.00     0.339 C 
ATOM      6  O   UNL     1      -2.948 -14.507  26.806  1.00  0.00    -0.332 OA
ENDROOT
BRANCH   1   7
ATOM      7  C   UNL     1      -4.765 -14.777  28.331  1.00  0.00     0.198 C 
BRANCH   7   8
ATOM      8  O   UNL     1      -5.209 -14.420  29.623  1.00  0.00    -0.347 OA
BRANCH   8   9
ATOM      9  C   UNL     1      -6.541 -13.923  29.596  1.00  0.00     0.281 C 
ATOM     10  C   UNL     1      -8.049 -16.381  31.892  1.00  0.00     0.041 C 
ATOM     11  C   UNL     1      -7.150 -15.221  31.460  1.00  0.00     0.150 C 
ATOM     12  C   UNL     1      -7.341 -13.991  32.375  1.00  0.00     0.174 C 
ATOM     13  O   UNL     1      -7.440 -14.897  30.108  1.00  0.00    -0.344 OA
ATOM     14  C   UNL     1      -6.416 -12.861  31.893  1.00  0.00     0.179 C 
ATOM     15  C   UNL     1      -6.635 -12.603  30.395  1.00  0.00     0.202 C 
BRANCH  12  16
ATOM     16  O   UNL     1      -8.677 -13.552  32.339  1.00  0.00    -0.388 OA
ATOM     17  H   UNL     1      -8.704 -12.746  31.759  1.00  0.00     0.211 HD
ENDBRANCH  12  16
BRANCH  14  18
ATOM     18  O   UNL     1      -6.669 -11.682  32.614  1.00  0.00    -0.387 OA
ATOM     19  H   UNL     1      -7.653 -11.550  32.607  1.00  0.00     0.211 HD
ENDBRANCH  14  18
BRANCH  15  20
ATOM     20  O   UNL     1      -5.677 -11.686  29.936  1.00  0.00    -0.385 OA
ATOM     21  H   UNL     1      -6.158 -11.027  29.370  1.00  0.00     0.211 HD
ENDBRANCH  15  20
ENDBRANCH   8   9
ENDBRANCH   7   8
ENDBRANCH   1   7
BRANCH   2  22
ATOM     22  O   UNL     1      -3.185 -13.083  30.170  1.00  0.00    -0.387 OA
ATOM     23  H   UNL     1      -3.446 -14.008  30.414  1.00  0.00     0.211 HD
ENDBRANCH   2  22
BRANCH   3  24
ATOM     24  O   UNL     1      -1.174 -11.435  28.925  1.00  0.00    -0.387 OA
ATOM     25  H   UNL     1      -0.239 -11.412  29.256  1.00  0.00     0.211 HD
ENDBRANCH   3  24
BRANCH   5  26
ATOM     26  O   UNL     1      -0.836 -15.440  27.207  1.00  0.00    -0.454 OA
BRANCH  26  27
ATOM     27  C   UNL     1      -0.347 -16.540  26.495  1.00  0.00     0.214 A 
ATOM     28  C   UNL     1       0.845 -16.469  25.747  1.00  0.00     0.180 A 
ATOM     29  C   UNL     1      -1.062 -17.743  26.521  1.00  0.00     0.239 A 
ATOM     30  O   UNL     1       1.295 -17.554  25.128  1.00  0.00    -0.452 OA
ATOM     31  C   UNL     1      -0.538 -18.891  25.880  1.00  0.00     0.111 A 
ATOM     32  O   UNL     1      -2.175 -17.762  27.109  1.00  0.00    -0.285 OA
ATOM     33  C   UNL     1       0.671 -18.725  25.156  1.00  0.00     0.146 A 
ATOM     34  C   UNL     1      -1.152 -20.179  25.897  1.00  0.00     0.134 A 
ATOM     35  C   UNL     1       1.222 -19.793  24.441  1.00  0.00     0.094 A 
ATOM     36  C   UNL     1      -0.597 -21.218  25.138  1.00  0.00     0.093 A 
ATOM     37  C   UNL     1       0.585 -21.031  24.418  1.00  0.00     0.123 A 
BRANCH  28  38
ATOM     38  C   UNL     1       1.617 -15.215  25.601  1.00  0.00     0.025 A 
ATOM     39  C   UNL     1       2.510 -14.787  26.600  1.00  0.00     0.062 A 
ATOM     40  C   UNL     1       1.428 -14.414  24.464  1.00  0.00     0.016 A 
ATOM     41  C   UNL     1       3.236 -13.599  26.446  1.00  0.00     0.158 A 
ATOM     42  C   UNL     1       2.148 -13.227  24.309  1.00  0.00     0.051 A 
ATOM     43  C   UNL     1       3.058 -12.817  25.293  1.00  0.00     0.157 A 
BRANCH  41  44
ATOM     44  O   UNL     1       4.125 -13.214  27.449  1.00  0.00    -0.504 OA
ATOM     45  H   UNL     1       4.124 -13.647  28.364  1.00  0.00     0.293 HD
ENDBRANCH  41  44
BRANCH  43  46
ATOM     46  O   UNL     1       3.779 -11.635  25.131  1.00  0.00    -0.504 OA
ATOM     47  H   UNL     1       3.428 -10.749  25.472  1.00  0.00     0.293 HD
ENDBRANCH  43  46
ENDBRANCH  28  38
BRANCH  34  48
ATOM     48  O   UNL     1      -2.282 -20.498  26.655  1.00  0.00    -0.507 OA
ATOM     49  H   UNL     1      -2.352 -20.396  27.656  1.00  0.00     0.293 HD
ENDBRANCH  34  48
BRANCH  37  50
ATOM     50  O   UNL     1       1.140 -22.075  23.680  1.00  0.00    -0.508 OA
ATOM     51  H   UNL     1       0.813 -23.028  23.782  1.00  0.00     0.293 HD
ENDBRANCH  37  50
ENDBRANCH  26  27
ENDBRANCH   5  26
BRANCH   4  52
ATOM     52  O   UNL     1      -1.506 -11.955  26.254  1.00  0.00    -0.384 OA
ATOM     53  H   UNL     1      -1.114 -12.077  25.351  1.00  0.00     0.211 HD
ENDBRANCH   4  52
TORSDOF 16
ENDMDL
MODEL 5
REMARK VINA RESULT:    -7.723      2.024      3.124
REMARK INTER + INTRA:         -14.673
REMARK INTER:                 -12.033
REMARK INTRA:                  -2.640
REMARK UNBOUND:                -1.983
REMARK SMILES C[C@H]1O[C@H](OC[C@H]2O[C@H](Oc3c(-c4ccc(O)c(O)c4)oc4cc(O)cc(O)c4c3=O)[C@@H](O)[C@@H](O)[C@@H]2O)[C@H](O)[C@@H](O)[C@H]1O
REMARK SMILES IDX 7 1 36 2 34 3 32 4 9 5 8 6 6 7 5 8 4 9 1 10 2 11 42 12 3 13
REMARK SMILES IDX 40 14 38 15 43 16 41 18 39 20 37 22 35 24 10 26 11 27 12 28
REMARK SMILES IDX 30 29 21 30 29 31 31 32 22 33 27 34 23 35 26 36 24 37 13 38
REMARK SMILES IDX 20 39 14 40 18 41 15 42 16 43 19 44 17 46 28 48 25 50 33 52
REMARK H PARENT 43 17 41 19 39 21 37 23 35 25 19 45 17 47 28 49 25 51 33 53
REMARK Flexibility Score: inf
ROOT
ATOM      1  C   UNL     1       0.659 -18.067  29.751  1.00  0.00     0.180 C 
ATOM      2  C   UNL     1       1.410 -18.167  31.101  1.00  0.00     0.177 C 
ATOM      3  C   UNL     1       1.541 -19.642  31.519  1.00  0.00     0.180 C 
ATOM      4  C   UNL     1       2.083 -20.504  30.361  1.00  0.00     0.214 C 
ATOM      5  C   UNL     1       1.316 -20.212  29.052  1.00  0.00     0.339 C 
ATOM      6  O   UNL     1       1.322 -18.826  28.751  1.00  0.00    -0.332 OA
ENDROOT
BRANCH   1   7
ATOM      7  C   UNL     1       0.585 -16.614  29.263  1.00  0.00     0.198 C 
BRANCH   7   8
ATOM      8  O   UNL     1       0.641 -16.576  27.852  1.00  0.00    -0.347 OA
BRANCH   8   9
ATOM      9  C   UNL     1      -0.643 -16.340  27.288  1.00  0.00     0.281 C 
ATOM     10  C   UNL     1       0.244 -13.432  25.205  1.00  0.00     0.041 C 
ATOM     11  C   UNL     1       0.248 -14.890  25.664  1.00  0.00     0.150 C 
ATOM     12  C   UNL     1      -0.070 -15.849  24.495  1.00  0.00     0.174 C 
ATOM     13  O   UNL     1      -0.697 -15.042  26.714  1.00  0.00    -0.344 OA
ATOM     14  C   UNL     1      -0.053 -17.296  25.017  1.00  0.00     0.179 C 
ATOM     15  C   UNL     1      -0.974 -17.427  26.239  1.00  0.00     0.202 C 
BRANCH  12  16
ATOM     16  O   UNL     1      -1.334 -15.561  23.951  1.00  0.00    -0.388 OA
ATOM     17  H   UNL     1      -1.227 -14.764  23.368  1.00  0.00     0.211 HD
ENDBRANCH  12  16
BRANCH  14  18
ATOM     18  O   UNL     1      -0.478 -18.181  24.012  1.00  0.00    -0.387 OA
ATOM     19  H   UNL     1       0.046 -17.963  23.199  1.00  0.00     0.211 HD
ENDBRANCH  14  18
BRANCH  15  20
ATOM     20  O   UNL     1      -0.825 -18.706  26.798  1.00  0.00    -0.385 OA
ATOM     21  H   UNL     1      -0.673 -18.578  27.770  1.00  0.00     0.211 HD
ENDBRANCH  15  20
ENDBRANCH   8   9
ENDBRANCH   7   8
ENDBRANCH   1   7
BRANCH   2  22
ATOM     22  O   UNL     1       0.703 -17.466  32.093  1.00  0.00    -0.387 OA
ATOM     23  H   UNL     1       1.140 -17.670  32.960  1.00  0.00     0.211 HD
ENDBRANCH   2  22
BRANCH   3  24
ATOM     24  O   UNL     1       2.385 -19.743  32.637  1.00  0.00    -0.387 OA
ATOM     25  H   UNL     1       2.659 -20.694  32.703  1.00  0.00     0.211 HD
ENDBRANCH   3  24
BRANCH   5  26
ATOM     26  O   UNL     1      -0.028 -20.705  29.123  1.00  0.00    -0.454 OA
BRANCH  26  27
ATOM     27  C   UNL     1      -0.331 -22.048  29.375  1.00  0.00     0.214 A 
ATOM     28  C   UNL     1       0.042 -23.072  28.483  1.00  0.00     0.180 A 
ATOM     29  C   UNL     1      -1.029 -22.382  30.541  1.00  0.00     0.239 A 
ATOM     30  O   UNL     1      -0.225 -24.337  28.790  1.00  0.00    -0.452 OA
ATOM     31  C   UNL     1      -1.267 -23.741  30.857  1.00  0.00     0.111 A 
ATOM     32  O   UNL     1      -1.443 -21.449  31.277  1.00  0.00    -0.285 OA
ATOM     33  C   UNL     1      -0.850 -24.704  29.902  1.00  0.00     0.146 A 
ATOM     34  C   UNL     1      -1.911 -24.196  32.046  1.00  0.00     0.134 A 
ATOM     35  C   UNL     1      -1.105 -26.063  30.106  1.00  0.00     0.094 A 
ATOM     36  C   UNL     1      -2.188 -25.560  32.204  1.00  0.00     0.093 A 
ATOM     37  C   UNL     1      -1.784 -26.491  31.244  1.00  0.00     0.123 A 
BRANCH  28  38
ATOM     38  C   UNL     1       0.709 -22.796  27.191  1.00  0.00     0.025 A 
ATOM     39  C   UNL     1       0.061 -22.073  26.174  1.00  0.00     0.062 A 
ATOM     40  C   UNL     1       1.999 -23.299  26.958  1.00  0.00     0.016 A 
ATOM     41  C   UNL     1       0.708 -21.818  24.958  1.00  0.00     0.158 A 
ATOM     42  C   UNL     1       2.645 -23.049  25.745  1.00  0.00     0.051 A 
ATOM     43  C   UNL     1       2.008 -22.304  24.744  1.00  0.00     0.157 A 
BRANCH  41  44
ATOM     44  O   UNL     1       0.042 -21.083  23.978  1.00  0.00    -0.504 OA
ATOM     45  H   UNL     1      -0.412 -20.201  24.182  1.00  0.00     0.293 HD
ENDBRANCH  41  44
BRANCH  43  46
ATOM     46  O   UNL     1       2.659 -22.051  23.537  1.00  0.00    -0.504 OA
ATOM     47  H   UNL     1       2.868 -22.794  22.881  1.00  0.00     0.293 HD
ENDBRANCH  43  46
ENDBRANCH  28  38
BRANCH  34  48
ATOM     48  O   UNL     1      -2.273 -23.362  33.109  1.00  0.00    -0.507 OA
ATOM     49  H   UNL     1      -1.798 -22.508  33.359  1.00  0.00     0.293 HD
ENDBRANCH  34  48
BRANCH  37  50
ATOM     50  O   UNL     1      -2.047 -27.849  31.416  1.00  0.00    -0.508 OA
ATOM     51  H   UNL     1      -2.560 -28.381  30.723  1.00  0.00     0.293 HD
ENDBRANCH  37  50
ENDBRANCH  26  27
ENDBRANCH   5  26
BRANCH   4  52
ATOM     52  O   UNL     1       3.468 -20.320  30.187  1.00  0.00    -0.384 OA
ATOM     53  H   UNL     1       3.724 -20.701  29.308  1.00  0.00     0.211 HD
ENDBRANCH   4  52
TORSDOF 16
ENDMDL
MODEL 6
REMARK VINA RESULT:    -7.695      1.800      2.254
REMARK INTER + INTRA:         -14.627
REMARK INTER:                 -12.278
REMARK INTRA:                  -2.349
REMARK UNBOUND:                -1.983
REMARK SMILES C[C@H]1O[C@H](OC[C@H]2O[C@H](Oc3c(-c4ccc(O)c(O)c4)oc4cc(O)cc(O)c4c3=O)[C@@H](O)[C@@H](O)[C@@H]2O)[C@H](O)[C@@H](O)[C@H]1O
REMARK SMILES IDX 7 1 36 2 34 3 32 4 9 5 8 6 6 7 5 8 4 9 1 10 2 11 42 12 3 13
REMARK SMILES IDX 40 14 38 15 43 16 41 18 39 20 37 22 35 24 10 26 11 27 12 28
REMARK SMILES IDX 30 29 21 30 29 31 31 32 22 33 27 34 23 35 26 36 24 37 13 38
REMARK SMILES IDX 20 39 14 40 18 41 15 42 16 43 19 44 17 46 28 48 25 50 33 52
REMARK H PARENT 43 17 41 19 39 21 37 23 35 25 19 45 17 47 28 49 25 51 33 53
REMARK Flexibility Score: inf
ROOT
ATOM      1  C   UNL     1       0.129 -17.497  26.347  1.00  0.00     0.180 C 
ATOM      2  C   UNL     1       0.692 -18.050  25.014  1.00  0.00     0.177 C 
ATOM      3  C   UNL     1       0.802 -19.583  25.089  1.00  0.00     0.180 C 
ATOM      4  C   UNL     1      -0.510 -20.213  25.600  1.00  0.00     0.214 C 
ATOM      5  C   UNL     1      -1.012 -19.484  26.866  1.00  0.00     0.339 C 
ATOM      6  O   UNL     1      -1.127 -18.088  26.644  1.00  0.00    -0.332 OA
ENDROOT
BRANCH   1   7
ATOM      7  C   UNL     1      -0.073 -15.978  26.277  1.00  0.00     0.198 C 
BRANCH   7   8
ATOM      8  O   UNL     1      -1.247 -15.616  26.974  1.00  0.00    -0.347 OA
BRANCH   8   9
ATOM      9  C   UNL     1      -0.954 -15.182  28.296  1.00  0.00     0.281 C 
ATOM     10  C   UNL     1      -1.619 -11.589  27.812  1.00  0.00     0.041 C 
ATOM     11  C   UNL     1      -1.939 -13.081  27.912  1.00  0.00     0.150 C 
ATOM     12  C   UNL     1      -3.104 -13.341  28.892  1.00  0.00     0.174 C 
ATOM     13  O   UNL     1      -0.768 -13.774  28.321  1.00  0.00    -0.344 OA
ATOM     14  C   UNL     1      -3.379 -14.853  28.952  1.00  0.00     0.179 C 
ATOM     15  C   UNL     1      -2.081 -15.613  29.263  1.00  0.00     0.202 C 
BRANCH  12  16
ATOM     16  O   UNL     1      -2.782 -12.872  30.178  1.00  0.00    -0.388 OA
ATOM     17  H   UNL     1      -3.382 -13.336  30.818  1.00  0.00     0.211 HD
ENDBRANCH  12  16
BRANCH  14  18
ATOM     18  O   UNL     1      -4.336 -15.136  29.941  1.00  0.00    -0.387 OA
ATOM     19  H   UNL     1      -4.547 -14.276  30.388  1.00  0.00     0.211 HD
ENDBRANCH  14  18
BRANCH  15  20
ATOM     20  O   UNL     1      -2.313 -16.993  29.156  1.00  0.00    -0.385 OA
ATOM     21  H   UNL     1      -1.511 -17.448  29.524  1.00  0.00     0.211 HD
ENDBRANCH  15  20
ENDBRANCH   8   9
ENDBRANCH   7   8
ENDBRANCH   1   7
BRANCH   2  22
ATOM     22  O   UNL     1       1.964 -17.505  24.772  1.00  0.00    -0.387 OA
ATOM     23  H   UNL     1       2.269 -17.091  25.621  1.00  0.00     0.211 HD
ENDBRANCH   2  22
BRANCH   3  24
ATOM     24  O   UNL     1       1.127 -20.094  23.822  1.00  0.00    -0.387 OA
ATOM     25  H   UNL     1       1.414 -21.035  23.959  1.00  0.00     0.211 HD
ENDBRANCH   3  24
BRANCH   5  26
ATOM     26  O   UNL     1      -0.157 -19.747  27.985  1.00  0.00    -0.454 OA
BRANCH  26  27
ATOM     27  C   UNL     1      -0.370 -20.810  28.870  1.00  0.00     0.214 A 
ATOM     28  C   UNL     1       0.286 -22.047  28.715  1.00  0.00     0.180 A 
ATOM     29  C   UNL     1      -1.262 -20.643  29.935  1.00  0.00     0.239 A 
ATOM     30  O   UNL     1       0.089 -23.009  29.609  1.00  0.00    -0.452 OA
ATOM     31  C   UNL     1      -1.423 -21.674  30.891  1.00  0.00     0.111 A 
ATOM     32  O   UNL     1      -1.915 -19.569  30.003  1.00  0.00    -0.285 OA
ATOM     33  C   UNL     1      -0.717 -22.883  30.655  1.00  0.00     0.146 A 
ATOM     34  C   UNL     1      -2.256 -21.585  32.046  1.00  0.00     0.134 A 
ATOM     35  C   UNL     1      -0.871 -23.974  31.516  1.00  0.00     0.094 A 
ATOM     36  C   UNL     1      -2.420 -22.709  32.867  1.00  0.00     0.093 A 
ATOM     37  C   UNL     1      -1.730 -23.895  32.609  1.00  0.00     0.123 A 
BRANCH  28  38
ATOM     38  C   UNL     1       1.181 -22.333  27.571  1.00  0.00     0.025 A 
ATOM     39  C   UNL     1       0.766 -23.152  26.505  1.00  0.00     0.062 A 
ATOM     40  C   UNL     1       2.484 -21.812  27.566  1.00  0.00     0.016 A 
ATOM     41  C   UNL     1       1.624 -23.410  25.429  1.00  0.00     0.158 A 
ATOM     42  C   UNL     1       3.344 -22.070  26.496  1.00  0.00     0.051 A 
ATOM     43  C   UNL     1       2.918 -22.863  25.422  1.00  0.00     0.157 A 
BRANCH  41  44
ATOM     44  O   UNL     1       1.174 -24.213  24.381  1.00  0.00    -0.504 OA
ATOM     45  H   UNL     1       1.518 -25.154  24.239  1.00  0.00     0.293 HD
ENDBRANCH  41  44
BRANCH  43  46
ATOM     46  O   UNL     1       3.777 -23.114  24.352  1.00  0.00    -0.504 OA
ATOM     47  H   UNL     1       4.222 -22.360  23.842  1.00  0.00     0.293 HD
ENDBRANCH  43  46
ENDBRANCH  28  38
BRANCH  34  48
ATOM     48  O   UNL     1      -2.918 -20.421  32.447  1.00  0.00    -0.507 OA
ATOM     49  H   UNL     1      -3.918 -20.324  32.526  1.00  0.00     0.293 HD
ENDBRANCH  34  48
BRANCH  37  50
ATOM     50  O   UNL     1      -1.885 -25.003  33.440  1.00  0.00    -0.508 OA
ATOM     51  H   UNL     1      -1.546 -25.000  34.396  1.00  0.00     0.293 HD
ENDBRANCH  37  50
ENDBRANCH  26  27
ENDBRANCH   5  26
BRANCH   4  52
ATOM     52  O   UNL     1      -1.499 -20.226  24.598  1.00  0.00    -0.384 OA
ATOM     53  H   UNL     1      -1.252 -20.914  23.928  1.00  0.00     0.211 HD
ENDBRANCH   4  52
TORSDOF 16
ENDMDL
MODEL 7
REMARK VINA RESULT:    -7.679      2.399      8.990
REMARK INTER + INTRA:         -14.601
REMARK INTER:                 -11.969
REMARK INTRA:                  -2.631
REMARK UNBOUND:                -1.983
REMARK SMILES C[C@H]1O[C@H](OC[C@H]2O[C@H](Oc3c(-c4ccc(O)c(O)c4)oc4cc(O)cc(O)c4c3=O)[C@@H](O)[C@@H](O)[C@@H]2O)[C@H](O)[C@@H](O)[C@H]1O
REMARK SMILES IDX 7 1 36 2 34 3 32 4 9 5 8 6 6 7 5 8 4 9 1 10 2 11 42 12 3 13
REMARK SMILES IDX 40 14 38 15 43 16 41 18 39 20 37 22 35 24 10 26 11 27 12 28
REMARK SMILES IDX 30 29 21 30 29 31 31 32 22 33 27 34 23 35 26 36 24 37 13 38
REMARK SMILES IDX 20 39 14 40 18 41 15 42 16 43 19 44 17 46 28 48 25 50 33 52
REMARK H PARENT 43 17 41 19 39 21 37 23 35 25 19 45 17 47 28 49 25 51 33 53
REMARK Flexibility Score: inf
ROOT
ATOM      1  C   UNL     1       1.835 -22.383  26.287  1.00  0.00     0.180 C 
ATOM      2  C   UNL     1       1.792 -23.357  25.084  1.00  0.00     0.177 C 
ATOM      3  C   UNL     1       0.774 -22.858  24.043  1.00  0.00     0.180 C 
ATOM      4  C   UNL     1       0.995 -21.367  23.718  1.00  0.00     0.214 C 
ATOM      5  C   UNL     1       1.136 -20.537  25.013  1.00  0.00     0.339 C 
ATOM      6  O   UNL     1       2.147 -21.067  25.856  1.00  0.00    -0.332 OA
ENDROOT
BRANCH   1   7
ATOM      7  C   UNL     1       2.901 -22.807  27.306  1.00  0.00     0.198 C 
BRANCH   7   8
ATOM      8  O   UNL     1       2.541 -24.039  27.895  1.00  0.00    -0.347 OA
BRANCH   8   9
ATOM      9  C   UNL     1       3.688 -24.779  28.294  1.00  0.00     0.281 C 
ATOM     10  C   UNL     1       3.485 -24.121  31.915  1.00  0.00     0.041 C 
ATOM     11  C   UNL     1       3.061 -24.686  30.559  1.00  0.00     0.150 C 
ATOM     12  C   UNL     1       2.785 -26.204  30.643  1.00  0.00     0.174 C 
ATOM     13  O   UNL     1       4.079 -24.409  29.609  1.00  0.00    -0.344 OA
ATOM     14  C   UNL     1       2.365 -26.715  29.255  1.00  0.00     0.179 C 
ATOM     15  C   UNL     1       3.404 -26.296  28.203  1.00  0.00     0.202 C 
BRANCH  12  16
ATOM     16  O   UNL     1       3.936 -26.892  31.068  1.00  0.00    -0.388 OA
ATOM     17  H   UNL     1       3.632 -27.724  31.517  1.00  0.00     0.211 HD
ENDBRANCH  12  16
BRANCH  14  18
ATOM     18  O   UNL     1       2.247 -28.114  29.265  1.00  0.00    -0.387 OA
ATOM     19  H   UNL     1       2.030 -28.375  30.197  1.00  0.00     0.211 HD
ENDBRANCH  14  18
BRANCH  15  20
ATOM     20  O   UNL     1       2.930 -26.627  26.924  1.00  0.00    -0.385 OA
ATOM     21  H   UNL     1       3.721 -26.667  26.327  1.00  0.00     0.211 HD
ENDBRANCH  15  20
ENDBRANCH   8   9
ENDBRANCH   7   8
ENDBRANCH   1   7
BRANCH   2  22
ATOM     22  O   UNL     1       1.416 -24.639  25.522  1.00  0.00    -0.387 OA
ATOM     23  H   UNL     1       1.977 -25.291  25.027  1.00  0.00     0.211 HD
ENDBRANCH   2  22
BRANCH   3  24
ATOM     24  O   UNL     1       0.876 -23.632  22.875  1.00  0.00    -0.387 OA
ATOM     25  H   UNL     1       1.481 -24.389  23.087  1.00  0.00     0.211 HD
ENDBRANCH   3  24
BRANCH   5  26
ATOM     26  O   UNL     1      -0.112 -20.458  25.712  1.00  0.00    -0.454 OA
BRANCH  26  27
ATOM     27  C   UNL     1      -0.548 -19.295  26.357  1.00  0.00     0.214 A 
ATOM     28  C   UNL     1      -0.776 -19.260  27.747  1.00  0.00     0.180 A 
ATOM     29  C   UNL     1      -0.769 -18.138  25.603  1.00  0.00     0.239 A 
ATOM     30  O   UNL     1      -1.142 -18.119  28.322  1.00  0.00    -0.452 OA
ATOM     31  C   UNL     1      -1.124 -16.930  26.248  1.00  0.00     0.111 A 
ATOM     32  O   UNL     1      -0.658 -18.212  24.351  1.00  0.00    -0.285 OA
ATOM     33  C   UNL     1      -1.326 -16.989  27.652  1.00  0.00     0.146 A 
ATOM     34  C   UNL     1      -1.312 -15.681  25.584  1.00  0.00     0.134 A 
ATOM     35  C   UNL     1      -1.742 -15.855  28.357  1.00  0.00     0.094 A 
ATOM     36  C   UNL     1      -1.767 -14.573  26.312  1.00  0.00     0.093 A 
ATOM     37  C   UNL     1      -1.976 -14.655  27.691  1.00  0.00     0.123 A 
BRANCH  28  38
ATOM     38  C   UNL     1      -0.644 -20.459  28.604  1.00  0.00     0.025 A 
ATOM     39  C   UNL     1      -1.695 -21.386  28.731  1.00  0.00     0.062 A 
ATOM     40  C   UNL     1       0.535 -20.659  29.338  1.00  0.00     0.016 A 
ATOM     41  C   UNL     1      -1.553 -22.517  29.544  1.00  0.00     0.158 A 
ATOM     42  C   UNL     1       0.679 -21.784  30.152  1.00  0.00     0.051 A 
ATOM     43  C   UNL     1      -0.358 -22.721  30.255  1.00  0.00     0.157 A 
BRANCH  41  44
ATOM     44  O   UNL     1      -2.609 -23.424  29.633  1.00  0.00    -0.504 OA
ATOM     45  H   UNL     1      -2.950 -23.767  30.522  1.00  0.00     0.293 HD
ENDBRANCH  41  44
BRANCH  43  46
ATOM     46  O   UNL     1      -0.209 -23.846  31.063  1.00  0.00    -0.504 OA
ATOM     47  H   UNL     1      -1.004 -24.286  31.512  1.00  0.00     0.293 HD
ENDBRANCH  43  46
ENDBRANCH  28  38
BRANCH  34  48
ATOM     48  O   UNL     1      -1.043 -15.466  24.229  1.00  0.00    -0.507 OA
ATOM     49  H   UNL     1      -0.513 -14.691  23.863  1.00  0.00     0.293 HD
ENDBRANCH  34  48
BRANCH  37  50
ATOM     50  O   UNL     1      -2.412 -13.544  28.411  1.00  0.00    -0.508 OA
ATOM     51  H   UNL     1      -2.884 -12.771  27.957  1.00  0.00     0.293 HD
ENDBRANCH  37  50
ENDBRANCH  26  27
ENDBRANCH   5  26
BRANCH   4  52
ATOM     52  O   UNL     1       2.108 -21.183  22.875  1.00  0.00    -0.384 OA
ATOM     53  H   UNL     1       1.777 -20.964  21.967  1.00  0.00     0.211 HD
ENDBRANCH   4  52
TORSDOF 16
ENDMDL
MODEL 8
REMARK VINA RESULT:    -7.592      2.019      4.430
REMARK INTER + INTRA:         -14.457
REMARK INTER:                 -11.973
REMARK INTRA:                  -2.485
REMARK UNBOUND:                -1.983
REMARK SMILES C[C@H]1O[C@H](OC[C@H]2O[C@H](Oc3c(-c4ccc(O)c(O)c4)oc4cc(O)cc(O)c4c3=O)[C@@H](O)[C@@H](O)[C@@H]2O)[C@H](O)[C@@H](O)[C@H]1O
REMARK SMILES IDX 7 1 36 2 34 3 32 4 9 5 8 6 6 7 5 8 4 9 1 10 2 11 42 12 3 13
REMARK SMILES IDX 40 14 38 15 43 16 41 18 39 20 37 22 35 24 10 26 11 27 12 28
REMARK SMILES IDX 30 29 21 30 29 31 31 32 22 33 27 34 23 35 26 36 24 37 13 38
REMARK SMILES IDX 20 39 14 40 18 41 15 42 16 43 19 44 17 46 28 48 25 50 33 52
REMARK H PARENT 43 17 41 19 39 21 37 23 35 25 19 45 17 47 28 49 25 51 33 53
REMARK Flexibility Score: inf
ROOT
ATOM      1  C   UNL     1      -0.064 -19.156  25.773  1.00  0.00     0.180 C 
ATOM      2  C   UNL     1       0.739 -18.727  24.521  1.00  0.00     0.177 C 
ATOM      3  C   UNL     1       1.785 -19.803  24.176  1.00  0.00     0.180 C 
ATOM      4  C   UNL     1       1.149 -21.208  24.142  1.00  0.00     0.214 C 
ATOM      5  C   UNL     1       0.284 -21.449  25.398  1.00  0.00     0.339 C 
ATOM      6  O   UNL     1      -0.677 -20.420  25.566  1.00  0.00    -0.332 OA
ENDROOT
BRANCH   1   7
ATOM      7  C   UNL     1      -1.172 -18.145  26.095  1.00  0.00     0.198 C 
BRANCH   7   8
ATOM      8  O   UNL     1      -0.602 -16.924  26.515  1.00  0.00    -0.347 OA
BRANCH   8   9
ATOM      9  C   UNL     1      -1.516 -15.844  26.366  1.00  0.00     0.281 C 
ATOM     10  C   UNL     1      -0.652 -14.015  29.447  1.00  0.00     0.041 C 
ATOM     11  C   UNL     1      -0.446 -14.598  28.049  1.00  0.00     0.150 C 
ATOM     12  C   UNL     1       0.063 -13.523  27.062  1.00  0.00     0.174 C 
ATOM     13  O   UNL     1      -1.671 -15.157  27.600  1.00  0.00    -0.344 OA
ATOM     14  C   UNL     1       0.251 -14.165  25.677  1.00  0.00     0.179 C 
ATOM     15  C   UNL     1      -1.036 -14.887  25.251  1.00  0.00     0.202 C 
BRANCH  12  16
ATOM     16  O   UNL     1      -0.858 -12.464  26.968  1.00  0.00    -0.388 OA
ATOM     17  H   UNL     1      -1.114 -12.216  27.894  1.00  0.00     0.211 HD
ENDBRANCH  12  16
BRANCH  14  18
ATOM     18  O   UNL     1       0.575 -13.184  24.725  1.00  0.00    -0.387 OA
ATOM     19  H   UNL     1       0.903 -13.664  23.921  1.00  0.00     0.211 HD
ENDBRANCH  14  18
BRANCH  15  20
ATOM     20  O   UNL     1      -0.799 -15.599  24.065  1.00  0.00    -0.385 OA
ATOM     21  H   UNL     1      -1.678 -15.711  23.618  1.00  0.00     0.211 HD
ENDBRANCH  15  20
ENDBRANCH   8   9
ENDBRANCH   7   8
ENDBRANCH   1   7
BRANCH   2  22
ATOM     22  O   UNL     1       1.394 -17.508  24.770  1.00  0.00    -0.387 OA
ATOM     23  H   UNL     1       1.601 -17.483  25.740  1.00  0.00     0.211 HD
ENDBRANCH   2  22
BRANCH   3  24
ATOM     24  O   UNL     1       2.376 -19.505  22.938  1.00  0.00    -0.387 OA
ATOM     25  H   UNL     1       1.770 -18.868  22.478  1.00  0.00     0.211 HD
ENDBRANCH   3  24
BRANCH   5  26
ATOM     26  O   UNL     1       1.099 -21.573  26.569  1.00  0.00    -0.454 OA
BRANCH  26  27
ATOM     27  C   UNL     1       1.012 -22.662  27.444  1.00  0.00     0.214 A 
ATOM     28  C   UNL     1       0.235 -22.611  28.617  1.00  0.00     0.180 A 
ATOM     29  C   UNL     1       1.720 -23.832  27.148  1.00  0.00     0.239 A 
ATOM     30  O   UNL     1       0.144 -23.687  29.390  1.00  0.00    -0.452 OA
ATOM     31  C   UNL     1       1.575 -24.974  27.972  1.00  0.00     0.111 A 
ATOM     32  O   UNL     1       2.489 -23.829  26.151  1.00  0.00    -0.285 OA
ATOM     33  C   UNL     1       0.766 -24.830  29.129  1.00  0.00     0.146 A 
ATOM     34  C   UNL     1       2.200 -26.234  27.729  1.00  0.00     0.134 A 
ATOM     35  C   UNL     1       0.622 -25.889  30.031  1.00  0.00     0.094 A 
ATOM     36  C   UNL     1       2.068 -27.263  28.671  1.00  0.00     0.093 A 
ATOM     37  C   UNL     1       1.281 -27.096  29.813  1.00  0.00     0.123 A 
BRANCH  28  38
ATOM     38  C   UNL     1      -0.479 -21.386  29.044  1.00  0.00     0.025 A 
ATOM     39  C   UNL     1       0.158 -20.132  29.046  1.00  0.00     0.062 A 
ATOM     40  C   UNL     1      -1.805 -21.480  29.494  1.00  0.00     0.016 A 
ATOM     41  C   UNL     1      -0.532 -18.983  29.450  1.00  0.00     0.158 A 
ATOM     42  C   UNL     1      -2.495 -20.336  29.900  1.00  0.00     0.051 A 
ATOM     43  C   UNL     1      -1.867 -19.084  29.875  1.00  0.00     0.157 A 
BRANCH  41  44
ATOM     44  O   UNL     1       0.126 -17.754  29.423  1.00  0.00    -0.504 OA
ATOM     45  H   UNL     1       0.200 -17.202  28.578  1.00  0.00     0.293 HD
ENDBRANCH  41  44
BRANCH  43  46
ATOM     46  O   UNL     1      -2.561 -17.943  30.275  1.00  0.00    -0.504 OA
ATOM     47  H   UNL     1      -3.305 -17.550  29.711  1.00  0.00     0.293 HD
ENDBRANCH  43  46
ENDBRANCH  28  38
BRANCH  34  48
ATOM     48  O   UNL     1       2.931 -26.536  26.577  1.00  0.00    -0.507 OA
ATOM     49  H   UNL     1       2.528 -26.803  25.692  1.00  0.00     0.293 HD
ENDBRANCH  34  48
BRANCH  37  50
ATOM     50  O   UNL     1       1.141 -28.131  30.736  1.00  0.00    -0.508 OA
ATOM     51  H   UNL     1       0.660 -27.993  31.617  1.00  0.00     0.293 HD
ENDBRANCH  37  50
ENDBRANCH  26  27
ENDBRANCH   5  26
BRANCH   4  52
ATOM     52  O   UNL     1       0.401 -21.405  22.966  1.00  0.00    -0.384 OA
ATOM     53  H   UNL     1       0.796 -22.168  22.471  1.00  0.00     0.211 HD
ENDBRANCH   4  52
TORSDOF 16
ENDMDL
MODEL 9
REMARK VINA RESULT:    -7.590      3.319      9.972
REMARK INTER + INTRA:         -14.455
REMARK INTER:                 -11.947
REMARK INTRA:                  -2.508
REMARK UNBOUND:                -1.983
REMARK SMILES C[C@H]1O[C@H](OC[C@H]2O[C@H](Oc3c(-c4ccc(O)c(O)c4)oc4cc(O)cc(O)c4c3=O)[C@@H](O)[C@@H](O)[C@@H]2O)[C@H](O)[C@@H](O)[C@H]1O
REMARK SMILES IDX 7 1 36 2 34 3 32 4 9 5 8 6 6 7 5 8 4 9 1 10 2 11 42 12 3 13
REMARK SMILES IDX 40 14 38 15 43 16 41 18 39 20 37 22 35 24 10 26 11 27 12 28
REMARK SMILES IDX 30 29 21 30 29 31 31 32 22 33 27 34 23 35 26 36 24 37 13 38
REMARK SMILES IDX 20 39 14 40 18 41 15 42 16 43 19 44 17 46 28 48 25 50 33 52
REMARK H PARENT 43 17 41 19 39 21 37 23 35 25 19 45 17 47 28 49 25 51 33 53
REMARK Flexibility Score: inf
ROOT
ATOM      1  C   UNL     1      -0.715 -16.327  25.885  1.00  0.00     0.180 C 
ATOM      2  C   UNL     1       0.332 -15.961  24.804  1.00  0.00     0.177 C 
ATOM      3  C   UNL     1       0.533 -14.436  24.764  1.00  0.00     0.180 C 
ATOM      4  C   UNL     1       0.772 -13.868  26.178  1.00  0.00     0.214 C 
ATOM      5  C   UNL     1      -0.277 -14.411  27.173  1.00  0.00     0.339 C 
ATOM      6  O   UNL     1      -0.319 -15.829  27.154  1.00  0.00    -0.332 OA
ENDROOT
BRANCH   1   7
ATOM      7  C   UNL     1      -0.878 -17.847  26.009  1.00  0.00     0.198 C 
BRANCH   7   8
ATOM      8  O   UNL     1      -0.587 -18.256  27.329  1.00  0.00    -0.347 OA
BRANCH   8   9
ATOM      9  C   UNL     1      -1.679 -18.961  27.908  1.00  0.00     0.281 C 
ATOM     10  C   UNL     1      -0.114 -22.294  28.059  1.00  0.00     0.041 C 
ATOM     11  C   UNL     1      -0.325 -20.819  28.402  1.00  0.00     0.150 C 
ATOM     12  C   UNL     1      -0.424 -20.605  29.929  1.00  0.00     0.174 C 
ATOM     13  O   UNL     1      -1.501 -20.361  27.750  1.00  0.00    -0.344 OA
ATOM     14  C   UNL     1      -0.636 -19.109  30.212  1.00  0.00     0.179 C 
ATOM     15  C   UNL     1      -1.829 -18.582  29.399  1.00  0.00     0.202 C 
BRANCH  12  16
ATOM     16  O   UNL     1      -1.498 -21.341  30.461  1.00  0.00    -0.388 OA
ATOM     17  H   UNL     1      -2.269 -20.719  30.537  1.00  0.00     0.211 HD
ENDBRANCH  12  16
BRANCH  14  18
ATOM     18  O   UNL     1      -0.873 -18.900  31.580  1.00  0.00    -0.387 OA
ATOM     19  H   UNL     1      -0.105 -19.299  32.067  1.00  0.00     0.211 HD
ENDBRANCH  14  18
BRANCH  15  20
ATOM     20  O   UNL     1      -1.910 -17.189  29.543  1.00  0.00    -0.385 OA
ATOM     21  H   UNL     1      -1.067 -16.895  29.977  1.00  0.00     0.211 HD
ENDBRANCH  15  20
ENDBRANCH   8   9
ENDBRANCH   7   8
ENDBRANCH   1   7
BRANCH   2  22
ATOM     22  O   UNL     1      -0.111 -16.403  23.545  1.00  0.00    -0.387 OA
ATOM     23  H   UNL     1       0.270 -17.309  23.405  1.00  0.00     0.211 HD
ENDBRANCH   2  22
BRANCH   3  24
ATOM     24  O   UNL     1       1.614 -14.125  23.924  1.00  0.00    -0.387 OA
ATOM     25  H   UNL     1       1.952 -14.986  23.564  1.00  0.00     0.211 HD
ENDBRANCH   3  24
BRANCH   5  26
ATOM     26  O   UNL     1      -1.574 -13.866  26.902  1.00  0.00    -0.454 OA
BRANCH  26  27
ATOM     27  C   UNL     1      -2.334 -13.198  27.869  1.00  0.00     0.214 A 
ATOM     28  C   UNL     1      -2.097 -11.849  28.197  1.00  0.00     0.180 A 
ATOM     29  C   UNL     1      -3.354 -13.889  28.531  1.00  0.00     0.239 A 
ATOM     30  O   UNL     1      -2.877 -11.244  29.085  1.00  0.00    -0.452 OA
ATOM     31  C   UNL     1      -4.191 -13.208  29.447  1.00  0.00     0.111 A 
ATOM     32  O   UNL     1      -3.489 -15.120  28.301  1.00  0.00    -0.285 OA
ATOM     33  C   UNL     1      -3.880 -11.848  29.710  1.00  0.00     0.146 A 
ATOM     34  C   UNL     1      -5.297 -13.798  30.130  1.00  0.00     0.134 A 
ATOM     35  C   UNL     1      -4.616 -11.121  30.650  1.00  0.00     0.094 A 
ATOM     36  C   UNL     1      -5.990 -13.055  31.094  1.00  0.00     0.093 A 
ATOM     37  C   UNL     1      -5.658 -11.723  31.351  1.00  0.00     0.123 A 
BRANCH  28  38
ATOM     38  C   UNL     1      -0.987 -11.070  27.602  1.00  0.00     0.025 A 
ATOM     39  C   UNL     1      -1.120 -10.450  26.347  1.00  0.00     0.062 A 
ATOM     40  C   UNL     1       0.237 -10.981  28.283  1.00  0.00     0.016 A 
ATOM     41  C   UNL     1      -0.062  -9.715  25.799  1.00  0.00     0.158 A 
ATOM     42  C   UNL     1       1.296 -10.250  27.738  1.00  0.00     0.051 A 
ATOM     43  C   UNL     1       1.151  -9.610  26.500  1.00  0.00     0.157 A 
BRANCH  41  44
ATOM     44  O   UNL     1      -0.235  -9.099  24.560  1.00  0.00    -0.504 OA
ATOM     45  H   UNL     1      -0.301  -9.630  23.700  1.00  0.00     0.293 HD
ENDBRANCH  41  44
BRANCH  43  46
ATOM     46  O   UNL     1       2.208  -8.877  25.962  1.00  0.00    -0.504 OA
ATOM     47  H   UNL     1       2.046  -8.074  25.366  1.00  0.00     0.293 HD
ENDBRANCH  43  46
ENDBRANCH  28  38
BRANCH  34  48
ATOM     48  O   UNL     1      -5.770 -15.090  29.882  1.00  0.00    -0.507 OA
ATOM     49  H   UNL     1      -5.954 -15.471  28.967  1.00  0.00     0.293 HD
ENDBRANCH  34  48
BRANCH  37  50
ATOM     50  O   UNL     1      -6.363 -10.985  32.299  1.00  0.00    -0.508 OA
ATOM     51  H   UNL     1      -7.338 -10.743  32.164  1.00  0.00     0.293 HD
ENDBRANCH  37  50
ENDBRANCH  26  27
ENDBRANCH   5  26
BRANCH   4  52
ATOM     52  O   UNL     1       2.080 -14.137  26.626  1.00  0.00    -0.384 OA
ATOM     53  H   UNL     1       2.468 -14.841  26.045  1.00  0.00     0.211 HD
ENDBRANCH   4  52
TORSDOF 16
ENDMDL
