MODEL 1
REMARK VINA RESULT:    29.450      0.000      0.000
REMARK INTER + INTRA:          35.323
REMARK INTER:                  35.476
REMARK INTRA:                  -0.153
REMARK UNBOUND:                -0.153
REMARK SMILES O=c1c(O)c(-c2ccc(O)c(O)c2)oc2cc(O)cc(O)c12
REMARK SMILES IDX 5 1 3 2 2 3 1 4 22 5 20 6 19 7 17 8 16 9 15 10 14 11 6 12
REMARK SMILES IDX 7 13 8 14 9 15 13 16 11 17 10 18 12 20 4 22 21 24 18 26
REMARK H PARENT 10 19 12 21 4 23 21 25 18 27
REMARK Flexibility Score: inf
ROOT
ATOM      1  C   UNL     1      -2.078  -0.545   2.661  1.00  0.00     0.180 A 
ATOM      2  C   UNL     1      -2.985   0.087   3.535  1.00  0.00     0.208 A 
ATOM      3  C   UNL     1      -4.362  -0.069   3.314  1.00  0.00     0.238 A 
ATOM      4  O   UNL     1      -5.183   0.483   4.096  1.00  0.00    -0.285 OA
ATOM      5  C   UNL     1      -4.809  -0.834   2.215  1.00  0.00     0.111 A 
ATOM      6  C   UNL     1      -6.179  -1.036   1.921  1.00  0.00     0.134 A 
ATOM      7  C   UNL     1      -6.543  -1.803   0.804  1.00  0.00     0.093 A 
ATOM      8  C   UNL     1      -5.569  -2.368  -0.022  1.00  0.00     0.123 A 
ATOM      9  C   UNL     1      -4.213  -2.173   0.265  1.00  0.00     0.094 A 
ATOM     10  C   UNL     1      -3.829  -1.413   1.374  1.00  0.00     0.146 A 
ATOM     11  O   UNL     1      -2.537  -1.246   1.628  1.00  0.00    -0.452 OA
ENDROOT
BRANCH   1  12
ATOM     12  C   UNL     1      -0.612  -0.444   2.840  1.00  0.00     0.025 A 
ATOM     13  C   UNL     1       0.195   0.220   1.903  1.00  0.00     0.016 A 
ATOM     14  C   UNL     1       1.572   0.324   2.106  1.00  0.00     0.051 A 
ATOM     15  C   UNL     1       2.169  -0.218   3.250  1.00  0.00     0.157 A 
ATOM     16  C   UNL     1      -0.020  -0.970   3.999  1.00  0.00     0.062 A 
ATOM     17  C   UNL     1       1.361  -0.871   4.211  1.00  0.00     0.158 A 
BRANCH  15  18
ATOM     18  O   UNL     1       3.551  -0.085   3.391  1.00  0.00    -0.504 OA
ATOM     19  H   UNL     1       4.226  -0.665   2.914  1.00  0.00     0.293 HD
ENDBRANCH  15  18
BRANCH  17  20
ATOM     20  O   UNL     1       1.882  -1.429   5.381  1.00  0.00    -0.504 OA
ATOM     21  H   UNL     1       2.255  -0.887   6.147  1.00  0.00     0.293 HD
ENDBRANCH  17  20
ENDBRANCH   1  12
BRANCH   2  22
ATOM     22  O   UNL     1      -2.515   0.879   4.586  1.00  0.00    -0.502 OA
ATOM     23  H   UNL     1      -1.914   0.513   5.314  1.00  0.00     0.293 HD
ENDBRANCH   2  22
BRANCH   6  24
ATOM     24  O   UNL     1      -7.177  -0.483   2.725  1.00  0.00    -0.507 OA
ATOM     25  H   UNL     1      -8.057  -0.163   2.337  1.00  0.00     0.293 HD
ENDBRANCH   6  24
BRANCH   8  26
ATOM     26  O   UNL     1      -5.957  -3.125  -1.125  1.00  0.00    -0.508 OA
ATOM     27  H   UNL     1      -5.929  -4.138  -1.109  1.00  0.00     0.293 HD
ENDBRANCH   8  26
TORSDOF 6
ENDMDL
