MODEL 1
REMARK VINA RESULT:     0.927      0.000      0.000
REMARK INTER + INTRA:           0.828
REMARK INTER:                   1.469
REMARK INTRA:                  -0.641
REMARK UNBOUND:                -0.641
REMARK SMILES CCCCCCCCCCCC(=O)[O-]
REMARK SMILES IDX 7 1 8 2 9 3 10 4 11 5 12 6 13 7 14 8 6 9 5 10 4 11 3 12 2 13
REMARK SMILES IDX 1 14
REMARK H PARENT
REMARK Flexibility Score: inf
ROOT
ATOM      1  C   UNL     1     104.730 106.083 104.794  1.00  0.00     0.000 C 
ENDROOT
BRANCH   1   2
ATOM      2  C   UNL     1     104.600 106.912 106.083  1.00  0.00     0.000 C 
BRANCH   2   3
ATOM      3  C   UNL     1     104.352 106.036 107.325  1.00  0.00     0.000 C 
BRANCH   3   4
ATOM      4  C   UNL     1     104.613 104.541 107.060  1.00  0.00     0.006 C 
BRANCH   4   5
ATOM      5  C   UNL     1     103.341 103.686 106.943  1.00  0.00     0.053 C 
BRANCH   5   6
ATOM      6  C   UNL     1     103.505 102.345 107.589  1.00  0.00     0.041 C 
ATOM      7  O   UNL     1     103.268 102.201 108.818  1.00  0.00    -0.550 OA
ATOM      8  O   UNL     1     103.952 101.263 106.843  1.00  0.00    -0.550 OA
ENDBRANCH   5   6
ENDBRANCH   4   5
ENDBRANCH   3   4
ENDBRANCH   2   3
ENDBRANCH   1   2
BRANCH   1   9
ATOM      9  C   UNL     1     104.693 106.957 103.527  1.00  0.00     0.000 C 
BRANCH   9  10
ATOM     10  C   UNL     1     104.319 106.156 102.269  1.00  0.00    -0.000 C 
BRANCH  10  11
ATOM     11  C   UNL     1     104.660 104.663 102.390  1.00  0.00    -0.000 C 
BRANCH  11  12
ATOM     12  C   UNL     1     103.424 103.794 102.112  1.00  0.00    -0.000 C 
BRANCH  12  13
ATOM     13  C   UNL     1     103.317 102.595 103.067  1.00  0.00    -0.003 C 
ATOM     14  C   UNL     1     103.733 101.278 102.412  1.00  0.00     0.004 C 
ENDBRANCH  12  13
ENDBRANCH  11  12
ENDBRANCH  10  11
ENDBRANCH   9  10
ENDBRANCH   1   9
TORSDOF 10
ENDMDL
MODEL 2
REMARK VINA RESULT:     1.017      2.138      4.087
REMARK INTER + INTRA:           0.970
REMARK INTER:                   1.639
REMARK INTRA:                  -0.669
REMARK UNBOUND:                -0.641
REMARK SMILES CCCCCCCCCCCC(=O)[O-]
REMARK SMILES IDX 7 1 8 2 9 3 10 4 11 5 12 6 13 7 14 8 6 9 5 10 4 11 3 12 2 13
REMARK SMILES IDX 1 14
REMARK H PARENT
REMARK Flexibility Score: inf
ROOT
ATOM      1  C   UNL     1     103.369 102.298 104.830  1.00  0.00     0.000 C 
ENDROOT
BRANCH   1   2
ATOM      2  C   UNL     1     103.294 101.526 106.157  1.00  0.00     0.000 C 
BRANCH   2   3
ATOM      3  C   UNL     1     103.665 102.399 107.369  1.00  0.00     0.000 C 
BRANCH   3   4
ATOM      4  C   UNL     1     103.473 103.903 107.100  1.00  0.00     0.006 C 
BRANCH   4   5
ATOM      5  C   UNL     1     104.767 104.729 107.155  1.00  0.00     0.053 C 
BRANCH   5   6
ATOM      6  C   UNL     1     104.500 106.172 107.458  1.00  0.00     0.041 C 
ATOM      7  O   UNL     1     104.655 106.613 108.627  1.00  0.00    -0.550 OA
ATOM      8  O   UNL     1     104.049 107.020 106.455  1.00  0.00    -0.550 OA
ENDBRANCH   5   6
ENDBRANCH   4   5
ENDBRANCH   3   4
ENDBRANCH   2   3
ENDBRANCH   1   2
BRANCH   1   9
ATOM      9  C   UNL     1     103.340 101.366 103.605  1.00  0.00     0.000 C 
BRANCH   9  10
ATOM     10  C   UNL     1     103.714 102.093 102.302  1.00  0.00    -0.000 C 
BRANCH  10  11
ATOM     11  C   UNL     1     103.273 103.564 102.293  1.00  0.00    -0.000 C 
BRANCH  11  12
ATOM     12  C   UNL     1     104.440 104.485 101.907  1.00  0.00    -0.000 C 
BRANCH  12  13
ATOM     13  C   UNL     1     104.731 105.552 102.973  1.00  0.00    -0.003 C 
ATOM     14  C   UNL     1     104.319 106.956 102.532  1.00  0.00     0.004 C 
ENDBRANCH  12  13
ENDBRANCH  11  12
ENDBRANCH  10  11
ENDBRANCH   9  10
ENDBRANCH   1   9
TORSDOF 10
ENDMDL
MODEL 3
REMARK VINA RESULT:     1.059      2.627      5.990
REMARK INTER + INTRA:           1.037
REMARK INTER:                   1.565
REMARK INTRA:                  -0.528
REMARK UNBOUND:                -0.641
REMARK SMILES CCCCCCCCCCCC(=O)[O-]
REMARK SMILES IDX 7 1 8 2 9 3 10 4 11 5 12 6 13 7 14 8 6 9 5 10 4 11 3 12 2 13
REMARK SMILES IDX 1 14
REMARK H PARENT
REMARK Flexibility Score: inf
ROOT
ATOM      1  C   UNL     1     103.302 102.283 104.856  1.00  0.00     0.000 C 
ENDROOT
BRANCH   1   2
ATOM      2  C   UNL     1     103.310 101.403 103.595  1.00  0.00     0.000 C 
BRANCH   2   3
ATOM      3  C   UNL     1     103.771 102.171 102.343  1.00  0.00     0.000 C 
BRANCH   3   4
ATOM      4  C   UNL     1     103.311 103.641 102.343  1.00  0.00     0.006 C 
BRANCH   4   5
ATOM      5  C   UNL     1     104.371 104.638 101.849  1.00  0.00     0.053 C 
BRANCH   5   6
ATOM      6  C   UNL     1     104.427 105.867 102.704  1.00  0.00     0.041 C 
ATOM      7  O   UNL     1     104.723 105.776 103.924  1.00  0.00    -0.550 OA
ATOM      8  O   UNL     1     104.120 107.107 102.159  1.00  0.00    -0.550 OA
ENDBRANCH   5   6
ENDBRANCH   4   5
ENDBRANCH   3   4
ENDBRANCH   2   3
ENDBRANCH   1   2
BRANCH   1   9
ATOM      9  C   UNL     1     103.379 101.455 106.151  1.00  0.00     0.000 C 
BRANCH   9  10
ATOM     10  C   UNL     1     103.584 102.330 107.399  1.00  0.00    -0.000 C 
BRANCH  10  11
ATOM     11  C   UNL     1     103.424 103.829 107.108  1.00  0.00    -0.000 C 
BRANCH  11  12
ATOM     12  C   UNL     1     104.786 104.541 107.127  1.00  0.00    -0.000 C 
BRANCH  12  13
ATOM     13  C   UNL     1     104.744 105.879 107.879  1.00  0.00    -0.003 C 
ATOM     14  C   UNL     1     104.153 107.012 107.039  1.00  0.00     0.004 C 
ENDBRANCH  12  13
ENDBRANCH  11  12
ENDBRANCH  10  11
ENDBRANCH   9  10
ENDBRANCH   1   9
TORSDOF 10
ENDMDL
MODEL 4
REMARK VINA RESULT:     1.084      3.948      6.258
REMARK INTER + INTRA:           1.076
REMARK INTER:                   1.751
REMARK INTRA:                  -0.674
REMARK UNBOUND:                -0.641
REMARK SMILES CCCCCCCCCCCC(=O)[O-]
REMARK SMILES IDX 7 1 8 2 9 3 10 4 11 5 12 6 13 7 14 8 6 9 5 10 4 11 3 12 2 13
REMARK SMILES IDX 1 14
REMARK H PARENT
REMARK Flexibility Score: inf
ROOT
ATOM      1  C   UNL     1     103.270 102.239 100.113  1.00  0.00     0.000 C 
ENDROOT
BRANCH   1   2
ATOM      2  C   UNL     1     103.496 101.459 101.419  1.00  0.00     0.000 C 
BRANCH   2   3
ATOM      3  C   UNL     1     103.620 102.384 102.643  1.00  0.00     0.000 C 
BRANCH   3   4
ATOM      4  C   UNL     1     103.403 103.868 102.293  1.00  0.00     0.006 C 
BRANCH   4   5
ATOM      5  C   UNL     1     104.691 104.705 102.251  1.00  0.00     0.053 C 
BRANCH   5   6
ATOM      6  C   UNL     1     104.479 106.086 102.792  1.00  0.00     0.041 C 
ATOM      7  O   UNL     1     104.714 106.335 104.003  1.00  0.00    -0.550 OA
ATOM      8  O   UNL     1     103.992 107.089 101.964  1.00  0.00    -0.550 OA
ENDBRANCH   5   6
ENDBRANCH   4   5
ENDBRANCH   3   4
ENDBRANCH   2   3
ENDBRANCH   1   2
BRANCH   1   9
ATOM      9  C   UNL     1     103.441 101.356  98.863  1.00  0.00     0.000 C 
BRANCH   9  10
ATOM     10  C   UNL     1     103.551 102.179  97.569  1.00  0.00    -0.000 C 
BRANCH  10  11
ATOM     11  C   UNL     1     103.265 103.672  97.787  1.00  0.00    -0.000 C 
BRANCH  11  12
ATOM     12  C   UNL     1     104.453 104.531  97.328  1.00  0.00    -0.000 C 
BRANCH  12  13
ATOM     13  C   UNL     1     104.712 105.728  98.256  1.00  0.00    -0.003 C 
ATOM     14  C   UNL     1     104.298 107.061  97.632  1.00  0.00     0.004 C 
ENDBRANCH  12  13
ENDBRANCH  11  12
ENDBRANCH  10  11
ENDBRANCH   9  10
ENDBRANCH   1   9
TORSDOF 10
ENDMDL
MODEL 5
REMARK VINA RESULT:     1.098      3.342      4.723
REMARK INTER + INTRA:           1.099
REMARK INTER:                   1.703
REMARK INTRA:                  -0.604
REMARK UNBOUND:                -0.641
REMARK SMILES CCCCCCCCCCCC(=O)[O-]
REMARK SMILES IDX 7 1 8 2 9 3 10 4 11 5 12 6 13 7 14 8 6 9 5 10 4 11 3 12 2 13
REMARK SMILES IDX 1 14
REMARK H PARENT
REMARK Flexibility Score: inf
ROOT
ATOM      1  C   UNL     1     104.758 106.118 100.202  1.00  0.00     0.000 C 
ENDROOT
BRANCH   1   2
ATOM      2  C   UNL     1     104.430 106.901 101.484  1.00  0.00     0.000 C 
BRANCH   2   3
ATOM      3  C   UNL     1     104.376 105.998 102.729  1.00  0.00     0.000 C 
BRANCH   3   4
ATOM      4  C   UNL     1     104.657 104.519 102.403  1.00  0.00     0.006 C 
BRANCH   4   5
ATOM      5  C   UNL     1     103.396 103.667 102.186  1.00  0.00     0.053 C 
BRANCH   5   6
ATOM      6  C   UNL     1     103.561 102.275 102.716  1.00  0.00     0.041 C 
ATOM      7  O   UNL     1     103.352 102.033 103.934  1.00  0.00    -0.550 OA
ATOM      8  O   UNL     1     103.977 101.254 101.872  1.00  0.00    -0.550 OA
ENDBRANCH   5   6
ENDBRANCH   4   5
ENDBRANCH   3   4
ENDBRANCH   2   3
ENDBRANCH   1   2
BRANCH   1   9
ATOM      9  C   UNL     1     104.750 107.012  98.948  1.00  0.00     0.000 C 
BRANCH   9  10
ATOM     10  C   UNL     1     104.375 106.238  97.674  1.00  0.00    -0.000 C 
BRANCH  10  11
ATOM     11  C   UNL     1     104.751 104.751  97.748  1.00  0.00    -0.000 C 
BRANCH  11  12
ATOM     12  C   UNL     1     103.594 103.867  97.258  1.00  0.00    -0.000 C 
BRANCH  12  13
ATOM     13  C   UNL     1     103.237 102.753  98.254  1.00  0.00    -0.003 C 
ATOM     14  C   UNL     1     103.625 101.362  97.750  1.00  0.00     0.004 C 
ENDBRANCH  12  13
ENDBRANCH  11  12
ENDBRANCH  10  11
ENDBRANCH   9  10
ENDBRANCH   1   9
TORSDOF 10
ENDMDL
MODEL 6
REMARK VINA RESULT:     1.174      1.567      4.514
REMARK INTER + INTRA:           1.219
REMARK INTER:                   1.666
REMARK INTRA:                  -0.447
REMARK UNBOUND:                -0.641
REMARK SMILES CCCCCCCCCCCC(=O)[O-]
REMARK SMILES IDX 7 1 8 2 9 3 10 4 11 5 12 6 13 7 14 8 6 9 5 10 4 11 3 12 2 13
REMARK SMILES IDX 1 14
REMARK H PARENT
REMARK Flexibility Score: inf
ROOT
ATOM      1  C   UNL     1     104.711 106.096 104.778  1.00  0.00     0.000 C 
ENDROOT
BRANCH   1   2
ATOM      2  C   UNL     1     104.643 106.913 103.477  1.00  0.00     0.000 C 
BRANCH   2   3
ATOM      3  C   UNL     1     104.322 106.040 102.250  1.00  0.00     0.000 C 
BRANCH   3   4
ATOM      4  C   UNL     1     104.676 104.557 102.466  1.00  0.00     0.006 C 
BRANCH   4   5
ATOM      5  C   UNL     1     103.660 103.569 101.871  1.00  0.00     0.053 C 
BRANCH   5   6
ATOM      6  C   UNL     1     103.574 102.304 102.670  1.00  0.00     0.041 C 
ATOM      7  O   UNL     1     103.699 101.187 102.103  1.00  0.00    -0.550 OA
ATOM      8  O   UNL     1     103.322 102.360 104.034  1.00  0.00    -0.550 OA
ENDBRANCH   5   6
ENDBRANCH   4   5
ENDBRANCH   3   4
ENDBRANCH   2   3
ENDBRANCH   1   2
BRANCH   1   9
ATOM      9  C   UNL     1     104.640 106.984 106.034  1.00  0.00     0.000 C 
BRANCH   9  10
ATOM     10  C   UNL     1     104.348 106.179 107.311  1.00  0.00    -0.000 C 
BRANCH  10  11
ATOM     11  C   UNL     1     104.632 104.679 107.147  1.00  0.00    -0.000 C 
BRANCH  11  12
ATOM     12  C   UNL     1     103.325 103.872 107.116  1.00  0.00    -0.000 C 
BRANCH  12  13
ATOM     13  C   UNL     1     103.398 102.594 107.964  1.00  0.00    -0.003 C 
ATOM     14  C   UNL     1     103.751 101.356 107.139  1.00  0.00     0.004 C 
ENDBRANCH  12  13
ENDBRANCH  11  12
ENDBRANCH  10  11
ENDBRANCH   9  10
ENDBRANCH   1   9
TORSDOF 10
ENDMDL
MODEL 7
REMARK VINA RESULT:     1.183      4.274      6.712
REMARK INTER + INTRA:           1.233
REMARK INTER:                   1.813
REMARK INTRA:                  -0.579
REMARK UNBOUND:                -0.641
REMARK SMILES CCCCCCCCCCCC(=O)[O-]
REMARK SMILES IDX 7 1 8 2 9 3 10 4 11 5 12 6 13 7 14 8 6 9 5 10 4 11 3 12 2 13
REMARK SMILES IDX 1 14
REMARK H PARENT
REMARK Flexibility Score: inf
ROOT
ATOM      1  C   UNL     1     104.731 106.048 100.111  1.00  0.00     0.000 C 
ENDROOT
BRANCH   1   2
ATOM      2  C   UNL     1     104.656 106.957  98.873  1.00  0.00     0.000 C 
BRANCH   2   3
ATOM      3  C   UNL     1     104.268 106.186  97.599  1.00  0.00     0.000 C 
BRANCH   3   4
ATOM      4  C   UNL     1     104.627 104.691  97.676  1.00  0.00     0.006 C 
BRANCH   4   5
ATOM      5  C   UNL     1     103.489 103.743  97.265  1.00  0.00     0.053 C 
BRANCH   5   6
ATOM      6  C   UNL     1     103.562 102.432  97.986  1.00  0.00     0.041 C 
ATOM      7  O   UNL     1     103.239 102.358  99.200  1.00  0.00    -0.550 OA
ATOM      8  O   UNL     1     104.020 101.300  97.325  1.00  0.00    -0.550 OA
ENDBRANCH   5   6
ENDBRANCH   4   5
ENDBRANCH   3   4
ENDBRANCH   2   3
ENDBRANCH   1   2
BRANCH   1   9
ATOM      9  C   UNL     1     104.496 106.820 101.423  1.00  0.00     0.000 C 
BRANCH   9  10
ATOM     10  C   UNL     1     104.450 105.896 102.651  1.00  0.00    -0.000 C 
BRANCH  10  11
ATOM     11  C   UNL     1     104.516 104.407 102.278  1.00  0.00    -0.000 C 
BRANCH  11  12
ATOM     12  C   UNL     1     103.134 103.748 102.406  1.00  0.00    -0.000 C 
BRANCH  12  13
ATOM     13  C   UNL     1     103.190 102.390 103.121  1.00  0.00    -0.003 C 
ATOM     14  C   UNL     1     103.932 101.325 102.313  1.00  0.00     0.004 C 
ENDBRANCH  12  13
ENDBRANCH  11  12
ENDBRANCH  10  11
ENDBRANCH   9  10
ENDBRANCH   1   9
TORSDOF 10
ENDMDL
MODEL 8
REMARK VINA RESULT:     1.187      3.496      7.439
REMARK INTER + INTRA:           1.239
REMARK INTER:                   1.836
REMARK INTRA:                  -0.597
REMARK UNBOUND:                -0.641
REMARK SMILES CCCCCCCCCCCC(=O)[O-]
REMARK SMILES IDX 7 1 8 2 9 3 10 4 11 5 12 6 13 7 14 8 6 9 5 10 4 11 3 12 2 13
REMARK SMILES IDX 1 14
REMARK H PARENT
REMARK Flexibility Score: inf
ROOT
ATOM      1  C   UNL     1     103.301 102.051 109.544  1.00  0.00     0.000 C 
ENDROOT
BRANCH   1   2
ATOM      2  C   UNL     1     103.308 101.273 108.217  1.00  0.00     0.000 C 
BRANCH   2   3
ATOM      3  C   UNL     1     103.564 102.183 107.002  1.00  0.00     0.000 C 
BRANCH   3   4
ATOM      4  C   UNL     1     103.111 103.636 107.241  1.00  0.00     0.006 C 
BRANCH   4   5
ATOM      5  C   UNL     1     103.821 104.675 106.360  1.00  0.00     0.053 C 
BRANCH   5   6
ATOM      6  C   UNL     1     104.745 105.547 107.154  1.00  0.00     0.041 C 
ATOM      7  O   UNL     1     105.891 105.134 107.470  1.00  0.00    -0.550 OA
ATOM      8  O   UNL     1     104.326 106.803 107.573  1.00  0.00    -0.550 OA
ENDBRANCH   5   6
ENDBRANCH   4   5
ENDBRANCH   3   4
ENDBRANCH   2   3
ENDBRANCH   1   2
BRANCH   1   9
ATOM      9  C   UNL     1     103.314 101.120 110.771  1.00  0.00     0.000 C 
BRANCH   9  10
ATOM     10  C   UNL     1     103.643 101.866 112.074  1.00  0.00    -0.000 C 
BRANCH  10  11
ATOM     11  C   UNL     1     103.174 103.329 112.057  1.00  0.00    -0.000 C 
BRANCH  11  12
ATOM     12  C   UNL     1     104.347 104.285 112.320  1.00  0.00    -0.000 C 
BRANCH  12  13
ATOM     13  C   UNL     1     104.277 105.558 111.464  1.00  0.00    -0.003 C 
ATOM     14  C   UNL     1     104.572 106.827 112.264  1.00  0.00     0.004 C 
ENDBRANCH  12  13
ENDBRANCH  11  12
ENDBRANCH  10  11
ENDBRANCH   9  10
ENDBRANCH   1   9
TORSDOF 10
ENDMDL
MODEL 9
REMARK VINA RESULT:     1.241      3.055      6.281
REMARK INTER + INTRA:           1.326
REMARK INTER:                   1.533
REMARK INTRA:                  -0.207
REMARK UNBOUND:                -0.641
REMARK SMILES CCCCCCCCCCCC(=O)[O-]
REMARK SMILES IDX 7 1 8 2 9 3 10 4 11 5 12 6 13 7 14 8 6 9 5 10 4 11 3 12 2 13
REMARK SMILES IDX 1 14
REMARK H PARENT
REMARK Flexibility Score: inf
ROOT
ATOM      1  C   UNL     1     104.696 106.109 109.576  1.00  0.00     0.000 C 
ENDROOT
BRANCH   1   2
ATOM      2  C   UNL     1     104.741 106.904 108.260  1.00  0.00     0.000 C 
BRANCH   2   3
ATOM      3  C   UNL     1     104.257 106.077 107.055  1.00  0.00     0.000 C 
BRANCH   3   4
ATOM      4  C   UNL     1     104.599 104.580 107.186  1.00  0.00     0.006 C 
BRANCH   4   5
ATOM      5  C   UNL     1     103.477 103.632 106.736  1.00  0.00     0.053 C 
BRANCH   5   6
ATOM      6  C   UNL     1     103.568 102.296 107.408  1.00  0.00     0.041 C 
ATOM      7  O   UNL     1     103.931 101.282 106.755  1.00  0.00    -0.550 OA
ATOM      8  O   UNL     1     103.221 102.166 108.746  1.00  0.00    -0.550 OA
ENDBRANCH   5   6
ENDBRANCH   4   5
ENDBRANCH   3   4
ENDBRANCH   2   3
ENDBRANCH   1   2
BRANCH   1   9
ATOM      9  C   UNL     1     104.624 107.023 110.813  1.00  0.00     0.000 C 
BRANCH   9  10
ATOM     10  C   UNL     1     104.369 106.240 112.111  1.00  0.00    -0.000 C 
BRANCH  10  11
ATOM     11  C   UNL     1     104.765 104.760 112.001  1.00  0.00    -0.000 C 
BRANCH  11  12
ATOM     12  C   UNL     1     103.566 103.902 111.569  1.00  0.00    -0.000 C 
BRANCH  12  13
ATOM     13  C   UNL     1     103.264 102.766 112.557  1.00  0.00    -0.003 C 
ATOM     14  C   UNL     1     103.640 101.389 112.008  1.00  0.00     0.004 C 
ENDBRANCH  12  13
ENDBRANCH  11  12
ENDBRANCH  10  11
ENDBRANCH   9  10
ENDBRANCH   1   9
TORSDOF 10
ENDMDL
