MODEL 1
REMARK VINA RESULT:     0.028      0.000      0.000
REMARK INTER + INTRA:          -0.841
REMARK INTER:                   0.072
REMARK INTRA:                  -0.913
REMARK UNBOUND:                -0.913
REMARK SMILES CCCCCCCCCCCCCCCCCCCCCCCCCCCC(=O)[O-]
REMARK SMILES IDX 15 1 16 2 17 3 18 4 19 5 20 6 21 7 22 8 23 9 24 10 25 11
REMARK SMILES IDX 26 12 27 13 28 14 29 15 30 16 14 17 13 18 12 19 11 20 10 21
REMARK SMILES IDX 9 22 8 23 7 24 6 25 5 26 4 27 3 28 2 29 1 30
REMARK H PARENT
REMARK Flexibility Score: inf
ROOT
ATOM      1  C   UNL     1      -5.936 -51.427   3.938  1.00  0.00     0.000 C 
ENDROOT
BRANCH   1   2
ATOM      2  C   UNL     1      -6.970 -50.861   4.930  1.00  0.00     0.000 C 
BRANCH   2   3
ATOM      3  C   UNL     1      -7.934 -51.893   5.547  1.00  0.00     0.000 C 
BRANCH   3   4
ATOM      4  C   UNL     1      -8.146 -51.729   7.068  1.00  0.00     0.000 C 
BRANCH   4   5
ATOM      5  C   UNL     1      -6.836 -51.439   7.821  1.00  0.00     0.000 C 
BRANCH   5   6
ATOM      6  C   UNL     1      -7.069 -51.048   9.292  1.00  0.00     0.000 C 
BRANCH   6   7
ATOM      7  C   UNL     1      -5.788 -50.769  10.101  1.00  0.00     0.000 C 
BRANCH   7   8
ATOM      8  C   UNL     1      -4.803 -51.953  10.085  1.00  0.00     0.000 C 
BRANCH   8   9
ATOM      9  C   UNL     1      -3.334 -51.503  10.116  1.00  0.00     0.000 C 
BRANCH   9  10
ATOM     10  C   UNL     1      -2.515 -52.074   8.949  1.00  0.00     0.000 C 
BRANCH  10  11
ATOM     11  C   UNL     1      -2.028 -50.956   8.018  1.00  0.00     0.000 C 
BRANCH  11  12
ATOM     12  C   UNL     1      -1.408 -51.536   6.739  1.00  0.00     0.006 C 
BRANCH  12  13
ATOM     13  C   UNL     1      -0.711 -50.463   5.892  1.00  0.00     0.053 C 
BRANCH  13  14
ATOM     14  C   UNL     1      -0.422 -50.949   4.504  1.00  0.00     0.041 C 
ATOM     15  O   UNL     1      -0.728 -52.123   4.168  1.00  0.00    -0.550 OA
ATOM     16  O   UNL     1       0.210 -50.114   3.591  1.00  0.00    -0.550 OA
ENDBRANCH  13  14
ENDBRANCH  12  13
ENDBRANCH  11  12
ENDBRANCH  10  11
ENDBRANCH   9  10
ENDBRANCH   8   9
ENDBRANCH   7   8
ENDBRANCH   6   7
ENDBRANCH   5   6
ENDBRANCH   4   5
ENDBRANCH   3   4
ENDBRANCH   2   3
ENDBRANCH   1   2
BRANCH   1  17
ATOM     17  C   UNL     1      -4.702 -52.087   4.581  1.00  0.00     0.000 C 
BRANCH  17  18
ATOM     18  C   UNL     1      -3.402 -51.813   3.810  1.00  0.00     0.000 C 
BRANCH  18  19
ATOM     19  C   UNL     1      -3.586 -50.644   2.830  1.00  0.00     0.000 C 
BRANCH  19  20
ATOM     20  C   UNL     1      -2.538 -50.632   1.707  1.00  0.00     0.000 C 
BRANCH  20  21
ATOM     21  C   UNL     1      -2.447 -51.975   0.962  1.00  0.00     0.000 C 
BRANCH  21  22
ATOM     22  C   UNL     1      -2.985 -51.885  -0.476  1.00  0.00    -0.000 C 
BRANCH  22  23
ATOM     23  C   UNL     1      -4.518 -51.962  -0.534  1.00  0.00    -0.000 C 
BRANCH  23  24
ATOM     24  C   UNL     1      -5.108 -50.706  -1.186  1.00  0.00    -0.000 C 
BRANCH  24  25
ATOM     25  C   UNL     1      -6.642 -50.732  -1.139  1.00  0.00    -0.000 C 
BRANCH  25  26
ATOM     26  C   UNL     1      -7.192 -52.104  -0.689  1.00  0.00    -0.000 C 
BRANCH  26  27
ATOM     27  C   UNL     1      -7.897 -52.071   0.681  1.00  0.00    -0.000 C 
BRANCH  27  28
ATOM     28  C   UNL     1      -7.944 -50.689   1.354  1.00  0.00    -0.000 C 
BRANCH  28  29
ATOM     29  C   UNL     1      -9.122 -50.543   2.329  1.00  0.00    -0.003 C 
ATOM     30  C   UNL     1      -8.827 -49.483   3.386  1.00  0.00     0.004 C 
ENDBRANCH  28  29
ENDBRANCH  27  28
ENDBRANCH  26  27
ENDBRANCH  25  26
ENDBRANCH  24  25
ENDBRANCH  23  24
ENDBRANCH  22  23
ENDBRANCH  21  22
ENDBRANCH  20  21
ENDBRANCH  19  20
ENDBRANCH  18  19
ENDBRANCH  17  18
ENDBRANCH   1  17
TORSDOF 26
ENDMDL
MODEL 2
REMARK VINA RESULT:     1.170      2.127      8.356
REMARK INTER + INTRA:           2.036
REMARK INTER:                   1.006
REMARK INTRA:                   1.030
REMARK UNBOUND:                -0.913
REMARK SMILES CCCCCCCCCCCCCCCCCCCCCCCCCCCC(=O)[O-]
REMARK SMILES IDX 15 1 16 2 17 3 18 4 19 5 20 6 21 7 22 8 23 9 24 10 25 11
REMARK SMILES IDX 26 12 27 13 28 14 29 15 30 16 14 17 13 18 12 19 11 20 10 21
REMARK SMILES IDX 9 22 8 23 7 24 6 25 5 26 4 27 3 28 2 29 1 30
REMARK H PARENT
REMARK Flexibility Score: inf
ROOT
ATOM      1  C   UNL     1      -3.243 -50.534   2.906  1.00  0.00     0.000 C 
ENDROOT
BRANCH   1   2
ATOM      2  C   UNL     1      -2.414 -50.593   1.609  1.00  0.00     0.000 C 
BRANCH   2   3
ATOM      3  C   UNL     1      -1.365 -51.720   1.541  1.00  0.00     0.000 C 
BRANCH   3   4
ATOM      4  C   UNL     1      -0.934 -52.095   0.106  1.00  0.00     0.000 C 
BRANCH   4   5
ATOM      5  C   UNL     1      -1.312 -51.019  -0.927  1.00  0.00     0.000 C 
BRANCH   5   6
ATOM      6  C   UNL     1      -2.627 -51.336  -1.663  1.00  0.00     0.000 C 
BRANCH   6   7
ATOM      7  C   UNL     1      -3.674 -52.094  -0.826  1.00  0.00     0.000 C 
BRANCH   7   8
ATOM      8  C   UNL     1      -4.689 -51.154  -0.149  1.00  0.00     0.000 C 
BRANCH   8   9
ATOM      9  C   UNL     1      -6.026 -51.080  -0.905  1.00  0.00     0.000 C 
BRANCH   9  10
ATOM     10  C   UNL     1      -7.222 -51.491  -0.034  1.00  0.00     0.000 C 
BRANCH  10  11
ATOM     11  C   UNL     1      -6.883 -51.376   1.457  1.00  0.00     0.000 C 
BRANCH  11  12
ATOM     12  C   UNL     1      -8.146 -51.509   2.320  1.00  0.00     0.006 C 
BRANCH  12  13
ATOM     13  C   UNL     1      -8.093 -50.621   3.570  1.00  0.00     0.053 C 
BRANCH  13  14
ATOM     14  C   UNL     1      -7.479 -51.336   4.736  1.00  0.00     0.041 C 
ATOM     15  O   UNL     1      -8.208 -51.780   5.662  1.00  0.00    -0.550 OA
ATOM     16  O   UNL     1      -6.100 -51.487   4.813  1.00  0.00    -0.550 OA
ENDBRANCH  13  14
ENDBRANCH  12  13
ENDBRANCH  11  12
ENDBRANCH  10  11
ENDBRANCH   9  10
ENDBRANCH   8   9
ENDBRANCH   7   8
ENDBRANCH   6   7
ENDBRANCH   5   6
ENDBRANCH   4   5
ENDBRANCH   3   4
ENDBRANCH   2   3
ENDBRANCH   1   2
BRANCH   1  17
ATOM     17  C   UNL     1      -2.544 -51.098   4.157  1.00  0.00     0.000 C 
BRANCH  17  18
ATOM     18  C   UNL     1      -1.225 -50.382   4.485  1.00  0.00     0.000 C 
BRANCH  18  19
ATOM     19  C   UNL     1      -0.656 -50.874   5.825  1.00  0.00     0.000 C 
BRANCH  19  20
ATOM     20  C   UNL     1      -1.461 -52.034   6.428  1.00  0.00     0.000 C 
BRANCH  20  21
ATOM     21  C   UNL     1      -2.980 -51.861   6.253  1.00  0.00     0.000 C 
BRANCH  21  22
ATOM     22  C   UNL     1      -3.739 -51.966   7.586  1.00  0.00    -0.000 C 
BRANCH  22  23
ATOM     23  C   UNL     1      -2.794 -52.090   8.790  1.00  0.00    -0.000 C 
BRANCH  23  24
ATOM     24  C   UNL     1      -3.261 -51.201   9.950  1.00  0.00    -0.000 C 
BRANCH  24  25
ATOM     25  C   UNL     1      -4.705 -50.726   9.731  1.00  0.00    -0.000 C 
BRANCH  25  26
ATOM     26  C   UNL     1      -5.737 -51.842  10.002  1.00  0.00    -0.000 C 
BRANCH  26  27
ATOM     27  C   UNL     1      -7.082 -51.633   9.280  1.00  0.00    -0.000 C 
BRANCH  27  28
ATOM     28  C   UNL     1      -7.446 -50.166   8.998  1.00  0.00    -0.000 C 
BRANCH  28  29
ATOM     29  C   UNL     1      -8.565 -49.644   9.912  1.00  0.00    -0.003 C 
ATOM     30  C   UNL     1      -8.756 -48.140   9.739  1.00  0.00     0.004 C 
ENDBRANCH  28  29
ENDBRANCH  27  28
ENDBRANCH  26  27
ENDBRANCH  25  26
ENDBRANCH  24  25
ENDBRANCH  23  24
ENDBRANCH  22  23
ENDBRANCH  21  22
ENDBRANCH  20  21
ENDBRANCH  19  20
ENDBRANCH  18  19
ENDBRANCH  17  18
ENDBRANCH   1  17
TORSDOF 26
ENDMDL
MODEL 3
REMARK VINA RESULT:     1.625      2.421      7.532
REMARK INTER + INTRA:           3.182
REMARK INTER:                   5.369
REMARK INTRA:                  -2.186
REMARK UNBOUND:                -0.913
REMARK SMILES CCCCCCCCCCCCCCCCCCCCCCCCCCCC(=O)[O-]
REMARK SMILES IDX 15 1 16 2 17 3 18 4 19 5 20 6 21 7 22 8 23 9 24 10 25 11
REMARK SMILES IDX 26 12 27 13 28 14 29 15 30 16 14 17 13 18 12 19 11 20 10 21
REMARK SMILES IDX 9 22 8 23 7 24 6 25 5 26 4 27 3 28 2 29 1 30
REMARK H PARENT
REMARK Flexibility Score: inf
ROOT
ATOM      1  C   UNL     1      -0.795 -49.840   1.424  1.00  0.00     0.000 C 
ENDROOT
BRANCH   1   2
ATOM      2  C   UNL     1      -2.313 -50.094   1.369  1.00  0.00     0.000 C 
BRANCH   2   3
ATOM      3  C   UNL     1      -2.752 -51.329   0.559  1.00  0.00     0.000 C 
BRANCH   3   4
ATOM      4  C   UNL     1      -3.915 -52.121   1.196  1.00  0.00     0.000 C 
BRANCH   4   5
ATOM      5  C   UNL     1      -4.687 -51.299   2.244  1.00  0.00     0.000 C 
BRANCH   5   6
ATOM      6  C   UNL     1      -5.056 -52.122   3.492  1.00  0.00     0.000 C 
BRANCH   6   7
ATOM      7  C   UNL     1      -5.457 -51.289   4.725  1.00  0.00     0.000 C 
BRANCH   7   8
ATOM      8  C   UNL     1      -6.655 -50.361   4.453  1.00  0.00     0.000 C 
BRANCH   8   9
ATOM      9  C   UNL     1      -8.005 -51.088   4.559  1.00  0.00     0.000 C 
BRANCH   9  10
ATOM     10  C   UNL     1      -9.043 -50.561   3.557  1.00  0.00     0.000 C 
BRANCH  10  11
ATOM     11  C   UNL     1      -9.037 -51.395   2.269  1.00  0.00     0.000 C 
BRANCH  11  12
ATOM     12  C   UNL     1      -7.897 -50.958   1.338  1.00  0.00     0.006 C 
BRANCH  12  13
ATOM     13  C   UNL     1      -7.460 -52.081   0.387  1.00  0.00     0.053 C 
BRANCH  13  14
ATOM     14  C   UNL     1      -6.773 -51.544  -0.832  1.00  0.00     0.041 C 
ATOM     15  O   UNL     1      -7.166 -51.880  -1.980  1.00  0.00    -0.550 OA
ATOM     16  O   UNL     1      -5.681 -50.695  -0.699  1.00  0.00    -0.550 OA
ENDBRANCH  13  14
ENDBRANCH  12  13
ENDBRANCH  11  12
ENDBRANCH  10  11
ENDBRANCH   9  10
ENDBRANCH   8   9
ENDBRANCH   7   8
ENDBRANCH   6   7
ENDBRANCH   5   6
ENDBRANCH   4   5
ENDBRANCH   3   4
ENDBRANCH   2   3
ENDBRANCH   1   2
BRANCH   1  17
ATOM     17  C   UNL     1      -0.156 -49.978   2.819  1.00  0.00     0.000 C 
BRANCH  17  18
ATOM     18  C   UNL     1      -1.136 -50.502   3.880  1.00  0.00     0.000 C 
BRANCH  18  19
ATOM     19  C   UNL     1      -0.549 -51.721   4.609  1.00  0.00     0.000 C 
BRANCH  19  20
ATOM     20  C   UNL     1      -0.563 -51.569   6.137  1.00  0.00     0.000 C 
BRANCH  20  21
ATOM     21  C   UNL     1      -1.877 -52.053   6.774  1.00  0.00     0.000 C 
BRANCH  21  22
ATOM     22  C   UNL     1      -2.122 -51.433   8.159  1.00  0.00    -0.000 C 
BRANCH  22  23
ATOM     23  C   UNL     1      -3.613 -51.194   8.438  1.00  0.00    -0.000 C 
BRANCH  23  24
ATOM     24  C   UNL     1      -4.048 -51.889   9.734  1.00  0.00    -0.000 C 
BRANCH  24  25
ATOM     25  C   UNL     1      -5.568 -51.789   9.927  1.00  0.00    -0.000 C 
BRANCH  25  26
ATOM     26  C   UNL     1      -6.323 -51.674   8.585  1.00  0.00    -0.000 C 
BRANCH  26  27
ATOM     27  C   UNL     1      -7.857 -51.670   8.734  1.00  0.00    -0.000 C 
BRANCH  27  28
ATOM     28  C   UNL     1      -8.397 -50.772   9.859  1.00  0.00    -0.000 C 
BRANCH  28  29
ATOM     29  C   UNL     1      -9.041 -49.480   9.332  1.00  0.00    -0.003 C 
ATOM     30  C   UNL     1      -8.072 -48.305   9.436  1.00  0.00     0.004 C 
ENDBRANCH  28  29
ENDBRANCH  27  28
ENDBRANCH  26  27
ENDBRANCH  25  26
ENDBRANCH  24  25
ENDBRANCH  23  24
ENDBRANCH  22  23
ENDBRANCH  21  22
ENDBRANCH  20  21
ENDBRANCH  19  20
ENDBRANCH  18  19
ENDBRANCH  17  18
ENDBRANCH   1  17
TORSDOF 26
ENDMDL
MODEL 4
REMARK VINA RESULT:     2.895      1.338      2.449
REMARK INTER + INTRA:           6.382
REMARK INTER:                   4.591
REMARK INTRA:                   1.790
REMARK UNBOUND:                -0.913
REMARK SMILES CCCCCCCCCCCCCCCCCCCCCCCCCCCC(=O)[O-]
REMARK SMILES IDX 15 1 16 2 17 3 18 4 19 5 20 6 21 7 22 8 23 9 24 10 25 11
REMARK SMILES IDX 26 12 27 13 28 14 29 15 30 16 14 17 13 18 12 19 11 20 10 21
REMARK SMILES IDX 9 22 8 23 7 24 6 25 5 26 4 27 3 28 2 29 1 30
REMARK H PARENT
REMARK Flexibility Score: inf
ROOT
ATOM      1  C   UNL     1      -5.148 -50.433   2.364  1.00  0.00     0.000 C 
ENDROOT
BRANCH   1   2
ATOM      2  C   UNL     1      -6.258 -51.499   2.433  1.00  0.00     0.000 C 
BRANCH   2   3
ATOM      3  C   UNL     1      -6.514 -52.103   3.827  1.00  0.00     0.000 C 
BRANCH   3   4
ATOM      4  C   UNL     1      -8.001 -52.120   4.244  1.00  0.00     0.000 C 
BRANCH   4   5
ATOM      5  C   UNL     1      -8.195 -51.905   5.756  1.00  0.00     0.000 C 
BRANCH   5   6
ATOM      6  C   UNL     1      -7.397 -50.703   6.293  1.00  0.00     0.000 C 
BRANCH   6   7
ATOM      7  C   UNL     1      -7.602 -50.403   7.790  1.00  0.00     0.000 C 
BRANCH   7   8
ATOM      8  C   UNL     1      -7.540 -51.669   8.665  1.00  0.00     0.000 C 
BRANCH   8   9
ATOM      9  C   UNL     1      -6.852 -51.423  10.017  1.00  0.00     0.000 C 
BRANCH   9  10
ATOM     10  C   UNL     1      -5.490 -52.124  10.125  1.00  0.00     0.000 C 
BRANCH  10  11
ATOM     11  C   UNL     1      -4.346 -51.161   9.781  1.00  0.00     0.000 C 
BRANCH  11  12
ATOM     12  C   UNL     1      -3.942 -51.293   8.305  1.00  0.00     0.006 C 
BRANCH  12  13
ATOM     13  C   UNL     1      -2.425 -51.442   8.129  1.00  0.00     0.053 C 
BRANCH  13  14
ATOM     14  C   UNL     1      -2.029 -51.436   6.684  1.00  0.00     0.041 C 
ATOM     15  O   UNL     1      -2.825 -51.862   5.807  1.00  0.00    -0.550 OA
ATOM     16  O   UNL     1      -0.769 -50.985   6.309  1.00  0.00    -0.550 OA
ENDBRANCH  13  14
ENDBRANCH  12  13
ENDBRANCH  11  12
ENDBRANCH  10  11
ENDBRANCH   9  10
ENDBRANCH   8   9
ENDBRANCH   7   8
ENDBRANCH   6   7
ENDBRANCH   5   6
ENDBRANCH   4   5
ENDBRANCH   3   4
ENDBRANCH   2   3
ENDBRANCH   1   2
BRANCH   1  17
ATOM     17  C   UNL     1      -3.876 -50.758   3.170  1.00  0.00     0.000 C 
BRANCH  17  18
ATOM     18  C   UNL     1      -3.263 -52.118   2.805  1.00  0.00     0.000 C 
BRANCH  18  19
ATOM     19  C   UNL     1      -1.735 -52.015   2.691  1.00  0.00     0.000 C 
BRANCH  19  20
ATOM     20  C   UNL     1      -1.244 -50.573   2.493  1.00  0.00     0.000 C 
BRANCH  20  21
ATOM     21  C   UNL     1      -0.969 -50.233   1.018  1.00  0.00     0.000 C 
BRANCH  21  22
ATOM     22  C   UNL     1      -1.005 -51.476   0.113  1.00  0.00    -0.000 C 
BRANCH  22  23
ATOM     23  C   UNL     1      -2.437 -51.961  -0.159  1.00  0.00    -0.000 C 
BRANCH  23  24
ATOM     24  C   UNL     1      -3.335 -50.801  -0.607  1.00  0.00    -0.000 C 
BRANCH  24  25
ATOM     25  C   UNL     1      -4.671 -51.322  -1.155  1.00  0.00    -0.000 C 
BRANCH  25  26
ATOM     26  C   UNL     1      -5.567 -51.920  -0.049  1.00  0.00    -0.000 C 
BRANCH  26  27
ATOM     27  C   UNL     1      -7.033 -52.123  -0.478  1.00  0.00    -0.000 C 
BRANCH  27  28
ATOM     28  C   UNL     1      -8.061 -52.027   0.661  1.00  0.00    -0.000 C 
BRANCH  28  29
ATOM     29  C   UNL     1      -9.019 -50.837   0.501  1.00  0.00    -0.003 C 
ATOM     30  C   UNL     1      -9.052 -49.987   1.767  1.00  0.00     0.004 C 
ENDBRANCH  28  29
ENDBRANCH  27  28
ENDBRANCH  26  27
ENDBRANCH  25  26
ENDBRANCH  24  25
ENDBRANCH  23  24
ENDBRANCH  22  23
ENDBRANCH  21  22
ENDBRANCH  20  21
ENDBRANCH  19  20
ENDBRANCH  18  19
ENDBRANCH  17  18
ENDBRANCH   1  17
TORSDOF 26
ENDMDL
MODEL 5
REMARK VINA RESULT:     2.979      1.855      5.798
REMARK INTER + INTRA:           6.594
REMARK INTER:                   4.126
REMARK INTRA:                   2.468
REMARK UNBOUND:                -0.913
REMARK SMILES CCCCCCCCCCCCCCCCCCCCCCCCCCCC(=O)[O-]
REMARK SMILES IDX 15 1 16 2 17 3 18 4 19 5 20 6 21 7 22 8 23 9 24 10 25 11
REMARK SMILES IDX 26 12 27 13 28 14 29 15 30 16 14 17 13 18 12 19 11 20 10 21
REMARK SMILES IDX 9 22 8 23 7 24 6 25 5 26 4 27 3 28 2 29 1 30
REMARK H PARENT
REMARK Flexibility Score: inf
ROOT
ATOM      1  C   UNL     1      -4.371 -51.300   1.841  1.00  0.00     0.000 C 
ENDROOT
BRANCH   1   2
ATOM      2  C   UNL     1      -3.290 -52.117   2.574  1.00  0.00     0.000 C 
BRANCH   2   3
ATOM      3  C   UNL     1      -3.384 -52.115   4.112  1.00  0.00     0.000 C 
BRANCH   3   4
ATOM      4  C   UNL     1      -4.481 -51.186   4.676  1.00  0.00     0.000 C 
BRANCH   4   5
ATOM      5  C   UNL     1      -4.319 -50.926   6.184  1.00  0.00     0.000 C 
BRANCH   5   6
ATOM      6  C   UNL     1      -2.969 -50.274   6.535  1.00  0.00     0.000 C 
BRANCH   6   7
ATOM      7  C   UNL     1      -1.993 -51.177   7.312  1.00  0.00     0.000 C 
BRANCH   7   8
ATOM      8  C   UNL     1      -0.789 -51.625   6.462  1.00  0.00     0.000 C 
BRANCH   8   9
ATOM      9  C   UNL     1      -1.201 -52.124   5.067  1.00  0.00     0.000 C 
BRANCH   9  10
ATOM     10  C   UNL     1      -0.215 -51.696   3.970  1.00  0.00     0.000 C 
BRANCH  10  11
ATOM     11  C   UNL     1      -0.634 -50.360   3.345  1.00  0.00     0.000 C 
BRANCH  11  12
ATOM     12  C   UNL     1      -1.368 -50.581   2.015  1.00  0.00     0.006 C 
BRANCH  12  13
ATOM     13  C   UNL     1      -0.527 -51.384   1.013  1.00  0.00     0.053 C 
BRANCH  13  14
ATOM     14  C   UNL     1      -1.112 -51.341  -0.366  1.00  0.00     0.041 C 
ATOM     15  O   UNL     1      -2.358 -51.418  -0.528  1.00  0.00    -0.550 OA
ATOM     16  O   UNL     1      -0.278 -51.245  -1.474  1.00  0.00    -0.550 OA
ENDBRANCH  13  14
ENDBRANCH  12  13
ENDBRANCH  11  12
ENDBRANCH  10  11
ENDBRANCH   9  10
ENDBRANCH   8   9
ENDBRANCH   7   8
ENDBRANCH   6   7
ENDBRANCH   5   6
ENDBRANCH   4   5
ENDBRANCH   3   4
ENDBRANCH   2   3
ENDBRANCH   1   2
BRANCH   1  17
ATOM     17  C   UNL     1      -5.560 -52.118   1.303  1.00  0.00     0.000 C 
BRANCH  17  18
ATOM     18  C   UNL     1      -6.388 -51.359   0.255  1.00  0.00     0.000 C 
BRANCH  18  19
ATOM     19  C   UNL     1      -6.764 -49.960   0.766  1.00  0.00     0.000 C 
BRANCH  19  20
ATOM     20  C   UNL     1      -8.253 -49.633   0.577  1.00  0.00     0.000 C 
BRANCH  20  21
ATOM     21  C   UNL     1      -9.117 -50.070   1.773  1.00  0.00     0.000 C 
BRANCH  21  22
ATOM     22  C   UNL     1      -8.531 -51.287   2.507  1.00  0.00    -0.000 C 
BRANCH  22  23
ATOM     23  C   UNL     1      -9.090 -51.438   3.929  1.00  0.00    -0.000 C 
BRANCH  23  24
ATOM     24  C   UNL     1      -8.047 -52.056   4.868  1.00  0.00    -0.000 C 
BRANCH  24  25
ATOM     25  C   UNL     1      -8.576 -52.124   6.308  1.00  0.00    -0.000 C 
BRANCH  25  26
ATOM     26  C   UNL     1      -7.819 -51.170   7.257  1.00  0.00    -0.000 C 
BRANCH  26  27
ATOM     27  C   UNL     1      -6.521 -51.769   7.834  1.00  0.00    -0.000 C 
BRANCH  27  28
ATOM     28  C   UNL     1      -6.499 -51.915   9.364  1.00  0.00    -0.000 C 
BRANCH  28  29
ATOM     29  C   UNL     1      -5.096 -51.722   9.960  1.00  0.00    -0.003 C 
ATOM     30  C   UNL     1      -4.701 -50.248   9.962  1.00  0.00     0.004 C 
ENDBRANCH  28  29
ENDBRANCH  27  28
ENDBRANCH  26  27
ENDBRANCH  25  26
ENDBRANCH  24  25
ENDBRANCH  23  24
ENDBRANCH  22  23
ENDBRANCH  21  22
ENDBRANCH  20  21
ENDBRANCH  19  20
ENDBRANCH  18  19
ENDBRANCH  17  18
ENDBRANCH   1  17
TORSDOF 26
ENDMDL
