MODEL 1
REMARK VINA RESULT:    -5.600      0.000      0.000
REMARK INTER + INTRA:          -6.722
REMARK INTER:                  -6.582
REMARK INTRA:                  -0.140
REMARK UNBOUND:                -0.140
REMARK SMILES O=C([O-])C=Cc1ccc(O)c(O)c1
REMARK SMILES IDX 6 1 13 2 7 3 11 4 8 5 9 6 5 7 4 8 2 9 1 10 3 11 12 12 10 14
REMARK H PARENT 12 13 10 15
REMARK Flexibility Score: inf
ROOT
ATOM      1  C   UNL     1      10.160  13.881  22.099  1.00  0.00    -0.022 A 
ATOM      2  C   UNL     1      10.468  15.251  22.048  1.00  0.00     0.058 A 
ATOM      3  C   UNL     1      10.185  13.135  20.905  1.00  0.00     0.012 A 
ATOM      4  C   UNL     1      10.822  15.863  20.837  1.00  0.00     0.157 A 
ATOM      5  C   UNL     1      10.537  13.743  19.697  1.00  0.00     0.051 A 
ATOM      6  C   UNL     1      10.858  15.104  19.656  1.00  0.00     0.157 A 
ENDROOT
BRANCH   1   7
ATOM      7  C   UNL     1       9.782  13.286  23.405  1.00  0.00     0.010 C 
ATOM      8  C   UNL     1       9.851  11.975  23.674  1.00  0.00     0.025 C 
BRANCH   8   9
ATOM      9  C   UNL     1       9.478  11.429  24.988  1.00  0.00     0.064 C 
ATOM     10  O   UNL     1       8.783  12.124  25.774  1.00  0.00    -0.545 OA
ATOM     11  O   UNL     1       9.883  10.158  25.378  1.00  0.00    -0.545 OA
ENDBRANCH   8   9
ENDBRANCH   1   7
BRANCH   4  12
ATOM     12  O   UNL     1      11.136  17.221  20.803  1.00  0.00    -0.504 OA
ATOM     13  H   UNL     1      11.175  17.735  19.931  1.00  0.00     0.293 HD
ENDBRANCH   4  12
BRANCH   6  14
ATOM     14  O   UNL     1      11.206  15.682  18.435  1.00  0.00    -0.504 OA
ATOM     15  H   UNL     1      10.774  15.397  17.564  1.00  0.00     0.293 HD
ENDBRANCH   6  14
TORSDOF 4
ENDMDL
MODEL 2
REMARK VINA RESULT:    -5.429      2.924      5.244
REMARK INTER + INTRA:          -6.520
REMARK INTER:                  -6.387
REMARK INTRA:                  -0.133
REMARK UNBOUND:                -0.140
REMARK SMILES O=C([O-])C=Cc1ccc(O)c(O)c1
REMARK SMILES IDX 6 1 13 2 7 3 11 4 8 5 9 6 5 7 4 8 2 9 1 10 3 11 12 12 10 14
REMARK H PARENT 12 13 10 15
REMARK Flexibility Score: inf
ROOT
ATOM      1  C   UNL     1      10.801  16.088  22.351  1.00  0.00    -0.022 A 
ATOM      2  C   UNL     1      10.905  16.238  20.958  1.00  0.00     0.058 A 
ATOM      3  C   UNL     1      10.562  14.805  22.880  1.00  0.00     0.012 A 
ATOM      4  C   UNL     1      10.800  15.129  20.107  1.00  0.00     0.157 A 
ATOM      5  C   UNL     1      10.458  13.698  22.032  1.00  0.00     0.051 A 
ATOM      6  C   UNL     1      10.579  13.853  20.648  1.00  0.00     0.157 A 
ENDROOT
BRANCH   1   7
ATOM      7  C   UNL     1      10.908  17.296  23.206  1.00  0.00     0.010 C 
ATOM      8  C   UNL     1      10.840  18.550  22.737  1.00  0.00     0.025 C 
BRANCH   8   9
ATOM      9  C   UNL     1      10.939  19.719  23.624  1.00  0.00     0.064 C 
ATOM     10  O   UNL     1      11.335  20.819  23.160  1.00  0.00    -0.545 OA
ATOM     11  O   UNL     1      10.604  19.628  24.971  1.00  0.00    -0.545 OA
ENDBRANCH   8   9
ENDBRANCH   1   7
BRANCH   4  12
ATOM     12  O   UNL     1      10.916  15.292  18.726  1.00  0.00    -0.504 OA
ATOM     13  H   UNL     1      11.308  14.566  18.138  1.00  0.00     0.293 HD
ENDBRANCH   4  12
BRANCH   6  14
ATOM     14  O   UNL     1      10.470  12.729  19.829  1.00  0.00    -0.504 OA
ATOM     15  H   UNL     1      11.216  12.446  19.204  1.00  0.00     0.293 HD
ENDBRANCH   6  14
TORSDOF 4
ENDMDL
MODEL 3
REMARK VINA RESULT:    -5.416      0.870      1.894
REMARK INTER + INTRA:          -6.506
REMARK INTER:                  -6.374
REMARK INTRA:                  -0.132
REMARK UNBOUND:                -0.140
REMARK SMILES O=C([O-])C=Cc1ccc(O)c(O)c1
REMARK SMILES IDX 6 1 13 2 7 3 11 4 8 5 9 6 5 7 4 8 2 9 1 10 3 11 12 12 10 14
REMARK H PARENT 12 13 10 15
REMARK Flexibility Score: inf
ROOT
ATOM      1  C   UNL     1       9.841  14.124  22.210  1.00  0.00    -0.022 A 
ATOM      2  C   UNL     1      10.225  13.293  21.144  1.00  0.00     0.058 A 
ATOM      3  C   UNL     1       9.956  15.519  22.059  1.00  0.00     0.012 A 
ATOM      4  C   UNL     1      10.690  13.840  19.939  1.00  0.00     0.157 A 
ATOM      5  C   UNL     1      10.419  16.065  20.859  1.00  0.00     0.051 A 
ATOM      6  C   UNL     1      10.784  15.233  19.796  1.00  0.00     0.157 A 
ENDROOT
BRANCH   1   7
ATOM      7  C   UNL     1       9.367  13.493  23.467  1.00  0.00     0.010 C 
ATOM      8  C   UNL     1       9.971  12.450  24.052  1.00  0.00     0.025 C 
BRANCH   8   9
ATOM      9  C   UNL     1       9.472  11.865  25.306  1.00  0.00     0.064 C 
ATOM     10  O   UNL     1       8.640  12.503  26.002  1.00  0.00    -0.545 OA
ATOM     11  O   UNL     1       9.907  10.617  25.738  1.00  0.00    -0.545 OA
ENDBRANCH   8   9
ENDBRANCH   1   7
BRANCH   4  12
ATOM     12  O   UNL     1      11.058  13.003  18.886  1.00  0.00    -0.504 OA
ATOM     13  H   UNL     1      11.035  11.994  18.977  1.00  0.00     0.293 HD
ENDBRANCH   4  12
BRANCH   6  14
ATOM     14  O   UNL     1      11.242  15.809  18.611  1.00  0.00    -0.504 OA
ATOM     15  H   UNL     1      10.608  16.111  17.881  1.00  0.00     0.293 HD
ENDBRANCH   6  14
TORSDOF 4
ENDMDL
MODEL 4
REMARK VINA RESULT:    -5.224      3.054      5.434
REMARK INTER + INTRA:          -6.280
REMARK INTER:                  -6.149
REMARK INTRA:                  -0.131
REMARK UNBOUND:                -0.140
REMARK SMILES O=C([O-])C=Cc1ccc(O)c(O)c1
REMARK SMILES IDX 6 1 13 2 7 3 11 4 8 5 9 6 5 7 4 8 2 9 1 10 3 11 12 12 10 14
REMARK H PARENT 12 13 10 15
REMARK Flexibility Score: inf
ROOT
ATOM      1  C   UNL     1      10.768  16.188  22.231  1.00  0.00    -0.022 A 
ATOM      2  C   UNL     1      11.238  14.982  22.777  1.00  0.00     0.058 A 
ATOM      3  C   UNL     1       9.967  16.144  21.073  1.00  0.00     0.012 A 
ATOM      4  C   UNL     1      10.896  13.751  22.199  1.00  0.00     0.157 A 
ATOM      5  C   UNL     1       9.627  14.918  20.496  1.00  0.00     0.051 A 
ATOM      6  C   UNL     1      10.084  13.720  21.054  1.00  0.00     0.157 A 
ENDROOT
BRANCH   1   7
ATOM      7  C   UNL     1      11.167  17.464  22.877  1.00  0.00     0.010 C 
ATOM      8  C   UNL     1      10.300  18.414  23.251  1.00  0.00     0.025 C 
BRANCH   8   9
ATOM      9  C   UNL     1      10.740  19.658  23.899  1.00  0.00     0.064 C 
ATOM     10  O   UNL     1      10.580  19.803  25.139  1.00  0.00    -0.545 OA
ATOM     11  O   UNL     1      11.329  20.681  23.164  1.00  0.00    -0.545 OA
ENDBRANCH   8   9
ENDBRANCH   1   7
BRANCH   4  12
ATOM     12  O   UNL     1      11.361  12.561  22.758  1.00  0.00    -0.504 OA
ATOM     13  H   UNL     1      11.056  12.250  23.673  1.00  0.00     0.293 HD
ENDBRANCH   4  12
BRANCH   6  14
ATOM     14  O   UNL     1       9.726  12.512  20.454  1.00  0.00    -0.504 OA
ATOM     15  H   UNL     1      10.291  12.084  19.731  1.00  0.00     0.293 HD
ENDBRANCH   6  14
TORSDOF 4
ENDMDL
MODEL 5
REMARK VINA RESULT:    -5.212      2.794      5.656
REMARK INTER + INTRA:          -6.266
REMARK INTER:                  -6.135
REMARK INTRA:                  -0.131
REMARK UNBOUND:                -0.140
REMARK SMILES O=C([O-])C=Cc1ccc(O)c(O)c1
REMARK SMILES IDX 6 1 13 2 7 3 11 4 8 5 9 6 5 7 4 8 2 9 1 10 3 11 12 12 10 14
REMARK H PARENT 12 13 10 15
REMARK Flexibility Score: inf
ROOT
ATOM      1  C   UNL     1      10.664  16.460  21.839  1.00  0.00    -0.022 A 
ATOM      2  C   UNL     1      10.902  16.066  20.511  1.00  0.00     0.058 A 
ATOM      3  C   UNL     1      10.174  15.506  22.753  1.00  0.00     0.012 A 
ATOM      4  C   UNL     1      10.683  14.742  20.105  1.00  0.00     0.157 A 
ATOM      5  C   UNL     1       9.956  14.187  22.349  1.00  0.00     0.051 A 
ATOM      6  C   UNL     1      10.210  13.797  21.030  1.00  0.00     0.157 A 
ENDROOT
BRANCH   1   7
ATOM      7  C   UNL     1      10.902  17.876  22.213  1.00  0.00     0.010 C 
ATOM      8  C   UNL     1       9.924  18.749  22.489  1.00  0.00     0.025 C 
BRANCH   8   9
ATOM      9  C   UNL     1      10.207  20.141  22.868  1.00  0.00     0.064 C 
ATOM     10  O   UNL     1       9.360  21.038  22.618  1.00  0.00    -0.545 OA
ATOM     11  O   UNL     1      11.398  20.485  23.498  1.00  0.00    -0.545 OA
ENDBRANCH   8   9
ENDBRANCH   1   7
BRANCH   4  12
ATOM     12  O   UNL     1      10.933  14.362  18.787  1.00  0.00    -0.504 OA
ATOM     13  H   UNL     1      11.773  13.857  18.531  1.00  0.00     0.293 HD
ENDBRANCH   4  12
BRANCH   6  14
ATOM     14  O   UNL     1       9.982  12.472  20.659  1.00  0.00    -0.504 OA
ATOM     15  H   UNL     1      10.352  12.085  19.799  1.00  0.00     0.293 HD
ENDBRANCH   6  14
TORSDOF 4
ENDMDL
MODEL 6
REMARK VINA RESULT:    -5.210      1.455      2.370
REMARK INTER + INTRA:          -6.263
REMARK INTER:                  -6.138
REMARK INTRA:                  -0.125
REMARK UNBOUND:                -0.140
REMARK SMILES O=C([O-])C=Cc1ccc(O)c(O)c1
REMARK SMILES IDX 6 1 13 2 7 3 11 4 8 5 9 6 5 7 4 8 2 9 1 10 3 11 12 12 10 14
REMARK H PARENT 12 13 10 15
REMARK Flexibility Score: inf
ROOT
ATOM      1  C   UNL     1      10.323  14.296  22.826  1.00  0.00    -0.022 A 
ATOM      2  C   UNL     1       9.802  14.480  21.535  1.00  0.00     0.058 A 
ATOM      3  C   UNL     1      10.743  15.424  23.557  1.00  0.00     0.012 A 
ATOM      4  C   UNL     1       9.675  15.766  20.989  1.00  0.00     0.157 A 
ATOM      5  C   UNL     1      10.617  16.705  23.014  1.00  0.00     0.051 A 
ATOM      6  C   UNL     1      10.083  16.883  21.735  1.00  0.00     0.157 A 
ENDROOT
BRANCH   1   7
ATOM      7  C   UNL     1      10.445  12.913  23.352  1.00  0.00     0.010 C 
ATOM      8  C   UNL     1       9.623  12.390  24.272  1.00  0.00     0.025 C 
BRANCH   8   9
ATOM      9  C   UNL     1       9.774  11.009  24.755  1.00  0.00     0.064 C 
ATOM     10  O   UNL     1       9.912  10.794  25.987  1.00  0.00    -0.545 OA
ATOM     11  O   UNL     1       9.770   9.935  23.872  1.00  0.00    -0.545 OA
ENDBRANCH   8   9
ENDBRANCH   1   7
BRANCH   4  12
ATOM     12  O   UNL     1       9.146  15.935  19.710  1.00  0.00    -0.504 OA
ATOM     13  H   UNL     1       8.157  16.094  19.562  1.00  0.00     0.293 HD
ENDBRANCH   4  12
BRANCH   6  14
ATOM     14  O   UNL     1       9.970  18.176  21.221  1.00  0.00    -0.504 OA
ATOM     15  H   UNL     1      10.729  18.622  20.721  1.00  0.00     0.293 HD
ENDBRANCH   6  14
TORSDOF 4
ENDMDL
MODEL 7
REMARK VINA RESULT:    -5.089      2.602      5.713
REMARK INTER + INTRA:          -6.122
REMARK INTER:                  -5.982
REMARK INTRA:                  -0.140
REMARK UNBOUND:                -0.140
REMARK SMILES O=C([O-])C=Cc1ccc(O)c(O)c1
REMARK SMILES IDX 6 1 13 2 7 3 11 4 8 5 9 6 5 7 4 8 2 9 1 10 3 11 12 12 10 14
REMARK H PARENT 12 13 10 15
REMARK Flexibility Score: inf
ROOT
ATOM      1  C   UNL     1      10.307  15.687  22.399  1.00  0.00    -0.022 A 
ATOM      2  C   UNL     1      10.092  14.849  21.292  1.00  0.00     0.058 A 
ATOM      3  C   UNL     1      10.564  15.101  23.654  1.00  0.00     0.012 A 
ATOM      4  C   UNL     1      10.158  13.455  21.423  1.00  0.00     0.157 A 
ATOM      5  C   UNL     1      10.629  13.712  23.786  1.00  0.00     0.051 A 
ATOM      6  C   UNL     1      10.431  12.884  22.677  1.00  0.00     0.157 A 
ENDROOT
BRANCH   1   7
ATOM      7  C   UNL     1      10.216  17.156  22.207  1.00  0.00     0.010 C 
ATOM      8  C   UNL     1      10.641  18.053  23.107  1.00  0.00     0.025 C 
BRANCH   8   9
ATOM      9  C   UNL     1      10.542  19.501  22.869  1.00  0.00     0.064 C 
ATOM     10  O   UNL     1       9.537  19.965  22.272  1.00  0.00    -0.545 OA
ATOM     11  O   UNL     1      11.544  20.367  23.292  1.00  0.00    -0.545 OA
ENDBRANCH   8   9
ENDBRANCH   1   7
BRANCH   4  12
ATOM     12  O   UNL     1       9.953  12.635  20.313  1.00  0.00    -0.504 OA
ATOM     13  H   UNL     1       9.041  12.250  20.100  1.00  0.00     0.293 HD
ENDBRANCH   4  12
BRANCH   6  14
ATOM     14  O   UNL     1      10.503  11.501  22.841  1.00  0.00    -0.504 OA
ATOM     15  H   UNL     1      10.191  11.044  23.690  1.00  0.00     0.293 HD
ENDBRANCH   6  14
TORSDOF 4
ENDMDL
MODEL 8
REMARK VINA RESULT:    -4.863      1.489      2.002
REMARK INTER + INTRA:          -5.856
REMARK INTER:                  -5.727
REMARK INTRA:                  -0.129
REMARK UNBOUND:                -0.140
REMARK SMILES O=C([O-])C=Cc1ccc(O)c(O)c1
REMARK SMILES IDX 6 1 13 2 7 3 11 4 8 5 9 6 5 7 4 8 2 9 1 10 3 11 12 12 10 14
REMARK H PARENT 12 13 10 15
REMARK Flexibility Score: inf
ROOT
ATOM      1  C   UNL     1      10.419  13.954  22.527  1.00  0.00    -0.022 A 
ATOM      2  C   UNL     1      10.813  15.010  23.365  1.00  0.00     0.058 A 
ATOM      3  C   UNL     1      10.007  14.247  21.212  1.00  0.00     0.012 A 
ATOM      4  C   UNL     1      10.824  16.332  22.896  1.00  0.00     0.157 A 
ATOM      5  C   UNL     1      10.017  15.563  20.745  1.00  0.00     0.051 A 
ATOM      6  C   UNL     1      10.427  16.608  21.578  1.00  0.00     0.157 A 
ENDROOT
BRANCH   1   7
ATOM      7  C   UNL     1      10.415  12.575  23.076  1.00  0.00     0.010 C 
ATOM      8  C   UNL     1       9.712  12.204  24.154  1.00  0.00     0.025 C 
BRANCH   8   9
ATOM      9  C   UNL     1       9.728  10.821  24.657  1.00  0.00     0.064 C 
ATOM     10  O   UNL     1       9.685   9.864  23.842  1.00  0.00    -0.545 OA
ATOM     11  O   UNL     1       9.789  10.554  26.020  1.00  0.00    -0.545 OA
ENDBRANCH   8   9
ENDBRANCH   1   7
BRANCH   4  12
ATOM     12  O   UNL     1      11.229  17.370  23.735  1.00  0.00    -0.504 OA
ATOM     13  H   UNL     1      11.780  18.147  23.390  1.00  0.00     0.293 HD
ENDBRANCH   4  12
BRANCH   6  14
ATOM     14  O   UNL     1      10.427  17.912  21.081  1.00  0.00    -0.504 OA
ATOM     15  H   UNL     1       9.898  18.654  21.523  1.00  0.00     0.293 HD
ENDBRANCH   6  14
TORSDOF 4
ENDMDL
MODEL 9
REMARK VINA RESULT:    -4.765      2.889      3.775
REMARK INTER + INTRA:          -5.740
REMARK INTER:                  -5.599
REMARK INTRA:                  -0.141
REMARK UNBOUND:                -0.140
REMARK SMILES O=C([O-])C=Cc1ccc(O)c(O)c1
REMARK SMILES IDX 6 1 13 2 7 3 11 4 8 5 9 6 5 7 4 8 2 9 1 10 3 11 12 12 10 14
REMARK H PARENT 12 13 10 15
REMARK Flexibility Score: inf
ROOT
ATOM      1  C   UNL     1      10.214  15.284  22.840  1.00  0.00    -0.022 A 
ATOM      2  C   UNL     1       9.952  14.019  22.288  1.00  0.00     0.058 A 
ATOM      3  C   UNL     1      10.750  16.289  22.012  1.00  0.00     0.012 A 
ATOM      4  C   UNL     1      10.192  13.765  20.930  1.00  0.00     0.157 A 
ATOM      5  C   UNL     1      10.990  16.037  20.658  1.00  0.00     0.051 A 
ATOM      6  C   UNL     1      10.712  14.780  20.112  1.00  0.00     0.157 A 
ENDROOT
BRANCH   1   7
ATOM      7  C   UNL     1       9.952  15.497  24.285  1.00  0.00     0.010 C 
ATOM      8  C   UNL     1      10.354  16.580  24.964  1.00  0.00     0.025 C 
BRANCH   8   9
ATOM      9  C   UNL     1      10.060  16.756  26.395  1.00  0.00     0.064 C 
ATOM     10  O   UNL     1      10.741  17.567  27.074  1.00  0.00    -0.545 OA
ATOM     11  O   UNL     1       9.042  16.037  27.011  1.00  0.00    -0.545 OA
ENDBRANCH   8   9
ENDBRANCH   1   7
BRANCH   4  12
ATOM     12  O   UNL     1       9.917  12.508  20.393  1.00  0.00    -0.504 OA
ATOM     13  H   UNL     1       9.986  12.329  19.398  1.00  0.00     0.293 HD
ENDBRANCH   4  12
BRANCH   6  14
ATOM     14  O   UNL     1      10.962  14.560  18.757  1.00  0.00    -0.504 OA
ATOM     15  H   UNL     1      11.880  14.302  18.416  1.00  0.00     0.293 HD
ENDBRANCH   6  14
TORSDOF 4
ENDMDL
