MODEL 1
REMARK VINA RESULT:     9.334      0.000      0.000
REMARK INTER + INTRA:          13.419
REMARK INTER:                  12.881
REMARK INTRA:                   0.538
REMARK UNBOUND:                 0.538
REMARK SMILES CC[C@H](CC[C@H](C)[C@H]1CC[C@@H]2C3=CC[C@H]4C[C@@H](O)CC[C@@]4(C)[C@H]3CC[C@@]21C)C(C)C
REMARK SMILES IDX 5 1 4 2 3 3 2 4 1 5 28 6 29 7 30 8 6 9 7 10 8 11 9 12 26 13
REMARK SMILES IDX 10 14 11 15 25 16 27 17 12 18 24 19 23 20 13 21 21 22 14 23
REMARK SMILES IDX 15 24 20 25 22 26 16 27 19 28 17 29 18 30
REMARK H PARENT 18 31
REMARK Flexibility Score: inf
ROOT
ATOM      1  C   UNL     1     135.520 134.325 137.093  1.00  0.00     0.004 C 
ENDROOT
BRANCH   1   2
ATOM      2  C   UNL     1     136.676 134.258 138.121  1.00  0.00     0.004 C 
BRANCH   2   3
ATOM      3  C   UNL     1     136.267 134.645 139.573  1.00  0.00    -0.009 C 
BRANCH   3   4
ATOM      4  C   UNL     1     134.731 134.848 139.772  1.00  0.00     0.000 C 
ATOM      5  C   UNL     1     134.135 136.125 139.168  1.00  0.00     0.004 C 
ENDBRANCH   3   4
BRANCH   3   6
ATOM      6  C   UNL     1     136.937 133.699 140.621  1.00  0.00    -0.014 C 
ATOM      7  C   UNL     1     138.455 133.543 140.451  1.00  0.00     0.007 C 
ATOM      8  C   UNL     1     136.256 132.318 140.663  1.00  0.00     0.007 C 
ENDBRANCH   3   6
ENDBRANCH   2   3
ENDBRANCH   1   2
BRANCH   1   9
ATOM      9  C   UNL     1     135.156 132.962 136.449  1.00  0.00    -0.011 C 
ATOM     10  C   UNL     1     134.979 133.107 134.921  1.00  0.00     0.008 C 
BRANCH   9  11
ATOM     11  C   UNL     1     133.921 132.313 137.181  1.00  0.00    -0.002 C 
ATOM     12  C   UNL     1     132.876 133.283 137.728  1.00  0.00     0.005 C 
ATOM     13  C   UNL     1     133.125 131.240 136.383  1.00  0.00    -0.023 C 
ATOM     14  C   UNL     1     131.608 132.458 137.932  1.00  0.00     0.009 C 
ATOM     15  C   UNL     1     131.766 131.121 137.158  1.00  0.00     0.021 C 
ATOM     16  C   UNL     1     133.943 129.911 136.327  1.00  0.00     0.008 C 
ATOM     17  C   UNL     1     132.815 131.705 134.936  1.00  0.00     0.012 C 
ATOM     18  C   UNL     1     131.620 129.855 138.021  1.00  0.00    -0.067 C 
ATOM     19  C   UNL     1     133.039 128.688 136.277  1.00  0.00     0.009 C 
ATOM     20  C   UNL     1     132.266 128.538 137.605  1.00  0.00     0.021 C 
ATOM     21  C   UNL     1     130.777 129.807 139.072  1.00  0.00    -0.027 C 
ATOM     22  C   UNL     1     131.222 127.337 137.627  1.00  0.00    -0.023 C 
ATOM     23  C   UNL     1     130.658 128.555 139.887  1.00  0.00     0.031 C 
ATOM     24  C   UNL     1     130.353 127.355 138.971  1.00  0.00     0.002 C 
ATOM     25  C   UNL     1     130.284 127.395 136.376  1.00  0.00     0.010 C 
ATOM     26  C   UNL     1     132.019 126.002 137.575  1.00  0.00     0.012 C 
ATOM     27  C   UNL     1     128.828 127.298 138.724  1.00  0.00     0.036 C 
ATOM     28  C   UNL     1     129.168 126.333 136.380  1.00  0.00     0.032 C 
ATOM     29  C   UNL     1     128.452 126.186 137.743  1.00  0.00     0.114 C 
BRANCH  29  30
ATOM     30  O   UNL     1     127.058 126.141 137.570  1.00  0.00    -0.393 OA
ATOM     31  H   UNL     1     126.715 127.074 137.608  1.00  0.00     0.210 HD
ENDBRANCH  29  30
ENDBRANCH   9  11
ENDBRANCH   1   9
TORSDOF 7
ENDMDL
MODEL 2
REMARK VINA RESULT:    11.031      0.879      1.292
REMARK INTER + INTRA:          15.760
REMARK INTER:                  16.676
REMARK INTRA:                  -0.915
REMARK UNBOUND:                 0.538
REMARK SMILES CC[C@H](CC[C@H](C)[C@H]1CC[C@@H]2C3=CC[C@H]4C[C@@H](O)CC[C@@]4(C)[C@H]3CC[C@@]21C)C(C)C
REMARK SMILES IDX 5 1 4 2 3 3 2 4 1 5 28 6 29 7 30 8 6 9 7 10 8 11 9 12 26 13
REMARK SMILES IDX 10 14 11 15 25 16 27 17 12 18 24 19 23 20 13 21 21 22 14 23
REMARK SMILES IDX 15 24 20 25 22 26 16 27 19 28 17 29 18 30
REMARK H PARENT 18 31
REMARK Flexibility Score: inf
ROOT
ATOM      1  C   UNL     1     136.165 133.080 137.613  1.00  0.00     0.004 C 
ENDROOT
BRANCH   1   2
ATOM      2  C   UNL     1     137.089 134.173 138.205  1.00  0.00     0.004 C 
BRANCH   2   3
ATOM      3  C   UNL     1     137.284 134.083 139.747  1.00  0.00    -0.009 C 
BRANCH   3   4
ATOM      4  C   UNL     1     136.025 133.580 140.523  1.00  0.00     0.000 C 
ATOM      5  C   UNL     1     134.857 134.568 140.628  1.00  0.00     0.004 C 
ENDBRANCH   3   4
BRANCH   3   6
ATOM      6  C   UNL     1     138.609 133.336 140.108  1.00  0.00    -0.014 C 
ATOM      7  C   UNL     1     138.408 131.903 140.618  1.00  0.00     0.007 C 
ATOM      8  C   UNL     1     139.470 134.144 141.098  1.00  0.00     0.007 C 
ENDBRANCH   3   6
ENDBRANCH   2   3
ENDBRANCH   1   2
BRANCH   1   9
ATOM      9  C   UNL     1     134.770 133.593 137.171  1.00  0.00    -0.011 C 
ATOM     10  C   UNL     1     134.645 135.115 137.407  1.00  0.00     0.008 C 
BRANCH   9  11
ATOM     11  C   UNL     1     133.626 132.742 137.843  1.00  0.00    -0.002 C 
ATOM     12  C   UNL     1     132.532 133.532 138.561  1.00  0.00     0.005 C 
ATOM     13  C   UNL     1     132.882 131.730 136.924  1.00  0.00    -0.023 C 
ATOM     14  C   UNL     1     131.346 132.580 138.686  1.00  0.00     0.009 C 
ATOM     15  C   UNL     1     131.574 131.385 137.720  1.00  0.00     0.021 C 
ATOM     16  C   UNL     1     133.801 130.498 136.648  1.00  0.00     0.008 C 
ATOM     17  C   UNL     1     132.469 132.367 135.573  1.00  0.00     0.012 C 
ATOM     18  C   UNL     1     131.571 130.002 138.394  1.00  0.00    -0.067 C 
ATOM     19  C   UNL     1     132.996 129.221 136.451  1.00  0.00     0.009 C 
ATOM     20  C   UNL     1     132.300 128.818 137.769  1.00  0.00     0.021 C 
ATOM     21  C   UNL     1     130.784 129.732 139.456  1.00  0.00    -0.027 C 
ATOM     22  C   UNL     1     131.358 127.541 137.652  1.00  0.00    -0.023 C 
ATOM     23  C   UNL     1     130.804 128.371 140.082  1.00  0.00     0.031 C 
ATOM     24  C   UNL     1     130.554 127.292 139.012  1.00  0.00     0.002 C 
ATOM     25  C   UNL     1     130.361 127.695 136.455  1.00  0.00     0.010 C 
ATOM     26  C   UNL     1     132.256 126.300 137.378  1.00  0.00     0.012 C 
ATOM     27  C   UNL     1     129.028 127.140 138.813  1.00  0.00     0.036 C 
ATOM     28  C   UNL     1     129.335 126.551 136.343  1.00  0.00     0.032 C 
ATOM     29  C   UNL     1     128.698 126.151 137.694  1.00  0.00     0.114 C 
BRANCH  29  30
ATOM     30  O   UNL     1     127.305 126.011 137.563  1.00  0.00    -0.393 OA
ATOM     31  H   UNL     1     127.126 125.488 136.737  1.00  0.00     0.210 HD
ENDBRANCH  29  30
ENDBRANCH   9  11
ENDBRANCH   1   9
TORSDOF 7
ENDMDL
