MODEL 1
REMARK VINA RESULT:    -6.257      0.000      0.000
REMARK INTER + INTRA:          -7.815
REMARK INTER:                  -7.537
REMARK INTRA:                  -0.278
REMARK UNBOUND:                -0.278
REMARK SMILES O=c1c(O)c(-c2ccc(O)c(O)c2)oc2cc(O)cc(O)c12
REMARK SMILES IDX 5 1 3 2 2 3 1 4 22 5 20 6 19 7 17 8 16 9 15 10 14 11 6 12
REMARK SMILES IDX 7 13 8 14 9 15 13 16 11 17 10 18 12 20 4 22 21 24 18 26
REMARK H PARENT 10 19 12 21 4 23 21 25 18 27
REMARK Flexibility Score: inf
ROOT
ATOM      1  C   UNL     1      24.033  22.356  35.262  1.00  0.00     0.180 A 
ATOM      2  C   UNL     1      22.755  21.928  35.671  1.00  0.00     0.208 A 
ATOM      3  C   UNL     1      22.617  20.653  36.240  1.00  0.00     0.238 A 
ATOM      4  O   UNL     1      21.479  20.263  36.621  1.00  0.00    -0.285 OA
ATOM      5  C   UNL     1      23.748  19.822  36.373  1.00  0.00     0.111 A 
ATOM      6  C   UNL     1      23.693  18.522  36.932  1.00  0.00     0.134 A 
ATOM      7  C   UNL     1      24.863  17.752  37.020  1.00  0.00     0.093 A 
ATOM      8  C   UNL     1      26.085  18.258  36.559  1.00  0.00     0.123 A 
ATOM      9  C   UNL     1      26.143  19.539  36.008  1.00  0.00     0.094 A 
ATOM     10  C   UNL     1      24.989  20.322  35.913  1.00  0.00     0.146 A 
ATOM     11  O   UNL     1      25.075  21.539  35.389  1.00  0.00    -0.452 OA
ENDROOT
BRANCH   1  12
ATOM     12  C   UNL     1      24.263  23.693  34.671  1.00  0.00     0.025 A 
ATOM     13  C   UNL     1      24.269  24.854  35.464  1.00  0.00     0.016 A 
ATOM     14  C   UNL     1      24.513  26.103  34.888  1.00  0.00     0.051 A 
ATOM     15  C   UNL     1      24.768  26.210  33.514  1.00  0.00     0.157 A 
ATOM     16  C   UNL     1      24.540  23.804  33.298  1.00  0.00     0.062 A 
ATOM     17  C   UNL     1      24.784  25.053  32.716  1.00  0.00     0.158 A 
BRANCH  15  18
ATOM     18  O   UNL     1      25.009  27.458  32.941  1.00  0.00    -0.504 OA
ATOM     19  H   UNL     1      24.724  28.316  33.399  1.00  0.00     0.293 HD
ENDBRANCH  15  18
BRANCH  17  20
ATOM     20  O   UNL     1      25.041  25.125  31.347  1.00  0.00    -0.504 OA
ATOM     21  H   UNL     1      25.879  25.559  30.980  1.00  0.00     0.293 HD
ENDBRANCH  17  20
ENDBRANCH   1  12
BRANCH   2  22
ATOM     22  O   UNL     1      21.642  22.751  35.484  1.00  0.00    -0.502 OA
ATOM     23  H   UNL     1      21.259  23.323  36.228  1.00  0.00     0.293 HD
ENDBRANCH   2  22
BRANCH   6  24
ATOM     24  O   UNL     1      22.489  17.990  37.398  1.00  0.00    -0.507 OA
ATOM     25  H   UNL     1      22.188  17.056  37.150  1.00  0.00     0.293 HD
ENDBRANCH   6  24
BRANCH   8  26
ATOM     26  O   UNL     1      27.246  17.493  36.647  1.00  0.00    -0.508 OA
ATOM     27  H   UNL     1      27.212  16.483  36.718  1.00  0.00     0.293 HD
ENDBRANCH   8  26
TORSDOF 6
ENDMDL
MODEL 2
REMARK VINA RESULT:    -6.212      2.788      6.082
REMARK INTER + INTRA:          -7.761
REMARK INTER:                  -7.504
REMARK INTRA:                  -0.256
REMARK UNBOUND:                -0.278
REMARK SMILES O=c1c(O)c(-c2ccc(O)c(O)c2)oc2cc(O)cc(O)c12
REMARK SMILES IDX 5 1 3 2 2 3 1 4 22 5 20 6 19 7 17 8 16 9 15 10 14 11 6 12
REMARK SMILES IDX 7 13 8 14 9 15 13 16 11 17 10 18 12 20 4 22 21 24 18 26
REMARK H PARENT 10 19 12 21 4 23 21 25 18 27
REMARK Flexibility Score: inf
ROOT
ATOM      1  C   UNL     1      26.655  19.452  35.489  1.00  0.00     0.180 A 
ATOM      2  C   UNL     1      26.139  18.741  36.589  1.00  0.00     0.208 A 
ATOM      3  C   UNL     1      24.808  18.963  36.977  1.00  0.00     0.238 A 
ATOM      4  O   UNL     1      24.332  18.323  37.954  1.00  0.00    -0.285 OA
ATOM      5  C   UNL     1      24.026  19.903  36.276  1.00  0.00     0.111 A 
ATOM      6  C   UNL     1      22.678  20.189  36.606  1.00  0.00     0.134 A 
ATOM      7  C   UNL     1      21.968  21.146  35.866  1.00  0.00     0.093 A 
ATOM      8  C   UNL     1      22.581  21.822  34.803  1.00  0.00     0.123 A 
ATOM      9  C   UNL     1      23.908  21.543  34.475  1.00  0.00     0.094 A 
ATOM     10  C   UNL     1      24.632  20.592  35.199  1.00  0.00     0.146 A 
ATOM     11  O   UNL     1      25.892  20.343  34.862  1.00  0.00    -0.452 OA
ENDROOT
BRANCH   1  12
ATOM     12  C   UNL     1      28.042  19.260  35.008  1.00  0.00     0.025 A 
ATOM     13  C   UNL     1      28.427  18.087  34.335  1.00  0.00     0.016 A 
ATOM     14  C   UNL     1      29.735  17.938  33.868  1.00  0.00     0.051 A 
ATOM     15  C   UNL     1      30.674  18.962  34.054  1.00  0.00     0.157 A 
ATOM     16  C   UNL     1      28.980  20.292  35.173  1.00  0.00     0.062 A 
ATOM     17  C   UNL     1      30.292  20.146  34.707  1.00  0.00     0.158 A 
BRANCH  15  18
ATOM     18  O   UNL     1      31.979  18.809  33.589  1.00  0.00    -0.504 OA
ATOM     19  H   UNL     1      32.206  18.151  32.852  1.00  0.00     0.293 HD
ENDBRANCH  15  18
BRANCH  17  20
ATOM     20  O   UNL     1      31.200  21.186  34.903  1.00  0.00    -0.504 OA
ATOM     21  H   UNL     1      32.085  21.226  34.412  1.00  0.00     0.293 HD
ENDBRANCH  17  20
ENDBRANCH   1  12
BRANCH   2  22
ATOM     22  O   UNL     1      26.950  17.851  37.298  1.00  0.00    -0.502 OA
ATOM     23  H   UNL     1      26.816  17.662  38.284  1.00  0.00     0.293 HD
ENDBRANCH   2  22
BRANCH   6  24
ATOM     24  O   UNL     1      22.042  19.532  37.661  1.00  0.00    -0.507 OA
ATOM     25  H   UNL     1      22.044  18.522  37.738  1.00  0.00     0.293 HD
ENDBRANCH   6  24
BRANCH   8  26
ATOM     26  O   UNL     1      21.876  22.773  34.068  1.00  0.00    -0.508 OA
ATOM     27  H   UNL     1      21.197  22.504  33.366  1.00  0.00     0.293 HD
ENDBRANCH   8  26
TORSDOF 6
ENDMDL
MODEL 3
REMARK VINA RESULT:    -6.125      2.094      6.319
REMARK INTER + INTRA:          -7.656
REMARK INTER:                  -7.467
REMARK INTRA:                  -0.189
REMARK UNBOUND:                -0.278
REMARK SMILES O=c1c(O)c(-c2ccc(O)c(O)c2)oc2cc(O)cc(O)c12
REMARK SMILES IDX 5 1 3 2 2 3 1 4 22 5 20 6 19 7 17 8 16 9 15 10 14 11 6 12
REMARK SMILES IDX 7 13 8 14 9 15 13 16 11 17 10 18 12 20 4 22 21 24 18 26
REMARK H PARENT 10 19 12 21 4 23 21 25 18 27
REMARK Flexibility Score: inf
ROOT
ATOM      1  C   UNL     1      24.668  22.002  34.730  1.00  0.00     0.180 A 
ATOM      2  C   UNL     1      23.385  21.818  35.282  1.00  0.00     0.208 A 
ATOM      3  C   UNL     1      22.547  22.934  35.434  1.00  0.00     0.238 A 
ATOM      4  O   UNL     1      21.391  22.780  35.917  1.00  0.00    -0.285 OA
ATOM      5  C   UNL     1      23.009  24.210  35.054  1.00  0.00     0.111 A 
ATOM      6  C   UNL     1      22.228  25.385  35.179  1.00  0.00     0.134 A 
ATOM      7  C   UNL     1      22.763  26.622  34.787  1.00  0.00     0.093 A 
ATOM      8  C   UNL     1      24.064  26.704  34.273  1.00  0.00     0.123 A 
ATOM      9  C   UNL     1      24.835  25.548  34.148  1.00  0.00     0.094 A 
ATOM     10  C   UNL     1      24.320  24.307  34.532  1.00  0.00     0.146 A 
ATOM     11  O   UNL     1      25.075  23.223  34.397  1.00  0.00    -0.452 OA
ENDROOT
BRANCH   1  12
ATOM     12  C   UNL     1      25.603  20.873  34.521  1.00  0.00     0.025 A 
ATOM     13  C   UNL     1      26.776  20.743  35.283  1.00  0.00     0.016 A 
ATOM     14  C   UNL     1      27.631  19.656  35.085  1.00  0.00     0.051 A 
ATOM     15  C   UNL     1      27.320  18.676  34.132  1.00  0.00     0.157 A 
ATOM     16  C   UNL     1      25.285  19.877  33.582  1.00  0.00     0.062 A 
ATOM     17  C   UNL     1      26.139  18.787  33.379  1.00  0.00     0.158 A 
BRANCH  15  18
ATOM     18  O   UNL     1      28.177  17.594  33.935  1.00  0.00    -0.504 OA
ATOM     19  H   UNL     1      29.094  17.558  34.364  1.00  0.00     0.293 HD
ENDBRANCH  15  18
BRANCH  17  20
ATOM     20  O   UNL     1      25.798  17.826  32.428  1.00  0.00    -0.504 OA
ATOM     21  H   UNL     1      24.910  17.340  32.450  1.00  0.00     0.293 HD
ENDBRANCH  17  20
ENDBRANCH   1  12
BRANCH   2  22
ATOM     22  O   UNL     1      22.970  20.551  35.696  1.00  0.00    -0.502 OA
ATOM     23  H   UNL     1      22.321  19.989  35.157  1.00  0.00     0.293 HD
ENDBRANCH   2  22
BRANCH   6  24
ATOM     24  O   UNL     1      20.929  25.335  35.689  1.00  0.00    -0.507 OA
ATOM     25  H   UNL     1      20.119  25.311  35.081  1.00  0.00     0.293 HD
ENDBRANCH   6  24
BRANCH   8  26
ATOM     26  O   UNL     1      24.595  27.931  33.884  1.00  0.00    -0.508 OA
ATOM     27  H   UNL     1      25.595  28.091  33.854  1.00  0.00     0.293 HD
ENDBRANCH   8  26
TORSDOF 6
ENDMDL
MODEL 4
REMARK VINA RESULT:    -5.944      2.295      6.281
REMARK INTER + INTRA:          -7.438
REMARK INTER:                  -7.519
REMARK INTRA:                   0.081
REMARK UNBOUND:                -0.278
REMARK SMILES O=c1c(O)c(-c2ccc(O)c(O)c2)oc2cc(O)cc(O)c12
REMARK SMILES IDX 5 1 3 2 2 3 1 4 22 5 20 6 19 7 17 8 16 9 15 10 14 11 6 12
REMARK SMILES IDX 7 13 8 14 9 15 13 16 11 17 10 18 12 20 4 22 21 24 18 26
REMARK H PARENT 10 19 12 21 4 23 21 25 18 27
REMARK Flexibility Score: inf
ROOT
ATOM      1  C   UNL     1      26.011  20.092  35.365  1.00  0.00     0.180 A 
ATOM      2  C   UNL     1      24.771  19.535  35.735  1.00  0.00     0.208 A 
ATOM      3  C   UNL     1      23.662  20.384  35.875  1.00  0.00     0.238 A 
ATOM      4  O   UNL     1      22.543  19.895  36.194  1.00  0.00    -0.285 OA
ATOM      5  C   UNL     1      23.813  21.769  35.664  1.00  0.00     0.111 A 
ATOM      6  C   UNL     1      22.746  22.693  35.789  1.00  0.00     0.134 A 
ATOM      7  C   UNL     1      22.980  24.059  35.573  1.00  0.00     0.093 A 
ATOM      8  C   UNL     1      24.259  24.519  35.235  1.00  0.00     0.123 A 
ATOM      9  C   UNL     1      25.312  23.611  35.110  1.00  0.00     0.094 A 
ATOM     10  C   UNL     1      25.100  22.246  35.320  1.00  0.00     0.146 A 
ATOM     11  O   UNL     1      26.119  21.405  35.190  1.00  0.00    -0.452 OA
ENDROOT
BRANCH   1  12
ATOM     12  C   UNL     1      27.222  19.261  35.180  1.00  0.00     0.025 A 
ATOM     13  C   UNL     1      27.567  18.253  36.097  1.00  0.00     0.016 A 
ATOM     14  C   UNL     1      28.701  17.465  35.889  1.00  0.00     0.051 A 
ATOM     15  C   UNL     1      29.500  17.662  34.754  1.00  0.00     0.157 A 
ATOM     16  C   UNL     1      28.014  19.440  34.034  1.00  0.00     0.062 A 
ATOM     17  C   UNL     1      29.152  18.653  33.821  1.00  0.00     0.158 A 
BRANCH  15  18
ATOM     18  O   UNL     1      30.633  16.875  34.550  1.00  0.00    -0.504 OA
ATOM     19  H   UNL     1      31.546  17.164  34.880  1.00  0.00     0.293 HD
ENDBRANCH  15  18
BRANCH  17  20
ATOM     20  O   UNL     1      29.922  18.870  32.679  1.00  0.00    -0.504 OA
ATOM     21  H   UNL     1      30.416  18.118  32.213  1.00  0.00     0.293 HD
ENDBRANCH  17  20
ENDBRANCH   1  12
BRANCH   2  22
ATOM     22  O   UNL     1      24.659  18.166  35.985  1.00  0.00    -0.502 OA
ATOM     23  H   UNL     1      25.011  17.466  35.342  1.00  0.00     0.293 HD
ENDBRANCH   2  22
BRANCH   6  24
ATOM     24  O   UNL     1      21.461  22.265  36.126  1.00  0.00    -0.507 OA
ATOM     25  H   UNL     1      20.927  21.654  35.520  1.00  0.00     0.293 HD
ENDBRANCH   6  24
BRANCH   8  26
ATOM     26  O   UNL     1      24.490  25.875  35.020  1.00  0.00    -0.508 OA
ATOM     27  H   UNL     1      25.326  26.203  34.550  1.00  0.00     0.293 HD
ENDBRANCH   8  26
TORSDOF 6
ENDMDL
MODEL 5
REMARK VINA RESULT:    -5.903      1.649      6.504
REMARK INTER + INTRA:          -7.388
REMARK INTER:                  -7.173
REMARK INTRA:                  -0.215
REMARK UNBOUND:                -0.278
REMARK SMILES O=c1c(O)c(-c2ccc(O)c(O)c2)oc2cc(O)cc(O)c12
REMARK SMILES IDX 5 1 3 2 2 3 1 4 22 5 20 6 19 7 17 8 16 9 15 10 14 11 6 12
REMARK SMILES IDX 7 13 8 14 9 15 13 16 11 17 10 18 12 20 4 22 21 24 18 26
REMARK H PARENT 10 19 12 21 4 23 21 25 18 27
REMARK Flexibility Score: inf
ROOT
ATOM      1  C   UNL     1      25.201  21.055  35.393  1.00  0.00     0.180 A 
ATOM      2  C   UNL     1      23.857  20.838  35.752  1.00  0.00     0.208 A 
ATOM      3  C   UNL     1      22.973  21.929  35.764  1.00  0.00     0.238 A 
ATOM      4  O   UNL     1      21.764  21.744  36.073  1.00  0.00    -0.285 OA
ATOM      5  C   UNL     1      23.449  23.215  35.437  1.00  0.00     0.111 A 
ATOM      6  C   UNL     1      22.624  24.366  35.429  1.00  0.00     0.134 A 
ATOM      7  C   UNL     1      23.176  25.615  35.102  1.00  0.00     0.093 A 
ATOM      8  C   UNL     1      24.534  25.732  34.785  1.00  0.00     0.123 A 
ATOM      9  C   UNL     1      25.349  24.599  34.792  1.00  0.00     0.094 A 
ATOM     10  C   UNL     1      24.820  23.347  35.113  1.00  0.00     0.146 A 
ATOM     11  O   UNL     1      25.617  22.285  35.106  1.00  0.00    -0.452 OA
ENDROOT
BRANCH   1  12
ATOM     12  C   UNL     1      26.189  19.954  35.340  1.00  0.00     0.025 A 
ATOM     13  C   UNL     1      26.731  19.515  34.119  1.00  0.00     0.016 A 
ATOM     14  C   UNL     1      27.680  18.490  34.095  1.00  0.00     0.051 A 
ATOM     15  C   UNL     1      28.112  17.899  35.290  1.00  0.00     0.157 A 
ATOM     16  C   UNL     1      26.641  19.372  36.536  1.00  0.00     0.062 A 
ATOM     17  C   UNL     1      27.591  18.345  36.517  1.00  0.00     0.158 A 
BRANCH  15  18
ATOM     18  O   UNL     1      29.059  16.875  35.263  1.00  0.00    -0.504 OA
ATOM     19  H   UNL     1      29.879  16.895  35.858  1.00  0.00     0.293 HD
ENDBRANCH  15  18
BRANCH  17  20
ATOM     20  O   UNL     1      28.005  17.782  37.723  1.00  0.00    -0.504 OA
ATOM     21  H   UNL     1      27.532  16.986  38.135  1.00  0.00     0.293 HD
ENDBRANCH  17  20
ENDBRANCH   1  12
BRANCH   2  22
ATOM     22  O   UNL     1      23.421  19.562  36.119  1.00  0.00    -0.502 OA
ATOM     23  H   UNL     1      22.445  19.350  36.289  1.00  0.00     0.293 HD
ENDBRANCH   2  22
BRANCH   6  24
ATOM     24  O   UNL     1      21.267  24.281  35.742  1.00  0.00    -0.507 OA
ATOM     25  H   UNL     1      20.854  23.426  36.097  1.00  0.00     0.293 HD
ENDBRANCH   6  24
BRANCH   8  26
ATOM     26  O   UNL     1      25.082  26.971  34.461  1.00  0.00    -0.508 OA
ATOM     27  H   UNL     1      25.883  27.053  33.846  1.00  0.00     0.293 HD
ENDBRANCH   8  26
TORSDOF 6
ENDMDL
MODEL 6
REMARK VINA RESULT:    -5.795      2.869      3.734
REMARK INTER + INTRA:          -7.258
REMARK INTER:                  -7.000
REMARK INTRA:                  -0.258
REMARK UNBOUND:                -0.278
REMARK SMILES O=c1c(O)c(-c2ccc(O)c(O)c2)oc2cc(O)cc(O)c12
REMARK SMILES IDX 5 1 3 2 2 3 1 4 22 5 20 6 19 7 17 8 16 9 15 10 14 11 6 12
REMARK SMILES IDX 7 13 8 14 9 15 13 16 11 17 10 18 12 20 4 22 21 24 18 26
REMARK H PARENT 10 19 12 21 4 23 21 25 18 27
REMARK Flexibility Score: inf
ROOT
ATOM      1  C   UNL     1      25.285  23.155  35.097  1.00  0.00     0.180 A 
ATOM      2  C   UNL     1      26.284  23.037  36.082  1.00  0.00     0.208 A 
ATOM      3  C   UNL     1      27.037  21.853  36.145  1.00  0.00     0.238 A 
ATOM      4  O   UNL     1      27.943  21.741  37.016  1.00  0.00    -0.285 OA
ATOM      5  C   UNL     1      26.767  20.806  35.241  1.00  0.00     0.111 A 
ATOM      6  C   UNL     1      27.477  19.580  35.241  1.00  0.00     0.134 A 
ATOM      7  C   UNL     1      27.141  18.581  34.315  1.00  0.00     0.093 A 
ATOM      8  C   UNL     1      26.109  18.785  33.390  1.00  0.00     0.123 A 
ATOM      9  C   UNL     1      25.408  19.992  33.387  1.00  0.00     0.094 A 
ATOM     10  C   UNL     1      25.728  21.000  34.300  1.00  0.00     0.146 A 
ATOM     11  O   UNL     1      25.048  22.140  34.271  1.00  0.00    -0.452 OA
ENDROOT
BRANCH   1  12
ATOM     12  C   UNL     1      24.462  24.377  34.954  1.00  0.00     0.025 A 
ATOM     13  C   UNL     1      25.002  25.567  34.436  1.00  0.00     0.016 A 
ATOM     14  C   UNL     1      24.200  26.701  34.287  1.00  0.00     0.051 A 
ATOM     15  C   UNL     1      22.844  26.660  34.642  1.00  0.00     0.157 A 
ATOM     16  C   UNL     1      23.098  24.335  35.288  1.00  0.00     0.062 A 
ATOM     17  C   UNL     1      22.291  25.469  35.141  1.00  0.00     0.158 A 
BRANCH  15  18
ATOM     18  O   UNL     1      22.047  27.794  34.494  1.00  0.00    -0.504 OA
ATOM     19  H   UNL     1      21.666  28.062  33.594  1.00  0.00     0.293 HD
ENDBRANCH  15  18
BRANCH  17  20
ATOM     20  O   UNL     1      20.945  25.394  35.497  1.00  0.00    -0.504 OA
ATOM     21  H   UNL     1      20.202  25.573  34.832  1.00  0.00     0.293 HD
ENDBRANCH  17  20
ENDBRANCH   1  12
BRANCH   2  22
ATOM     22  O   UNL     1      26.500  24.070  36.996  1.00  0.00    -0.502 OA
ATOM     23  H   UNL     1      26.767  25.004  36.707  1.00  0.00     0.293 HD
ENDBRANCH   2  22
BRANCH   6  24
ATOM     24  O   UNL     1      28.509  19.348  36.152  1.00  0.00    -0.507 OA
ATOM     25  H   UNL     1      28.896  18.422  36.293  1.00  0.00     0.293 HD
ENDBRANCH   6  24
BRANCH   8  26
ATOM     26  O   UNL     1      25.776  17.794  32.471  1.00  0.00    -0.508 OA
ATOM     27  H   UNL     1      25.587  18.012  31.500  1.00  0.00     0.293 HD
ENDBRANCH   8  26
TORSDOF 6
ENDMDL
MODEL 7
REMARK VINA RESULT:    -5.698      1.753      3.285
REMARK INTER + INTRA:          -7.142
REMARK INTER:                  -7.584
REMARK INTRA:                   0.443
REMARK UNBOUND:                -0.278
REMARK SMILES O=c1c(O)c(-c2ccc(O)c(O)c2)oc2cc(O)cc(O)c12
REMARK SMILES IDX 5 1 3 2 2 3 1 4 22 5 20 6 19 7 17 8 16 9 15 10 14 11 6 12
REMARK SMILES IDX 7 13 8 14 9 15 13 16 11 17 10 18 12 20 4 22 21 24 18 26
REMARK H PARENT 10 19 12 21 4 23 21 25 18 27
REMARK Flexibility Score: inf
ROOT
ATOM      1  C   UNL     1      24.547  22.337  35.917  1.00  0.00     0.180 A 
ATOM      2  C   UNL     1      25.921  22.030  35.938  1.00  0.00     0.208 A 
ATOM      3  C   UNL     1      26.320  20.729  36.281  1.00  0.00     0.238 A 
ATOM      4  O   UNL     1      27.548  20.440  36.292  1.00  0.00    -0.285 OA
ATOM      5  C   UNL     1      25.346  19.766  36.616  1.00  0.00     0.111 A 
ATOM      6  C   UNL     1      25.666  18.435  36.977  1.00  0.00     0.134 A 
ATOM      7  C   UNL     1      24.638  17.537  37.306  1.00  0.00     0.093 A 
ATOM      8  C   UNL     1      23.300  17.947  37.282  1.00  0.00     0.123 A 
ATOM      9  C   UNL     1      22.982  19.259  36.926  1.00  0.00     0.094 A 
ATOM     10  C   UNL     1      23.990  20.167  36.593  1.00  0.00     0.146 A 
ATOM     11  O   UNL     1      23.658  21.407  36.253  1.00  0.00    -0.452 OA
ENDROOT
BRANCH   1  12
ATOM     12  C   UNL     1      24.046  23.680  35.547  1.00  0.00     0.025 A 
ATOM     13  C   UNL     1      24.904  24.662  35.021  1.00  0.00     0.016 A 
ATOM     14  C   UNL     1      24.404  25.914  34.656  1.00  0.00     0.051 A 
ATOM     15  C   UNL     1      23.040  26.201  34.799  1.00  0.00     0.157 A 
ATOM     16  C   UNL     1      22.676  23.965  35.669  1.00  0.00     0.062 A 
ATOM     17  C   UNL     1      22.172  25.218  35.305  1.00  0.00     0.158 A 
BRANCH  15  18
ATOM     18  O   UNL     1      22.545  27.452  34.436  1.00  0.00    -0.504 OA
ATOM     19  H   UNL     1      22.158  27.623  33.515  1.00  0.00     0.293 HD
ENDBRANCH  15  18
BRANCH  17  20
ATOM     20  O   UNL     1      20.808  25.469  35.454  1.00  0.00    -0.504 OA
ATOM     21  H   UNL     1      20.409  25.767  36.336  1.00  0.00     0.293 HD
ENDBRANCH  17  20
ENDBRANCH   1  12
BRANCH   2  22
ATOM     22  O   UNL     1      26.869  23.015  35.650  1.00  0.00    -0.502 OA
ATOM     23  H   UNL     1      27.682  22.834  35.073  1.00  0.00     0.293 HD
ENDBRANCH   2  22
BRANCH   6  24
ATOM     24  O   UNL     1      26.991  17.997  37.012  1.00  0.00    -0.507 OA
ATOM     25  H   UNL     1      27.644  18.217  36.269  1.00  0.00     0.293 HD
ENDBRANCH   6  24
BRANCH   8  26
ATOM     26  O   UNL     1      22.280  17.057  37.609  1.00  0.00    -0.508 OA
ATOM     27  H   UNL     1      21.379  17.088  37.146  1.00  0.00     0.293 HD
ENDBRANCH   8  26
TORSDOF 6
ENDMDL
MODEL 8
REMARK VINA RESULT:    -5.492      2.801      4.717
REMARK INTER + INTRA:          -6.894
REMARK INTER:                  -6.961
REMARK INTRA:                   0.067
REMARK UNBOUND:                -0.278
REMARK SMILES O=c1c(O)c(-c2ccc(O)c(O)c2)oc2cc(O)cc(O)c12
REMARK SMILES IDX 5 1 3 2 2 3 1 4 22 5 20 6 19 7 17 8 16 9 15 10 14 11 6 12
REMARK SMILES IDX 7 13 8 14 9 15 13 16 11 17 10 18 12 20 4 22 21 24 18 26
REMARK H PARENT 10 19 12 21 4 23 21 25 18 27
REMARK Flexibility Score: inf
ROOT
ATOM      1  C   UNL     1      26.188  22.444  35.556  1.00  0.00     0.180 A 
ATOM      2  C   UNL     1      27.384  23.021  36.026  1.00  0.00     0.208 A 
ATOM      3  C   UNL     1      28.564  22.261  35.988  1.00  0.00     0.238 A 
ATOM      4  O   UNL     1      29.643  22.772  36.396  1.00  0.00    -0.285 OA
ATOM      5  C   UNL     1      28.527  20.939  35.501  1.00  0.00     0.111 A 
ATOM      6  C   UNL     1      29.670  20.106  35.434  1.00  0.00     0.134 A 
ATOM      7  C   UNL     1      29.549  18.796  34.946  1.00  0.00     0.093 A 
ATOM      8  C   UNL     1      28.307  18.304  34.526  1.00  0.00     0.123 A 
ATOM      9  C   UNL     1      27.178  19.122  34.591  1.00  0.00     0.094 A 
ATOM     10  C   UNL     1      27.278  20.430  35.073  1.00  0.00     0.146 A 
ATOM     11  O   UNL     1      26.189  21.188  35.119  1.00  0.00    -0.452 OA
ENDROOT
BRANCH   1  12
ATOM     12  C   UNL     1      24.908  23.186  35.546  1.00  0.00     0.025 A 
ATOM     13  C   UNL     1      24.841  24.526  35.126  1.00  0.00     0.016 A 
ATOM     14  C   UNL     1      23.617  25.199  35.102  1.00  0.00     0.051 A 
ATOM     15  C   UNL     1      22.440  24.540  35.484  1.00  0.00     0.157 A 
ATOM     16  C   UNL     1      23.722  22.524  35.907  1.00  0.00     0.062 A 
ATOM     17  C   UNL     1      22.494  23.195  35.885  1.00  0.00     0.158 A 
BRANCH  15  18
ATOM     18  O   UNL     1      21.220  25.215  35.461  1.00  0.00    -0.504 OA
ATOM     19  H   UNL     1      21.129  26.131  35.036  1.00  0.00     0.293 HD
ENDBRANCH  15  18
BRANCH  17  20
ATOM     20  O   UNL     1      21.341  22.509  36.265  1.00  0.00    -0.504 OA
ATOM     21  H   UNL     1      20.559  22.976  36.708  1.00  0.00     0.293 HD
ENDBRANCH  17  20
ENDBRANCH   1  12
BRANCH   2  22
ATOM     22  O   UNL     1      27.385  24.316  36.548  1.00  0.00    -0.502 OA
ATOM     23  H   UNL     1      27.729  24.527  37.478  1.00  0.00     0.293 HD
ENDBRANCH   2  22
BRANCH   6  24
ATOM     24  O   UNL     1      30.921  20.568  35.846  1.00  0.00    -0.507 OA
ATOM     25  H   UNL     1      31.269  21.479  35.573  1.00  0.00     0.293 HD
ENDBRANCH   6  24
BRANCH   8  26
ATOM     26  O   UNL     1      28.187  17.004  34.042  1.00  0.00    -0.508 OA
ATOM     27  H   UNL     1      27.349  16.455  34.198  1.00  0.00     0.293 HD
ENDBRANCH   8  26
TORSDOF 6
ENDMDL
MODEL 9
REMARK VINA RESULT:    -5.186      3.792      5.066
REMARK INTER + INTRA:          -6.525
REMARK INTER:                  -6.193
REMARK INTRA:                  -0.332
REMARK UNBOUND:                -0.278
REMARK SMILES O=c1c(O)c(-c2ccc(O)c(O)c2)oc2cc(O)cc(O)c12
REMARK SMILES IDX 5 1 3 2 2 3 1 4 22 5 20 6 19 7 17 8 16 9 15 10 14 11 6 12
REMARK SMILES IDX 7 13 8 14 9 15 13 16 11 17 10 18 12 20 4 22 21 24 18 26
REMARK H PARENT 10 19 12 21 4 23 21 25 18 27
REMARK Flexibility Score: inf
ROOT
ATOM      1  C   UNL     1      26.602  23.234  36.218  1.00  0.00     0.180 A 
ATOM      2  C   UNL     1      25.770  24.265  35.741  1.00  0.00     0.208 A 
ATOM      3  C   UNL     1      24.422  23.979  35.473  1.00  0.00     0.238 A 
ATOM      4  O   UNL     1      23.665  24.899  35.055  1.00  0.00    -0.285 OA
ATOM      5  C   UNL     1      23.934  22.671  35.667  1.00  0.00     0.111 A 
ATOM      6  C   UNL     1      22.591  22.301  35.416  1.00  0.00     0.134 A 
ATOM      7  C   UNL     1      22.184  20.974  35.624  1.00  0.00     0.093 A 
ATOM      8  C   UNL     1      23.096  20.012  36.077  1.00  0.00     0.123 A 
ATOM      9  C   UNL     1      24.421  20.374  36.325  1.00  0.00     0.094 A 
ATOM     10  C   UNL     1      24.845  21.690  36.125  1.00  0.00     0.146 A 
ATOM     11  O   UNL     1      26.110  22.008  36.374  1.00  0.00    -0.452 OA
ENDROOT
BRANCH   1  12
ATOM     12  C   UNL     1      28.029  23.460  36.541  1.00  0.00     0.025 A 
ATOM     13  C   UNL     1      28.431  23.889  37.818  1.00  0.00     0.016 A 
ATOM     14  C   UNL     1      29.786  24.072  38.107  1.00  0.00     0.051 A 
ATOM     15  C   UNL     1      30.758  23.816  37.131  1.00  0.00     0.157 A 
ATOM     16  C   UNL     1      29.008  23.184  35.573  1.00  0.00     0.062 A 
ATOM     17  C   UNL     1      30.366  23.367  35.859  1.00  0.00     0.158 A 
BRANCH  15  18
ATOM     18  O   UNL     1      32.109  24.002  37.422  1.00  0.00    -0.504 OA
ATOM     19  H   UNL     1      32.724  24.503  36.792  1.00  0.00     0.293 HD
ENDBRANCH  15  18
BRANCH  17  20
ATOM     20  O   UNL     1      31.310  23.097  34.868  1.00  0.00    -0.504 OA
ATOM     21  H   UNL     1      32.293  22.979  35.079  1.00  0.00     0.293 HD
ENDBRANCH  17  20
ENDBRANCH   1  12
BRANCH   2  22
ATOM     22  O   UNL     1      26.289  25.541  35.511  1.00  0.00    -0.502 OA
ATOM     23  H   UNL     1      26.389  25.927  34.579  1.00  0.00     0.293 HD
ENDBRANCH   2  22
BRANCH   6  24
ATOM     24  O   UNL     1      21.659  23.237  34.963  1.00  0.00    -0.507 OA
ATOM     25  H   UNL     1      20.824  23.457  35.493  1.00  0.00     0.293 HD
ENDBRANCH   6  24
BRANCH   8  26
ATOM     26  O   UNL     1      22.693  18.695  36.283  1.00  0.00    -0.508 OA
ATOM     27  H   UNL     1      22.086  18.217  35.627  1.00  0.00     0.293 HD
ENDBRANCH   8  26
TORSDOF 6
ENDMDL
