MODEL 1
REMARK VINA RESULT:    -4.906      0.000      0.000
REMARK INTER + INTRA:         -13.617
REMARK INTER:                 -10.643
REMARK INTRA:                  -2.974
REMARK UNBOUND:                -2.974
REMARK SMILES CCCCCCCCCCCCCCCCCCCCCC(=O)[O-]
REMARK SMILES IDX 12 1 11 2 10 3 9 4 8 5 7 6 6 7 5 8 4 9 3 10 2 11 1 12 13 13
REMARK SMILES IDX 14 14 15 15 16 16 17 17 18 18 19 19 20 20 21 21 22 22 23 23
REMARK SMILES IDX 24 24
REMARK H PARENT
REMARK Flexibility Score: inf
ROOT
ATOM      1  C   UNL     1      29.354 -10.989  13.238  1.00  0.00     0.000 C 
ENDROOT
BRANCH   1   2
ATOM      2  C   UNL     1      28.330 -10.254  14.122  1.00  0.00     0.000 C 
BRANCH   2   3
ATOM      3  C   UNL     1      27.003 -11.019  14.260  1.00  0.00     0.000 C 
BRANCH   3   4
ATOM      4  C   UNL     1      27.184 -12.548  14.216  1.00  0.00    -0.000 C 
BRANCH   4   5
ATOM      5  C   UNL     1      26.950 -13.276  15.553  1.00  0.00    -0.000 C 
BRANCH   5   6
ATOM      6  C   UNL     1      28.117 -13.199  16.556  1.00  0.00    -0.000 C 
BRANCH   6   7
ATOM      7  C   UNL     1      29.475 -13.643  15.972  1.00  0.00    -0.000 C 
BRANCH   7   8
ATOM      8  C   UNL     1      30.623 -12.690  16.352  1.00  0.00    -0.000 C 
BRANCH   8   9
ATOM      9  C   UNL     1      30.121 -11.298  16.770  1.00  0.00    -0.000 C 
BRANCH   9  10
ATOM     10  C   UNL     1      31.256 -10.269  16.886  1.00  0.00    -0.000 C 
BRANCH  10  11
ATOM     11  C   UNL     1      30.704  -8.839  16.863  1.00  0.00    -0.003 C 
ATOM     12  C   UNL     1      29.279  -8.788  17.409  1.00  0.00     0.004 C 
ENDBRANCH  10  11
ENDBRANCH   9  10
ENDBRANCH   8   9
ENDBRANCH   7   8
ENDBRANCH   6   7
ENDBRANCH   5   6
ENDBRANCH   4   5
ENDBRANCH   3   4
ENDBRANCH   2   3
ENDBRANCH   1   2
BRANCH   1  13
ATOM     13  C   UNL     1      30.750 -10.336  13.165  1.00  0.00     0.000 C 
BRANCH  13  14
ATOM     14  C   UNL     1      30.760  -8.803  13.303  1.00  0.00     0.000 C 
BRANCH  14  15
ATOM     15  C   UNL     1      31.111  -8.091  11.985  1.00  0.00     0.000 C 
BRANCH  15  16
ATOM     16  C   UNL     1      30.598  -6.643  11.939  1.00  0.00     0.000 C 
BRANCH  16  17
ATOM     17  C   UNL     1      31.451  -5.745  11.027  1.00  0.00     0.000 C 
BRANCH  17  18
ATOM     18  C   UNL     1      32.769  -5.313  11.692  1.00  0.00     0.000 C 
BRANCH  18  19
ATOM     19  C   UNL     1      33.975  -5.415  10.741  1.00  0.00     0.000 C 
BRANCH  19  20
ATOM     20  C   UNL     1      35.044  -6.409  11.231  1.00  0.00     0.006 C 
BRANCH  20  21
ATOM     21  C   UNL     1      34.593  -7.272  12.423  1.00  0.00     0.053 C 
BRANCH  21  22
ATOM     22  C   UNL     1      35.053  -8.694  12.310  1.00  0.00     0.041 C 
ATOM     23  O   UNL     1      36.154  -9.044  12.811  1.00  0.00    -0.550 OA
ATOM     24  O   UNL     1      34.282  -9.627  11.626  1.00  0.00    -0.550 OA
ENDBRANCH  21  22
ENDBRANCH  20  21
ENDBRANCH  19  20
ENDBRANCH  18  19
ENDBRANCH  17  18
ENDBRANCH  16  17
ENDBRANCH  15  16
ENDBRANCH  14  15
ENDBRANCH  13  14
ENDBRANCH   1  13
TORSDOF 20
ENDMDL
MODEL 2
REMARK VINA RESULT:    -4.899      1.395      3.023
REMARK INTER + INTRA:         -13.601
REMARK INTER:                 -10.274
REMARK INTRA:                  -3.327
REMARK UNBOUND:                -2.974
REMARK SMILES CCCCCCCCCCCCCCCCCCCCCC(=O)[O-]
REMARK SMILES IDX 12 1 11 2 10 3 9 4 8 5 7 6 6 7 5 8 4 9 3 10 2 11 1 12 13 13
REMARK SMILES IDX 14 14 15 15 16 16 17 17 18 18 19 19 20 20 21 21 22 22 23 23
REMARK SMILES IDX 24 24
REMARK H PARENT
REMARK Flexibility Score: inf
ROOT
ATOM      1  C   UNL     1      32.318 -11.477  16.662  1.00  0.00     0.000 C 
ENDROOT
BRANCH   1   2
ATOM      2  C   UNL     1      31.201 -12.289  15.982  1.00  0.00     0.000 C 
BRANCH   2   3
ATOM      3  C   UNL     1      29.983 -12.511  16.894  1.00  0.00     0.000 C 
BRANCH   3   4
ATOM      4  C   UNL     1      28.956 -13.492  16.297  1.00  0.00    -0.000 C 
BRANCH   4   5
ATOM      5  C   UNL     1      27.526 -12.940  16.154  1.00  0.00    -0.000 C 
BRANCH   5   6
ATOM      6  C   UNL     1      26.983 -12.887  14.713  1.00  0.00    -0.000 C 
BRANCH   6   7
ATOM      7  C   UNL     1      27.052 -11.486  14.068  1.00  0.00    -0.000 C 
BRANCH   7   8
ATOM      8  C   UNL     1      28.496 -11.034  13.785  1.00  0.00    -0.000 C 
BRANCH   8   9
ATOM      9  C   UNL     1      28.754  -9.580  14.212  1.00  0.00    -0.000 C 
BRANCH   9  10
ATOM     10  C   UNL     1      28.601  -9.372  15.726  1.00  0.00    -0.000 C 
BRANCH  10  11
ATOM     11  C   UNL     1      29.788  -8.584  16.293  1.00  0.00    -0.003 C 
ATOM     12  C   UNL     1      29.796  -8.619  17.819  1.00  0.00     0.004 C 
ENDBRANCH  10  11
ENDBRANCH   9  10
ENDBRANCH   8   9
ENDBRANCH   7   8
ENDBRANCH   6   7
ENDBRANCH   5   6
ENDBRANCH   4   5
ENDBRANCH   3   4
ENDBRANCH   2   3
ENDBRANCH   1   2
BRANCH   1  13
ATOM     13  C   UNL     1      32.994 -10.413  15.774  1.00  0.00     0.000 C 
BRANCH  13  14
ATOM     14  C   UNL     1      32.869 -10.655  14.259  1.00  0.00     0.000 C 
BRANCH  14  15
ATOM     15  C   UNL     1      32.341  -9.423  13.503  1.00  0.00     0.000 C 
BRANCH  15  16
ATOM     16  C   UNL     1      31.674  -9.789  12.168  1.00  0.00     0.000 C 
BRANCH  16  17
ATOM     17  C   UNL     1      31.429  -8.560  11.276  1.00  0.00     0.000 C 
BRANCH  17  18
ATOM     18  C   UNL     1      31.054  -7.309  12.089  1.00  0.00     0.000 C 
BRANCH  18  19
ATOM     19  C   UNL     1      31.283  -6.003  11.307  1.00  0.00     0.000 C 
BRANCH  19  20
ATOM     20  C   UNL     1      32.558  -5.258  11.743  1.00  0.00     0.006 C 
BRANCH  20  21
ATOM     21  C   UNL     1      33.678  -5.269  10.689  1.00  0.00     0.053 C 
BRANCH  21  22
ATOM     22  C   UNL     1      34.460  -6.548  10.692  1.00  0.00     0.041 C 
ATOM     23  O   UNL     1      34.981  -6.967  11.759  1.00  0.00    -0.550 OA
ATOM     24  O   UNL     1      34.639  -7.261   9.513  1.00  0.00    -0.550 OA
ENDBRANCH  21  22
ENDBRANCH  20  21
ENDBRANCH  19  20
ENDBRANCH  18  19
ENDBRANCH  17  18
ENDBRANCH  16  17
ENDBRANCH  15  16
ENDBRANCH  14  15
ENDBRANCH  13  14
ENDBRANCH   1  13
TORSDOF 20
ENDMDL
MODEL 3
REMARK VINA RESULT:    -4.895      3.076      8.251
REMARK INTER + INTRA:         -13.592
REMARK INTER:                 -10.794
REMARK INTRA:                  -2.798
REMARK UNBOUND:                -2.974
REMARK SMILES CCCCCCCCCCCCCCCCCCCCCC(=O)[O-]
REMARK SMILES IDX 12 1 11 2 10 3 9 4 8 5 7 6 6 7 5 8 4 9 3 10 2 11 1 12 13 13
REMARK SMILES IDX 14 14 15 15 16 16 17 17 18 18 19 19 20 20 21 21 22 22 23 23
REMARK SMILES IDX 24 24
REMARK H PARENT
REMARK Flexibility Score: inf
ROOT
ATOM      1  C   UNL     1      31.226  -6.232  11.186  1.00  0.00     0.000 C 
ENDROOT
BRANCH   1   2
ATOM      2  C   UNL     1      32.181  -5.095  11.593  1.00  0.00     0.000 C 
BRANCH   2   3
ATOM      3  C   UNL     1      33.555  -5.197  10.909  1.00  0.00     0.000 C 
BRANCH   3   4
ATOM      4  C   UNL     1      34.323  -6.477  11.292  1.00  0.00    -0.000 C 
BRANCH   4   5
ATOM      5  C   UNL     1      35.411  -6.914  10.293  1.00  0.00    -0.000 C 
BRANCH   5   6
ATOM      6  C   UNL     1      35.495  -8.430  10.035  1.00  0.00    -0.000 C 
BRANCH   6   7
ATOM      7  C   UNL     1      34.189  -9.193  10.346  1.00  0.00    -0.000 C 
BRANCH   7   8
ATOM      8  C   UNL     1      33.533  -9.783   9.083  1.00  0.00    -0.000 C 
BRANCH   8   9
ATOM      9  C   UNL     1      31.997  -9.736   9.139  1.00  0.00    -0.000 C 
BRANCH   9  10
ATOM     10  C   UNL     1      31.420  -8.469   8.489  1.00  0.00    -0.000 C 
BRANCH  10  11
ATOM     11  C   UNL     1      32.428  -7.843   7.519  1.00  0.00    -0.003 C 
ATOM     12  C   UNL     1      32.412  -6.319   7.614  1.00  0.00     0.004 C 
ENDBRANCH  10  11
ENDBRANCH   9  10
ENDBRANCH   8   9
ENDBRANCH   7   8
ENDBRANCH   6   7
ENDBRANCH   5   6
ENDBRANCH   4   5
ENDBRANCH   3   4
ENDBRANCH   2   3
ENDBRANCH   1   2
BRANCH   1  13
ATOM     13  C   UNL     1      30.668  -7.073  12.353  1.00  0.00     0.000 C 
BRANCH  13  14
ATOM     14  C   UNL     1      31.324  -8.455  12.530  1.00  0.00     0.000 C 
BRANCH  14  15
ATOM     15  C   UNL     1      30.977  -9.108  13.879  1.00  0.00     0.000 C 
BRANCH  15  16
ATOM     16  C   UNL     1      29.562  -8.753  14.361  1.00  0.00     0.000 C 
BRANCH  16  17
ATOM     17  C   UNL     1      29.273  -9.280  15.777  1.00  0.00     0.000 C 
BRANCH  17  18
ATOM     18  C   UNL     1      27.824  -9.770  15.939  1.00  0.00     0.000 C 
BRANCH  18  19
ATOM     19  C   UNL     1      27.249 -10.360  14.639  1.00  0.00     0.000 C 
BRANCH  19  20
ATOM     20  C   UNL     1      27.631 -11.836  14.427  1.00  0.00     0.006 C 
BRANCH  20  21
ATOM     21  C   UNL     1      27.405 -12.722  15.664  1.00  0.00     0.053 C 
BRANCH  21  22
ATOM     22  C   UNL     1      28.635 -13.480  16.062  1.00  0.00     0.041 C 
ATOM     23  O   UNL     1      29.499 -12.940  16.803  1.00  0.00    -0.550 OA
ATOM     24  O   UNL     1      28.845 -14.771  15.591  1.00  0.00    -0.550 OA
ENDBRANCH  21  22
ENDBRANCH  20  21
ENDBRANCH  19  20
ENDBRANCH  18  19
ENDBRANCH  17  18
ENDBRANCH  16  17
ENDBRANCH  15  16
ENDBRANCH  14  15
ENDBRANCH  13  14
ENDBRANCH   1  13
TORSDOF 20
ENDMDL
MODEL 4
REMARK VINA RESULT:    -4.845      2.660      7.548
REMARK INTER + INTRA:         -13.483
REMARK INTER:                 -10.183
REMARK INTRA:                  -3.300
REMARK UNBOUND:                -2.974
REMARK SMILES CCCCCCCCCCCCCCCCCCCCCC(=O)[O-]
REMARK SMILES IDX 12 1 11 2 10 3 9 4 8 5 7 6 6 7 5 8 4 9 3 10 2 11 1 12 13 13
REMARK SMILES IDX 14 14 15 15 16 16 17 17 18 18 19 19 20 20 21 21 22 22 23 23
REMARK SMILES IDX 24 24
REMARK H PARENT
REMARK Flexibility Score: inf
ROOT
ATOM      1  C   UNL     1      31.366  -8.569  11.189  1.00  0.00     0.000 C 
ENDROOT
BRANCH   1   2
ATOM      2  C   UNL     1      31.014  -7.376  12.096  1.00  0.00     0.000 C 
BRANCH   2   3
ATOM      3  C   UNL     1      31.208  -6.019  11.399  1.00  0.00     0.000 C 
BRANCH   3   4
ATOM      4  C   UNL     1      32.323  -6.043  10.336  1.00  0.00    -0.000 C 
BRANCH   4   5
ATOM      5  C   UNL     1      33.586  -5.237  10.690  1.00  0.00    -0.000 C 
BRANCH   5   6
ATOM      6  C   UNL     1      34.871  -6.069  10.857  1.00  0.00    -0.000 C 
BRANCH   6   7
ATOM      7  C   UNL     1      34.749  -7.520  10.346  1.00  0.00    -0.000 C 
BRANCH   7   8
ATOM      8  C   UNL     1      35.636  -8.503  11.132  1.00  0.00    -0.000 C 
BRANCH   8   9
ATOM      9  C   UNL     1      35.752  -8.132  12.620  1.00  0.00    -0.000 C 
BRANCH   9  10
ATOM     10  C   UNL     1      34.449  -8.379  13.395  1.00  0.00    -0.000 C 
BRANCH  10  11
ATOM     11  C   UNL     1      34.676  -9.365  14.547  1.00  0.00    -0.003 C 
ATOM     12  C   UNL     1      34.719 -10.805  14.041  1.00  0.00     0.004 C 
ENDBRANCH  10  11
ENDBRANCH   9  10
ENDBRANCH   8   9
ENDBRANCH   7   8
ENDBRANCH   6   7
ENDBRANCH   5   6
ENDBRANCH   4   5
ENDBRANCH   3   4
ENDBRANCH   2   3
ENDBRANCH   1   2
BRANCH   1  13
ATOM     13  C   UNL     1      31.663  -9.892  11.925  1.00  0.00     0.000 C 
BRANCH  13  14
ATOM     14  C   UNL     1      30.540 -10.385  12.856  1.00  0.00     0.000 C 
BRANCH  14  15
ATOM     15  C   UNL     1      31.026 -10.626  14.295  1.00  0.00     0.000 C 
BRANCH  15  16
ATOM     16  C   UNL     1      30.752  -9.430  15.220  1.00  0.00     0.000 C 
BRANCH  16  17
ATOM     17  C   UNL     1      29.327  -8.874  15.056  1.00  0.00     0.000 C 
BRANCH  17  18
ATOM     18  C   UNL     1      28.272  -9.739  15.767  1.00  0.00     0.000 C 
BRANCH  18  19
ATOM     19  C   UNL     1      27.262 -10.366  14.790  1.00  0.00     0.000 C 
BRANCH  19  20
ATOM     20  C   UNL     1      27.567 -11.842  14.475  1.00  0.00     0.006 C 
BRANCH  20  21
ATOM     21  C   UNL     1      27.414 -12.782  15.683  1.00  0.00     0.053 C 
BRANCH  21  22
ATOM     22  C   UNL     1      28.681 -13.514  16.006  1.00  0.00     0.041 C 
ATOM     23  O   UNL     1      29.613 -12.927  16.617  1.00  0.00    -0.550 OA
ATOM     24  O   UNL     1      28.846 -14.835  15.608  1.00  0.00    -0.550 OA
ENDBRANCH  21  22
ENDBRANCH  20  21
ENDBRANCH  19  20
ENDBRANCH  18  19
ENDBRANCH  17  18
ENDBRANCH  16  17
ENDBRANCH  15  16
ENDBRANCH  14  15
ENDBRANCH  13  14
ENDBRANCH   1  13
TORSDOF 20
ENDMDL
MODEL 5
REMARK VINA RESULT:    -4.775      1.812      3.877
REMARK INTER + INTRA:         -13.332
REMARK INTER:                 -10.769
REMARK INTRA:                  -2.562
REMARK UNBOUND:                -2.974
REMARK SMILES CCCCCCCCCCCCCCCCCCCCCC(=O)[O-]
REMARK SMILES IDX 12 1 11 2 10 3 9 4 8 5 7 6 6 7 5 8 4 9 3 10 2 11 1 12 13 13
REMARK SMILES IDX 14 14 15 15 16 16 17 17 18 18 19 19 20 20 21 21 22 22 23 23
REMARK SMILES IDX 24 24
REMARK H PARENT
REMARK Flexibility Score: inf
ROOT
ATOM      1  C   UNL     1      31.699  -8.485  12.877  1.00  0.00     0.000 C 
ENDROOT
BRANCH   1   2
ATOM      2  C   UNL     1      31.284  -9.960  13.026  1.00  0.00     0.000 C 
BRANCH   2   3
ATOM      3  C   UNL     1      32.114 -10.710  14.082  1.00  0.00     0.000 C 
BRANCH   3   4
ATOM      4  C   UNL     1      31.311 -11.036  15.356  1.00  0.00    -0.000 C 
BRANCH   4   5
ATOM      5  C   UNL     1      30.873  -9.816  16.187  1.00  0.00    -0.000 C 
BRANCH   5   6
ATOM      6  C   UNL     1      29.373  -9.760  16.532  1.00  0.00    -0.000 C 
BRANCH   6   7
ATOM      7  C   UNL     1      28.489  -9.203  15.395  1.00  0.00    -0.000 C 
BRANCH   7   8
ATOM      8  C   UNL     1      27.368 -10.176  14.985  1.00  0.00    -0.000 C 
BRANCH   8   9
ATOM      9  C   UNL     1      27.847 -11.240  13.983  1.00  0.00    -0.000 C 
BRANCH   9  10
ATOM     10  C   UNL     1      27.297 -12.639  14.298  1.00  0.00    -0.000 C 
BRANCH  10  11
ATOM     11  C   UNL     1      27.302 -12.903  15.808  1.00  0.00    -0.003 C 
ATOM     12  C   UNL     1      28.638 -13.486  16.262  1.00  0.00     0.004 C 
ENDBRANCH  10  11
ENDBRANCH   9  10
ENDBRANCH   8   9
ENDBRANCH   7   8
ENDBRANCH   6   7
ENDBRANCH   5   6
ENDBRANCH   4   5
ENDBRANCH   3   4
ENDBRANCH   2   3
ENDBRANCH   1   2
BRANCH   1  13
ATOM     13  C   UNL     1      30.540  -7.493  12.646  1.00  0.00     0.000 C 
BRANCH  13  14
ATOM     14  C   UNL     1      30.786  -6.451  11.540  1.00  0.00     0.000 C 
BRANCH  14  15
ATOM     15  C   UNL     1      31.604  -7.015  10.365  1.00  0.00     0.000 C 
BRANCH  15  16
ATOM     16  C   UNL     1      32.549  -5.973   9.748  1.00  0.00     0.000 C 
BRANCH  16  17
ATOM     17  C   UNL     1      33.435  -5.286  10.800  1.00  0.00     0.000 C 
BRANCH  17  18
ATOM     18  C   UNL     1      34.435  -6.256  11.452  1.00  0.00     0.000 C 
BRANCH  18  19
ATOM     19  C   UNL     1      35.401  -6.885  10.433  1.00  0.00     0.000 C 
BRANCH  19  20
ATOM     20  C   UNL     1      36.880  -6.732  10.833  1.00  0.00     0.006 C 
BRANCH  20  21
ATOM     21  C   UNL     1      37.256  -7.474  12.127  1.00  0.00     0.053 C 
BRANCH  21  22
ATOM     22  C   UNL     1      38.671  -7.216  12.548  1.00  0.00     0.041 C 
ATOM     23  O   UNL     1      39.131  -6.044  12.534  1.00  0.00    -0.550 OA
ATOM     24  O   UNL     1      39.492  -8.271  12.927  1.00  0.00    -0.550 OA
ENDBRANCH  21  22
ENDBRANCH  20  21
ENDBRANCH  19  20
ENDBRANCH  18  19
ENDBRANCH  17  18
ENDBRANCH  16  17
ENDBRANCH  15  16
ENDBRANCH  14  15
ENDBRANCH  13  14
ENDBRANCH   1  13
TORSDOF 20
ENDMDL
MODEL 6
REMARK VINA RESULT:    -4.772      2.784      8.080
REMARK INTER + INTRA:         -13.326
REMARK INTER:                 -10.673
REMARK INTRA:                  -2.652
REMARK UNBOUND:                -2.974
REMARK SMILES CCCCCCCCCCCCCCCCCCCCCC(=O)[O-]
REMARK SMILES IDX 12 1 11 2 10 3 9 4 8 5 7 6 6 7 5 8 4 9 3 10 2 11 1 12 13 13
REMARK SMILES IDX 14 14 15 15 16 16 17 17 18 18 19 19 20 20 21 21 22 22 23 23
REMARK SMILES IDX 24 24
REMARK H PARENT
REMARK Flexibility Score: inf
ROOT
ATOM      1  C   UNL     1      31.415  -8.519  11.256  1.00  0.00     0.000 C 
ENDROOT
BRANCH   1   2
ATOM      2  C   UNL     1      30.925  -7.351  12.130  1.00  0.00     0.000 C 
BRANCH   2   3
ATOM      3  C   UNL     1      31.086  -5.984  11.443  1.00  0.00     0.000 C 
BRANCH   3   4
ATOM      4  C   UNL     1      32.202  -5.972  10.382  1.00  0.00    -0.000 C 
BRANCH   4   5
ATOM      5  C   UNL     1      33.496  -5.248  10.797  1.00  0.00    -0.000 C 
BRANCH   5   6
ATOM      6  C   UNL     1      34.776  -6.103  10.738  1.00  0.00    -0.000 C 
BRANCH   6   7
ATOM      7  C   UNL     1      34.672  -7.323   9.798  1.00  0.00    -0.000 C 
BRANCH   7   8
ATOM      8  C   UNL     1      35.541  -8.506  10.264  1.00  0.00    -0.000 C 
BRANCH   8   9
ATOM      9  C   UNL     1      35.873  -8.439  11.764  1.00  0.00    -0.000 C 
BRANCH   9  10
ATOM     10  C   UNL     1      37.376  -8.590  12.044  1.00  0.00    -0.000 C 
BRANCH  10  11
ATOM     11  C   UNL     1      37.970  -7.279  12.570  1.00  0.00    -0.003 C 
ATOM     12  C   UNL     1      38.388  -6.362  11.424  1.00  0.00     0.004 C 
ENDBRANCH  10  11
ENDBRANCH   9  10
ENDBRANCH   8   9
ENDBRANCH   7   8
ENDBRANCH   6   7
ENDBRANCH   5   6
ENDBRANCH   4   5
ENDBRANCH   3   4
ENDBRANCH   2   3
ENDBRANCH   1   2
BRANCH   1  13
ATOM     13  C   UNL     1      31.800  -9.801  12.024  1.00  0.00     0.000 C 
BRANCH  13  14
ATOM     14  C   UNL     1      30.662 -10.433  12.847  1.00  0.00     0.000 C 
BRANCH  14  15
ATOM     15  C   UNL     1      31.030 -10.609  14.330  1.00  0.00     0.000 C 
BRANCH  15  16
ATOM     16  C   UNL     1      30.567  -9.430  15.199  1.00  0.00     0.000 C 
BRANCH  16  17
ATOM     17  C   UNL     1      29.121  -9.005  14.892  1.00  0.00     0.000 C 
BRANCH  17  18
ATOM     18  C   UNL     1      28.083  -9.946  15.526  1.00  0.00     0.000 C 
BRANCH  18  19
ATOM     19  C   UNL     1      27.195 -10.642  14.480  1.00  0.00     0.000 C 
BRANCH  19  20
ATOM     20  C   UNL     1      27.637 -12.086  14.181  1.00  0.00     0.006 C 
BRANCH  20  21
ATOM     21  C   UNL     1      27.370 -13.071  15.332  1.00  0.00     0.053 C 
BRANCH  21  22
ATOM     22  C   UNL     1      28.620 -13.732  15.826  1.00  0.00     0.041 C 
ATOM     23  O   UNL     1      29.425 -13.098  16.558  1.00  0.00    -0.550 OA
ATOM     24  O   UNL     1      28.914 -15.039  15.454  1.00  0.00    -0.550 OA
ENDBRANCH  21  22
ENDBRANCH  20  21
ENDBRANCH  19  20
ENDBRANCH  18  19
ENDBRANCH  17  18
ENDBRANCH  16  17
ENDBRANCH  15  16
ENDBRANCH  14  15
ENDBRANCH  13  14
ENDBRANCH   1  13
TORSDOF 20
ENDMDL
MODEL 7
REMARK VINA RESULT:    -4.742      1.422      4.085
REMARK INTER + INTRA:         -13.260
REMARK INTER:                  -9.730
REMARK INTRA:                  -3.530
REMARK UNBOUND:                -2.974
REMARK SMILES CCCCCCCCCCCCCCCCCCCCCC(=O)[O-]
REMARK SMILES IDX 12 1 11 2 10 3 9 4 8 5 7 6 6 7 5 8 4 9 3 10 2 11 1 12 13 13
REMARK SMILES IDX 14 14 15 15 16 16 17 17 18 18 19 19 20 20 21 21 22 22 23 23
REMARK SMILES IDX 24 24
REMARK H PARENT
REMARK Flexibility Score: inf
ROOT
ATOM      1  C   UNL     1      31.253  -7.810  11.578  1.00  0.00     0.000 C 
ENDROOT
BRANCH   1   2
ATOM      2  C   UNL     1      30.881  -8.415  12.944  1.00  0.00     0.000 C 
BRANCH   2   3
ATOM      3  C   UNL     1      30.687  -9.940  12.889  1.00  0.00     0.000 C 
BRANCH   3   4
ATOM      4  C   UNL     1      31.158 -10.651  14.172  1.00  0.00    -0.000 C 
BRANCH   4   5
ATOM      5  C   UNL     1      31.385  -9.733  15.387  1.00  0.00    -0.000 C 
BRANCH   5   6
ATOM      6  C   UNL     1      30.422  -9.956  16.568  1.00  0.00    -0.000 C 
BRANCH   6   7
ATOM      7  C   UNL     1      29.354  -8.853  16.723  1.00  0.00    -0.000 C 
BRANCH   7   8
ATOM      8  C   UNL     1      28.237  -8.956  15.667  1.00  0.00    -0.000 C 
BRANCH   8   9
ATOM      9  C   UNL     1      27.497 -10.302  15.721  1.00  0.00    -0.000 C 
BRANCH   9  10
ATOM     10  C   UNL     1      27.379 -10.968  14.342  1.00  0.00    -0.000 C 
BRANCH  10  11
ATOM     11  C   UNL     1      27.498 -12.492  14.458  1.00  0.00    -0.003 C 
ATOM     12  C   UNL     1      28.410 -12.889  15.616  1.00  0.00     0.004 C 
ENDBRANCH  10  11
ENDBRANCH   9  10
ENDBRANCH   8   9
ENDBRANCH   7   8
ENDBRANCH   6   7
ENDBRANCH   5   6
ENDBRANCH   4   5
ENDBRANCH   3   4
ENDBRANCH   2   3
ENDBRANCH   1   2
BRANCH   1  13
ATOM     13  C   UNL     1      30.917  -6.314  11.405  1.00  0.00     0.000 C 
BRANCH  13  14
ATOM     14  C   UNL     1      32.119  -5.360  11.525  1.00  0.00     0.000 C 
BRANCH  14  15
ATOM     15  C   UNL     1      33.215  -5.653  10.486  1.00  0.00     0.000 C 
BRANCH  15  16
ATOM     16  C   UNL     1      34.595  -5.866  11.126  1.00  0.00     0.000 C 
BRANCH  16  17
ATOM     17  C   UNL     1      35.499  -6.782  10.284  1.00  0.00     0.000 C 
BRANCH  17  18
ATOM     18  C   UNL     1      35.860  -8.086  11.015  1.00  0.00     0.000 C 
BRANCH  18  19
ATOM     19  C   UNL     1      34.693  -9.088  11.050  1.00  0.00     0.000 C 
BRANCH  19  20
ATOM     20  C   UNL     1      34.397  -9.617  12.466  1.00  0.00     0.006 C 
BRANCH  20  21
ATOM     21  C   UNL     1      34.589  -8.569  13.575  1.00  0.00     0.053 C 
BRANCH  21  22
ATOM     22  C   UNL     1      35.418  -9.082  14.714  1.00  0.00     0.041 C 
ATOM     23  O   UNL     1      34.867  -9.671  15.682  1.00  0.00    -0.550 OA
ATOM     24  O   UNL     1      36.793  -8.884  14.723  1.00  0.00    -0.550 OA
ENDBRANCH  21  22
ENDBRANCH  20  21
ENDBRANCH  19  20
ENDBRANCH  18  19
ENDBRANCH  17  18
ENDBRANCH  16  17
ENDBRANCH  15  16
ENDBRANCH  14  15
ENDBRANCH  13  14
ENDBRANCH   1  13
TORSDOF 20
ENDMDL
MODEL 8
REMARK VINA RESULT:    -4.729      2.875      7.814
REMARK INTER + INTRA:         -13.231
REMARK INTER:                  -9.902
REMARK INTRA:                  -3.329
REMARK UNBOUND:                -2.974
REMARK SMILES CCCCCCCCCCCCCCCCCCCCCC(=O)[O-]
REMARK SMILES IDX 12 1 11 2 10 3 9 4 8 5 7 6 6 7 5 8 4 9 3 10 2 11 1 12 13 13
REMARK SMILES IDX 14 14 15 15 16 16 17 17 18 18 19 19 20 20 21 21 22 22 23 23
REMARK SMILES IDX 24 24
REMARK H PARENT
REMARK Flexibility Score: inf
ROOT
ATOM      1  C   UNL     1      31.119  -7.062  10.676  1.00  0.00     0.000 C 
ENDROOT
BRANCH   1   2
ATOM      2  C   UNL     1      32.039  -6.017  10.020  1.00  0.00     0.000 C 
BRANCH   2   3
ATOM      3  C   UNL     1      32.879  -5.234  11.044  1.00  0.00     0.000 C 
BRANCH   3   4
ATOM      4  C   UNL     1      34.378  -5.586  10.986  1.00  0.00    -0.000 C 
BRANCH   4   5
ATOM      5  C   UNL     1      34.744  -6.991  11.498  1.00  0.00    -0.000 C 
BRANCH   5   6
ATOM      6  C   UNL     1      35.995  -7.619  10.856  1.00  0.00    -0.000 C 
BRANCH   6   7
ATOM      7  C   UNL     1      35.686  -8.771   9.877  1.00  0.00    -0.000 C 
BRANCH   7   8
ATOM      8  C   UNL     1      34.206  -8.809   9.454  1.00  0.00    -0.000 C 
BRANCH   8   9
ATOM      9  C   UNL     1      33.443  -9.989  10.078  1.00  0.00    -0.000 C 
BRANCH   9  10
ATOM     10  C   UNL     1      32.180 -10.361   9.287  1.00  0.00    -0.000 C 
BRANCH  10  11
ATOM     11  C   UNL     1      32.231  -9.783   7.868  1.00  0.00    -0.003 C 
ATOM     12  C   UNL     1      30.965  -8.993   7.547  1.00  0.00     0.004 C 
ENDBRANCH  10  11
ENDBRANCH   9  10
ENDBRANCH   8   9
ENDBRANCH   7   8
ENDBRANCH   6   7
ENDBRANCH   5   6
ENDBRANCH   4   5
ENDBRANCH   3   4
ENDBRANCH   2   3
ENDBRANCH   1   2
BRANCH   1  13
ATOM     13  C   UNL     1      30.614  -6.702  12.089  1.00  0.00     0.000 C 
BRANCH  13  14
ATOM     14  C   UNL     1      30.465  -7.895  13.050  1.00  0.00     0.000 C 
BRANCH  14  15
ATOM     15  C   UNL     1      31.737  -8.759  13.125  1.00  0.00     0.000 C 
BRANCH  15  16
ATOM     16  C   UNL     1      31.428 -10.262  13.191  1.00  0.00     0.000 C 
BRANCH  16  17
ATOM     17  C   UNL     1      29.967 -10.580  12.828  1.00  0.00     0.000 C 
BRANCH  17  18
ATOM     18  C   UNL     1      29.234 -11.336  13.948  1.00  0.00     0.000 C 
BRANCH  18  19
ATOM     19  C   UNL     1      27.892 -10.682  14.326  1.00  0.00     0.000 C 
BRANCH  19  20
ATOM     20  C   UNL     1      27.879 -10.124  15.761  1.00  0.00     0.006 C 
BRANCH  20  21
ATOM     21  C   UNL     1      28.648  -8.802  15.923  1.00  0.00     0.053 C 
BRANCH  21  22
ATOM     22  C   UNL     1      29.794  -8.917  16.881  1.00  0.00     0.041 C 
ATOM     23  O   UNL     1      30.844  -9.523  16.542  1.00  0.00    -0.550 OA
ATOM     24  O   UNL     1      29.693  -8.381  18.160  1.00  0.00    -0.550 OA
ENDBRANCH  21  22
ENDBRANCH  20  21
ENDBRANCH  19  20
ENDBRANCH  18  19
ENDBRANCH  17  18
ENDBRANCH  16  17
ENDBRANCH  15  16
ENDBRANCH  14  15
ENDBRANCH  13  14
ENDBRANCH   1  13
TORSDOF 20
ENDMDL
MODEL 9
REMARK VINA RESULT:    -4.723      2.224      7.832
REMARK INTER + INTRA:         -13.219
REMARK INTER:                  -9.738
REMARK INTRA:                  -3.481
REMARK UNBOUND:                -2.974
REMARK SMILES CCCCCCCCCCCCCCCCCCCCCC(=O)[O-]
REMARK SMILES IDX 12 1 11 2 10 3 9 4 8 5 7 6 6 7 5 8 4 9 3 10 2 11 1 12 13 13
REMARK SMILES IDX 14 14 15 15 16 16 17 17 18 18 19 19 20 20 21 21 22 22 23 23
REMARK SMILES IDX 24 24
REMARK H PARENT
REMARK Flexibility Score: inf
ROOT
ATOM      1  C   UNL     1      31.610  -9.194  13.634  1.00  0.00     0.000 C 
ENDROOT
BRANCH   1   2
ATOM      2  C   UNL     1      33.051  -8.764  13.305  1.00  0.00     0.000 C 
BRANCH   2   3
ATOM      3  C   UNL     1      33.623  -9.485  12.073  1.00  0.00     0.000 C 
BRANCH   3   4
ATOM      4  C   UNL     1      34.968  -8.898  11.603  1.00  0.00    -0.000 C 
BRANCH   4   5
ATOM      5  C   UNL     1      34.881  -7.932  10.408  1.00  0.00    -0.000 C 
BRANCH   5   6
ATOM      6  C   UNL     1      35.417  -6.512  10.670  1.00  0.00    -0.000 C 
BRANCH   6   7
ATOM      7  C   UNL     1      34.358  -5.536  11.226  1.00  0.00    -0.000 C 
BRANCH   7   8
ATOM      8  C   UNL     1      33.046  -5.563  10.422  1.00  0.00    -0.000 C 
BRANCH   8   9
ATOM      9  C   UNL     1      31.816  -5.820  11.308  1.00  0.00    -0.000 C 
BRANCH   9  10
ATOM     10  C   UNL     1      30.948  -6.979  10.794  1.00  0.00    -0.000 C 
BRANCH  10  11
ATOM     11  C   UNL     1      31.396  -7.421   9.396  1.00  0.00    -0.003 C 
ATOM     12  C   UNL     1      31.418  -8.943   9.279  1.00  0.00     0.004 C 
ENDBRANCH  10  11
ENDBRANCH   9  10
ENDBRANCH   8   9
ENDBRANCH   7   8
ENDBRANCH   6   7
ENDBRANCH   5   6
ENDBRANCH   4   5
ENDBRANCH   3   4
ENDBRANCH   2   3
ENDBRANCH   1   2
BRANCH   1  13
ATOM     13  C   UNL     1      31.088 -10.412  12.843  1.00  0.00     0.000 C 
BRANCH  13  14
ATOM     14  C   UNL     1      29.654 -10.848  13.192  1.00  0.00     0.000 C 
BRANCH  14  15
ATOM     15  C   UNL     1      29.025  -9.985  14.300  1.00  0.00     0.000 C 
BRANCH  15  16
ATOM     16  C   UNL     1      27.595 -10.425  14.653  1.00  0.00     0.000 C 
BRANCH  16  17
ATOM     17  C   UNL     1      27.536 -11.244  15.954  1.00  0.00     0.000 C 
BRANCH  17  18
ATOM     18  C   UNL     1      27.395 -12.753  15.692  1.00  0.00     0.000 C 
BRANCH  18  19
ATOM     19  C   UNL     1      28.742 -13.495  15.758  1.00  0.00     0.000 C 
BRANCH  19  20
ATOM     20  C   UNL     1      29.734 -12.854  16.745  1.00  0.00     0.006 C 
BRANCH  20  21
ATOM     21  C   UNL     1      31.095 -12.502  16.120  1.00  0.00     0.053 C 
BRANCH  21  22
ATOM     22  C   UNL     1      31.835 -11.458  16.901  1.00  0.00     0.041 C 
ATOM     23  O   UNL     1      31.423 -10.269  16.916  1.00  0.00    -0.550 OA
ATOM     24  O   UNL     1      32.997 -11.791  17.587  1.00  0.00    -0.550 OA
ENDBRANCH  21  22
ENDBRANCH  20  21
ENDBRANCH  19  20
ENDBRANCH  18  19
ENDBRANCH  17  18
ENDBRANCH  16  17
ENDBRANCH  15  16
ENDBRANCH  14  15
ENDBRANCH  13  14
ENDBRANCH   1  13
TORSDOF 20
ENDMDL
