MODEL 1
REMARK VINA RESULT:    -4.335      0.000      0.000
REMARK INTER + INTRA:         -10.173
REMARK INTER:                  -7.883
REMARK INTRA:                  -2.290
REMARK UNBOUND:                -2.290
REMARK SMILES CCCCCCCCCCCCCCCC(=O)[O-]
REMARK SMILES IDX 9 1 10 2 11 3 12 4 13 5 14 6 15 7 16 8 17 9 18 10 8 11 7 12
REMARK SMILES IDX 6 13 5 14 4 15 3 16 2 17 1 18
REMARK H PARENT
REMARK Flexibility Score: inf
ROOT
ATOM      1  C   UNL     1      15.227   3.908   0.616  1.00  0.00     0.000 C 
ENDROOT
BRANCH   1   2
ATOM      2  C   UNL     1      15.701   2.825   1.602  1.00  0.00     0.000 C 
BRANCH   2   3
ATOM      3  C   UNL     1      14.571   2.327   2.516  1.00  0.00     0.000 C 
BRANCH   3   4
ATOM      4  C   UNL     1      13.175   2.618   1.940  1.00  0.00     0.000 C 
BRANCH   4   5
ATOM      5  C   UNL     1      12.391   3.653   2.766  1.00  0.00     0.000 C 
BRANCH   5   6
ATOM      6  C   UNL     1      11.876   4.868   1.966  1.00  0.00     0.006 C 
BRANCH   6   7
ATOM      7  C   UNL     1      11.160   4.512   0.653  1.00  0.00     0.053 C 
BRANCH   7   8
ATOM      8  C   UNL     1       9.717   4.911   0.676  1.00  0.00     0.041 C 
ATOM      9  O   UNL     1       9.379   6.039   1.122  1.00  0.00    -0.550 OA
ATOM     10  O   UNL     1       8.742   4.026   0.234  1.00  0.00    -0.550 OA
ENDBRANCH   7   8
ENDBRANCH   6   7
ENDBRANCH   5   6
ENDBRANCH   4   5
ENDBRANCH   3   4
ENDBRANCH   2   3
ENDBRANCH   1   2
BRANCH   1  11
ATOM     11  C   UNL     1      16.076   3.951  -0.663  1.00  0.00     0.000 C 
BRANCH  11  12
ATOM     12  C   UNL     1      15.222   3.906  -1.941  1.00  0.00    -0.000 C 
BRANCH  12  13
ATOM     13  C   UNL     1      13.923   3.101  -1.764  1.00  0.00    -0.000 C 
BRANCH  13  14
ATOM     14  C   UNL     1      14.025   1.645  -2.270  1.00  0.00    -0.000 C 
BRANCH  14  15
ATOM     15  C   UNL     1      14.237   0.643  -1.123  1.00  0.00    -0.000 C 
BRANCH  15  16
ATOM     16  C   UNL     1      15.706   0.176  -1.019  1.00  0.00    -0.000 C 
BRANCH  16  17
ATOM     17  C   UNL     1      16.567   0.575  -2.230  1.00  0.00    -0.003 C 
ATOM     18  C   UNL     1      17.911   1.179  -1.833  1.00  0.00     0.004 C 
ENDBRANCH  16  17
ENDBRANCH  15  16
ENDBRANCH  14  15
ENDBRANCH  13  14
ENDBRANCH  12  13
ENDBRANCH  11  12
ENDBRANCH   1  11
TORSDOF 14
ENDMDL
MODEL 2
REMARK VINA RESULT:    -4.161      1.392      2.556
REMARK INTER + INTRA:          -9.856
REMARK INTER:                  -8.001
REMARK INTRA:                  -1.855
REMARK UNBOUND:                -2.290
REMARK SMILES CCCCCCCCCCCCCCCC(=O)[O-]
REMARK SMILES IDX 9 1 10 2 11 3 12 4 13 5 14 6 15 7 16 8 17 9 18 10 8 11 7 12
REMARK SMILES IDX 6 13 5 14 4 15 3 16 2 17 1 18
REMARK H PARENT
REMARK Flexibility Score: inf
ROOT
ATOM      1  C   UNL     1      15.539   3.967   0.222  1.00  0.00     0.000 C 
ENDROOT
BRANCH   1   2
ATOM      2  C   UNL     1      15.330   3.025   1.422  1.00  0.00     0.000 C 
BRANCH   2   3
ATOM      3  C   UNL     1      13.966   3.228   2.098  1.00  0.00     0.000 C 
BRANCH   3   4
ATOM      4  C   UNL     1      13.320   4.574   1.733  1.00  0.00     0.000 C 
BRANCH   4   5
ATOM      5  C   UNL     1      11.803   4.600   1.987  1.00  0.00     0.000 C 
BRANCH   5   6
ATOM      6  C   UNL     1      10.932   4.670   0.716  1.00  0.00     0.006 C 
BRANCH   6   7
ATOM      7  C   UNL     1       9.783   5.688   0.784  1.00  0.00     0.053 C 
BRANCH   7   8
ATOM      8  C   UNL     1       9.593   6.408  -0.516  1.00  0.00     0.041 C 
ATOM      9  O   UNL     1       9.090   7.562  -0.533  1.00  0.00    -0.550 OA
ATOM     10  O   UNL     1       9.940   5.791  -1.710  1.00  0.00    -0.550 OA
ENDBRANCH   7   8
ENDBRANCH   6   7
ENDBRANCH   5   6
ENDBRANCH   4   5
ENDBRANCH   3   4
ENDBRANCH   2   3
ENDBRANCH   1   2
BRANCH   1  11
ATOM     11  C   UNL     1      16.305   3.295  -0.926  1.00  0.00     0.000 C 
BRANCH  11  12
ATOM     12  C   UNL     1      16.528   1.793  -0.689  1.00  0.00    -0.000 C 
BRANCH  12  13
ATOM     13  C   UNL     1      17.059   1.062  -1.934  1.00  0.00    -0.000 C 
BRANCH  13  14
ATOM     14  C   UNL     1      15.974   0.268  -2.694  1.00  0.00    -0.000 C 
BRANCH  14  15
ATOM     15  C   UNL     1      14.624   0.270  -1.954  1.00  0.00    -0.000 C 
BRANCH  15  16
ATOM     16  C   UNL     1      13.594   1.208  -2.622  1.00  0.00    -0.000 C 
BRANCH  16  17
ATOM     17  C   UNL     1      12.785   2.048  -1.620  1.00  0.00    -0.003 C 
ATOM     18  C   UNL     1      12.357   1.257  -0.386  1.00  0.00     0.004 C 
ENDBRANCH  16  17
ENDBRANCH  15  16
ENDBRANCH  14  15
ENDBRANCH  13  14
ENDBRANCH  12  13
ENDBRANCH  11  12
ENDBRANCH   1  11
TORSDOF 14
ENDMDL
MODEL 3
REMARK VINA RESULT:    -4.153      1.657      4.189
REMARK INTER + INTRA:          -9.841
REMARK INTER:                  -7.254
REMARK INTRA:                  -2.587
REMARK UNBOUND:                -2.290
REMARK SMILES CCCCCCCCCCCCCCCC(=O)[O-]
REMARK SMILES IDX 9 1 10 2 11 3 12 4 13 5 14 6 15 7 16 8 17 9 18 10 8 11 7 12
REMARK SMILES IDX 6 13 5 14 4 15 3 16 2 17 1 18
REMARK H PARENT
REMARK Flexibility Score: inf
ROOT
ATOM      1  C   UNL     1      13.870   3.027  -2.146  1.00  0.00     0.000 C 
ENDROOT
BRANCH   1   2
ATOM      2  C   UNL     1      13.991   1.511  -1.904  1.00  0.00     0.000 C 
BRANCH   2   3
ATOM      3  C   UNL     1      12.882   0.972  -0.989  1.00  0.00     0.000 C 
BRANCH   3   4
ATOM      4  C   UNL     1      11.492   1.512  -1.365  1.00  0.00     0.000 C 
BRANCH   4   5
ATOM      5  C   UNL     1      10.687   1.994  -0.145  1.00  0.00     0.000 C 
BRANCH   5   6
ATOM      6  C   UNL     1       9.843   3.264  -0.384  1.00  0.00     0.006 C 
BRANCH   6   7
ATOM      7  C   UNL     1      10.443   4.248  -1.400  1.00  0.00     0.053 C 
BRANCH   7   8
ATOM      8  C   UNL     1       9.835   5.612  -1.286  1.00  0.00     0.041 C 
ATOM      9  O   UNL     1       9.773   6.186  -0.167  1.00  0.00    -0.550 OA
ATOM     10  O   UNL     1       9.308   6.236  -2.409  1.00  0.00    -0.550 OA
ENDBRANCH   7   8
ENDBRANCH   6   7
ENDBRANCH   5   6
ENDBRANCH   4   5
ENDBRANCH   3   4
ENDBRANCH   2   3
ENDBRANCH   1   2
BRANCH   1  11
ATOM     11  C   UNL     1      15.217   3.753  -2.015  1.00  0.00     0.000 C 
BRANCH  11  12
ATOM     12  C   UNL     1      16.086   3.186  -0.880  1.00  0.00    -0.000 C 
BRANCH  12  13
ATOM     13  C   UNL     1      15.738   3.781   0.495  1.00  0.00    -0.000 C 
BRANCH  13  14
ATOM     14  C   UNL     1      15.257   2.730   1.520  1.00  0.00    -0.000 C 
BRANCH  14  15
ATOM     15  C   UNL     1      13.830   3.015   2.020  1.00  0.00    -0.000 C 
BRANCH  15  16
ATOM     16  C   UNL     1      13.194   4.231   1.311  1.00  0.00    -0.000 C 
BRANCH  16  17
ATOM     17  C   UNL     1      12.081   4.908   2.128  1.00  0.00    -0.003 C 
ATOM     18  C   UNL     1      11.359   3.944   3.067  1.00  0.00     0.004 C 
ENDBRANCH  16  17
ENDBRANCH  15  16
ENDBRANCH  14  15
ENDBRANCH  13  14
ENDBRANCH  12  13
ENDBRANCH  11  12
ENDBRANCH   1  11
TORSDOF 14
ENDMDL
MODEL 4
REMARK VINA RESULT:    -4.153      2.055      4.564
REMARK INTER + INTRA:          -9.841
REMARK INTER:                  -7.861
REMARK INTRA:                  -1.981
REMARK UNBOUND:                -2.290
REMARK SMILES CCCCCCCCCCCCCCCC(=O)[O-]
REMARK SMILES IDX 9 1 10 2 11 3 12 4 13 5 14 6 15 7 16 8 17 9 18 10 8 11 7 12
REMARK SMILES IDX 6 13 5 14 4 15 3 16 2 17 1 18
REMARK H PARENT
REMARK Flexibility Score: inf
ROOT
ATOM      1  C   UNL     1      16.140   2.561  -1.842  1.00  0.00     0.000 C 
ENDROOT
BRANCH   1   2
ATOM      2  C   UNL     1      16.750   1.153  -1.966  1.00  0.00     0.000 C 
BRANCH   2   3
ATOM      3  C   UNL     1      15.774   0.144  -2.591  1.00  0.00     0.000 C 
BRANCH   3   4
ATOM      4  C   UNL     1      14.309   0.597  -2.487  1.00  0.00     0.000 C 
BRANCH   4   5
ATOM      5  C   UNL     1      13.546  -0.098  -1.345  1.00  0.00     0.000 C 
BRANCH   5   6
ATOM      6  C   UNL     1      12.394   0.727  -0.736  1.00  0.00     0.006 C 
BRANCH   6   7
ATOM      7  C   UNL     1      12.279   2.160  -1.279  1.00  0.00     0.053 C 
BRANCH   7   8
ATOM      8  C   UNL     1      11.681   3.095  -0.271  1.00  0.00     0.041 C 
ATOM      9  O   UNL     1      11.844   2.886   0.960  1.00  0.00    -0.550 OA
ATOM     10  O   UNL     1      10.918   4.176  -0.692  1.00  0.00    -0.550 OA
ENDBRANCH   7   8
ENDBRANCH   6   7
ENDBRANCH   5   6
ENDBRANCH   4   5
ENDBRANCH   3   4
ENDBRANCH   2   3
ENDBRANCH   1   2
BRANCH   1  11
ATOM     11  C   UNL     1      16.533   3.259  -0.531  1.00  0.00     0.000 C 
BRANCH  11  12
ATOM     12  C   UNL     1      15.320   3.556   0.366  1.00  0.00    -0.000 C 
BRANCH  12  13
ATOM     13  C   UNL     1      15.375   2.813   1.711  1.00  0.00    -0.000 C 
BRANCH  13  14
ATOM     14  C   UNL     1      15.346   1.274   1.569  1.00  0.00    -0.000 C 
BRANCH  14  15
ATOM     15  C   UNL     1      15.626   0.560   2.903  1.00  0.00    -0.000 C 
BRANCH  15  16
ATOM     16  C   UNL     1      15.595   1.532   4.104  1.00  0.00    -0.000 C 
BRANCH  16  17
ATOM     17  C   UNL     1      16.715   1.284   5.127  1.00  0.00    -0.003 C 
ATOM     18  C   UNL     1      17.401   2.569   5.584  1.00  0.00     0.004 C 
ENDBRANCH  16  17
ENDBRANCH  15  16
ENDBRANCH  14  15
ENDBRANCH  13  14
ENDBRANCH  12  13
ENDBRANCH  11  12
ENDBRANCH   1  11
TORSDOF 14
ENDMDL
MODEL 5
REMARK VINA RESULT:    -4.118      3.130      6.289
REMARK INTER + INTRA:          -9.778
REMARK INTER:                  -7.225
REMARK INTRA:                  -2.553
REMARK UNBOUND:                -2.290
REMARK SMILES CCCCCCCCCCCCCCCC(=O)[O-]
REMARK SMILES IDX 9 1 10 2 11 3 12 4 13 5 14 6 15 7 16 8 17 9 18 10 8 11 7 12
REMARK SMILES IDX 6 13 5 14 4 15 3 16 2 17 1 18
REMARK H PARENT
REMARK Flexibility Score: inf
ROOT
ATOM      1  C   UNL     1      12.500   1.384   1.037  1.00  0.00     0.000 C 
ENDROOT
BRANCH   1   2
ATOM      2  C   UNL     1      11.292   1.556   0.099  1.00  0.00     0.000 C 
BRANCH   2   3
ATOM      3  C   UNL     1      11.709   1.874  -1.345  1.00  0.00     0.000 C 
BRANCH   3   4
ATOM      4  C   UNL     1      12.664   3.076  -1.431  1.00  0.00     0.000 C 
BRANCH   4   5
ATOM      5  C   UNL     1      13.983   2.743  -2.150  1.00  0.00     0.000 C 
BRANCH   5   6
ATOM      6  C   UNL     1      15.090   3.808  -2.007  1.00  0.00     0.006 C 
BRANCH   6   7
ATOM      7  C   UNL     1      15.882   3.733  -0.692  1.00  0.00     0.053 C 
BRANCH   7   8
ATOM      8  C   UNL     1      16.473   2.375  -0.470  1.00  0.00     0.041 C 
ATOM      9  O   UNL     1      17.339   1.924  -1.265  1.00  0.00    -0.550 OA
ATOM     10  O   UNL     1      16.044   1.595   0.595  1.00  0.00    -0.550 OA
ENDBRANCH   7   8
ENDBRANCH   6   7
ENDBRANCH   5   6
ENDBRANCH   4   5
ENDBRANCH   3   4
ENDBRANCH   2   3
ENDBRANCH   1   2
BRANCH   1  11
ATOM     11  C   UNL     1      12.445   2.328   2.247  1.00  0.00     0.000 C 
BRANCH  11  12
ATOM     12  C   UNL     1      13.461   3.477   2.147  1.00  0.00    -0.000 C 
BRANCH  12  13
ATOM     13  C   UNL     1      12.803   4.832   1.834  1.00  0.00    -0.000 C 
BRANCH  13  14
ATOM     14  C   UNL     1      11.268   4.828   2.010  1.00  0.00    -0.000 C 
BRANCH  14  15
ATOM     15  C   UNL     1      10.536   5.329   0.753  1.00  0.00    -0.000 C 
BRANCH  15  16
ATOM     16  C   UNL     1       9.176   4.624   0.549  1.00  0.00    -0.000 C 
BRANCH  16  17
ATOM     17  C   UNL     1       8.885   4.258  -0.916  1.00  0.00    -0.003 C 
ATOM     18  C   UNL     1       9.584   5.180  -1.912  1.00  0.00     0.004 C 
ENDBRANCH  16  17
ENDBRANCH  15  16
ENDBRANCH  14  15
ENDBRANCH  13  14
ENDBRANCH  12  13
ENDBRANCH  11  12
ENDBRANCH   1  11
TORSDOF 14
ENDMDL
MODEL 6
REMARK VINA RESULT:    -4.080      1.119      1.696
REMARK INTER + INTRA:          -9.710
REMARK INTER:                  -7.681
REMARK INTRA:                  -2.029
REMARK UNBOUND:                -2.290
REMARK SMILES CCCCCCCCCCCCCCCC(=O)[O-]
REMARK SMILES IDX 9 1 10 2 11 3 12 4 13 5 14 6 15 7 16 8 17 9 18 10 8 11 7 12
REMARK SMILES IDX 6 13 5 14 4 15 3 16 2 17 1 18
REMARK H PARENT
REMARK Flexibility Score: inf
ROOT
ATOM      1  C   UNL     1      15.709   2.799   1.604  1.00  0.00     0.000 C 
ENDROOT
BRANCH   1   2
ATOM      2  C   UNL     1      14.541   2.385   2.517  1.00  0.00     0.000 C 
BRANCH   2   3
ATOM      3  C   UNL     1      13.185   2.890   2.002  1.00  0.00     0.000 C 
BRANCH   3   4
ATOM      4  C   UNL     1      12.270   3.382   3.135  1.00  0.00     0.000 C 
BRANCH   4   5
ATOM      5  C   UNL     1      11.709   4.793   2.881  1.00  0.00     0.000 C 
BRANCH   5   6
ATOM      6  C   UNL     1      11.591   5.188   1.395  1.00  0.00     0.006 C 
BRANCH   6   7
ATOM      7  C   UNL     1      10.154   5.196   0.849  1.00  0.00     0.053 C 
BRANCH   7   8
ATOM      8  C   UNL     1       9.723   3.838   0.386  1.00  0.00     0.041 C 
ATOM      9  O   UNL     1       8.883   3.178   1.053  1.00  0.00    -0.550 OA
ATOM     10  O   UNL     1      10.274   3.287  -0.764  1.00  0.00    -0.550 OA
ENDBRANCH   7   8
ENDBRANCH   6   7
ENDBRANCH   5   6
ENDBRANCH   4   5
ENDBRANCH   3   4
ENDBRANCH   2   3
ENDBRANCH   1   2
BRANCH   1  11
ATOM     11  C   UNL     1      15.323   3.919   0.626  1.00  0.00     0.000 C 
BRANCH  11  12
ATOM     12  C   UNL     1      16.083   3.827  -0.707  1.00  0.00    -0.000 C 
BRANCH  12  13
ATOM     13  C   UNL     1      15.150   3.644  -1.916  1.00  0.00    -0.000 C 
BRANCH  13  14
ATOM     14  C   UNL     1      13.734   3.157  -1.536  1.00  0.00    -0.000 C 
BRANCH  14  15
ATOM     15  C   UNL     1      13.648   1.623  -1.453  1.00  0.00    -0.000 C 
BRANCH  15  16
ATOM     16  C   UNL     1      14.231   0.937  -2.709  1.00  0.00    -0.000 C 
BRANCH  16  17
ATOM     17  C   UNL     1      15.489   0.099  -2.425  1.00  0.00    -0.003 C 
ATOM     18  C   UNL     1      15.818  -0.000  -0.937  1.00  0.00     0.004 C 
ENDBRANCH  16  17
ENDBRANCH  15  16
ENDBRANCH  14  15
ENDBRANCH  13  14
ENDBRANCH  12  13
ENDBRANCH  11  12
ENDBRANCH   1  11
TORSDOF 14
ENDMDL
MODEL 7
REMARK VINA RESULT:    -4.041      1.285      3.408
REMARK INTER + INTRA:          -9.639
REMARK INTER:                  -7.475
REMARK INTRA:                  -2.164
REMARK UNBOUND:                -2.290
REMARK SMILES CCCCCCCCCCCCCCCC(=O)[O-]
REMARK SMILES IDX 9 1 10 2 11 3 12 4 13 5 14 6 15 7 16 8 17 9 18 10 8 11 7 12
REMARK SMILES IDX 6 13 5 14 4 15 3 16 2 17 1 18
REMARK H PARENT
REMARK Flexibility Score: inf
ROOT
ATOM      1  C   UNL     1      13.904   1.210  -2.678  1.00  0.00     0.000 C 
ENDROOT
BRANCH   1   2
ATOM      2  C   UNL     1      12.776   0.578  -1.841  1.00  0.00     0.000 C 
BRANCH   2   3
ATOM      3  C   UNL     1      13.045   0.666  -0.331  1.00  0.00     0.000 C 
BRANCH   3   4
ATOM      4  C   UNL     1      12.001   1.523   0.404  1.00  0.00     0.000 C 
BRANCH   4   5
ATOM      5  C   UNL     1      12.326   3.027   0.365  1.00  0.00     0.000 C 
BRANCH   5   6
ATOM      6  C   UNL     1      12.069   3.782   1.684  1.00  0.00     0.006 C 
BRANCH   6   7
ATOM      7  C   UNL     1      11.574   5.227   1.507  1.00  0.00     0.053 C 
BRANCH   7   8
ATOM      8  C   UNL     1      10.274   5.287   0.764  1.00  0.00     0.041 C 
ATOM      9  O   UNL     1      10.079   6.182  -0.099  1.00  0.00    -0.550 OA
ATOM     10  O   UNL     1       9.267   4.374   1.049  1.00  0.00    -0.550 OA
ENDBRANCH   7   8
ENDBRANCH   6   7
ENDBRANCH   5   6
ENDBRANCH   4   5
ENDBRANCH   3   4
ENDBRANCH   2   3
ENDBRANCH   1   2
BRANCH   1  11
ATOM     11  C   UNL     1      15.276   0.589  -2.380  1.00  0.00     0.000 C 
BRANCH  11  12
ATOM     12  C   UNL     1      16.312   1.632  -1.932  1.00  0.00    -0.000 C 
BRANCH  12  13
ATOM     13  C   UNL     1      15.727   3.050  -1.827  1.00  0.00    -0.000 C 
BRANCH  13  14
ATOM     14  C   UNL     1      15.751   3.624  -0.393  1.00  0.00    -0.000 C 
BRANCH  14  15
ATOM     15  C   UNL     1      16.122   2.560   0.654  1.00  0.00    -0.000 C 
BRANCH  15  16
ATOM     16  C   UNL     1      15.668   2.956   2.077  1.00  0.00    -0.000 C 
BRANCH  16  17
ATOM     17  C   UNL     1      15.036   1.798   2.867  1.00  0.00    -0.003 C 
ATOM     18  C   UNL     1      15.766   1.499   4.174  1.00  0.00     0.004 C 
ENDBRANCH  16  17
ENDBRANCH  15  16
ENDBRANCH  14  15
ENDBRANCH  13  14
ENDBRANCH  12  13
ENDBRANCH  11  12
ENDBRANCH   1  11
TORSDOF 14
ENDMDL
MODEL 8
REMARK VINA RESULT:    -4.030      1.497      2.657
REMARK INTER + INTRA:          -9.618
REMARK INTER:                  -7.517
REMARK INTRA:                  -2.101
REMARK UNBOUND:                -2.290
REMARK SMILES CCCCCCCCCCCCCCCC(=O)[O-]
REMARK SMILES IDX 9 1 10 2 11 3 12 4 13 5 14 6 15 7 16 8 17 9 18 10 8 11 7 12
REMARK SMILES IDX 6 13 5 14 4 15 3 16 2 17 1 18
REMARK H PARENT
REMARK Flexibility Score: inf
ROOT
ATOM      1  C   UNL     1      12.793   1.508   0.542  1.00  0.00     0.000 C 
ENDROOT
BRANCH   1   2
ATOM      2  C   UNL     1      13.482   2.543   1.450  1.00  0.00     0.000 C 
BRANCH   2   3
ATOM      3  C   UNL     1      13.287   3.983   0.954  1.00  0.00     0.000 C 
BRANCH   3   4
ATOM      4  C   UNL     1      12.554   4.866   1.979  1.00  0.00     0.000 C 
BRANCH   4   5
ATOM      5  C   UNL     1      11.158   4.330   2.341  1.00  0.00     0.000 C 
BRANCH   5   6
ATOM      6  C   UNL     1      10.147   4.311   1.175  1.00  0.00     0.006 C 
BRANCH   6   7
ATOM      7  C   UNL     1      10.177   5.562   0.283  1.00  0.00     0.053 C 
BRANCH   7   8
ATOM      8  C   UNL     1       9.879   5.237  -1.149  1.00  0.00     0.041 C 
ATOM      9  O   UNL     1      10.076   6.096  -2.048  1.00  0.00    -0.550 OA
ATOM     10  O   UNL     1       9.353   3.996  -1.486  1.00  0.00    -0.550 OA
ENDBRANCH   7   8
ENDBRANCH   6   7
ENDBRANCH   5   6
ENDBRANCH   4   5
ENDBRANCH   3   4
ENDBRANCH   2   3
ENDBRANCH   1   2
BRANCH   1  11
ATOM     11  C   UNL     1      12.342   2.110  -0.797  1.00  0.00     0.000 C 
BRANCH  11  12
ATOM     12  C   UNL     1      12.541   1.143  -1.976  1.00  0.00    -0.000 C 
BRANCH  12  13
ATOM     13  C   UNL     1      13.643   0.102  -1.717  1.00  0.00    -0.000 C 
BRANCH  13  14
ATOM     14  C   UNL     1      14.953   0.386  -2.484  1.00  0.00    -0.000 C 
BRANCH  14  15
ATOM     15  C   UNL     1      16.176   0.439  -1.551  1.00  0.00    -0.000 C 
BRANCH  15  16
ATOM     16  C   UNL     1      16.969   1.756  -1.702  1.00  0.00    -0.000 C 
BRANCH  16  17
ATOM     17  C   UNL     1      16.320   2.952  -0.985  1.00  0.00    -0.003 C 
ATOM     18  C   UNL     1      15.476   3.820  -1.915  1.00  0.00     0.004 C 
ENDBRANCH  16  17
ENDBRANCH  15  16
ENDBRANCH  14  15
ENDBRANCH  13  14
ENDBRANCH  12  13
ENDBRANCH  11  12
ENDBRANCH   1  11
TORSDOF 14
ENDMDL
MODEL 9
REMARK VINA RESULT:    -4.008      1.177      2.066
REMARK INTER + INTRA:          -9.579
REMARK INTER:                  -7.324
REMARK INTRA:                  -2.254
REMARK UNBOUND:                -2.290
REMARK SMILES CCCCCCCCCCCCCCCC(=O)[O-]
REMARK SMILES IDX 9 1 10 2 11 3 12 4 13 5 14 6 15 7 16 8 17 9 18 10 8 11 7 12
REMARK SMILES IDX 6 13 5 14 4 15 3 16 2 17 1 18
REMARK H PARENT
REMARK Flexibility Score: inf
ROOT
ATOM      1  C   UNL     1      14.965   0.891   1.454  1.00  0.00     0.000 C 
ENDROOT
BRANCH   1   2
ATOM      2  C   UNL     1      15.331   2.243   2.093  1.00  0.00     0.000 C 
BRANCH   2   3
ATOM      3  C   UNL     1      15.525   3.353   1.048  1.00  0.00     0.000 C 
BRANCH   3   4
ATOM      4  C   UNL     1      14.624   4.572   1.308  1.00  0.00     0.000 C 
BRANCH   4   5
ATOM      5  C   UNL     1      13.307   4.204   2.012  1.00  0.00     0.000 C 
BRANCH   5   6
ATOM      6  C   UNL     1      12.070   4.988   1.528  1.00  0.00     0.006 C 
BRANCH   6   7
ATOM      7  C   UNL     1      10.740   4.229   1.660  1.00  0.00     0.053 C 
BRANCH   7   8
ATOM      8  C   UNL     1       9.654   4.852   0.837  1.00  0.00     0.041 C 
ATOM      9  O   UNL     1       9.369   6.070   0.984  1.00  0.00    -0.550 OA
ATOM     10  O   UNL     1       8.937   4.081  -0.068  1.00  0.00    -0.550 OA
ENDBRANCH   7   8
ENDBRANCH   6   7
ENDBRANCH   5   6
ENDBRANCH   4   5
ENDBRANCH   3   4
ENDBRANCH   2   3
ENDBRANCH   1   2
BRANCH   1  11
ATOM     11  C   UNL     1      13.450   0.644   1.426  1.00  0.00     0.000 C 
BRANCH  11  12
ATOM     12  C   UNL     1      12.908   0.464  -0.002  1.00  0.00    -0.000 C 
BRANCH  12  13
ATOM     13  C   UNL     1      12.819   1.789  -0.779  1.00  0.00    -0.000 C 
BRANCH  13  14
ATOM     14  C   UNL     1      13.646   1.795  -2.084  1.00  0.00    -0.000 C 
BRANCH  14  15
ATOM     15  C   UNL     1      14.161   0.393  -2.454  1.00  0.00    -0.000 C 
BRANCH  15  16
ATOM     16  C   UNL     1      15.703   0.307  -2.409  1.00  0.00    -0.000 C 
BRANCH  16  17
ATOM     17  C   UNL     1      16.383   1.628  -2.010  1.00  0.00    -0.003 C 
ATOM     18  C   UNL     1      17.820   1.439  -1.533  1.00  0.00     0.004 C 
ENDBRANCH  16  17
ENDBRANCH  15  16
ENDBRANCH  14  15
ENDBRANCH  13  14
ENDBRANCH  12  13
ENDBRANCH  11  12
ENDBRANCH   1  11
TORSDOF 14
ENDMDL
