MODEL 1
REMARK VINA RESULT:    -6.764      0.000      0.000
REMARK INTER + INTRA:         -10.378
REMARK INTER:                  -9.335
REMARK INTRA:                  -1.043
REMARK UNBOUND:                -1.043
REMARK SMILES CC[C@H](CC[C@@H](C)[C@H]1CC[C@H]2[C@H]3CC=C4C[C@H](O)CC[C@]4(C)[C@@H]3CC[C@]12C)C(C)C
REMARK SMILES IDX 5 1 4 2 3 3 2 4 1 5 28 6 29 7 30 8 6 9 7 10 8 11 9 12 26 13
REMARK SMILES IDX 10 14 11 15 25 16 27 17 12 18 24 19 23 20 13 21 21 22 14 23
REMARK SMILES IDX 15 24 20 25 22 26 16 27 19 28 17 29 18 30
REMARK H PARENT 18 31
REMARK Flexibility Score: inf
ROOT
ATOM      1  C   UNL     1     176.182 163.010 153.821  1.00  0.00     0.004 C 
ENDROOT
BRANCH   1   2
ATOM      2  C   UNL     1     177.507 163.243 153.047  1.00  0.00     0.004 C 
BRANCH   2   3
ATOM      3  C   UNL     1     177.332 163.186 151.497  1.00  0.00    -0.009 C 
BRANCH   3   4
ATOM      4  C   UNL     1     176.164 162.250 151.065  1.00  0.00     0.000 C 
ATOM      5  C   UNL     1     176.611 160.895 150.513  1.00  0.00     0.004 C 
ENDBRANCH   3   4
BRANCH   3   6
ATOM      6  C   UNL     1     177.132 164.625 150.916  1.00  0.00    -0.014 C 
ATOM      7  C   UNL     1     177.889 165.711 151.704  1.00  0.00     0.007 C 
ATOM      8  C   UNL     1     175.635 164.974 150.758  1.00  0.00     0.007 C 
ENDBRANCH   3   6
ENDBRANCH   2   3
ENDBRANCH   1   2
BRANCH   1   9
ATOM      9  C   UNL     1     176.135 163.594 155.263  1.00  0.00    -0.011 C 
ATOM     10  C   UNL     1     175.012 164.659 155.261  1.00  0.00     0.008 C 
BRANCH   9  11
ATOM     11  C   UNL     1     176.030 162.433 156.348  1.00  0.00    -0.002 C 
ATOM     12  C   UNL     1     177.049 161.279 156.108  1.00  0.00     0.005 C 
ATOM     13  C   UNL     1     176.142 162.705 157.894  1.00  0.00    -0.026 C 
ATOM     14  C   UNL     1     177.326 160.621 157.473  1.00  0.00     0.005 C 
ATOM     15  C   UNL     1     176.301 161.262 158.403  1.00  0.00    -0.001 C 
ATOM     16  C   UNL     1     174.837 163.257 158.528  1.00  0.00     0.007 C 
ATOM     17  C   UNL     1     177.381 163.591 158.240  1.00  0.00     0.012 C 
ATOM     18  C   UNL     1     176.392 161.060 159.944  1.00  0.00     0.000 C 
ATOM     19  C   UNL     1     174.742 163.083 160.069  1.00  0.00     0.005 C 
ATOM     20  C   UNL     1     175.906 162.298 160.753  1.00  0.00     0.003 C 
ATOM     21  C   UNL     1     177.771 160.638 160.485  1.00  0.00     0.031 C 
ATOM     22  C   UNL     1     175.668 161.921 162.279  1.00  0.00    -0.008 C 
ATOM     23  C   UNL     1     177.664 160.353 161.961  1.00  0.00    -0.027 C 
ATOM     24  C   UNL     1     176.744 160.931 162.777  1.00  0.00    -0.065 C 
ATOM     25  C   UNL     1     174.264 161.269 162.511  1.00  0.00     0.014 C 
ATOM     26  C   UNL     1     175.771 163.226 163.117  1.00  0.00     0.016 C 
ATOM     27  C   UNL     1     176.582 160.388 164.186  1.00  0.00     0.063 C 
ATOM     28  C   UNL     1     174.084 160.646 163.921  1.00  0.00     0.033 C 
ATOM     29  C   UNL     1     175.226 159.687 164.301  1.00  0.00     0.118 C 
BRANCH  29  30
ATOM     30  O   UNL     1     175.213 158.558 163.461  1.00  0.00    -0.393 OA
ATOM     31  H   UNL     1     175.974 158.658 162.820  1.00  0.00     0.210 HD
ENDBRANCH  29  30
ENDBRANCH   9  11
ENDBRANCH   1   9
TORSDOF 7
ENDMDL
MODEL 2
REMARK VINA RESULT:    -6.754     15.309     18.958
REMARK INTER + INTRA:         -10.363
REMARK INTER:                  -9.319
REMARK INTRA:                  -1.044
REMARK UNBOUND:                -1.043
REMARK SMILES CC[C@H](CC[C@@H](C)[C@H]1CC[C@H]2[C@H]3CC=C4C[C@H](O)CC[C@]4(C)[C@@H]3CC[C@]12C)C(C)C
REMARK SMILES IDX 5 1 4 2 3 3 2 4 1 5 28 6 29 7 30 8 6 9 7 10 8 11 9 12 26 13
REMARK SMILES IDX 10 14 11 15 25 16 27 17 12 18 24 19 23 20 13 21 21 22 14 23
REMARK SMILES IDX 15 24 20 25 22 26 16 27 19 28 17 29 18 30
REMARK H PARENT 18 31
REMARK Flexibility Score: inf
ROOT
ATOM      1  C   UNL     1     170.670 175.472 151.876  1.00  0.00     0.004 C 
ENDROOT
BRANCH   1   2
ATOM      2  C   UNL     1     172.087 175.148 152.419  1.00  0.00     0.004 C 
BRANCH   2   3
ATOM      3  C   UNL     1     173.179 175.112 151.304  1.00  0.00    -0.009 C 
BRANCH   3   4
ATOM      4  C   UNL     1     174.206 176.276 151.440  1.00  0.00     0.000 C 
ATOM      5  C   UNL     1     174.078 177.359 150.367  1.00  0.00     0.004 C 
ENDBRANCH   3   4
BRANCH   3   6
ATOM      6  C   UNL     1     173.909 173.727 151.299  1.00  0.00    -0.014 C 
ATOM      7  C   UNL     1     175.419 173.834 151.583  1.00  0.00     0.007 C 
ATOM      8  C   UNL     1     173.627 172.937 150.002  1.00  0.00     0.007 C 
ENDBRANCH   3   6
ENDBRANCH   2   3
ENDBRANCH   1   2
BRANCH   1   9
ATOM      9  C   UNL     1     169.971 176.705 152.517  1.00  0.00    -0.011 C 
ATOM     10  C   UNL     1     171.013 177.849 152.501  1.00  0.00     0.008 C 
BRANCH   9  11
ATOM     11  C   UNL     1     168.567 176.994 151.822  1.00  0.00    -0.002 C 
ATOM     12  C   UNL     1     168.486 176.452 150.364  1.00  0.00     0.005 C 
ATOM     13  C   UNL     1     167.199 176.545 152.457  1.00  0.00    -0.026 C 
ATOM     14  C   UNL     1     167.001 176.178 150.060  1.00  0.00     0.005 C 
ATOM     15  C   UNL     1     166.266 176.774 151.256  1.00  0.00    -0.001 C 
ATOM     16  C   UNL     1     166.699 177.480 153.591  1.00  0.00     0.007 C 
ATOM     17  C   UNL     1     167.228 175.049 152.904  1.00  0.00     0.012 C 
ATOM     18  C   UNL     1     164.749 176.497 151.474  1.00  0.00     0.000 C 
ATOM     19  C   UNL     1     165.180 177.369 153.900  1.00  0.00     0.005 C 
ATOM     20  C   UNL     1     164.351 176.420 152.977  1.00  0.00     0.003 C 
ATOM     21  C   UNL     1     164.184 175.257 150.759  1.00  0.00     0.031 C 
ATOM     22  C   UNL     1     162.773 176.509 153.152  1.00  0.00    -0.008 C 
ATOM     23  C   UNL     1     162.690 175.202 150.955  1.00  0.00    -0.027 C 
ATOM     24  C   UNL     1     162.049 175.739 152.025  1.00  0.00    -0.065 C 
ATOM     25  C   UNL     1     162.262 177.988 153.135  1.00  0.00     0.014 C 
ATOM     26  C   UNL     1     162.404 175.856 154.513  1.00  0.00     0.016 C 
ATOM     27  C   UNL     1     160.533 175.830 151.992  1.00  0.00     0.063 C 
ATOM     28  C   UNL     1     160.719 178.121 153.037  1.00  0.00     0.033 C 
ATOM     29  C   UNL     1     160.121 177.300 151.882  1.00  0.00     0.118 C 
BRANCH  29  30
ATOM     30  O   UNL     1     160.553 177.813 150.644  1.00  0.00    -0.393 OA
ATOM     31  H   UNL     1     161.447 177.406 150.453  1.00  0.00     0.210 HD
ENDBRANCH  29  30
ENDBRANCH   9  11
ENDBRANCH   1   9
TORSDOF 7
ENDMDL
MODEL 3
REMARK VINA RESULT:    -6.684     14.586     18.340
REMARK INTER + INTRA:         -10.267
REMARK INTER:                  -8.644
REMARK INTRA:                  -1.623
REMARK UNBOUND:                -1.043
REMARK SMILES CC[C@H](CC[C@@H](C)[C@H]1CC[C@H]2[C@H]3CC=C4C[C@H](O)CC[C@]4(C)[C@@H]3CC[C@]12C)C(C)C
REMARK SMILES IDX 5 1 4 2 3 3 2 4 1 5 28 6 29 7 30 8 6 9 7 10 8 11 9 12 26 13
REMARK SMILES IDX 10 14 11 15 25 16 27 17 12 18 24 19 23 20 13 21 21 22 14 23
REMARK SMILES IDX 15 24 20 25 22 26 16 27 19 28 17 29 18 30
REMARK H PARENT 18 31
REMARK Flexibility Score: inf
ROOT
ATOM      1  C   UNL     1     164.365 174.746 150.372  1.00  0.00     0.004 C 
ENDROOT
BRANCH   1   2
ATOM      2  C   UNL     1     163.049 175.214 151.049  1.00  0.00     0.004 C 
BRANCH   2   3
ATOM      3  C   UNL     1     163.077 176.715 151.476  1.00  0.00    -0.009 C 
BRANCH   3   4
ATOM      4  C   UNL     1     161.843 177.506 150.948  1.00  0.00     0.000 C 
ATOM      5  C   UNL     1     160.582 176.659 150.764  1.00  0.00     0.004 C 
ENDBRANCH   3   4
BRANCH   3   6
ATOM      6  C   UNL     1     163.190 176.839 153.032  1.00  0.00    -0.014 C 
ATOM      7  C   UNL     1     164.568 177.341 153.504  1.00  0.00     0.007 C 
ATOM      8  C   UNL     1     162.787 175.527 153.739  1.00  0.00     0.007 C 
ENDBRANCH   3   6
ENDBRANCH   2   3
ENDBRANCH   1   2
BRANCH   1   9
ATOM      9  C   UNL     1     165.549 174.452 151.339  1.00  0.00    -0.011 C 
ATOM     10  C   UNL     1     165.612 172.914 151.490  1.00  0.00     0.008 C 
BRANCH   9  11
ATOM     11  C   UNL     1     166.877 175.188 150.857  1.00  0.00    -0.002 C 
ATOM     12  C   UNL     1     166.670 176.708 150.589  1.00  0.00     0.005 C 
ATOM     13  C   UNL     1     168.218 175.140 151.679  1.00  0.00    -0.026 C 
ATOM     14  C   UNL     1     168.031 177.399 150.795  1.00  0.00     0.005 C 
ATOM     15  C   UNL     1     169.010 176.240 150.952  1.00  0.00    -0.001 C 
ATOM     16  C   UNL     1     169.019 173.822 151.494  1.00  0.00     0.007 C 
ATOM     17  C   UNL     1     167.988 175.477 153.187  1.00  0.00     0.012 C 
ATOM     18  C   UNL     1     170.471 176.493 151.428  1.00  0.00     0.000 C 
ATOM     19  C   UNL     1     170.522 173.919 151.874  1.00  0.00     0.005 C 
ATOM     20  C   UNL     1     171.045 175.331 152.290  1.00  0.00     0.003 C 
ATOM     21  C   UNL     1     170.712 177.817 152.177  1.00  0.00     0.031 C 
ATOM     22  C   UNL     1     172.623 175.457 152.435  1.00  0.00    -0.008 C 
ATOM     23  C   UNL     1     172.186 177.977 152.449  1.00  0.00    -0.027 C 
ATOM     24  C   UNL     1     173.047 176.935 152.586  1.00  0.00    -0.065 C 
ATOM     25  C   UNL     1     173.376 174.859 151.200  1.00  0.00     0.014 C 
ATOM     26  C   UNL     1     173.049 174.688 153.716  1.00  0.00     0.016 C 
ATOM     27  C   UNL     1     174.537 177.225 152.618  1.00  0.00     0.063 C 
ATOM     28  C   UNL     1     174.892 175.189 151.167  1.00  0.00     0.033 C 
ATOM     29  C   UNL     1     175.181 176.691 151.336  1.00  0.00     0.118 C 
BRANCH  29  30
ATOM     30  O   UNL     1     174.685 177.409 150.232  1.00  0.00    -0.393 OA
ATOM     31  H   UNL     1     174.623 178.368 150.508  1.00  0.00     0.210 HD
ENDBRANCH  29  30
ENDBRANCH   9  11
ENDBRANCH   1   9
TORSDOF 7
ENDMDL
MODEL 4
REMARK VINA RESULT:    -6.605     14.741     18.320
REMARK INTER + INTRA:         -10.158
REMARK INTER:                  -8.927
REMARK INTRA:                  -1.231
REMARK UNBOUND:                -1.043
REMARK SMILES CC[C@H](CC[C@@H](C)[C@H]1CC[C@H]2[C@H]3CC=C4C[C@H](O)CC[C@]4(C)[C@@H]3CC[C@]12C)C(C)C
REMARK SMILES IDX 5 1 4 2 3 3 2 4 1 5 28 6 29 7 30 8 6 9 7 10 8 11 9 12 26 13
REMARK SMILES IDX 10 14 11 15 25 16 27 17 12 18 24 19 23 20 13 21 21 22 14 23
REMARK SMILES IDX 15 24 20 25 22 26 16 27 19 28 17 29 18 30
REMARK H PARENT 18 31
REMARK Flexibility Score: inf
ROOT
ATOM      1  C   UNL     1     164.906 175.806 151.435  1.00  0.00     0.004 C 
ENDROOT
BRANCH   1   2
ATOM      2  C   UNL     1     163.540 176.041 150.736  1.00  0.00     0.004 C 
BRANCH   2   3
ATOM      3  C   UNL     1     162.377 176.323 151.738  1.00  0.00    -0.009 C 
BRANCH   3   4
ATOM      4  C   UNL     1     162.500 177.721 152.414  1.00  0.00     0.000 C 
ATOM      5  C   UNL     1     162.694 177.675 153.930  1.00  0.00     0.004 C 
ENDBRANCH   3   4
BRANCH   3   6
ATOM      6  C   UNL     1     160.992 176.173 151.024  1.00  0.00    -0.014 C 
ATOM      7  C   UNL     1     160.567 177.433 150.249  1.00  0.00     0.007 C 
ATOM      8  C   UNL     1     159.892 175.707 152.003  1.00  0.00     0.007 C 
ENDBRANCH   3   6
ENDBRANCH   2   3
ENDBRANCH   1   2
BRANCH   1   9
ATOM      9  C   UNL     1     166.068 176.727 150.965  1.00  0.00    -0.011 C 
ATOM     10  C   UNL     1     165.403 177.953 150.294  1.00  0.00     0.008 C 
BRANCH   9  11
ATOM     11  C   UNL     1     167.087 177.016 152.155  1.00  0.00    -0.002 C 
ATOM     12  C   UNL     1     166.551 176.555 153.542  1.00  0.00     0.005 C 
ATOM     13  C   UNL     1     168.572 176.497 152.144  1.00  0.00    -0.026 C 
ATOM     14  C   UNL     1     167.774 176.258 154.430  1.00  0.00     0.005 C 
ATOM     15  C   UNL     1     168.954 176.767 153.609  1.00  0.00    -0.001 C 
ATOM     16  C   UNL     1     169.528 177.353 151.272  1.00  0.00     0.007 C 
ATOM     17  C   UNL     1     168.654 174.979 151.785  1.00  0.00     0.012 C 
ATOM     18  C   UNL     1     170.416 176.438 154.032  1.00  0.00     0.000 C 
ATOM     19  C   UNL     1     171.036 177.185 151.606  1.00  0.00     0.005 C 
ATOM     20  C   UNL     1     171.380 176.267 152.823  1.00  0.00     0.003 C 
ATOM     21  C   UNL     1     170.588 175.225 154.965  1.00  0.00     0.031 C 
ATOM     22  C   UNL     1     172.898 176.304 153.295  1.00  0.00    -0.008 C 
ATOM     23  C   UNL     1     172.030 175.120 155.390  1.00  0.00    -0.027 C 
ATOM     24  C   UNL     1     173.071 175.579 154.648  1.00  0.00    -0.065 C 
ATOM     25  C   UNL     1     173.427 177.768 153.457  1.00  0.00     0.014 C 
ATOM     26  C   UNL     1     173.751 175.567 152.226  1.00  0.00     0.016 C 
ATOM     27  C   UNL     1     174.449 175.631 155.286  1.00  0.00     0.063 C 
ATOM     28  C   UNL     1     174.806 177.865 154.163  1.00  0.00     0.033 C 
ATOM     29  C   UNL     1     174.851 177.094 155.494  1.00  0.00     0.118 C 
BRANCH  29  30
ATOM     30  O   UNL     1     173.983 177.686 156.430  1.00  0.00    -0.393 OA
ATOM     31  H   UNL     1     173.206 178.055 155.919  1.00  0.00     0.210 HD
ENDBRANCH  29  30
ENDBRANCH   9  11
ENDBRANCH   1   9
TORSDOF 7
ENDMDL
MODEL 5
REMARK VINA RESULT:    -6.534     11.210     15.536
REMARK INTER + INTRA:         -10.060
REMARK INTER:                  -8.584
REMARK INTRA:                  -1.475
REMARK UNBOUND:                -1.043
REMARK SMILES CC[C@H](CC[C@@H](C)[C@H]1CC[C@H]2[C@H]3CC=C4C[C@H](O)CC[C@]4(C)[C@@H]3CC[C@]12C)C(C)C
REMARK SMILES IDX 5 1 4 2 3 3 2 4 1 5 28 6 29 7 30 8 6 9 7 10 8 11 9 12 26 13
REMARK SMILES IDX 10 14 11 15 25 16 27 17 12 18 24 19 23 20 13 21 21 22 14 23
REMARK SMILES IDX 15 24 20 25 22 26 16 27 19 28 17 29 18 30
REMARK H PARENT 18 31
REMARK Flexibility Score: inf
ROOT
ATOM      1  C   UNL     1     174.888 175.139 161.518  1.00  0.00     0.004 C 
ENDROOT
BRANCH   1   2
ATOM      2  C   UNL     1     175.242 175.686 162.926  1.00  0.00     0.004 C 
BRANCH   2   3
ATOM      3  C   UNL     1     176.390 174.891 163.624  1.00  0.00    -0.009 C 
BRANCH   3   4
ATOM      4  C   UNL     1     176.800 173.616 162.827  1.00  0.00     0.000 C 
ATOM      5  C   UNL     1     177.334 172.474 163.693  1.00  0.00     0.004 C 
ENDBRANCH   3   4
BRANCH   3   6
ATOM      6  C   UNL     1     177.630 175.817 163.862  1.00  0.00    -0.014 C 
ATOM      7  C   UNL     1     177.403 176.865 164.967  1.00  0.00     0.007 C 
ATOM      8  C   UNL     1     178.117 176.467 162.549  1.00  0.00     0.007 C 
ENDBRANCH   3   6
ENDBRANCH   2   3
ENDBRANCH   1   2
BRANCH   1   9
ATOM      9  C   UNL     1     174.753 176.209 160.397  1.00  0.00    -0.011 C 
ATOM     10  C   UNL     1     175.030 177.575 161.068  1.00  0.00     0.008 C 
BRANCH   9  11
ATOM     11  C   UNL     1     175.644 175.829 159.132  1.00  0.00    -0.002 C 
ATOM     12  C   UNL     1     176.725 174.754 159.449  1.00  0.00     0.005 C 
ATOM     13  C   UNL     1     175.021 175.334 157.774  1.00  0.00    -0.026 C 
ATOM     14  C   UNL     1     177.030 174.011 158.134  1.00  0.00     0.005 C 
ATOM     15  C   UNL     1     176.291 174.822 157.075  1.00  0.00    -0.001 C 
ATOM     16  C   UNL     1     174.459 176.479 156.890  1.00  0.00     0.007 C 
ATOM     17  C   UNL     1     173.971 174.199 157.996  1.00  0.00     0.012 C 
ATOM     18  C   UNL     1     176.131 174.276 155.626  1.00  0.00     0.000 C 
ATOM     19  C   UNL     1     174.289 176.115 155.388  1.00  0.00     0.005 C 
ATOM     20  C   UNL     1     174.791 174.700 154.956  1.00  0.00     0.003 C 
ATOM     21  C   UNL     1     176.295 172.754 155.460  1.00  0.00     0.031 C 
ATOM     22  C   UNL     1     174.834 174.444 153.387  1.00  0.00    -0.008 C 
ATOM     23  C   UNL     1     176.247 172.401 153.996  1.00  0.00    -0.027 C 
ATOM     24  C   UNL     1     175.585 173.134 153.063  1.00  0.00    -0.065 C 
ATOM     25  C   UNL     1     175.540 175.611 152.620  1.00  0.00     0.014 C 
ATOM     26  C   UNL     1     173.370 174.312 152.883  1.00  0.00     0.016 C 
ATOM     27  C   UNL     1     175.809 172.813 151.595  1.00  0.00     0.063 C 
ATOM     28  C   UNL     1     175.843 175.295 151.131  1.00  0.00     0.033 C 
ATOM     29  C   UNL     1     176.585 173.960 150.943  1.00  0.00     0.118 C 
BRANCH  29  30
ATOM     30  O   UNL     1     177.871 174.034 151.510  1.00  0.00    -0.393 OA
ATOM     31  H   UNL     1     178.492 173.549 150.895  1.00  0.00     0.210 HD
ENDBRANCH  29  30
ENDBRANCH   9  11
ENDBRANCH   1   9
TORSDOF 7
ENDMDL
MODEL 6
REMARK VINA RESULT:    -6.453     14.589     17.844
REMARK INTER + INTRA:          -9.948
REMARK INTER:                  -8.626
REMARK INTRA:                  -1.322
REMARK UNBOUND:                -1.043
REMARK SMILES CC[C@H](CC[C@@H](C)[C@H]1CC[C@H]2[C@H]3CC=C4C[C@H](O)CC[C@]4(C)[C@@H]3CC[C@]12C)C(C)C
REMARK SMILES IDX 5 1 4 2 3 3 2 4 1 5 28 6 29 7 30 8 6 9 7 10 8 11 9 12 26 13
REMARK SMILES IDX 10 14 11 15 25 16 27 17 12 18 24 19 23 20 13 21 21 22 14 23
REMARK SMILES IDX 15 24 20 25 22 26 16 27 19 28 17 29 18 30
REMARK H PARENT 18 31
REMARK Flexibility Score: inf
ROOT
ATOM      1  C   UNL     1     165.106 175.307 152.264  1.00  0.00     0.004 C 
ENDROOT
BRANCH   1   2
ATOM      2  C   UNL     1     164.391 175.831 150.990  1.00  0.00     0.004 C 
BRANCH   2   3
ATOM      3  C   UNL     1     162.835 175.731 151.075  1.00  0.00    -0.009 C 
BRANCH   3   4
ATOM      4  C   UNL     1     162.359 174.882 152.291  1.00  0.00     0.000 C 
ATOM      5  C   UNL     1     161.351 173.786 151.940  1.00  0.00     0.004 C 
ENDBRANCH   3   4
BRANCH   3   6
ATOM      6  C   UNL     1     162.197 177.160 151.114  1.00  0.00    -0.014 C 
ATOM      7  C   UNL     1     162.052 177.723 152.540  1.00  0.00     0.007 C 
ATOM      8  C   UNL     1     160.861 177.211 150.342  1.00  0.00     0.007 C 
ENDBRANCH   3   6
ENDBRANCH   2   3
ENDBRANCH   1   2
BRANCH   1   9
ATOM      9  C   UNL     1     166.059 176.320 152.963  1.00  0.00    -0.011 C 
ATOM     10  C   UNL     1     165.268 176.900 154.161  1.00  0.00     0.008 C 
BRANCH   9  11
ATOM     11  C   UNL     1     167.470 175.654 153.280  1.00  0.00    -0.002 C 
ATOM     12  C   UNL     1     167.441 174.099 153.208  1.00  0.00     0.005 C 
ATOM     13  C   UNL     1     168.781 176.033 152.497  1.00  0.00    -0.026 C 
ATOM     14  C   UNL     1     168.867 173.629 152.864  1.00  0.00     0.005 C 
ATOM     15  C   UNL     1     169.706 174.898 152.970  1.00  0.00    -0.001 C 
ATOM     16  C   UNL     1     169.431 177.361 152.970  1.00  0.00     0.007 C 
ATOM     17  C   UNL     1     168.562 176.008 150.951  1.00  0.00     0.012 C 
ATOM     18  C   UNL     1     171.176 174.923 152.459  1.00  0.00     0.000 C 
ATOM     19  C   UNL     1     170.929 177.521 152.588  1.00  0.00     0.005 C 
ATOM     20  C   UNL     1     171.599 176.303 151.876  1.00  0.00     0.003 C 
ATOM     21  C   UNL     1     171.551 173.831 151.441  1.00  0.00     0.031 C 
ATOM     22  C   UNL     1     173.178 176.393 151.717  1.00  0.00    -0.008 C 
ATOM     23  C   UNL     1     173.028 173.904 151.149  1.00  0.00    -0.027 C 
ATOM     24  C   UNL     1     173.763 175.041 151.249  1.00  0.00    -0.065 C 
ATOM     25  C   UNL     1     173.883 176.789 153.057  1.00  0.00     0.014 C 
ATOM     26  C   UNL     1     173.491 177.466 150.637  1.00  0.00     0.016 C 
ATOM     27  C   UNL     1     175.276 174.938 151.163  1.00  0.00     0.063 C 
ATOM     28  C   UNL     1     175.427 176.636 153.027  1.00  0.00     0.033 C 
ATOM     29  C   UNL     1     175.879 175.249 152.535  1.00  0.00     0.118 C 
BRANCH  29  30
ATOM     30  O   UNL     1     175.488 174.256 153.452  1.00  0.00    -0.393 OA
ATOM     31  H   UNL     1     176.309 173.735 153.690  1.00  0.00     0.210 HD
ENDBRANCH  29  30
ENDBRANCH   9  11
ENDBRANCH   1   9
TORSDOF 7
ENDMDL
MODEL 7
REMARK VINA RESULT:    -6.426     11.832     16.121
REMARK INTER + INTRA:          -9.911
REMARK INTER:                  -8.743
REMARK INTRA:                  -1.168
REMARK UNBOUND:                -1.043
REMARK SMILES CC[C@H](CC[C@@H](C)[C@H]1CC[C@H]2[C@H]3CC=C4C[C@H](O)CC[C@]4(C)[C@@H]3CC[C@]12C)C(C)C
REMARK SMILES IDX 5 1 4 2 3 3 2 4 1 5 28 6 29 7 30 8 6 9 7 10 8 11 9 12 26 13
REMARK SMILES IDX 10 14 11 15 25 16 27 17 12 18 24 19 23 20 13 21 21 22 14 23
REMARK SMILES IDX 15 24 20 25 22 26 16 27 19 28 17 29 18 30
REMARK H PARENT 18 31
REMARK Flexibility Score: inf
ROOT
ATOM      1  C   UNL     1     176.295 175.866 162.488  1.00  0.00     0.004 C 
ENDROOT
BRANCH   1   2
ATOM      2  C   UNL     1     175.560 175.382 163.767  1.00  0.00     0.004 C 
BRANCH   2   3
ATOM      3  C   UNL     1     175.843 176.279 165.014  1.00  0.00    -0.009 C 
BRANCH   3   4
ATOM      4  C   UNL     1     176.633 177.570 164.650  1.00  0.00     0.000 C 
ATOM      5  C   UNL     1     178.120 177.522 165.005  1.00  0.00     0.004 C 
ENDBRANCH   3   4
BRANCH   3   6
ATOM      6  C   UNL     1     174.505 176.635 165.745  1.00  0.00    -0.014 C 
ATOM      7  C   UNL     1     173.250 176.270 164.931  1.00  0.00     0.007 C 
ATOM      8  C   UNL     1     174.480 178.110 166.202  1.00  0.00     0.007 C 
ENDBRANCH   3   6
ENDBRANCH   2   3
ENDBRANCH   1   2
BRANCH   1   9
ATOM      9  C   UNL     1     175.383 176.158 161.262  1.00  0.00    -0.011 C 
ATOM     10  C   UNL     1     174.926 177.630 161.405  1.00  0.00     0.008 C 
BRANCH   9  11
ATOM     11  C   UNL     1     176.106 175.754 159.902  1.00  0.00    -0.002 C 
ATOM     12  C   UNL     1     177.121 174.585 160.074  1.00  0.00     0.005 C 
ATOM     13  C   UNL     1     175.310 175.359 158.603  1.00  0.00    -0.026 C 
ATOM     14  C   UNL     1     177.228 173.867 158.716  1.00  0.00     0.005 C 
ATOM     15  C   UNL     1     176.456 174.772 157.761  1.00  0.00    -0.001 C 
ATOM     16  C   UNL     1     174.759 176.577 157.813  1.00  0.00     0.007 C 
ATOM     17  C   UNL     1     174.197 174.304 158.901  1.00  0.00     0.012 C 
ATOM     18  C   UNL     1     176.104 174.292 156.323  1.00  0.00     0.000 C 
ATOM     19  C   UNL     1     174.408 176.280 156.328  1.00  0.00     0.005 C 
ATOM     20  C   UNL     1     174.744 174.846 155.807  1.00  0.00     0.003 C 
ATOM     21  C   UNL     1     176.123 172.769 156.100  1.00  0.00     0.031 C 
ATOM     22  C   UNL     1     174.606 174.644 154.236  1.00  0.00    -0.008 C 
ATOM     23  C   UNL     1     175.898 172.473 154.639  1.00  0.00    -0.027 C 
ATOM     24  C   UNL     1     175.208 173.289 153.800  1.00  0.00    -0.065 C 
ATOM     25  C   UNL     1     175.326 175.777 153.432  1.00  0.00     0.014 C 
ATOM     26  C   UNL     1     173.092 174.648 153.884  1.00  0.00     0.016 C 
ATOM     27  C   UNL     1     175.254 173.004 152.309  1.00  0.00     0.063 C 
ATOM     28  C   UNL     1     175.448 175.491 151.912  1.00  0.00     0.033 C 
ATOM     29  C   UNL     1     176.053 174.108 151.611  1.00  0.00     0.118 C 
BRANCH  29  30
ATOM     30  O   UNL     1     177.392 174.058 152.043  1.00  0.00    -0.393 OA
ATOM     31  H   UNL     1     177.967 174.200 151.237  1.00  0.00     0.210 HD
ENDBRANCH  29  30
ENDBRANCH   9  11
ENDBRANCH   1   9
TORSDOF 7
ENDMDL
MODEL 8
REMARK VINA RESULT:    -6.410     14.774     18.585
REMARK INTER + INTRA:          -9.889
REMARK INTER:                  -8.908
REMARK INTRA:                  -0.981
REMARK UNBOUND:                -1.043
REMARK SMILES CC[C@H](CC[C@@H](C)[C@H]1CC[C@H]2[C@H]3CC=C4C[C@H](O)CC[C@]4(C)[C@@H]3CC[C@]12C)C(C)C
REMARK SMILES IDX 5 1 4 2 3 3 2 4 1 5 28 6 29 7 30 8 6 9 7 10 8 11 9 12 26 13
REMARK SMILES IDX 10 14 11 15 25 16 27 17 12 18 24 19 23 20 13 21 21 22 14 23
REMARK SMILES IDX 15 24 20 25 22 26 16 27 19 28 17 29 18 30
REMARK H PARENT 18 31
REMARK Flexibility Score: inf
ROOT
ATOM      1  C   UNL     1     164.480 176.793 151.580  1.00  0.00     0.004 C 
ENDROOT
BRANCH   1   2
ATOM      2  C   UNL     1     163.008 176.547 151.157  1.00  0.00     0.004 C 
BRANCH   2   3
ATOM      3  C   UNL     1     161.996 176.699 152.336  1.00  0.00    -0.009 C 
BRANCH   3   4
ATOM      4  C   UNL     1     162.342 177.901 153.264  1.00  0.00     0.000 C 
ATOM      5  C   UNL     1     162.551 177.525 154.732  1.00  0.00     0.004 C 
ENDBRANCH   3   4
BRANCH   3   6
ATOM      6  C   UNL     1     160.535 176.825 151.789  1.00  0.00    -0.014 C 
ATOM      7  C   UNL     1     159.739 175.508 151.867  1.00  0.00     0.007 C 
ATOM      8  C   UNL     1     160.508 177.424 150.366  1.00  0.00     0.007 C 
ENDBRANCH   3   6
ENDBRANCH   2   3
ENDBRANCH   1   2
BRANCH   1   9
ATOM      9  C   UNL     1     165.324 175.513 151.850  1.00  0.00    -0.011 C 
ATOM     10  C   UNL     1     164.507 174.329 151.277  1.00  0.00     0.008 C 
BRANCH   9  11
ATOM     11  C   UNL     1     166.815 175.687 151.319  1.00  0.00    -0.002 C 
ATOM     12  C   UNL     1     166.972 176.868 150.316  1.00  0.00     0.005 C 
ATOM     13  C   UNL     1     168.044 175.863 152.287  1.00  0.00    -0.026 C 
ATOM     14  C   UNL     1     168.432 177.352 150.403  1.00  0.00     0.005 C 
ATOM     15  C   UNL     1     169.114 176.302 151.274  1.00  0.00    -0.001 C 
ATOM     16  C   UNL     1     168.544 174.532 152.911  1.00  0.00     0.007 C 
ATOM     17  C   UNL     1     167.777 176.953 153.373  1.00  0.00     0.012 C 
ATOM     18  C   UNL     1     170.552 176.538 151.821  1.00  0.00     0.000 C 
ATOM     19  C   UNL     1     169.997 174.580 153.459  1.00  0.00     0.005 C 
ATOM     20  C   UNL     1     170.786 175.908 153.225  1.00  0.00     0.003 C 
ATOM     21  C   UNL     1     171.022 178.004 151.864  1.00  0.00     0.031 C 
ATOM     22  C   UNL     1     172.336 175.849 153.571  1.00  0.00    -0.008 C 
ATOM     23  C   UNL     1     172.469 178.055 152.285  1.00  0.00    -0.027 C 
ATOM     24  C   UNL     1     173.063 177.112 153.060  1.00  0.00    -0.065 C 
ATOM     25  C   UNL     1     173.032 174.598 152.939  1.00  0.00     0.014 C 
ATOM     26  C   UNL     1     172.479 175.787 155.118  1.00  0.00     0.016 C 
ATOM     27  C   UNL     1     174.574 177.148 153.216  1.00  0.00     0.063 C 
ATOM     28  C   UNL     1     174.582 174.629 153.023  1.00  0.00     0.033 C 
ATOM     29  C   UNL     1     175.182 175.943 152.492  1.00  0.00     0.118 C 
BRANCH  29  30
ATOM     30  O   UNL     1     174.945 176.063 151.109  1.00  0.00    -0.393 OA
ATOM     31  H   UNL     1     175.327 175.248 150.674  1.00  0.00     0.210 HD
ENDBRANCH  29  30
ENDBRANCH   9  11
ENDBRANCH   1   9
TORSDOF 7
ENDMDL
MODEL 9
REMARK VINA RESULT:    -5.599     11.372     13.263
REMARK INTER + INTRA:          -8.769
REMARK INTER:                  -7.462
REMARK INTRA:                  -1.307
REMARK UNBOUND:                -1.043
REMARK SMILES CC[C@H](CC[C@@H](C)[C@H]1CC[C@H]2[C@H]3CC=C4C[C@H](O)CC[C@]4(C)[C@@H]3CC[C@]12C)C(C)C
REMARK SMILES IDX 5 1 4 2 3 3 2 4 1 5 28 6 29 7 30 8 6 9 7 10 8 11 9 12 26 13
REMARK SMILES IDX 10 14 11 15 25 16 27 17 12 18 24 19 23 20 13 21 21 22 14 23
REMARK SMILES IDX 15 24 20 25 22 26 16 27 19 28 17 29 18 30
REMARK H PARENT 18 31
REMARK Flexibility Score: inf
ROOT
ATOM      1  C   UNL     1     173.329 174.666 152.213  1.00  0.00     0.004 C 
ENDROOT
BRANCH   1   2
ATOM      2  C   UNL     1     173.112 175.765 151.139  1.00  0.00     0.004 C 
BRANCH   2   3
ATOM      3  C   UNL     1     172.898 177.186 151.748  1.00  0.00    -0.009 C 
BRANCH   3   4
ATOM      4  C   UNL     1     172.684 177.145 153.290  1.00  0.00     0.000 C 
ATOM      5  C   UNL     1     171.242 176.873 153.722  1.00  0.00     0.004 C 
ENDBRANCH   3   4
BRANCH   3   6
ATOM      6  C   UNL     1     174.094 178.125 151.379  1.00  0.00    -0.014 C 
ATOM      7  C   UNL     1     174.692 177.833 149.990  1.00  0.00     0.007 C 
ATOM      8  C   UNL     1     175.179 178.125 152.479  1.00  0.00     0.007 C 
ENDBRANCH   3   6
ENDBRANCH   2   3
ENDBRANCH   1   2
BRANCH   1   9
ATOM      9  C   UNL     1     174.540 173.719 151.969  1.00  0.00    -0.011 C 
ATOM     10  C   UNL     1     175.513 174.492 151.046  1.00  0.00     0.008 C 
BRANCH   9  11
ATOM     11  C   UNL     1     175.127 173.174 153.345  1.00  0.00    -0.002 C 
ATOM     12  C   UNL     1     176.561 172.582 153.205  1.00  0.00     0.005 C 
ATOM     13  C   UNL     1     175.223 174.066 154.638  1.00  0.00    -0.026 C 
ATOM     14  C   UNL     1     177.249 172.720 154.577  1.00  0.00     0.005 C 
ATOM     15  C   UNL     1     176.128 173.174 155.505  1.00  0.00    -0.001 C 
ATOM     16  C   UNL     1     173.879 174.208 155.401  1.00  0.00     0.007 C 
ATOM     17  C   UNL     1     175.876 175.453 154.340  1.00  0.00     0.012 C 
ATOM     18  C   UNL     1     176.443 173.672 156.946  1.00  0.00     0.000 C 
ATOM     19  C   UNL     1     174.020 174.648 156.885  1.00  0.00     0.005 C 
ATOM     20  C   UNL     1     175.476 174.790 157.433  1.00  0.00     0.003 C 
ATOM     21  C   UNL     1     177.889 174.140 157.193  1.00  0.00     0.031 C 
ATOM     22  C   UNL     1     175.594 174.998 159.005  1.00  0.00    -0.008 C 
ATOM     23  C   UNL     1     178.069 174.460 158.655  1.00  0.00    -0.027 C 
ATOM     24  C   UNL     1     177.060 174.861 159.471  1.00  0.00    -0.065 C 
ATOM     25  C   UNL     1     174.732 173.963 159.802  1.00  0.00     0.014 C 
ATOM     26  C   UNL     1     175.102 176.435 159.335  1.00  0.00     0.016 C 
ATOM     27  C   UNL     1     177.317 174.921 160.966  1.00  0.00     0.063 C 
ATOM     28  C   UNL     1     175.013 173.951 161.328  1.00  0.00     0.033 C 
ATOM     29  C   UNL     1     176.510 173.819 161.658  1.00  0.00     0.118 C 
BRANCH  29  30
ATOM     30  O   UNL     1     176.991 172.562 161.247  1.00  0.00    -0.393 OA
ATOM     31  H   UNL     1     177.758 172.330 161.845  1.00  0.00     0.210 HD
ENDBRANCH  29  30
ENDBRANCH   9  11
ENDBRANCH   1   9
TORSDOF 7
ENDMDL
