MODEL 1
REMARK VINA RESULT:    -3.380      0.000      0.000
REMARK INTER + INTRA:          -6.530
REMARK INTER:                  -5.356
REMARK INTRA:                  -1.174
REMARK UNBOUND:                -1.174
REMARK SMILES CCCCCCCCCCCC(=O)[O-]
REMARK SMILES IDX 7 1 8 2 9 3 10 4 11 5 12 6 13 7 14 8 6 9 5 10 4 11 3 12 2 13
REMARK SMILES IDX 1 14
REMARK H PARENT
REMARK Flexibility Score: inf
ROOT
ATOM      1  C   UNL     1      57.593  28.505  51.322  1.00  0.00     0.000 C 
ENDROOT
BRANCH   1   2
ATOM      2  C   UNL     1      58.025  28.908  49.904  1.00  0.00     0.000 C 
BRANCH   2   3
ATOM      3  C   UNL     1      59.526  29.220  49.856  1.00  0.00     0.000 C 
BRANCH   3   4
ATOM      4  C   UNL     1      60.266  28.224  48.950  1.00  0.00     0.006 C 
BRANCH   4   5
ATOM      5  C   UNL     1      60.692  26.959  49.704  1.00  0.00     0.053 C 
BRANCH   5   6
ATOM      6  C   UNL     1      62.172  26.735  49.622  1.00  0.00     0.041 C 
ATOM      7  O   UNL     1      62.663  25.617  49.929  1.00  0.00    -0.550 OA
ATOM      8  O   UNL     1      63.005  27.753  49.176  1.00  0.00    -0.550 OA
ENDBRANCH   5   6
ENDBRANCH   4   5
ENDBRANCH   3   4
ENDBRANCH   2   3
ENDBRANCH   1   2
BRANCH   1   9
ATOM      9  C   UNL     1      56.924  27.121  51.368  1.00  0.00     0.000 C 
BRANCH   9  10
ATOM     10  C   UNL     1      57.024  26.373  50.027  1.00  0.00    -0.000 C 
BRANCH  10  11
ATOM     11  C   UNL     1      55.650  26.089  49.395  1.00  0.00    -0.000 C 
BRANCH  11  12
ATOM     12  C   UNL     1      54.448  26.692  50.145  1.00  0.00    -0.000 C 
BRANCH  12  13
ATOM     13  C   UNL     1      53.812  27.877  49.404  1.00  0.00    -0.003 C 
ATOM     14  C   UNL     1      54.123  29.195  50.107  1.00  0.00     0.004 C 
ENDBRANCH  12  13
ENDBRANCH  11  12
ENDBRANCH  10  11
ENDBRANCH   9  10
ENDBRANCH   1   9
TORSDOF 10
ENDMDL
MODEL 2
REMARK VINA RESULT:    -3.376      2.030      2.750
REMARK INTER + INTRA:          -6.523
REMARK INTER:                  -5.727
REMARK INTRA:                  -0.796
REMARK UNBOUND:                -1.174
REMARK SMILES CCCCCCCCCCCC(=O)[O-]
REMARK SMILES IDX 7 1 8 2 9 3 10 4 11 5 12 6 13 7 14 8 6 9 5 10 4 11 3 12 2 13
REMARK SMILES IDX 1 14
REMARK H PARENT
REMARK Flexibility Score: inf
ROOT
ATOM      1  C   UNL     1      59.044  29.643  50.946  1.00  0.00     0.000 C 
ENDROOT
BRANCH   1   2
ATOM      2  C   UNL     1      59.345  29.297  49.480  1.00  0.00     0.000 C 
BRANCH   2   3
ATOM      3  C   UNL     1      60.532  28.333  49.377  1.00  0.00     0.000 C 
BRANCH   3   4
ATOM      4  C   UNL     1      60.055  26.901  49.090  1.00  0.00     0.006 C 
BRANCH   4   5
ATOM      5  C   UNL     1      60.698  25.875  50.031  1.00  0.00     0.053 C 
BRANCH   5   6
ATOM      6  C   UNL     1      59.671  25.002  50.686  1.00  0.00     0.041 C 
ATOM      7  O   UNL     1      58.451  25.309  50.635  1.00  0.00    -0.550 OA
ATOM      8  O   UNL     1      60.060  23.832  51.325  1.00  0.00    -0.550 OA
ENDBRANCH   5   6
ENDBRANCH   4   5
ENDBRANCH   3   4
ENDBRANCH   2   3
ENDBRANCH   1   2
BRANCH   1   9
ATOM      9  C   UNL     1      57.691  29.089  51.422  1.00  0.00     0.000 C 
BRANCH   9  10
ATOM     10  C   UNL     1      56.890  28.433  50.284  1.00  0.00    -0.000 C 
BRANCH  10  11
ATOM     11  C   UNL     1      55.421  28.894  50.243  1.00  0.00    -0.000 C 
BRANCH  11  12
ATOM     12  C   UNL     1      54.433  27.879  49.640  1.00  0.00    -0.000 C 
BRANCH  12  13
ATOM     13  C   UNL     1      55.051  26.488  49.440  1.00  0.00    -0.003 C 
ATOM     14  C   UNL     1      54.059  25.535  48.780  1.00  0.00     0.004 C 
ENDBRANCH  12  13
ENDBRANCH  11  12
ENDBRANCH  10  11
ENDBRANCH   9  10
ENDBRANCH   1   9
TORSDOF 10
ENDMDL
MODEL 3
REMARK VINA RESULT:    -3.344     11.587     13.130
REMARK INTER + INTRA:          -6.473
REMARK INTER:                  -5.558
REMARK INTRA:                  -0.915
REMARK UNBOUND:                -1.174
REMARK SMILES CCCCCCCCCCCC(=O)[O-]
REMARK SMILES IDX 7 1 8 2 9 3 10 4 11 5 12 6 13 7 14 8 6 9 5 10 4 11 3 12 2 13
REMARK SMILES IDX 1 14
REMARK H PARENT
REMARK Flexibility Score: inf
ROOT
ATOM      1  C   UNL     1      61.129  31.790  60.606  1.00  0.00     0.000 C 
ENDROOT
BRANCH   1   2
ATOM      2  C   UNL     1      61.203  30.268  60.801  1.00  0.00     0.000 C 
BRANCH   2   3
ATOM      3  C   UNL     1      62.531  29.862  61.451  1.00  0.00     0.000 C 
BRANCH   3   4
ATOM      4  C   UNL     1      63.454  29.173  60.434  1.00  0.00     0.006 C 
BRANCH   4   5
ATOM      5  C   UNL     1      64.892  29.702  60.504  1.00  0.00     0.053 C 
BRANCH   5   6
ATOM      6  C   UNL     1      65.893  28.587  60.524  1.00  0.00     0.041 C 
ATOM      7  O   UNL     1      67.112  28.831  60.726  1.00  0.00    -0.550 OA
ATOM      8  O   UNL     1      65.474  27.274  60.352  1.00  0.00    -0.550 OA
ENDBRANCH   5   6
ENDBRANCH   4   5
ENDBRANCH   3   4
ENDBRANCH   2   3
ENDBRANCH   1   2
BRANCH   1   9
ATOM      9  C   UNL     1      61.493  32.224  59.176  1.00  0.00     0.000 C 
BRANCH   9  10
ATOM     10  C   UNL     1      62.920  32.790  59.077  1.00  0.00    -0.000 C 
BRANCH  10  11
ATOM     11  C   UNL     1      63.337  33.588  60.326  1.00  0.00    -0.000 C 
BRANCH  11  12
ATOM     12  C   UNL     1      62.763  35.014  60.412  1.00  0.00    -0.000 C 
BRANCH  12  13
ATOM     13  C   UNL     1      63.731  36.012  61.064  1.00  0.00    -0.003 C 
ATOM     14  C   UNL     1      65.033  35.328  61.472  1.00  0.00     0.004 C 
ENDBRANCH  12  13
ENDBRANCH  11  12
ENDBRANCH  10  11
ENDBRANCH   9  10
ENDBRANCH   1   9
TORSDOF 10
ENDMDL
MODEL 4
REMARK VINA RESULT:    -3.261      3.591      5.734
REMARK INTER + INTRA:          -6.342
REMARK INTER:                  -4.857
REMARK INTRA:                  -1.485
REMARK UNBOUND:                -1.174
REMARK SMILES CCCCCCCCCCCC(=O)[O-]
REMARK SMILES IDX 7 1 8 2 9 3 10 4 11 5 12 6 13 7 14 8 6 9 5 10 4 11 3 12 2 13
REMARK SMILES IDX 1 14
REMARK H PARENT
REMARK Flexibility Score: inf
ROOT
ATOM      1  C   UNL     1      59.013  29.321  50.921  1.00  0.00     0.000 C 
ENDROOT
BRANCH   1   2
ATOM      2  C   UNL     1      57.530  29.265  51.316  1.00  0.00     0.000 C 
BRANCH   2   3
ATOM      3  C   UNL     1      56.706  28.532  50.251  1.00  0.00     0.000 C 
BRANCH   3   4
ATOM      4  C   UNL     1      56.348  27.111  50.712  1.00  0.00     0.006 C 
BRANCH   4   5
ATOM      5  C   UNL     1      56.113  26.160  49.533  1.00  0.00     0.053 C 
BRANCH   5   6
ATOM      6  C   UNL     1      54.653  25.918  49.296  1.00  0.00     0.041 C 
ATOM      7  O   UNL     1      53.894  26.872  48.981  1.00  0.00    -0.550 OA
ATOM      8  O   UNL     1      54.138  24.632  49.392  1.00  0.00    -0.550 OA
ENDBRANCH   5   6
ENDBRANCH   4   5
ENDBRANCH   3   4
ENDBRANCH   2   3
ENDBRANCH   1   2
BRANCH   1   9
ATOM      9  C   UNL     1      59.228  29.215  49.403  1.00  0.00     0.000 C 
BRANCH   9  10
ATOM     10  C   UNL     1      60.308  28.184  49.030  1.00  0.00    -0.000 C 
BRANCH  10  11
ATOM     11  C   UNL     1      59.840  26.730  49.220  1.00  0.00    -0.000 C 
BRANCH  11  12
ATOM     12  C   UNL     1      60.521  25.968  50.371  1.00  0.00    -0.000 C 
BRANCH  12  13
ATOM     13  C   UNL     1      59.593  25.740  51.572  1.00  0.00    -0.003 C 
ATOM     14  C   UNL     1      60.221  26.265  52.860  1.00  0.00     0.004 C 
ENDBRANCH  12  13
ENDBRANCH  11  12
ENDBRANCH  10  11
ENDBRANCH   9  10
ENDBRANCH   1   9
TORSDOF 10
ENDMDL
MODEL 5
REMARK VINA RESULT:    -3.196      3.535      5.906
REMARK INTER + INTRA:          -6.239
REMARK INTER:                  -4.622
REMARK INTRA:                  -1.617
REMARK UNBOUND:                -1.174
REMARK SMILES CCCCCCCCCCCC(=O)[O-]
REMARK SMILES IDX 7 1 8 2 9 3 10 4 11 5 12 6 13 7 14 8 6 9 5 10 4 11 3 12 2 13
REMARK SMILES IDX 1 14
REMARK H PARENT
REMARK Flexibility Score: inf
ROOT
ATOM      1  C   UNL     1      58.455  27.798  52.542  1.00  0.00     0.000 C 
ENDROOT
BRANCH   1   2
ATOM      2  C   UNL     1      57.247  26.943  52.128  1.00  0.00     0.000 C 
BRANCH   2   3
ATOM      3  C   UNL     1      57.621  25.978  50.997  1.00  0.00     0.000 C 
BRANCH   3   4
ATOM      4  C   UNL     1      56.785  26.255  49.738  1.00  0.00     0.006 C 
BRANCH   4   5
ATOM      5  C   UNL     1      55.796  27.409  49.940  1.00  0.00     0.053 C 
BRANCH   5   6
ATOM      6  C   UNL     1      54.447  27.090  49.370  1.00  0.00     0.041 C 
ATOM      7  O   UNL     1      53.514  27.934  49.435  1.00  0.00    -0.550 OA
ATOM      8  O   UNL     1      54.231  25.873  48.736  1.00  0.00    -0.550 OA
ENDBRANCH   5   6
ENDBRANCH   4   5
ENDBRANCH   3   4
ENDBRANCH   2   3
ENDBRANCH   1   2
BRANCH   1   9
ATOM      9  C   UNL     1      58.332  29.260  52.083  1.00  0.00     0.000 C 
BRANCH   9  10
ATOM     10  C   UNL     1      59.433  29.659  51.085  1.00  0.00    -0.000 C 
BRANCH  10  11
ATOM     11  C   UNL     1      59.053  29.359  49.623  1.00  0.00    -0.000 C 
BRANCH  11  12
ATOM     12  C   UNL     1      59.915  28.286  48.931  1.00  0.00    -0.000 C 
BRANCH  12  13
ATOM     13  C   UNL     1      60.940  27.641  49.874  1.00  0.00    -0.003 C 
ATOM     14  C   UNL     1      61.079  26.147  49.595  1.00  0.00     0.004 C 
ENDBRANCH  12  13
ENDBRANCH  11  12
ENDBRANCH  10  11
ENDBRANCH   9  10
ENDBRANCH   1   9
TORSDOF 10
ENDMDL
MODEL 6
REMARK VINA RESULT:    -3.186     12.191     13.731
REMARK INTER + INTRA:          -6.222
REMARK INTER:                  -5.261
REMARK INTRA:                  -0.962
REMARK UNBOUND:                -1.174
REMARK SMILES CCCCCCCCCCCC(=O)[O-]
REMARK SMILES IDX 7 1 8 2 9 3 10 4 11 5 12 6 13 7 14 8 6 9 5 10 4 11 3 12 2 13
REMARK SMILES IDX 1 14
REMARK H PARENT
REMARK Flexibility Score: inf
ROOT
ATOM      1  C   UNL     1      61.148  32.327  60.246  1.00  0.00     0.000 C 
ENDROOT
BRANCH   1   2
ATOM      2  C   UNL     1      62.056  33.415  59.654  1.00  0.00     0.000 C 
BRANCH   2   3
ATOM      3  C   UNL     1      61.554  34.814  60.032  1.00  0.00     0.000 C 
BRANCH   3   4
ATOM      4  C   UNL     1      62.727  35.751  60.359  1.00  0.00     0.006 C 
BRANCH   4   5
ATOM      5  C   UNL     1      63.967  34.985  60.836  1.00  0.00     0.053 C 
BRANCH   5   6
ATOM      6  C   UNL     1      65.041  35.912  61.316  1.00  0.00     0.041 C 
ATOM      7  O   UNL     1      64.775  36.813  62.155  1.00  0.00    -0.550 OA
ATOM      8  O   UNL     1      66.345  35.759  60.861  1.00  0.00    -0.550 OA
ENDBRANCH   5   6
ENDBRANCH   4   5
ENDBRANCH   3   4
ENDBRANCH   2   3
ENDBRANCH   1   2
BRANCH   1   9
ATOM      9  C   UNL     1      61.561  30.910  59.815  1.00  0.00     0.000 C 
BRANCH   9  10
ATOM     10  C   UNL     1      61.810  29.978  61.014  1.00  0.00    -0.000 C 
BRANCH  10  11
ATOM     11  C   UNL     1      63.276  29.519  61.122  1.00  0.00    -0.000 C 
BRANCH  11  12
ATOM     12  C   UNL     1      64.323  30.640  60.995  1.00  0.00    -0.000 C 
BRANCH  12  13
ATOM     13  C   UNL     1      65.270  30.443  59.802  1.00  0.00    -0.003 C 
ATOM     14  C   UNL     1      65.115  31.571  58.786  1.00  0.00     0.004 C 
ENDBRANCH  12  13
ENDBRANCH  11  12
ENDBRANCH  10  11
ENDBRANCH   9  10
ENDBRANCH   1   9
TORSDOF 10
ENDMDL
MODEL 7
REMARK VINA RESULT:    -3.119     11.914     13.433
REMARK INTER + INTRA:          -6.116
REMARK INTER:                  -4.769
REMARK INTRA:                  -1.346
REMARK UNBOUND:                -1.174
REMARK SMILES CCCCCCCCCCCC(=O)[O-]
REMARK SMILES IDX 7 1 8 2 9 3 10 4 11 5 12 6 13 7 14 8 6 9 5 10 4 11 3 12 2 13
REMARK SMILES IDX 1 14
REMARK H PARENT
REMARK Flexibility Score: inf
ROOT
ATOM      1  C   UNL     1      64.955  34.821  59.400  1.00  0.00     0.000 C 
ENDROOT
BRANCH   1   2
ATOM      2  C   UNL     1      64.840  33.337  59.018  1.00  0.00     0.000 C 
BRANCH   2   3
ATOM      3  C   UNL     1      64.450  32.487  60.232  1.00  0.00     0.000 C 
BRANCH   3   4
ATOM      4  C   UNL     1      63.376  31.454  59.860  1.00  0.00     0.006 C 
BRANCH   4   5
ATOM      5  C   UNL     1      63.015  30.540  61.038  1.00  0.00     0.053 C 
BRANCH   5   6
ATOM      6  C   UNL     1      61.553  30.216  61.062  1.00  0.00     0.041 C 
ATOM      7  O   UNL     1      60.746  30.968  61.671  1.00  0.00    -0.550 OA
ATOM      8  O   UNL     1      61.076  29.102  60.383  1.00  0.00    -0.550 OA
ENDBRANCH   5   6
ENDBRANCH   4   5
ENDBRANCH   3   4
ENDBRANCH   2   3
ENDBRANCH   1   2
BRANCH   1   9
ATOM      9  C   UNL     1      64.765  35.062  60.907  1.00  0.00     0.000 C 
BRANCH   9  10
ATOM     10  C   UNL     1      63.789  36.214  61.201  1.00  0.00    -0.000 C 
BRANCH  10  11
ATOM     11  C   UNL     1      62.811  36.482  60.042  1.00  0.00    -0.000 C 
BRANCH  11  12
ATOM     12  C   UNL     1      61.388  35.930  60.247  1.00  0.00    -0.000 C 
BRANCH  12  13
ATOM     13  C   UNL     1      61.248  34.462  59.819  1.00  0.00    -0.003 C 
ATOM     14  C   UNL     1      61.382  34.315  58.306  1.00  0.00     0.004 C 
ENDBRANCH  12  13
ENDBRANCH  11  12
ENDBRANCH  10  11
ENDBRANCH   9  10
ENDBRANCH   1   9
TORSDOF 10
ENDMDL
MODEL 8
REMARK VINA RESULT:    -3.117     11.571     12.988
REMARK INTER + INTRA:          -6.114
REMARK INTER:                  -4.824
REMARK INTRA:                  -1.290
REMARK UNBOUND:                -1.174
REMARK SMILES CCCCCCCCCCCC(=O)[O-]
REMARK SMILES IDX 7 1 8 2 9 3 10 4 11 5 12 6 13 7 14 8 6 9 5 10 4 11 3 12 2 13
REMARK SMILES IDX 1 14
REMARK H PARENT
REMARK Flexibility Score: inf
ROOT
ATOM      1  C   UNL     1      64.301  31.536  59.228  1.00  0.00     0.000 C 
ENDROOT
BRANCH   1   2
ATOM      2  C   UNL     1      64.382  33.070  59.183  1.00  0.00     0.000 C 
BRANCH   2   3
ATOM      3  C   UNL     1      64.397  33.660  60.598  1.00  0.00     0.000 C 
BRANCH   3   4
ATOM      4  C   UNL     1      63.418  34.838  60.714  1.00  0.00     0.006 C 
BRANCH   4   5
ATOM      5  C   UNL     1      62.093  34.566  59.993  1.00  0.00     0.053 C 
BRANCH   5   6
ATOM      6  C   UNL     1      61.204  35.772  59.991  1.00  0.00     0.041 C 
ATOM      7  O   UNL     1      61.544  36.813  60.613  1.00  0.00    -0.550 OA
ATOM      8  O   UNL     1      60.014  35.757  59.273  1.00  0.00    -0.550 OA
ENDBRANCH   5   6
ENDBRANCH   4   5
ENDBRANCH   3   4
ENDBRANCH   2   3
ENDBRANCH   1   2
BRANCH   1   9
ATOM      9  C   UNL     1      64.491  30.973  60.646  1.00  0.00     0.000 C 
BRANCH   9  10
ATOM     10  C   UNL     1      63.353  30.025  61.062  1.00  0.00    -0.000 C 
BRANCH  10  11
ATOM     11  C   UNL     1      62.073  30.772  61.480  1.00  0.00    -0.000 C 
BRANCH  11  12
ATOM     12  C   UNL     1      60.791  30.334  60.748  1.00  0.00    -0.000 C 
BRANCH  12  13
ATOM     13  C   UNL     1      60.958  30.286  59.223  1.00  0.00    -0.003 C 
ATOM     14  C   UNL     1      60.427  31.559  58.572  1.00  0.00     0.004 C 
ENDBRANCH  12  13
ENDBRANCH  11  12
ENDBRANCH  10  11
ENDBRANCH   9  10
ENDBRANCH   1   9
TORSDOF 10
ENDMDL
MODEL 9
REMARK VINA RESULT:    -2.685     11.651     13.288
REMARK INTER + INTRA:          -5.429
REMARK INTER:                  -4.551
REMARK INTRA:                  -0.878
REMARK UNBOUND:                -1.174
REMARK SMILES CCCCCCCCCCCC(=O)[O-]
REMARK SMILES IDX 7 1 8 2 9 3 10 4 11 5 12 6 13 7 14 8 6 9 5 10 4 11 3 12 2 13
REMARK SMILES IDX 1 14
REMARK H PARENT
REMARK Flexibility Score: inf
ROOT
ATOM      1  C   UNL     1      61.986  32.104  59.783  1.00  0.00     0.000 C 
ENDROOT
BRANCH   1   2
ATOM      2  C   UNL     1      61.171  31.313  60.817  1.00  0.00     0.000 C 
BRANCH   2   3
ATOM      3  C   UNL     1      61.987  30.143  61.379  1.00  0.00     0.000 C 
BRANCH   3   4
ATOM      4  C   UNL     1      63.476  30.292  61.031  1.00  0.00     0.006 C 
BRANCH   4   5
ATOM      5  C   UNL     1      64.115  28.957  60.629  1.00  0.00     0.053 C 
BRANCH   5   6
ATOM      6  C   UNL     1      63.399  28.325  59.474  1.00  0.00     0.041 C 
ATOM      7  O   UNL     1      62.876  27.186  59.598  1.00  0.00    -0.550 OA
ATOM      8  O   UNL     1      63.282  29.008  58.271  1.00  0.00    -0.550 OA
ENDBRANCH   5   6
ENDBRANCH   4   5
ENDBRANCH   3   4
ENDBRANCH   2   3
ENDBRANCH   1   2
BRANCH   1   9
ATOM      9  C   UNL     1      61.474  33.543  59.598  1.00  0.00     0.000 C 
BRANCH   9  10
ATOM     10  C   UNL     1      62.406  34.587  60.237  1.00  0.00    -0.000 C 
BRANCH  10  11
ATOM     11  C   UNL     1      63.779  34.008  60.625  1.00  0.00    -0.000 C 
BRANCH  11  12
ATOM     12  C   UNL     1      64.921  35.037  60.713  1.00  0.00    -0.000 C 
BRANCH  12  13
ATOM     13  C   UNL     1      64.418  36.483  60.827  1.00  0.00    -0.003 C 
ATOM     14  C   UNL     1      64.883  37.125  62.131  1.00  0.00     0.004 C 
ENDBRANCH  12  13
ENDBRANCH  11  12
ENDBRANCH  10  11
ENDBRANCH   9  10
ENDBRANCH   1   9
TORSDOF 10
ENDMDL
