MODEL 1
REMARK VINA RESULT:    -4.126      0.000      0.000
REMARK INTER + INTRA:         -13.611
REMARK INTER:                  -9.433
REMARK INTRA:                  -4.178
REMARK UNBOUND:                -4.178
REMARK SMILES CCCCCCCCCCCCCCCCCCCCCCCC(=O)[O-]
REMARK SMILES IDX 13 1 14 2 15 3 16 4 17 5 18 6 19 7 20 8 21 9 22 10 23 11
REMARK SMILES IDX 24 12 25 13 26 14 12 15 11 16 10 17 9 18 8 19 7 20 6 21 5 22
REMARK SMILES IDX 4 23 3 24 2 25 1 26
REMARK H PARENT
REMARK Flexibility Score: inf
ROOT
ATOM      1  C   UNL     1      19.801  31.433  44.076  1.00  0.00     0.000 C 
ENDROOT
BRANCH   1   2
ATOM      2  C   UNL     1      19.352  32.891  43.881  1.00  0.00     0.000 C 
BRANCH   2   3
ATOM      3  C   UNL     1      17.995  33.184  44.543  1.00  0.00     0.000 C 
BRANCH   3   4
ATOM      4  C   UNL     1      18.129  33.558  46.028  1.00  0.00     0.000 C 
BRANCH   4   5
ATOM      5  C   UNL     1      18.961  34.836  46.198  1.00  0.00     0.000 C 
BRANCH   5   6
ATOM      6  C   UNL     1      20.293  34.536  46.900  1.00  0.00     0.000 C 
BRANCH   6   7
ATOM      7  C   UNL     1      20.261  34.841  48.409  1.00  0.00     0.000 C 
BRANCH   7   8
ATOM      8  C   UNL     1      21.509  34.388  49.190  1.00  0.00     0.000 C 
BRANCH   8   9
ATOM      9  C   UNL     1      22.435  33.480  48.363  1.00  0.00     0.000 C 
BRANCH   9  10
ATOM     10  C   UNL     1      23.867  33.430  48.919  1.00  0.00     0.006 C 
BRANCH  10  11
ATOM     11  C   UNL     1      24.885  32.920  47.888  1.00  0.00     0.053 C 
BRANCH  11  12
ATOM     12  C   UNL     1      25.497  31.632  48.345  1.00  0.00     0.041 C 
ATOM     13  O   UNL     1      25.823  31.478  49.552  1.00  0.00    -0.550 OA
ATOM     14  O   UNL     1      25.709  30.600  47.438  1.00  0.00    -0.550 OA
ENDBRANCH  11  12
ENDBRANCH  10  11
ENDBRANCH   9  10
ENDBRANCH   8   9
ENDBRANCH   7   8
ENDBRANCH   6   7
ENDBRANCH   5   6
ENDBRANCH   4   5
ENDBRANCH   3   4
ENDBRANCH   2   3
ENDBRANCH   1   2
BRANCH   1  15
ATOM     15  C   UNL     1      18.643  30.427  43.947  1.00  0.00     0.000 C 
BRANCH  15  16
ATOM     16  C   UNL     1      18.426  29.518  45.170  1.00  0.00     0.000 C 
BRANCH  16  17
ATOM     17  C   UNL     1      19.338  29.879  46.353  1.00  0.00     0.000 C 
BRANCH  17  18
ATOM     18  C   UNL     1      18.507  30.242  47.594  1.00  0.00    -0.000 C 
BRANCH  18  19
ATOM     19  C   UNL     1      19.131  31.385  48.412  1.00  0.00    -0.000 C 
BRANCH  19  20
ATOM     20  C   UNL     1      18.247  31.817  49.592  1.00  0.00    -0.000 C 
BRANCH  20  21
ATOM     21  C   UNL     1      18.889  31.426  50.932  1.00  0.00    -0.000 C 
BRANCH  21  22
ATOM     22  C   UNL     1      20.403  31.691  50.962  1.00  0.00    -0.000 C 
BRANCH  22  23
ATOM     23  C   UNL     1      21.219  30.429  51.295  1.00  0.00    -0.000 C 
BRANCH  23  24
ATOM     24  C   UNL     1      22.547  30.363  50.524  1.00  0.00    -0.000 C 
BRANCH  24  25
ATOM     25  C   UNL     1      22.381  29.785  49.111  1.00  0.00    -0.003 C 
ATOM     26  C   UNL     1      21.480  28.553  49.121  1.00  0.00     0.004 C 
ENDBRANCH  24  25
ENDBRANCH  23  24
ENDBRANCH  22  23
ENDBRANCH  21  22
ENDBRANCH  20  21
ENDBRANCH  19  20
ENDBRANCH  18  19
ENDBRANCH  17  18
ENDBRANCH  16  17
ENDBRANCH  15  16
ENDBRANCH   1  15
TORSDOF 22
ENDMDL
MODEL 2
REMARK VINA RESULT:    -4.072      2.326      4.806
REMARK INTER + INTRA:         -13.488
REMARK INTER:                  -9.235
REMARK INTRA:                  -4.253
REMARK UNBOUND:                -4.178
REMARK SMILES CCCCCCCCCCCCCCCCCCCCCCCC(=O)[O-]
REMARK SMILES IDX 13 1 14 2 15 3 16 4 17 5 18 6 19 7 20 8 21 9 22 10 23 11
REMARK SMILES IDX 24 12 25 13 26 14 12 15 11 16 10 17 9 18 8 19 7 20 6 21 5 22
REMARK SMILES IDX 4 23 3 24 2 25 1 26
REMARK H PARENT
REMARK Flexibility Score: inf
ROOT
ATOM      1  C   UNL     1      19.470  30.644  45.598  1.00  0.00     0.000 C 
ENDROOT
BRANCH   1   2
ATOM      2  C   UNL     1      18.087  30.691  46.270  1.00  0.00     0.000 C 
BRANCH   2   3
ATOM      3  C   UNL     1      18.141  30.311  47.760  1.00  0.00     0.000 C 
BRANCH   3   4
ATOM      4  C   UNL     1      19.511  29.754  48.179  1.00  0.00     0.000 C 
BRANCH   4   5
ATOM      5  C   UNL     1      19.375  28.812  49.381  1.00  0.00     0.000 C 
BRANCH   5   6
ATOM      6  C   UNL     1      20.221  29.304  50.565  1.00  0.00     0.000 C 
BRANCH   6   7
ATOM      7  C   UNL     1      20.339  30.838  50.624  1.00  0.00     0.000 C 
BRANCH   7   8
ATOM      8  C   UNL     1      19.040  31.576  50.999  1.00  0.00     0.000 C 
BRANCH   8   9
ATOM      9  C   UNL     1      19.293  32.994  51.541  1.00  0.00     0.000 C 
BRANCH   9  10
ATOM     10  C   UNL     1      20.780  33.268  51.813  1.00  0.00     0.006 C 
BRANCH  10  11
ATOM     11  C   UNL     1      21.021  34.648  52.444  1.00  0.00     0.053 C 
BRANCH  11  12
ATOM     12  C   UNL     1      21.448  35.636  51.404  1.00  0.00     0.041 C 
ATOM     13  O   UNL     1      22.671  35.794  51.144  1.00  0.00    -0.550 OA
ATOM     14  O   UNL     1      20.497  36.384  50.719  1.00  0.00    -0.550 OA
ENDBRANCH  11  12
ENDBRANCH  10  11
ENDBRANCH   9  10
ENDBRANCH   8   9
ENDBRANCH   7   8
ENDBRANCH   6   7
ENDBRANCH   5   6
ENDBRANCH   4   5
ENDBRANCH   3   4
ENDBRANCH   2   3
ENDBRANCH   1   2
BRANCH   1  15
ATOM     15  C   UNL     1      19.615  31.669  44.458  1.00  0.00     0.000 C 
BRANCH  15  16
ATOM     16  C   UNL     1      21.044  32.196  44.231  1.00  0.00     0.000 C 
BRANCH  16  17
ATOM     17  C   UNL     1      21.117  33.730  44.195  1.00  0.00     0.000 C 
BRANCH  17  18
ATOM     18  C   UNL     1      19.746  34.352  44.503  1.00  0.00    -0.000 C 
BRANCH  18  19
ATOM     19  C   UNL     1      19.731  35.131  45.828  1.00  0.00    -0.000 C 
BRANCH  19  20
ATOM     20  C   UNL     1      18.799  34.501  46.873  1.00  0.00    -0.000 C 
BRANCH  20  21
ATOM     21  C   UNL     1      19.598  33.677  47.896  1.00  0.00    -0.000 C 
BRANCH  21  22
ATOM     22  C   UNL     1      21.080  34.082  47.953  1.00  0.00    -0.000 C 
BRANCH  22  23
ATOM     23  C   UNL     1      22.008  32.889  48.243  1.00  0.00    -0.000 C 
BRANCH  23  24
ATOM     24  C   UNL     1      23.429  33.326  48.631  1.00  0.00    -0.000 C 
BRANCH  24  25
ATOM     25  C   UNL     1      24.512  32.624  47.800  1.00  0.00    -0.003 C 
ATOM     26  C   UNL     1      23.892  31.687  46.766  1.00  0.00     0.004 C 
ENDBRANCH  24  25
ENDBRANCH  23  24
ENDBRANCH  22  23
ENDBRANCH  21  22
ENDBRANCH  20  21
ENDBRANCH  19  20
ENDBRANCH  18  19
ENDBRANCH  17  18
ENDBRANCH  16  17
ENDBRANCH  15  16
ENDBRANCH   1  15
TORSDOF 22
ENDMDL
MODEL 3
REMARK VINA RESULT:    -4.063      1.321      2.054
REMARK INTER + INTRA:         -13.467
REMARK INTER:                  -8.830
REMARK INTRA:                  -4.637
REMARK UNBOUND:                -4.178
REMARK SMILES CCCCCCCCCCCCCCCCCCCCCCCC(=O)[O-]
REMARK SMILES IDX 13 1 14 2 15 3 16 4 17 5 18 6 19 7 20 8 21 9 22 10 23 11
REMARK SMILES IDX 24 12 25 13 26 14 12 15 11 16 10 17 9 18 8 19 7 20 6 21 5 22
REMARK SMILES IDX 4 23 3 24 2 25 1 26
REMARK H PARENT
REMARK Flexibility Score: inf
ROOT
ATOM      1  C   UNL     1      20.870  32.921  44.145  1.00  0.00     0.000 C 
ENDROOT
BRANCH   1   2
ATOM      2  C   UNL     1      19.905  34.117  44.083  1.00  0.00     0.000 C 
BRANCH   2   3
ATOM      3  C   UNL     1      20.096  35.092  45.258  1.00  0.00     0.000 C 
BRANCH   3   4
ATOM      4  C   UNL     1      18.921  35.062  46.248  1.00  0.00     0.000 C 
BRANCH   4   5
ATOM      5  C   UNL     1      19.323  34.368  47.555  1.00  0.00     0.000 C 
BRANCH   5   6
ATOM      6  C   UNL     1      20.844  34.427  47.765  1.00  0.00     0.000 C 
BRANCH   6   7
ATOM      7  C   UNL     1      21.400  33.188  48.491  1.00  0.00     0.000 C 
BRANCH   7   8
ATOM      8  C   UNL     1      21.971  32.096  47.568  1.00  0.00     0.000 C 
BRANCH   8   9
ATOM      9  C   UNL     1      23.266  32.529  46.858  1.00  0.00     0.000 C 
BRANCH   9  10
ATOM     10  C   UNL     1      24.497  32.456  47.776  1.00  0.00     0.006 C 
BRANCH  10  11
ATOM     11  C   UNL     1      24.984  31.016  47.998  1.00  0.00     0.053 C 
BRANCH  11  12
ATOM     12  C   UNL     1      26.045  30.660  47.005  1.00  0.00     0.041 C 
ATOM     13  O   UNL     1      27.263  30.766  47.311  1.00  0.00    -0.550 OA
ATOM     14  O   UNL     1      25.691  30.208  45.738  1.00  0.00    -0.550 OA
ENDBRANCH  11  12
ENDBRANCH  10  11
ENDBRANCH   9  10
ENDBRANCH   8   9
ENDBRANCH   7   8
ENDBRANCH   6   7
ENDBRANCH   5   6
ENDBRANCH   4   5
ENDBRANCH   3   4
ENDBRANCH   2   3
ENDBRANCH   1   2
BRANCH   1  15
ATOM     15  C   UNL     1      20.147  31.582  44.380  1.00  0.00     0.000 C 
BRANCH  15  16
ATOM     16  C   UNL     1      18.632  31.691  44.628  1.00  0.00     0.000 C 
BRANCH  16  17
ATOM     17  C   UNL     1      18.229  31.301  46.059  1.00  0.00     0.000 C 
BRANCH  17  18
ATOM     18  C   UNL     1      18.993  30.051  46.521  1.00  0.00    -0.000 C 
BRANCH  18  19
ATOM     19  C   UNL     1      19.133  29.972  48.051  1.00  0.00    -0.000 C 
BRANCH  19  20
ATOM     20  C   UNL     1      18.325  31.060  48.774  1.00  0.00    -0.000 C 
BRANCH  20  21
ATOM     21  C   UNL     1      18.705  31.128  50.262  1.00  0.00    -0.000 C 
BRANCH  21  22
ATOM     22  C   UNL     1      19.867  30.187  50.619  1.00  0.00    -0.000 C 
BRANCH  22  23
ATOM     23  C   UNL     1      21.107  30.944  51.129  1.00  0.00    -0.000 C 
BRANCH  23  24
ATOM     24  C   UNL     1      22.423  30.250  50.745  1.00  0.00    -0.000 C 
BRANCH  24  25
ATOM     25  C   UNL     1      23.590  30.648  51.660  1.00  0.00    -0.003 C 
ATOM     26  C   UNL     1      23.930  32.129  51.507  1.00  0.00     0.004 C 
ENDBRANCH  24  25
ENDBRANCH  23  24
ENDBRANCH  22  23
ENDBRANCH  21  22
ENDBRANCH  20  21
ENDBRANCH  19  20
ENDBRANCH  18  19
ENDBRANCH  17  18
ENDBRANCH  16  17
ENDBRANCH  15  16
ENDBRANCH   1  15
TORSDOF 22
ENDMDL
MODEL 4
REMARK VINA RESULT:    -4.016      9.447     12.386
REMARK INTER + INTRA:         -13.360
REMARK INTER:                  -8.712
REMARK INTRA:                  -4.649
REMARK UNBOUND:                -4.178
REMARK SMILES CCCCCCCCCCCCCCCCCCCCCCCC(=O)[O-]
REMARK SMILES IDX 13 1 14 2 15 3 16 4 17 5 18 6 19 7 20 8 21 9 22 10 23 11
REMARK SMILES IDX 24 12 25 13 26 14 12 15 11 16 10 17 9 18 8 19 7 20 6 21 5 22
REMARK SMILES IDX 4 23 3 24 2 25 1 26
REMARK H PARENT
REMARK Flexibility Score: inf
ROOT
ATOM      1  C   UNL     1      29.176  40.395  44.137  1.00  0.00     0.000 C 
ENDROOT
BRANCH   1   2
ATOM      2  C   UNL     1      27.713  40.143  44.538  1.00  0.00     0.000 C 
BRANCH   2   3
ATOM      3  C   UNL     1      27.120  41.298  45.364  1.00  0.00     0.000 C 
BRANCH   3   4
ATOM      4  C   UNL     1      27.648  42.673  44.923  1.00  0.00     0.000 C 
BRANCH   4   5
ATOM      5  C   UNL     1      26.909  43.803  45.649  1.00  0.00     0.000 C 
BRANCH   5   6
ATOM      6  C   UNL     1      25.898  43.239  46.660  1.00  0.00     0.000 C 
BRANCH   6   7
ATOM      7  C   UNL     1      26.259  43.568  48.120  1.00  0.00     0.000 C 
BRANCH   7   8
ATOM      8  C   UNL     1      27.538  42.886  48.642  1.00  0.00     0.000 C 
BRANCH   8   9
ATOM      9  C   UNL     1      27.725  43.048  50.161  1.00  0.00     0.000 C 
BRANCH   9  10
ATOM     10  C   UNL     1      29.161  42.742  50.616  1.00  0.00     0.006 C 
BRANCH  10  11
ATOM     11  C   UNL     1      30.184  43.741  50.054  1.00  0.00     0.053 C 
BRANCH  11  12
ATOM     12  C   UNL     1      31.542  43.116  49.977  1.00  0.00     0.041 C 
ATOM     13  O   UNL     1      31.699  41.900  50.265  1.00  0.00    -0.550 OA
ATOM     14  O   UNL     1      32.639  43.877  49.585  1.00  0.00    -0.550 OA
ENDBRANCH  11  12
ENDBRANCH  10  11
ENDBRANCH   9  10
ENDBRANCH   8   9
ENDBRANCH   7   8
ENDBRANCH   6   7
ENDBRANCH   5   6
ENDBRANCH   4   5
ENDBRANCH   3   4
ENDBRANCH   2   3
ENDBRANCH   1   2
BRANCH   1  15
ATOM     15  C   UNL     1      30.172  39.539  44.940  1.00  0.00     0.000 C 
BRANCH  15  16
ATOM     16  C   UNL     1      31.119  40.331  45.861  1.00  0.00     0.000 C 
BRANCH  16  17
ATOM     17  C   UNL     1      30.408  40.919  47.089  1.00  0.00     0.000 C 
BRANCH  17  18
ATOM     18  C   UNL     1      29.468  39.883  47.726  1.00  0.00    -0.000 C 
BRANCH  18  19
ATOM     19  C   UNL     1      30.164  39.029  48.799  1.00  0.00    -0.000 C 
BRANCH  19  20
ATOM     20  C   UNL     1      29.826  37.537  48.677  1.00  0.00    -0.000 C 
BRANCH  20  21
ATOM     21  C   UNL     1      29.071  37.248  47.370  1.00  0.00    -0.000 C 
BRANCH  21  22
ATOM     22  C   UNL     1      27.770  36.461  47.600  1.00  0.00    -0.000 C 
BRANCH  22  23
ATOM     23  C   UNL     1      26.718  37.272  48.377  1.00  0.00    -0.000 C 
BRANCH  23  24
ATOM     24  C   UNL     1      26.121  38.418  47.545  1.00  0.00    -0.000 C 
BRANCH  24  25
ATOM     25  C   UNL     1      25.822  39.666  48.388  1.00  0.00    -0.003 C 
ATOM     26  C   UNL     1      26.377  39.523  49.803  1.00  0.00     0.004 C 
ENDBRANCH  24  25
ENDBRANCH  23  24
ENDBRANCH  22  23
ENDBRANCH  21  22
ENDBRANCH  20  21
ENDBRANCH  19  20
ENDBRANCH  18  19
ENDBRANCH  17  18
ENDBRANCH  16  17
ENDBRANCH  15  16
ENDBRANCH   1  15
TORSDOF 22
ENDMDL
MODEL 5
REMARK VINA RESULT:    -4.011      2.549      4.932
REMARK INTER + INTRA:         -13.348
REMARK INTER:                  -9.127
REMARK INTRA:                  -4.221
REMARK UNBOUND:                -4.178
REMARK SMILES CCCCCCCCCCCCCCCCCCCCCCCC(=O)[O-]
REMARK SMILES IDX 13 1 14 2 15 3 16 4 17 5 18 6 19 7 20 8 21 9 22 10 23 11
REMARK SMILES IDX 24 12 25 13 26 14 12 15 11 16 10 17 9 18 8 19 7 20 6 21 5 22
REMARK SMILES IDX 4 23 3 24 2 25 1 26
REMARK H PARENT
REMARK Flexibility Score: inf
ROOT
ATOM      1  C   UNL     1      22.472  32.691  46.477  1.00  0.00     0.000 C 
ENDROOT
BRANCH   1   2
ATOM      2  C   UNL     1      21.747  32.403  45.152  1.00  0.00     0.000 C 
BRANCH   2   3
ATOM      3  C   UNL     1      21.534  33.671  44.307  1.00  0.00     0.000 C 
BRANCH   3   4
ATOM      4  C   UNL     1      20.064  33.876  43.908  1.00  0.00     0.000 C 
BRANCH   4   5
ATOM      5  C   UNL     1      19.195  34.153  45.141  1.00  0.00     0.000 C 
BRANCH   5   6
ATOM      6  C   UNL     1      17.960  33.240  45.161  1.00  0.00     0.000 C 
BRANCH   6   7
ATOM      7  C   UNL     1      18.157  31.980  46.024  1.00  0.00     0.000 C 
BRANCH   7   8
ATOM      8  C   UNL     1      18.683  30.748  45.264  1.00  0.00     0.000 C 
BRANCH   8   9
ATOM      9  C   UNL     1      18.976  29.554  46.189  1.00  0.00     0.000 C 
BRANCH   9  10
ATOM     10  C   UNL     1      19.155  29.972  47.657  1.00  0.00     0.006 C 
BRANCH  10  11
ATOM     11  C   UNL     1      20.224  29.141  48.383  1.00  0.00     0.053 C 
BRANCH  11  12
ATOM     12  C   UNL     1      19.808  28.865  49.794  1.00  0.00     0.041 C 
ATOM     13  O   UNL     1      19.257  29.765  50.481  1.00  0.00    -0.550 OA
ATOM     14  O   UNL     1      20.029  27.611  50.354  1.00  0.00    -0.550 OA
ENDBRANCH  11  12
ENDBRANCH  10  11
ENDBRANCH   9  10
ENDBRANCH   8   9
ENDBRANCH   7   8
ENDBRANCH   6   7
ENDBRANCH   5   6
ENDBRANCH   4   5
ENDBRANCH   3   4
ENDBRANCH   2   3
ENDBRANCH   1   2
BRANCH   1  15
ATOM     15  C   UNL     1      21.508  32.810  47.673  1.00  0.00     0.000 C 
BRANCH  15  16
ATOM     16  C   UNL     1      21.152  34.250  48.084  1.00  0.00     0.000 C 
BRANCH  16  17
ATOM     17  C   UNL     1      19.836  34.340  48.872  1.00  0.00     0.000 C 
BRANCH  17  18
ATOM     18  C   UNL     1      19.564  33.034  49.635  1.00  0.00    -0.000 C 
BRANCH  18  19
ATOM     19  C   UNL     1      19.688  33.200  51.159  1.00  0.00    -0.000 C 
BRANCH  19  20
ATOM     20  C   UNL     1      21.148  33.292  51.625  1.00  0.00    -0.000 C 
BRANCH  20  21
ATOM     21  C   UNL     1      21.431  34.653  52.281  1.00  0.00    -0.000 C 
BRANCH  21  22
ATOM     22  C   UNL     1      22.295  35.567  51.396  1.00  0.00    -0.000 C 
BRANCH  22  23
ATOM     23  C   UNL     1      23.744  35.064  51.262  1.00  0.00    -0.000 C 
BRANCH  23  24
ATOM     24  C   UNL     1      24.157  34.831  49.801  1.00  0.00    -0.000 C 
BRANCH  24  25
ATOM     25  C   UNL     1      24.626  33.392  49.540  1.00  0.00    -0.003 C 
ATOM     26  C   UNL     1      25.737  33.356  48.493  1.00  0.00     0.004 C 
ENDBRANCH  24  25
ENDBRANCH  23  24
ENDBRANCH  22  23
ENDBRANCH  21  22
ENDBRANCH  20  21
ENDBRANCH  19  20
ENDBRANCH  18  19
ENDBRANCH  17  18
ENDBRANCH  16  17
ENDBRANCH  15  16
ENDBRANCH   1  15
TORSDOF 22
ENDMDL
MODEL 6
REMARK VINA RESULT:    -3.984      2.318      5.005
REMARK INTER + INTRA:         -13.287
REMARK INTER:                  -8.782
REMARK INTRA:                  -4.505
REMARK UNBOUND:                -4.178
REMARK SMILES CCCCCCCCCCCCCCCCCCCCCCCC(=O)[O-]
REMARK SMILES IDX 13 1 14 2 15 3 16 4 17 5 18 6 19 7 20 8 21 9 22 10 23 11
REMARK SMILES IDX 24 12 25 13 26 14 12 15 11 16 10 17 9 18 8 19 7 20 6 21 5 22
REMARK SMILES IDX 4 23 3 24 2 25 1 26
REMARK H PARENT
REMARK Flexibility Score: inf
ROOT
ATOM      1  C   UNL     1      20.912  34.365  47.657  1.00  0.00     0.000 C 
ENDROOT
BRANCH   1   2
ATOM      2  C   UNL     1      19.374  34.394  47.653  1.00  0.00     0.000 C 
BRANCH   2   3
ATOM      3  C   UNL     1      18.792  34.663  46.254  1.00  0.00     0.000 C 
BRANCH   3   4
ATOM      4  C   UNL     1      19.882  34.857  45.188  1.00  0.00     0.000 C 
BRANCH   4   5
ATOM      5  C   UNL     1      19.799  33.765  44.114  1.00  0.00     0.000 C 
BRANCH   5   6
ATOM      6  C   UNL     1      18.769  32.692  44.499  1.00  0.00     0.000 C 
BRANCH   6   7
ATOM      7  C   UNL     1      19.337  31.262  44.435  1.00  0.00     0.000 C 
BRANCH   7   8
ATOM      8  C   UNL     1      19.001  30.374  45.648  1.00  0.00     0.000 C 
BRANCH   8   9
ATOM      9  C   UNL     1      18.063  31.066  46.654  1.00  0.00     0.000 C 
BRANCH   9  10
ATOM     10  C   UNL     1      18.347  30.655  48.107  1.00  0.00     0.006 C 
BRANCH  10  11
ATOM     11  C   UNL     1      19.685  29.916  48.262  1.00  0.00     0.053 C 
BRANCH  11  12
ATOM     12  C   UNL     1      19.807  29.329  49.633  1.00  0.00     0.041 C 
ATOM     13  O   UNL     1      19.317  29.929  50.626  1.00  0.00    -0.550 OA
ATOM     14  O   UNL     1      20.463  28.117  49.817  1.00  0.00    -0.550 OA
ENDBRANCH  11  12
ENDBRANCH  10  11
ENDBRANCH   9  10
ENDBRANCH   8   9
ENDBRANCH   7   8
ENDBRANCH   6   7
ENDBRANCH   5   6
ENDBRANCH   4   5
ENDBRANCH   3   4
ENDBRANCH   2   3
ENDBRANCH   1   2
BRANCH   1  15
ATOM     15  C   UNL     1      21.483  32.939  47.752  1.00  0.00     0.000 C 
BRANCH  15  16
ATOM     16  C   UNL     1      22.301  32.479  46.532  1.00  0.00     0.000 C 
BRANCH  16  17
ATOM     17  C   UNL     1      23.463  31.546  46.906  1.00  0.00     0.000 C 
BRANCH  17  18
ATOM     18  C   UNL     1      24.304  32.148  48.043  1.00  0.00    -0.000 C 
BRANCH  18  19
ATOM     19  C   UNL     1      24.570  31.146  49.179  1.00  0.00    -0.000 C 
BRANCH  19  20
ATOM     20  C   UNL     1      23.290  30.450  49.664  1.00  0.00    -0.000 C 
BRANCH  20  21
ATOM     21  C   UNL     1      23.156  30.546  51.192  1.00  0.00    -0.000 C 
BRANCH  21  22
ATOM     22  C   UNL     1      23.522  31.939  51.730  1.00  0.00    -0.000 C 
BRANCH  22  23
ATOM     23  C   UNL     1      22.521  33.024  51.293  1.00  0.00    -0.000 C 
BRANCH  23  24
ATOM     24  C   UNL     1      21.071  32.675  51.663  1.00  0.00    -0.000 C 
BRANCH  24  25
ATOM     25  C   UNL     1      20.080  33.783  51.280  1.00  0.00    -0.003 C 
ATOM     26  C   UNL     1      20.739  35.159  51.343  1.00  0.00     0.004 C 
ENDBRANCH  24  25
ENDBRANCH  23  24
ENDBRANCH  22  23
ENDBRANCH  21  22
ENDBRANCH  20  21
ENDBRANCH  19  20
ENDBRANCH  18  19
ENDBRANCH  17  18
ENDBRANCH  16  17
ENDBRANCH  15  16
ENDBRANCH   1  15
TORSDOF 22
ENDMDL
MODEL 7
REMARK VINA RESULT:    -3.904      9.440     12.465
REMARK INTER + INTRA:         -13.103
REMARK INTER:                  -8.827
REMARK INTRA:                  -4.275
REMARK UNBOUND:                -4.178
REMARK SMILES CCCCCCCCCCCCCCCCCCCCCCCC(=O)[O-]
REMARK SMILES IDX 13 1 14 2 15 3 16 4 17 5 18 6 19 7 20 8 21 9 22 10 23 11
REMARK SMILES IDX 24 12 25 13 26 14 12 15 11 16 10 17 9 18 8 19 7 20 6 21 5 22
REMARK SMILES IDX 4 23 3 24 2 25 1 26
REMARK H PARENT
REMARK Flexibility Score: inf
ROOT
ATOM      1  C   UNL     1      29.180  40.506  43.951  1.00  0.00     0.000 C 
ENDROOT
BRANCH   1   2
ATOM      2  C   UNL     1      27.726  40.241  44.377  1.00  0.00     0.000 C 
BRANCH   2   3
ATOM      3  C   UNL     1      27.189  41.311  45.342  1.00  0.00     0.000 C 
BRANCH   3   4
ATOM      4  C   UNL     1      27.589  42.737  44.927  1.00  0.00     0.000 C 
BRANCH   4   5
ATOM      5  C   UNL     1      26.859  43.781  45.781  1.00  0.00     0.000 C 
BRANCH   5   6
ATOM      6  C   UNL     1      26.030  43.107  46.885  1.00  0.00     0.000 C 
BRANCH   6   7
ATOM      7  C   UNL     1      26.560  43.401  48.301  1.00  0.00     0.000 C 
BRANCH   7   8
ATOM      8  C   UNL     1      28.045  43.057  48.522  1.00  0.00     0.000 C 
BRANCH   8   9
ATOM      9  C   UNL     1      28.385  42.798  50.000  1.00  0.00     0.000 C 
BRANCH   9  10
ATOM     10  C   UNL     1      27.281  43.279  50.955  1.00  0.00     0.006 C 
BRANCH  10  11
ATOM     11  C   UNL     1      27.773  44.356  51.933  1.00  0.00     0.053 C 
BRANCH  11  12
ATOM     12  C   UNL     1      27.508  43.944  53.348  1.00  0.00     0.041 C 
ATOM     13  O   UNL     1      27.630  44.777  54.285  1.00  0.00    -0.550 OA
ATOM     14  O   UNL     1      27.127  42.638  53.634  1.00  0.00    -0.550 OA
ENDBRANCH  11  12
ENDBRANCH  10  11
ENDBRANCH   9  10
ENDBRANCH   8   9
ENDBRANCH   7   8
ENDBRANCH   6   7
ENDBRANCH   5   6
ENDBRANCH   4   5
ENDBRANCH   3   4
ENDBRANCH   2   3
ENDBRANCH   1   2
BRANCH   1  15
ATOM     15  C   UNL     1      30.187  39.574  44.651  1.00  0.00     0.000 C 
BRANCH  15  16
ATOM     16  C   UNL     1      31.194  40.278  45.579  1.00  0.00     0.000 C 
BRANCH  16  17
ATOM     17  C   UNL     1      30.555  40.790  46.878  1.00  0.00     0.000 C 
BRANCH  17  18
ATOM     18  C   UNL     1      29.577  39.753  47.453  1.00  0.00    -0.000 C 
BRANCH  18  19
ATOM     19  C   UNL     1      30.273  38.709  48.342  1.00  0.00    -0.000 C 
BRANCH  19  20
ATOM     20  C   UNL     1      29.683  37.301  48.173  1.00  0.00    -0.000 C 
BRANCH  20  21
ATOM     21  C   UNL     1      28.944  37.172  46.831  1.00  0.00    -0.000 C 
BRANCH  21  22
ATOM     22  C   UNL     1      27.499  36.674  46.998  1.00  0.00    -0.000 C 
BRANCH  22  23
ATOM     23  C   UNL     1      26.744  37.414  48.117  1.00  0.00    -0.000 C 
BRANCH  23  24
ATOM     24  C   UNL     1      26.034  38.680  47.614  1.00  0.00    -0.000 C 
BRANCH  24  25
ATOM     25  C   UNL     1      26.059  39.820  48.642  1.00  0.00    -0.003 C 
ATOM     26  C   UNL     1      26.777  39.394  49.921  1.00  0.00     0.004 C 
ENDBRANCH  24  25
ENDBRANCH  23  24
ENDBRANCH  22  23
ENDBRANCH  21  22
ENDBRANCH  20  21
ENDBRANCH  19  20
ENDBRANCH  18  19
ENDBRANCH  17  18
ENDBRANCH  16  17
ENDBRANCH  15  16
ENDBRANCH   1  15
TORSDOF 22
ENDMDL
MODEL 8
REMARK VINA RESULT:    -3.857      3.227      4.247
REMARK INTER + INTRA:         -12.995
REMARK INTER:                  -8.917
REMARK INTRA:                  -4.078
REMARK UNBOUND:                -4.178
REMARK SMILES CCCCCCCCCCCCCCCCCCCCCCCC(=O)[O-]
REMARK SMILES IDX 13 1 14 2 15 3 16 4 17 5 18 6 19 7 20 8 21 9 22 10 23 11
REMARK SMILES IDX 24 12 25 13 26 14 12 15 11 16 10 17 9 18 8 19 7 20 6 21 5 22
REMARK SMILES IDX 4 23 3 24 2 25 1 26
REMARK H PARENT
REMARK Flexibility Score: inf
ROOT
ATOM      1  C   UNL     1      19.740  31.752  44.588  1.00  0.00     0.000 C 
ENDROOT
BRANCH   1   2
ATOM      2  C   UNL     1      19.771  33.209  44.096  1.00  0.00     0.000 C 
BRANCH   2   3
ATOM      3  C   UNL     1      20.501  34.147  45.073  1.00  0.00     0.000 C 
BRANCH   3   4
ATOM      4  C   UNL     1      19.533  35.010  45.898  1.00  0.00     0.000 C 
BRANCH   4   5
ATOM      5  C   UNL     1      19.754  34.798  47.401  1.00  0.00     0.000 C 
BRANCH   5   6
ATOM      6  C   UNL     1      20.887  33.793  47.654  1.00  0.00     0.000 C 
BRANCH   6   7
ATOM      7  C   UNL     1      21.771  34.172  48.856  1.00  0.00     0.000 C 
BRANCH   7   8
ATOM      8  C   UNL     1      21.064  34.997  49.948  1.00  0.00     0.000 C 
BRANCH   8   9
ATOM      9  C   UNL     1      21.171  34.358  51.344  1.00  0.00     0.000 C 
BRANCH   9  10
ATOM     10  C   UNL     1      20.126  34.907  52.328  1.00  0.00     0.006 C 
BRANCH  10  11
ATOM     11  C   UNL     1      20.588  36.197  53.022  1.00  0.00     0.053 C 
BRANCH  11  12
ATOM     12  C   UNL     1      19.707  37.346  52.641  1.00  0.00     0.041 C 
ATOM     13  O   UNL     1      19.749  37.817  51.473  1.00  0.00    -0.550 OA
ATOM     14  O   UNL     1      18.838  37.898  53.575  1.00  0.00    -0.550 OA
ENDBRANCH  11  12
ENDBRANCH  10  11
ENDBRANCH   9  10
ENDBRANCH   8   9
ENDBRANCH   7   8
ENDBRANCH   6   7
ENDBRANCH   5   6
ENDBRANCH   4   5
ENDBRANCH   3   4
ENDBRANCH   2   3
ENDBRANCH   1   2
BRANCH   1  15
ATOM     15  C   UNL     1      18.583  31.474  45.565  1.00  0.00     0.000 C 
BRANCH  15  16
ATOM     16  C   UNL     1      18.716  30.179  46.386  1.00  0.00     0.000 C 
BRANCH  16  17
ATOM     17  C   UNL     1      18.226  30.333  47.834  1.00  0.00     0.000 C 
BRANCH  17  18
ATOM     18  C   UNL     1      17.875  31.798  48.139  1.00  0.00    -0.000 C 
BRANCH  18  19
ATOM     19  C   UNL     1      18.221  32.203  49.582  1.00  0.00    -0.000 C 
BRANCH  19  20
ATOM     20  C   UNL     1      18.744  31.026  50.417  1.00  0.00    -0.000 C 
BRANCH  20  21
ATOM     21  C   UNL     1      20.278  31.057  50.512  1.00  0.00    -0.000 C 
BRANCH  21  22
ATOM     22  C   UNL     1      20.892  29.653  50.632  1.00  0.00    -0.000 C 
BRANCH  22  23
ATOM     23  C   UNL     1      21.951  29.375  49.550  1.00  0.00    -0.000 C 
BRANCH  23  24
ATOM     24  C   UNL     1      21.871  30.364  48.377  1.00  0.00    -0.000 C 
BRANCH  24  25
ATOM     25  C   UNL     1      23.254  30.837  47.906  1.00  0.00    -0.003 C 
ATOM     26  C   UNL     1      24.121  31.265  49.087  1.00  0.00     0.004 C 
ENDBRANCH  24  25
ENDBRANCH  23  24
ENDBRANCH  22  23
ENDBRANCH  21  22
ENDBRANCH  20  21
ENDBRANCH  19  20
ENDBRANCH  18  19
ENDBRANCH  17  18
ENDBRANCH  16  17
ENDBRANCH  15  16
ENDBRANCH   1  15
TORSDOF 22
ENDMDL
