MODEL 1
REMARK VINA RESULT:    -2.254      0.000      0.000
REMARK INTER + INTRA:         -11.734
REMARK INTER:                  -5.944
REMARK INTRA:                  -5.790
REMARK UNBOUND:                -5.790
REMARK SMILES CCCCCCCCCCCCCCCCCCCCCCCCCCCCCC(=O)[O-]
REMARK SMILES IDX 16 1 17 2 18 3 19 4 20 5 21 6 22 7 23 8 24 9 25 10 26 11
REMARK SMILES IDX 27 12 28 13 29 14 30 15 31 16 32 17 15 18 14 19 13 20 12 21
REMARK SMILES IDX 11 22 10 23 9 24 8 25 7 26 6 27 5 28 4 29 3 30 2 31 1 32
REMARK H PARENT
REMARK Flexibility Score: inf
ROOT
ATOM      1  C   UNL     1      -3.757   9.279  -8.931  1.00  0.00     0.000 C 
ENDROOT
BRANCH   1   2
ATOM      2  C   UNL     1      -3.661   7.749  -9.040  1.00  0.00     0.000 C 
BRANCH   2   3
ATOM      3  C   UNL     1      -4.746   7.029  -8.217  1.00  0.00     0.000 C 
BRANCH   3   4
ATOM      4  C   UNL     1      -5.783   8.005  -7.635  1.00  0.00     0.000 C 
BRANCH   4   5
ATOM      5  C   UNL     1      -7.174   7.898  -8.302  1.00  0.00     0.000 C 
BRANCH   5   6
ATOM      6  C   UNL     1      -7.359   8.843  -9.505  1.00  0.00     0.000 C 
BRANCH   6   7
ATOM      7  C   UNL     1      -7.132   8.187 -10.880  1.00  0.00     0.000 C 
BRANCH   7   8
ATOM      8  C   UNL     1      -7.236   9.149 -12.082  1.00  0.00     0.000 C 
BRANCH   8   9
ATOM      9  C   UNL     1      -7.294  10.647 -11.720  1.00  0.00     0.000 C 
BRANCH   9  10
ATOM     10  C   UNL     1      -7.128  11.611 -12.909  1.00  0.00     0.000 C 
BRANCH  10  11
ATOM     11  C   UNL     1      -7.360  13.080 -12.516  1.00  0.00     0.000 C 
BRANCH  11  12
ATOM     12  C   UNL     1      -6.093  13.939 -12.659  1.00  0.00     0.000 C 
BRANCH  12  13
ATOM     13  C   UNL     1      -6.338  15.412 -12.295  1.00  0.00     0.006 C 
BRANCH  13  14
ATOM     14  C   UNL     1      -7.232  15.532 -11.057  1.00  0.00     0.053 C 
BRANCH  14  15
ATOM     15  C   UNL     1      -7.243  16.937 -10.533  1.00  0.00     0.041 C 
ATOM     16  O   UNL     1      -7.171  17.912 -11.328  1.00  0.00    -0.550 OA
ATOM     17  O   UNL     1      -7.352  17.170  -9.168  1.00  0.00    -0.550 OA
ENDBRANCH  14  15
ENDBRANCH  13  14
ENDBRANCH  12  13
ENDBRANCH  11  12
ENDBRANCH  10  11
ENDBRANCH   9  10
ENDBRANCH   8   9
ENDBRANCH   7   8
ENDBRANCH   6   7
ENDBRANCH   5   6
ENDBRANCH   4   5
ENDBRANCH   3   4
ENDBRANCH   2   3
ENDBRANCH   1   2
BRANCH   1  18
ATOM     18  C   UNL     1      -3.813   9.970 -10.302  1.00  0.00     0.000 C 
BRANCH  18  19
ATOM     19  C   UNL     1      -3.522   8.972 -11.430  1.00  0.00     0.000 C 
BRANCH  19  20
ATOM     20  C   UNL     1      -3.397   9.688 -12.782  1.00  0.00     0.000 C 
BRANCH  20  21
ATOM     21  C   UNL     1      -3.667  11.199 -12.675  1.00  0.00     0.000 C 
BRANCH  21  22
ATOM     22  C   UNL     1      -2.496  12.041 -13.210  1.00  0.00     0.000 C 
BRANCH  22  23
ATOM     23  C   UNL     1      -2.419  13.430 -12.557  1.00  0.00     0.000 C 
BRANCH  23  24
ATOM     24  C   UNL     1      -2.640  13.388 -11.035  1.00  0.00    -0.000 C 
BRANCH  24  25
ATOM     25  C   UNL     1      -1.324  13.281 -10.242  1.00  0.00    -0.000 C 
BRANCH  25  26
ATOM     26  C   UNL     1      -1.317  12.213  -9.132  1.00  0.00    -0.000 C 
BRANCH  26  27
ATOM     27  C   UNL     1      -0.093  11.284  -9.205  1.00  0.00    -0.000 C 
BRANCH  27  28
ATOM     28  C   UNL     1      -0.184  10.284 -10.371  1.00  0.00    -0.000 C 
BRANCH  28  29
ATOM     29  C   UNL     1      -0.145   8.822  -9.899  1.00  0.00    -0.000 C 
BRANCH  29  30
ATOM     30  C   UNL     1      -0.056   8.739  -8.370  1.00  0.00    -0.000 C 
BRANCH  30  31
ATOM     31  C   UNL     1       0.173   7.295  -7.910  1.00  0.00    -0.003 C 
ATOM     32  C   UNL     1      -0.850   6.882  -6.856  1.00  0.00     0.004 C 
ENDBRANCH  30  31
ENDBRANCH  29  30
ENDBRANCH  28  29
ENDBRANCH  27  28
ENDBRANCH  26  27
ENDBRANCH  25  26
ENDBRANCH  24  25
ENDBRANCH  23  24
ENDBRANCH  22  23
ENDBRANCH  21  22
ENDBRANCH  20  21
ENDBRANCH  19  20
ENDBRANCH  18  19
ENDBRANCH   1  18
TORSDOF 28
ENDMDL
MODEL 2
REMARK VINA RESULT:    -2.232      3.936      7.882
REMARK INTER + INTRA:         -11.677
REMARK INTER:                  -5.794
REMARK INTRA:                  -5.883
REMARK UNBOUND:                -5.790
REMARK SMILES CCCCCCCCCCCCCCCCCCCCCCCCCCCCCC(=O)[O-]
REMARK SMILES IDX 16 1 17 2 18 3 19 4 20 5 21 6 22 7 23 8 24 9 25 10 26 11
REMARK SMILES IDX 27 12 28 13 29 14 30 15 31 16 32 17 15 18 14 19 13 20 12 21
REMARK SMILES IDX 11 22 10 23 9 24 8 25 7 26 6 27 5 28 4 29 3 30 2 31 1 32
REMARK H PARENT
REMARK Flexibility Score: inf
ROOT
ATOM      1  C   UNL     1       0.331  11.489 -10.575  1.00  0.00     0.000 C 
ENDROOT
BRANCH   1   2
ATOM      2  C   UNL     1       0.583  10.417 -11.646  1.00  0.00     0.000 C 
BRANCH   2   3
ATOM      3  C   UNL     1      -0.164  10.706 -12.961  1.00  0.00     0.000 C 
BRANCH   3   4
ATOM      4  C   UNL     1      -1.608  10.175 -12.944  1.00  0.00     0.000 C 
BRANCH   4   5
ATOM      5  C   UNL     1      -1.784   8.892 -12.099  1.00  0.00     0.000 C 
BRANCH   5   6
ATOM      6  C   UNL     1      -3.102   8.850 -11.303  1.00  0.00     0.000 C 
BRANCH   6   7
ATOM      7  C   UNL     1      -3.325  10.050 -10.363  1.00  0.00     0.000 C 
BRANCH   7   8
ATOM      8  C   UNL     1      -3.175   9.732  -8.860  1.00  0.00     0.000 C 
BRANCH   8   9
ATOM      9  C   UNL     1      -1.816  10.121  -8.241  1.00  0.00     0.000 C 
BRANCH   9  10
ATOM     10  C   UNL     1      -0.793   8.974  -8.146  1.00  0.00     0.000 C 
BRANCH  10  11
ATOM     11  C   UNL     1      -1.457   7.587  -8.155  1.00  0.00     0.000 C 
BRANCH  11  12
ATOM     12  C   UNL     1      -1.157   6.777  -6.883  1.00  0.00     0.000 C 
BRANCH  12  13
ATOM     13  C   UNL     1      -0.120   5.668  -7.124  1.00  0.00     0.006 C 
BRANCH  13  14
ATOM     14  C   UNL     1       1.284   6.257  -7.303  1.00  0.00     0.053 C 
BRANCH  14  15
ATOM     15  C   UNL     1       1.741   6.951  -6.055  1.00  0.00     0.041 C 
ATOM     16  O   UNL     1       1.554   6.421  -4.928  1.00  0.00    -0.550 OA
ATOM     17  O   UNL     1       2.391   8.175  -6.139  1.00  0.00    -0.550 OA
ENDBRANCH  14  15
ENDBRANCH  13  14
ENDBRANCH  12  13
ENDBRANCH  11  12
ENDBRANCH  10  11
ENDBRANCH   9  10
ENDBRANCH   8   9
ENDBRANCH   7   8
ENDBRANCH   6   7
ENDBRANCH   5   6
ENDBRANCH   4   5
ENDBRANCH   3   4
ENDBRANCH   2   3
ENDBRANCH   1   2
BRANCH   1  18
ATOM     18  C   UNL     1       0.834  12.878 -10.995  1.00  0.00     0.000 C 
BRANCH  18  19
ATOM     19  C   UNL     1      -0.224  13.952 -10.714  1.00  0.00     0.000 C 
BRANCH  19  20
ATOM     20  C   UNL     1      -1.630  13.340 -10.645  1.00  0.00     0.000 C 
BRANCH  20  21
ATOM     21  C   UNL     1      -2.444  13.591 -11.926  1.00  0.00     0.000 C 
BRANCH  21  22
ATOM     22  C   UNL     1      -3.951  13.373 -11.713  1.00  0.00     0.000 C 
BRANCH  22  23
ATOM     23  C   UNL     1      -4.709  13.147 -13.031  1.00  0.00     0.000 C 
BRANCH  23  24
ATOM     24  C   UNL     1      -4.893  11.656 -13.366  1.00  0.00    -0.000 C 
BRANCH  24  25
ATOM     25  C   UNL     1      -6.092  11.023 -12.635  1.00  0.00    -0.000 C 
BRANCH  25  26
ATOM     26  C   UNL     1      -6.329   9.532 -12.941  1.00  0.00    -0.000 C 
BRANCH  26  27
ATOM     27  C   UNL     1      -7.068   8.800 -11.809  1.00  0.00    -0.000 C 
BRANCH  27  28
ATOM     28  C   UNL     1      -6.825   9.445 -10.434  1.00  0.00    -0.000 C 
BRANCH  28  29
ATOM     29  C   UNL     1      -6.643   8.405  -9.317  1.00  0.00    -0.000 C 
BRANCH  29  30
ATOM     30  C   UNL     1      -6.211   7.050  -9.892  1.00  0.00    -0.000 C 
BRANCH  30  31
ATOM     31  C   UNL     1      -4.956   6.528  -9.183  1.00  0.00    -0.003 C 
ATOM     32  C   UNL     1      -5.057   6.716  -7.672  1.00  0.00     0.004 C 
ENDBRANCH  30  31
ENDBRANCH  29  30
ENDBRANCH  28  29
ENDBRANCH  27  28
ENDBRANCH  26  27
ENDBRANCH  25  26
ENDBRANCH  24  25
ENDBRANCH  23  24
ENDBRANCH  22  23
ENDBRANCH  21  22
ENDBRANCH  20  21
ENDBRANCH  19  20
ENDBRANCH  18  19
ENDBRANCH   1  18
TORSDOF 28
ENDMDL
MODEL 3
REMARK VINA RESULT:    -2.198      4.862      7.965
REMARK INTER + INTRA:         -11.587
REMARK INTER:                  -5.714
REMARK INTRA:                  -5.872
REMARK UNBOUND:                -5.790
REMARK SMILES CCCCCCCCCCCCCCCCCCCCCCCCCCCCCC(=O)[O-]
REMARK SMILES IDX 16 1 17 2 18 3 19 4 20 5 21 6 22 7 23 8 24 9 25 10 26 11
REMARK SMILES IDX 27 12 28 13 29 14 30 15 31 16 32 17 15 18 14 19 13 20 12 21
REMARK SMILES IDX 11 22 10 23 9 24 8 25 7 26 6 27 5 28 4 29 3 30 2 31 1 32
REMARK H PARENT
REMARK Flexibility Score: inf
ROOT
ATOM      1  C   UNL     1      -2.348  10.627  -9.378  1.00  0.00     0.000 C 
ENDROOT
BRANCH   1   2
ATOM      2  C   UNL     1      -3.419  10.271 -10.421  1.00  0.00     0.000 C 
BRANCH   2   3
ATOM      3  C   UNL     1      -2.813   9.848 -11.771  1.00  0.00     0.000 C 
BRANCH   3   4
ATOM      4  C   UNL     1      -2.924   8.332 -12.014  1.00  0.00     0.000 C 
BRANCH   4   5
ATOM      5  C   UNL     1      -1.667   7.543 -11.578  1.00  0.00     0.000 C 
BRANCH   5   6
ATOM      6  C   UNL     1      -1.975   6.347 -10.658  1.00  0.00     0.000 C 
BRANCH   6   7
ATOM      7  C   UNL     1      -3.299   6.459  -9.877  1.00  0.00     0.000 C 
BRANCH   7   8
ATOM      8  C   UNL     1      -3.237   5.955  -8.420  1.00  0.00     0.000 C 
BRANCH   8   9
ATOM      9  C   UNL     1      -2.172   4.874  -8.145  1.00  0.00     0.000 C 
BRANCH   9  10
ATOM     10  C   UNL     1      -1.062   5.290  -7.161  1.00  0.00     0.000 C 
BRANCH  10  11
ATOM     11  C   UNL     1       0.070   4.252  -7.075  1.00  0.00     0.000 C 
BRANCH  11  12
ATOM     12  C   UNL     1       1.218   4.546  -8.055  1.00  0.00     0.000 C 
BRANCH  12  13
ATOM     13  C   UNL     1       1.449   6.053  -8.254  1.00  0.00     0.006 C 
BRANCH  13  14
ATOM     14  C   UNL     1       2.662   6.535  -7.452  1.00  0.00     0.053 C 
BRANCH  14  15
ATOM     15  C   UNL     1       2.235   7.320  -6.248  1.00  0.00     0.041 C 
ATOM     16  O   UNL     1       1.659   6.746  -5.286  1.00  0.00    -0.550 OA
ATOM     17  O   UNL     1       2.492   8.683  -6.180  1.00  0.00    -0.550 OA
ENDBRANCH  14  15
ENDBRANCH  13  14
ENDBRANCH  12  13
ENDBRANCH  11  12
ENDBRANCH  10  11
ENDBRANCH   9  10
ENDBRANCH   8   9
ENDBRANCH   7   8
ENDBRANCH   6   7
ENDBRANCH   5   6
ENDBRANCH   4   5
ENDBRANCH   3   4
ENDBRANCH   2   3
ENDBRANCH   1   2
BRANCH   1  18
ATOM     18  C   UNL     1      -2.150   9.523  -8.329  1.00  0.00     0.000 C 
BRANCH  18  19
ATOM     19  C   UNL     1      -0.706   9.005  -8.345  1.00  0.00     0.000 C 
BRANCH  19  20
ATOM     20  C   UNL     1       0.270  10.099  -8.798  1.00  0.00     0.000 C 
BRANCH  20  21
ATOM     21  C   UNL     1       1.495   9.527  -9.533  1.00  0.00     0.000 C 
BRANCH  21  22
ATOM     22  C   UNL     1       1.864  10.347 -10.781  1.00  0.00     0.000 C 
BRANCH  22  23
ATOM     23  C   UNL     1       0.805  10.244 -11.891  1.00  0.00     0.000 C 
BRANCH  23  24
ATOM     24  C   UNL     1       0.525  11.594 -12.575  1.00  0.00    -0.000 C 
BRANCH  24  25
ATOM     25  C   UNL     1      -0.290  12.555 -11.690  1.00  0.00    -0.000 C 
BRANCH  25  26
ATOM     26  C   UNL     1       0.319  13.959 -11.520  1.00  0.00    -0.000 C 
BRANCH  26  27
ATOM     27  C   UNL     1       0.906  14.189 -10.116  1.00  0.00    -0.000 C 
BRANCH  27  28
ATOM     28  C   UNL     1       0.044  13.561  -9.008  1.00  0.00    -0.000 C 
BRANCH  28  29
ATOM     29  C   UNL     1       0.812  13.387  -7.689  1.00  0.00    -0.000 C 
BRANCH  29  30
ATOM     30  C   UNL     1      -0.153  13.214  -6.509  1.00  0.00    -0.000 C 
BRANCH  30  31
ATOM     31  C   UNL     1       0.295  14.051  -5.305  1.00  0.00    -0.003 C 
ATOM     32  C   UNL     1       0.153  13.266  -4.004  1.00  0.00     0.004 C 
ENDBRANCH  30  31
ENDBRANCH  29  30
ENDBRANCH  28  29
ENDBRANCH  27  28
ENDBRANCH  26  27
ENDBRANCH  25  26
ENDBRANCH  24  25
ENDBRANCH  23  24
ENDBRANCH  22  23
ENDBRANCH  21  22
ENDBRANCH  20  21
ENDBRANCH  19  20
ENDBRANCH  18  19
ENDBRANCH   1  18
TORSDOF 28
ENDMDL
MODEL 4
REMARK VINA RESULT:    -2.175      8.384     12.019
REMARK INTER + INTRA:         -11.525
REMARK INTER:                  -6.334
REMARK INTRA:                  -5.191
REMARK UNBOUND:                -5.790
REMARK SMILES CCCCCCCCCCCCCCCCCCCCCCCCCCCCCC(=O)[O-]
REMARK SMILES IDX 16 1 17 2 18 3 19 4 20 5 21 6 22 7 23 8 24 9 25 10 26 11
REMARK SMILES IDX 27 12 28 13 29 14 30 15 31 16 32 17 15 18 14 19 13 20 12 21
REMARK SMILES IDX 11 22 10 23 9 24 8 25 7 26 6 27 5 28 4 29 3 30 2 31 1 32
REMARK H PARENT
REMARK Flexibility Score: inf
ROOT
ATOM      1  C   UNL     1       2.099  10.421  -0.102  1.00  0.00     0.000 C 
ENDROOT
BRANCH   1   2
ATOM      2  C   UNL     1       1.240  11.551  -0.690  1.00  0.00     0.000 C 
BRANCH   2   3
ATOM      3  C   UNL     1       1.112  12.754   0.262  1.00  0.00     0.000 C 
BRANCH   3   4
ATOM      4  C   UNL     1      -0.355  13.149   0.512  1.00  0.00     0.000 C 
BRANCH   4   5
ATOM      5  C   UNL     1      -1.345  12.514  -0.492  1.00  0.00     0.000 C 
BRANCH   5   6
ATOM      6  C   UNL     1      -2.391  13.505  -1.039  1.00  0.00     0.000 C 
BRANCH   6   7
ATOM      7  C   UNL     1      -2.945  14.496   0.001  1.00  0.00     0.000 C 
BRANCH   7   8
ATOM      8  C   UNL     1      -2.427  15.943  -0.140  1.00  0.00     0.000 C 
BRANCH   8   9
ATOM      9  C   UNL     1      -1.893  16.314  -1.539  1.00  0.00     0.000 C 
BRANCH   9  10
ATOM     10  C   UNL     1      -0.361  16.432  -1.642  1.00  0.00     0.000 C 
BRANCH  10  11
ATOM     11  C   UNL     1       0.179  15.946  -2.998  1.00  0.00     0.000 C 
BRANCH  11  12
ATOM     12  C   UNL     1       0.806  14.544  -2.918  1.00  0.00     0.000 C 
BRANCH  12  13
ATOM     13  C   UNL     1       0.056  13.515  -3.779  1.00  0.00     0.006 C 
BRANCH  13  14
ATOM     14  C   UNL     1       0.952  12.977  -4.899  1.00  0.00     0.053 C 
BRANCH  14  15
ATOM     15  C   UNL     1       0.667  13.668  -6.198  1.00  0.00     0.041 C 
ATOM     16  O   UNL     1       1.478  14.514  -6.660  1.00  0.00    -0.550 OA
ATOM     17  O   UNL     1      -0.487  13.363  -6.909  1.00  0.00    -0.550 OA
ENDBRANCH  14  15
ENDBRANCH  13  14
ENDBRANCH  12  13
ENDBRANCH  11  12
ENDBRANCH  10  11
ENDBRANCH   9  10
ENDBRANCH   8   9
ENDBRANCH   7   8
ENDBRANCH   6   7
ENDBRANCH   5   6
ENDBRANCH   4   5
ENDBRANCH   3   4
ENDBRANCH   2   3
ENDBRANCH   1   2
BRANCH   1  18
ATOM     18  C   UNL     1       1.339   9.570   0.925  1.00  0.00     0.000 C 
BRANCH  18  19
ATOM     19  C   UNL     1       0.132   8.880   0.278  1.00  0.00     0.000 C 
BRANCH  19  20
ATOM     20  C   UNL     1      -1.140   9.097   1.110  1.00  0.00     0.000 C 
BRANCH  20  21
ATOM     21  C   UNL     1      -0.881   9.937   2.372  1.00  0.00     0.000 C 
BRANCH  21  22
ATOM     22  C   UNL     1      -2.169  10.208   3.168  1.00  0.00     0.000 C 
BRANCH  22  23
ATOM     23  C   UNL     1      -2.602  11.682   3.109  1.00  0.00     0.000 C 
BRANCH  23  24
ATOM     24  C   UNL     1      -4.027  11.865   2.557  1.00  0.00    -0.000 C 
BRANCH  24  25
ATOM     25  C   UNL     1      -4.238  11.157   1.206  1.00  0.00    -0.000 C 
BRANCH  25  26
ATOM     26  C   UNL     1      -5.203   9.957   1.242  1.00  0.00    -0.000 C 
BRANCH  26  27
ATOM     27  C   UNL     1      -4.760   8.805   0.323  1.00  0.00    -0.000 C 
BRANCH  27  28
ATOM     28  C   UNL     1      -5.107   7.424   0.904  1.00  0.00    -0.000 C 
BRANCH  28  29
ATOM     29  C   UNL     1      -5.438   6.391  -0.185  1.00  0.00    -0.000 C 
BRANCH  29  30
ATOM     30  C   UNL     1      -5.616   7.069  -1.550  1.00  0.00    -0.000 C 
BRANCH  30  31
ATOM     31  C   UNL     1      -7.101   7.212  -1.902  1.00  0.00    -0.003 C 
ATOM     32  C   UNL     1      -7.457   8.663  -2.214  1.00  0.00     0.004 C 
ENDBRANCH  30  31
ENDBRANCH  29  30
ENDBRANCH  28  29
ENDBRANCH  27  28
ENDBRANCH  26  27
ENDBRANCH  25  26
ENDBRANCH  24  25
ENDBRANCH  23  24
ENDBRANCH  22  23
ENDBRANCH  21  22
ENDBRANCH  20  21
ENDBRANCH  19  20
ENDBRANCH  18  19
ENDBRANCH   1  18
TORSDOF 28
ENDMDL
MODEL 5
REMARK VINA RESULT:    -2.164      5.676      8.639
REMARK INTER + INTRA:         -11.498
REMARK INTER:                  -5.272
REMARK INTRA:                  -6.226
REMARK UNBOUND:                -5.790
REMARK SMILES CCCCCCCCCCCCCCCCCCCCCCCCCCCCCC(=O)[O-]
REMARK SMILES IDX 16 1 17 2 18 3 19 4 20 5 21 6 22 7 23 8 24 9 25 10 26 11
REMARK SMILES IDX 27 12 28 13 29 14 30 15 31 16 32 17 15 18 14 19 13 20 12 21
REMARK SMILES IDX 11 22 10 23 9 24 8 25 7 26 6 27 5 28 4 29 3 30 2 31 1 32
REMARK H PARENT
REMARK Flexibility Score: inf
ROOT
ATOM      1  C   UNL     1       2.387   9.795  -7.261  1.00  0.00     0.000 C 
ENDROOT
BRANCH   1   2
ATOM      2  C   UNL     1       2.808   8.644  -6.333  1.00  0.00     0.000 C 
BRANCH   2   3
ATOM      3  C   UNL     1       2.305   7.274  -6.824  1.00  0.00     0.000 C 
BRANCH   3   4
ATOM      4  C   UNL     1       1.587   6.483  -5.716  1.00  0.00     0.000 C 
BRANCH   4   5
ATOM      5  C   UNL     1       0.145   6.068  -6.090  1.00  0.00     0.000 C 
BRANCH   5   6
ATOM      6  C   UNL     1      -0.626   7.148  -6.873  1.00  0.00     0.000 C 
BRANCH   6   7
ATOM      7  C   UNL     1      -1.852   6.629  -7.648  1.00  0.00     0.000 C 
BRANCH   7   8
ATOM      8  C   UNL     1      -2.336   7.549  -8.788  1.00  0.00     0.000 C 
BRANCH   8   9
ATOM      9  C   UNL     1      -2.365   6.899 -10.187  1.00  0.00     0.000 C 
BRANCH   9  10
ATOM     10  C   UNL     1      -1.327   5.784 -10.408  1.00  0.00     0.000 C 
BRANCH  10  11
ATOM     11  C   UNL     1       0.013   6.321 -10.941  1.00  0.00     0.000 C 
BRANCH  11  12
ATOM     12  C   UNL     1       1.209   5.891 -10.076  1.00  0.00     0.000 C 
BRANCH  12  13
ATOM     13  C   UNL     1       0.963   4.556  -9.355  1.00  0.00     0.006 C 
BRANCH  13  14
ATOM     14  C   UNL     1       2.241   4.056  -8.672  1.00  0.00     0.053 C 
BRANCH  14  15
ATOM     15  C   UNL     1       1.926   3.041  -7.616  1.00  0.00     0.041 C 
ATOM     16  O   UNL     1       0.741   2.883  -7.219  1.00  0.00    -0.550 OA
ATOM     17  O   UNL     1       2.939   2.254  -7.082  1.00  0.00    -0.550 OA
ENDBRANCH  14  15
ENDBRANCH  13  14
ENDBRANCH  12  13
ENDBRANCH  11  12
ENDBRANCH  10  11
ENDBRANCH   9  10
ENDBRANCH   8   9
ENDBRANCH   7   8
ENDBRANCH   6   7
ENDBRANCH   5   6
ENDBRANCH   4   5
ENDBRANCH   3   4
ENDBRANCH   2   3
ENDBRANCH   1   2
BRANCH   1  18
ATOM     18  C   UNL     1       1.909   9.305  -8.636  1.00  0.00     0.000 C 
BRANCH  18  19
ATOM     19  C   UNL     1       0.518   9.862  -8.962  1.00  0.00     0.000 C 
BRANCH  19  20
ATOM     20  C   UNL     1       0.250   9.830 -10.473  1.00  0.00     0.000 C 
BRANCH  20  21
ATOM     21  C   UNL     1      -1.091  10.486 -10.846  1.00  0.00     0.000 C 
BRANCH  21  22
ATOM     22  C   UNL     1      -1.664  11.339  -9.701  1.00  0.00     0.000 C 
BRANCH  22  23
ATOM     23  C   UNL     1      -1.742  12.832 -10.058  1.00  0.00     0.000 C 
BRANCH  23  24
ATOM     24  C   UNL     1      -0.772  13.229 -11.184  1.00  0.00    -0.000 C 
BRANCH  24  25
ATOM     25  C   UNL     1       0.425  14.055 -10.677  1.00  0.00    -0.000 C 
BRANCH  25  26
ATOM     26  C   UNL     1       1.744  13.272 -10.538  1.00  0.00    -0.000 C 
BRANCH  26  27
ATOM     27  C   UNL     1       2.169  13.071  -9.073  1.00  0.00    -0.000 C 
BRANCH  27  28
ATOM     28  C   UNL     1       1.343  13.928  -8.099  1.00  0.00    -0.000 C 
BRANCH  28  29
ATOM     29  C   UNL     1       0.522  13.079  -7.115  1.00  0.00    -0.000 C 
BRANCH  29  30
ATOM     30  C   UNL     1       1.180  13.053  -5.730  1.00  0.00    -0.000 C 
BRANCH  30  31
ATOM     31  C   UNL     1       0.501  14.047  -4.781  1.00  0.00    -0.003 C 
ATOM     32  C   UNL     1      -0.471  13.338  -3.842  1.00  0.00     0.004 C 
ENDBRANCH  30  31
ENDBRANCH  29  30
ENDBRANCH  28  29
ENDBRANCH  27  28
ENDBRANCH  26  27
ENDBRANCH  25  26
ENDBRANCH  24  25
ENDBRANCH  23  24
ENDBRANCH  22  23
ENDBRANCH  21  22
ENDBRANCH  20  21
ENDBRANCH  19  20
ENDBRANCH  18  19
ENDBRANCH   1  18
TORSDOF 28
ENDMDL
MODEL 6
REMARK VINA RESULT:    -2.147      3.331      5.873
REMARK INTER + INTRA:         -11.453
REMARK INTER:                  -4.595
REMARK INTRA:                  -6.858
REMARK UNBOUND:                -5.790
REMARK SMILES CCCCCCCCCCCCCCCCCCCCCCCCCCCCCC(=O)[O-]
REMARK SMILES IDX 16 1 17 2 18 3 19 4 20 5 21 6 22 7 23 8 24 9 25 10 26 11
REMARK SMILES IDX 27 12 28 13 29 14 30 15 31 16 32 17 15 18 14 19 13 20 12 21
REMARK SMILES IDX 11 22 10 23 9 24 8 25 7 26 6 27 5 28 4 29 3 30 2 31 1 32
REMARK H PARENT
REMARK Flexibility Score: inf
ROOT
ATOM      1  C   UNL     1      -2.105  10.163  -9.806  1.00  0.00     0.000 C 
ENDROOT
BRANCH   1   2
ATOM      2  C   UNL     1      -2.662   9.207  -8.740  1.00  0.00     0.000 C 
BRANCH   2   3
ATOM      3  C   UNL     1      -4.197   9.098  -8.787  1.00  0.00     0.000 C 
BRANCH   3   4
ATOM      4  C   UNL     1      -4.773   9.525 -10.149  1.00  0.00     0.000 C 
BRANCH   4   5
ATOM      5  C   UNL     1      -5.073   8.337 -11.092  1.00  0.00     0.000 C 
BRANCH   5   6
ATOM      6  C   UNL     1      -4.529   8.528 -12.521  1.00  0.00     0.000 C 
BRANCH   6   7
ATOM      7  C   UNL     1      -4.386   9.997 -12.964  1.00  0.00     0.000 C 
BRANCH   7   8
ATOM      8  C   UNL     1      -3.004  10.369 -13.540  1.00  0.00     0.000 C 
BRANCH   8   9
ATOM      9  C   UNL     1      -2.479  11.762 -13.137  1.00  0.00     0.000 C 
BRANCH   9  10
ATOM     10  C   UNL     1      -3.504  12.662 -12.422  1.00  0.00     0.000 C 
BRANCH  10  11
ATOM     11  C   UNL     1      -2.889  13.436 -11.243  1.00  0.00     0.000 C 
BRANCH  11  12
ATOM     12  C   UNL     1      -1.353  13.468 -11.292  1.00  0.00     0.000 C 
BRANCH  12  13
ATOM     13  C   UNL     1      -0.723  13.586  -9.895  1.00  0.00     0.006 C 
BRANCH  13  14
ATOM     14  C   UNL     1       0.552  12.742  -9.793  1.00  0.00     0.053 C 
BRANCH  14  15
ATOM     15  C   UNL     1       0.718  12.180  -8.414  1.00  0.00     0.041 C 
ATOM     16  O   UNL     1       0.280  12.808  -7.414  1.00  0.00    -0.550 OA
ATOM     17  O   UNL     1       1.340  10.950  -8.234  1.00  0.00    -0.550 OA
ENDBRANCH  14  15
ENDBRANCH  13  14
ENDBRANCH  12  13
ENDBRANCH  11  12
ENDBRANCH  10  11
ENDBRANCH   9  10
ENDBRANCH   8   9
ENDBRANCH   7   8
ENDBRANCH   6   7
ENDBRANCH   5   6
ENDBRANCH   4   5
ENDBRANCH   3   4
ENDBRANCH   2   3
ENDBRANCH   1   2
BRANCH   1  18
ATOM     18  C   UNL     1      -0.967   9.540 -10.628  1.00  0.00     0.000 C 
BRANCH  18  19
ATOM     19  C   UNL     1      -0.953   8.014 -10.475  1.00  0.00     0.000 C 
BRANCH  19  20
ATOM     20  C   UNL     1      -1.140   7.321 -11.831  1.00  0.00     0.000 C 
BRANCH  20  21
ATOM     21  C   UNL     1      -1.896   5.987 -11.710  1.00  0.00     0.000 C 
BRANCH  21  22
ATOM     22  C   UNL     1      -2.561   5.814 -10.333  1.00  0.00     0.000 C 
BRANCH  22  23
ATOM     23  C   UNL     1      -2.249   4.452  -9.692  1.00  0.00     0.000 C 
BRANCH  23  24
ATOM     24  C   UNL     1      -2.351   4.477  -8.157  1.00  0.00    -0.000 C 
BRANCH  24  25
ATOM     25  C   UNL     1      -1.997   5.850  -7.557  1.00  0.00    -0.000 C 
BRANCH  25  26
ATOM     26  C   UNL     1      -0.644   5.912  -6.823  1.00  0.00    -0.000 C 
BRANCH  26  27
ATOM     27  C   UNL     1       0.147   7.194  -7.134  1.00  0.00    -0.000 C 
BRANCH  27  28
ATOM     28  C   UNL     1       1.413   6.917  -7.962  1.00  0.00    -0.000 C 
BRANCH  28  29
ATOM     29  C   UNL     1       1.550   5.437  -8.356  1.00  0.00    -0.000 C 
BRANCH  29  30
ATOM     30  C   UNL     1       1.342   5.249  -9.864  1.00  0.00    -0.000 C 
BRANCH  30  31
ATOM     31  C   UNL     1       2.635   5.534 -10.637  1.00  0.00    -0.003 C 
ATOM     32  C   UNL     1       2.490   6.771 -11.518  1.00  0.00     0.004 C 
ENDBRANCH  30  31
ENDBRANCH  29  30
ENDBRANCH  28  29
ENDBRANCH  27  28
ENDBRANCH  26  27
ENDBRANCH  25  26
ENDBRANCH  24  25
ENDBRANCH  23  24
ENDBRANCH  22  23
ENDBRANCH  21  22
ENDBRANCH  20  21
ENDBRANCH  19  20
ENDBRANCH  18  19
ENDBRANCH   1  18
TORSDOF 28
ENDMDL
MODEL 7
REMARK VINA RESULT:    -2.122      3.084      6.160
REMARK INTER + INTRA:         -11.386
REMARK INTER:                  -4.715
REMARK INTRA:                  -6.671
REMARK UNBOUND:                -5.790
REMARK SMILES CCCCCCCCCCCCCCCCCCCCCCCCCCCCCC(=O)[O-]
REMARK SMILES IDX 16 1 17 2 18 3 19 4 20 5 21 6 22 7 23 8 24 9 25 10 26 11
REMARK SMILES IDX 27 12 28 13 29 14 30 15 31 16 32 17 15 18 14 19 13 20 12 21
REMARK SMILES IDX 11 22 10 23 9 24 8 25 7 26 6 27 5 28 4 29 3 30 2 31 1 32
REMARK H PARENT
REMARK Flexibility Score: inf
ROOT
ATOM      1  C   UNL     1      -0.823   6.918  -6.956  1.00  0.00     0.000 C 
ENDROOT
BRANCH   1   2
ATOM      2  C   UNL     1      -1.641   5.939  -7.813  1.00  0.00     0.000 C 
BRANCH   2   3
ATOM      3  C   UNL     1      -3.159   6.115  -7.626  1.00  0.00     0.000 C 
BRANCH   3   4
ATOM      4  C   UNL     1      -3.959   5.636  -8.851  1.00  0.00     0.000 C 
BRANCH   4   5
ATOM      5  C   UNL     1      -3.070   5.244 -10.054  1.00  0.00     0.000 C 
BRANCH   5   6
ATOM      6  C   UNL     1      -2.973   6.339 -11.134  1.00  0.00     0.000 C 
BRANCH   6   7
ATOM      7  C   UNL     1      -4.210   7.252 -11.238  1.00  0.00     0.000 C 
BRANCH   7   8
ATOM      8  C   UNL     1      -3.899   8.763 -11.281  1.00  0.00     0.000 C 
BRANCH   8   9
ATOM      9  C   UNL     1      -4.549   9.598 -10.159  1.00  0.00     0.000 C 
BRANCH   9  10
ATOM     10  C   UNL     1      -3.837   9.523  -8.796  1.00  0.00     0.000 C 
BRANCH  10  11
ATOM     11  C   UNL     1      -2.308   9.431  -8.932  1.00  0.00     0.000 C 
BRANCH  11  12
ATOM     12  C   UNL     1      -1.607  10.773  -8.667  1.00  0.00     0.000 C 
BRANCH  12  13
ATOM     13  C   UNL     1      -1.083  11.427  -9.955  1.00  0.00     0.006 C 
BRANCH  13  14
ATOM     14  C   UNL     1      -1.789  12.761 -10.222  1.00  0.00     0.053 C 
BRANCH  14  15
ATOM     15  C   UNL     1      -2.698  12.662 -11.409  1.00  0.00     0.041 C 
ATOM     16  O   UNL     1      -2.522  11.760 -12.271  1.00  0.00    -0.550 OA
ATOM     17  O   UNL     1      -3.752  13.555 -11.554  1.00  0.00    -0.550 OA
ENDBRANCH  14  15
ENDBRANCH  13  14
ENDBRANCH  12  13
ENDBRANCH  11  12
ENDBRANCH  10  11
ENDBRANCH   9  10
ENDBRANCH   8   9
ENDBRANCH   7   8
ENDBRANCH   6   7
ENDBRANCH   5   6
ENDBRANCH   4   5
ENDBRANCH   3   4
ENDBRANCH   2   3
ENDBRANCH   1   2
BRANCH   1  18
ATOM     18  C   UNL     1       0.216   6.211  -6.073  1.00  0.00     0.000 C 
BRANCH  18  19
ATOM     19  C   UNL     1       1.618   6.315  -6.687  1.00  0.00     0.000 C 
BRANCH  19  20
ATOM     20  C   UNL     1       2.289   7.643  -6.311  1.00  0.00     0.000 C 
BRANCH  20  21
ATOM     21  C   UNL     1       2.895   8.361  -7.529  1.00  0.00     0.000 C 
BRANCH  21  22
ATOM     22  C   UNL     1       1.817   8.915  -8.476  1.00  0.00     0.000 C 
BRANCH  22  23
ATOM     23  C   UNL     1       1.856   8.258  -9.866  1.00  0.00     0.000 C 
BRANCH  23  24
ATOM     24  C   UNL     1       0.482   7.736 -10.319  1.00  0.00    -0.000 C 
BRANCH  24  25
ATOM     25  C   UNL     1       0.535   6.289 -10.842  1.00  0.00    -0.000 C 
BRANCH  25  26
ATOM     26  C   UNL     1       1.726   5.455 -10.332  1.00  0.00    -0.000 C 
BRANCH  26  27
ATOM     27  C   UNL     1       1.292   4.257  -9.470  1.00  0.00    -0.000 C 
BRANCH  27  28
ATOM     28  C   UNL     1       0.119   3.480 -10.092  1.00  0.00    -0.000 C 
BRANCH  28  29
ATOM     29  C   UNL     1      -0.596   2.576  -9.075  1.00  0.00    -0.000 C 
BRANCH  29  30
ATOM     30  C   UNL     1       0.144   2.568  -7.731  1.00  0.00    -0.000 C 
BRANCH  30  31
ATOM     31  C   UNL     1      -0.831   2.781  -6.567  1.00  0.00    -0.003 C 
ATOM     32  C   UNL     1      -2.228   2.277  -6.918  1.00  0.00     0.004 C 
ENDBRANCH  30  31
ENDBRANCH  29  30
ENDBRANCH  28  29
ENDBRANCH  27  28
ENDBRANCH  26  27
ENDBRANCH  25  26
ENDBRANCH  24  25
ENDBRANCH  23  24
ENDBRANCH  22  23
ENDBRANCH  21  22
ENDBRANCH  20  21
ENDBRANCH  19  20
ENDBRANCH  18  19
ENDBRANCH   1  18
TORSDOF 28
ENDMDL
MODEL 8
REMARK VINA RESULT:    -2.104      6.111      9.926
REMARK INTER + INTRA:         -11.338
REMARK INTER:                  -4.964
REMARK INTRA:                  -6.374
REMARK UNBOUND:                -5.790
REMARK SMILES CCCCCCCCCCCCCCCCCCCCCCCCCCCCCC(=O)[O-]
REMARK SMILES IDX 16 1 17 2 18 3 19 4 20 5 21 6 22 7 23 8 24 9 25 10 26 11
REMARK SMILES IDX 27 12 28 13 29 14 30 15 31 16 32 17 15 18 14 19 13 20 12 21
REMARK SMILES IDX 11 22 10 23 9 24 8 25 7 26 6 27 5 28 4 29 3 30 2 31 1 32
REMARK H PARENT
REMARK Flexibility Score: inf
ROOT
ATOM      1  C   UNL     1       1.026  13.654  -7.948  1.00  0.00     0.000 C 
ENDROOT
BRANCH   1   2
ATOM      2  C   UNL     1       0.765  13.831  -9.452  1.00  0.00     0.000 C 
BRANCH   2   3
ATOM      3  C   UNL     1      -0.681  13.479  -9.847  1.00  0.00     0.000 C 
BRANCH   3   4
ATOM      4  C   UNL     1      -0.746  12.340 -10.880  1.00  0.00     0.000 C 
BRANCH   4   5
ATOM      5  C   UNL     1      -0.102  11.023 -10.388  1.00  0.00     0.000 C 
BRANCH   5   6
ATOM      6  C   UNL     1       0.859  10.385 -11.409  1.00  0.00     0.000 C 
BRANCH   6   7
ATOM      7  C   UNL     1       1.428  11.361 -12.455  1.00  0.00     0.000 C 
BRANCH   7   8
ATOM      8  C   UNL     1       2.835  11.909 -12.134  1.00  0.00     0.000 C 
BRANCH   8   9
ATOM      9  C   UNL     1       3.635  11.092 -11.098  1.00  0.00     0.000 C 
BRANCH   9  10
ATOM     10  C   UNL     1       4.092  11.884  -9.859  1.00  0.00     0.000 C 
BRANCH  10  11
ATOM     11  C   UNL     1       3.475  11.347  -8.555  1.00  0.00     0.000 C 
BRANCH  11  12
ATOM     12  C   UNL     1       3.205   9.834  -8.606  1.00  0.00     0.000 C 
BRANCH  12  13
ATOM     13  C   UNL     1       2.071   9.408  -7.661  1.00  0.00     0.006 C 
BRANCH  13  14
ATOM     14  C   UNL     1       2.573   8.404  -6.617  1.00  0.00     0.053 C 
BRANCH  14  15
ATOM     15  C   UNL     1       1.672   7.209  -6.541  1.00  0.00     0.041 C 
ATOM     16  O   UNL     1       1.306   6.759  -5.422  1.00  0.00    -0.550 OA
ATOM     17  O   UNL     1       1.219   6.603  -7.706  1.00  0.00    -0.550 OA
ENDBRANCH  14  15
ENDBRANCH  13  14
ENDBRANCH  12  13
ENDBRANCH  11  12
ENDBRANCH  10  11
ENDBRANCH   9  10
ENDBRANCH   8   9
ENDBRANCH   7   8
ENDBRANCH   6   7
ENDBRANCH   5   6
ENDBRANCH   4   5
ENDBRANCH   3   4
ENDBRANCH   2   3
ENDBRANCH   1   2
BRANCH   1  18
ATOM     18  C   UNL     1      -0.089  12.873  -7.239  1.00  0.00     0.000 C 
BRANCH  18  19
ATOM     19  C   UNL     1      -0.157  13.243  -5.752  1.00  0.00     0.000 C 
BRANCH  19  20
ATOM     20  C   UNL     1       0.690  14.489  -5.453  1.00  0.00     0.000 C 
BRANCH  20  21
ATOM     21  C   UNL     1       0.798  14.778  -3.946  1.00  0.00     0.000 C 
BRANCH  21  22
ATOM     22  C   UNL     1       0.059  13.731  -3.095  1.00  0.00     0.000 C 
BRANCH  22  23
ATOM     23  C   UNL     1       0.979  13.039  -2.077  1.00  0.00     0.000 C 
BRANCH  23  24
ATOM     24  C   UNL     1       2.449  13.000  -2.531  1.00  0.00    -0.000 C 
BRANCH  24  25
ATOM     25  C   UNL     1       2.838  11.660  -3.181  1.00  0.00    -0.000 C 
BRANCH  25  26
ATOM     26  C   UNL     1       3.039  11.710  -4.707  1.00  0.00    -0.000 C 
BRANCH  26  27
ATOM     27  C   UNL     1       4.516  11.598  -5.120  1.00  0.00    -0.000 C 
BRANCH  27  28
ATOM     28  C   UNL     1       5.168  12.972  -5.351  1.00  0.00    -0.000 C 
BRANCH  28  29
ATOM     29  C   UNL     1       4.276  13.918  -6.170  1.00  0.00    -0.000 C 
BRANCH  29  30
ATOM     30  C   UNL     1       4.220  15.312  -5.531  1.00  0.00    -0.000 C 
BRANCH  30  31
ATOM     31  C   UNL     1       4.816  15.292  -4.119  1.00  0.00    -0.003 C 
ATOM     32  C   UNL     1       4.116  16.298  -3.210  1.00  0.00     0.004 C 
ENDBRANCH  30  31
ENDBRANCH  29  30
ENDBRANCH  28  29
ENDBRANCH  27  28
ENDBRANCH  26  27
ENDBRANCH  25  26
ENDBRANCH  24  25
ENDBRANCH  23  24
ENDBRANCH  22  23
ENDBRANCH  21  22
ENDBRANCH  20  21
ENDBRANCH  19  20
ENDBRANCH  18  19
ENDBRANCH   1  18
TORSDOF 28
ENDMDL
MODEL 9
REMARK VINA RESULT:    -2.098      4.609      8.393
REMARK INTER + INTRA:         -11.322
REMARK INTER:                  -4.861
REMARK INTRA:                  -6.461
REMARK UNBOUND:                -5.790
REMARK SMILES CCCCCCCCCCCCCCCCCCCCCCCCCCCCCC(=O)[O-]
REMARK SMILES IDX 16 1 17 2 18 3 19 4 20 5 21 6 22 7 23 8 24 9 25 10 26 11
REMARK SMILES IDX 27 12 28 13 29 14 30 15 31 16 32 17 15 18 14 19 13 20 12 21
REMARK SMILES IDX 11 22 10 23 9 24 8 25 7 26 6 27 5 28 4 29 3 30 2 31 1 32
REMARK H PARENT
REMARK Flexibility Score: inf
ROOT
ATOM      1  C   UNL     1      -2.358   9.639 -12.337  1.00  0.00     0.000 C 
ENDROOT
BRANCH   1   2
ATOM      2  C   UNL     1      -0.867   9.758 -11.984  1.00  0.00     0.000 C 
BRANCH   2   3
ATOM      3  C   UNL     1      -0.482  11.171 -11.511  1.00  0.00     0.000 C 
BRANCH   3   4
ATOM      4  C   UNL     1      -1.640  12.175 -11.659  1.00  0.00     0.000 C 
BRANCH   4   5
ATOM      5  C   UNL     1      -1.704  13.217 -10.519  1.00  0.00     0.000 C 
BRANCH   5   6
ATOM      6  C   UNL     1      -0.332  13.535  -9.893  1.00  0.00     0.000 C 
BRANCH   6   7
ATOM      7  C   UNL     1      -0.211  13.190  -8.397  1.00  0.00     0.000 C 
BRANCH   7   8
ATOM      8  C   UNL     1       1.176  12.676  -7.960  1.00  0.00     0.000 C 
BRANCH   8   9
ATOM      9  C   UNL     1       1.350  11.144  -7.999  1.00  0.00     0.000 C 
BRANCH   9  10
ATOM     10  C   UNL     1       2.427  10.635  -8.975  1.00  0.00     0.000 C 
BRANCH  10  11
ATOM     11  C   UNL     1       2.024   9.322  -9.667  1.00  0.00     0.000 C 
BRANCH  11  12
ATOM     12  C   UNL     1       2.969   8.158  -9.324  1.00  0.00     0.000 C 
BRANCH  12  13
ATOM     13  C   UNL     1       3.907   8.488  -8.152  1.00  0.00     0.006 C 
BRANCH  13  14
ATOM     14  C   UNL     1       3.808   7.426  -7.052  1.00  0.00     0.053 C 
BRANCH  14  15
ATOM     15  C   UNL     1       2.922   7.887  -5.935  1.00  0.00     0.041 C 
ATOM     16  O   UNL     1       2.024   7.129  -5.481  1.00  0.00    -0.550 OA
ATOM     17  O   UNL     1       3.101   9.148  -5.380  1.00  0.00    -0.550 OA
ENDBRANCH  14  15
ENDBRANCH  13  14
ENDBRANCH  12  13
ENDBRANCH  11  12
ENDBRANCH  10  11
ENDBRANCH   9  10
ENDBRANCH   8   9
ENDBRANCH   7   8
ENDBRANCH   6   7
ENDBRANCH   5   6
ENDBRANCH   4   5
ENDBRANCH   3   4
ENDBRANCH   2   3
ENDBRANCH   1   2
BRANCH   1  18
ATOM     18  C   UNL     1      -2.925   8.239 -12.060  1.00  0.00     0.000 C 
BRANCH  18  19
ATOM     19  C   UNL     1      -4.298   8.328 -11.383  1.00  0.00     0.000 C 
BRANCH  19  20
ATOM     20  C   UNL     1      -4.413   9.598 -10.530  1.00  0.00     0.000 C 
BRANCH  20  21
ATOM     21  C   UNL     1      -3.944   9.379  -9.081  1.00  0.00     0.000 C 
BRANCH  21  22
ATOM     22  C   UNL     1      -2.688  10.199  -8.742  1.00  0.00     0.000 C 
BRANCH  22  23
ATOM     23  C   UNL     1      -1.600   9.358  -8.055  1.00  0.00     0.000 C 
BRANCH  23  24
ATOM     24  C   UNL     1      -1.638   7.877  -8.470  1.00  0.00    -0.000 C 
BRANCH  24  25
ATOM     25  C   UNL     1      -0.395   7.094  -8.009  1.00  0.00    -0.000 C 
BRANCH  25  26
ATOM     26  C   UNL     1       0.027   5.937  -8.933  1.00  0.00    -0.000 C 
BRANCH  26  27
ATOM     27  C   UNL     1      -0.418   6.143 -10.391  1.00  0.00    -0.000 C 
BRANCH  27  28
ATOM     28  C   UNL     1      -1.320   5.005 -10.896  1.00  0.00    -0.000 C 
BRANCH  28  29
ATOM     29  C   UNL     1      -1.798   4.082  -9.763  1.00  0.00    -0.000 C 
BRANCH  29  30
ATOM     30  C   UNL     1      -3.324   3.927  -9.788  1.00  0.00    -0.000 C 
BRANCH  30  31
ATOM     31  C   UNL     1      -4.017   5.275  -9.555  1.00  0.00    -0.003 C 
ATOM     32  C   UNL     1      -4.276   5.514  -8.071  1.00  0.00     0.004 C 
ENDBRANCH  30  31
ENDBRANCH  29  30
ENDBRANCH  28  29
ENDBRANCH  27  28
ENDBRANCH  26  27
ENDBRANCH  25  26
ENDBRANCH  24  25
ENDBRANCH  23  24
ENDBRANCH  22  23
ENDBRANCH  21  22
ENDBRANCH  20  21
ENDBRANCH  19  20
ENDBRANCH  18  19
ENDBRANCH   1  18
TORSDOF 28
ENDMDL
