MODEL 1
REMARK VINA RESULT:    -6.335      0.000      0.000
REMARK INTER + INTRA:          -7.960
REMARK INTER:                  -7.632
REMARK INTRA:                  -0.329
REMARK UNBOUND:                -0.329
REMARK SMILES O=c1c(O)c(-c2ccc(O)c(O)c2)oc2cc(O)cc(O)c12
REMARK SMILES IDX 5 1 3 2 2 3 1 4 22 5 20 6 19 7 17 8 16 9 15 10 14 11 6 12
REMARK SMILES IDX 7 13 8 14 9 15 13 16 11 17 10 18 12 20 4 22 21 24 18 26
REMARK H PARENT 10 19 12 21 4 23 21 25 18 27
REMARK Flexibility Score: inf
ROOT
ATOM      1  C   UNL     1      -2.521 -40.189 -34.177  1.00  0.00     0.180 A 
ATOM      2  C   UNL     1      -2.383 -40.107 -32.781  1.00  0.00     0.208 A 
ATOM      3  C   UNL     1      -3.326 -40.750 -31.964  1.00  0.00     0.238 A 
ATOM      4  O   UNL     1      -3.167 -40.718 -30.716  1.00  0.00    -0.285 OA
ATOM      5  C   UNL     1      -4.405 -41.454 -32.553  1.00  0.00     0.111 A 
ATOM      6  C   UNL     1      -5.440 -42.109 -31.822  1.00  0.00     0.134 A 
ATOM      7  C   UNL     1      -6.384 -42.886 -32.506  1.00  0.00     0.093 A 
ATOM      8  C   UNL     1      -6.368 -42.977 -33.899  1.00  0.00     0.123 A 
ATOM      9  C   UNL     1      -5.396 -42.292 -34.626  1.00  0.00     0.094 A 
ATOM     10  C   UNL     1      -4.420 -41.540 -33.970  1.00  0.00     0.146 A 
ATOM     11  O   UNL     1      -3.506 -40.912 -34.699  1.00  0.00    -0.452 OA
ENDROOT
BRANCH   1  12
ATOM     12  C   UNL     1      -1.582 -39.517 -35.103  1.00  0.00     0.025 A 
ATOM     13  C   UNL     1      -0.451 -40.209 -35.564  1.00  0.00     0.016 A 
ATOM     14  C   UNL     1       0.438 -39.601 -36.454  1.00  0.00     0.051 A 
ATOM     15  C   UNL     1       0.202 -38.300 -36.910  1.00  0.00     0.157 A 
ATOM     16  C   UNL     1      -1.828 -38.216 -35.579  1.00  0.00     0.062 A 
ATOM     17  C   UNL     1      -0.938 -37.604 -36.474  1.00  0.00     0.158 A 
BRANCH  15  18
ATOM     18  O   UNL     1       1.108 -37.718 -37.797  1.00  0.00    -0.504 OA
ATOM     19  H   UNL     1       1.508 -38.232 -38.571  1.00  0.00     0.293 HD
ENDBRANCH  15  18
BRANCH  17  20
ATOM     20  O   UNL     1      -1.186 -36.313 -36.935  1.00  0.00    -0.504 OA
ATOM     21  H   UNL     1      -2.016 -35.800 -36.660  1.00  0.00     0.293 HD
ENDBRANCH  17  20
ENDBRANCH   1  12
BRANCH   2  22
ATOM     22  O   UNL     1      -1.300 -39.425 -32.221  1.00  0.00    -0.502 OA
ATOM     23  H   UNL     1      -0.543 -39.052 -32.783  1.00  0.00     0.293 HD
ENDBRANCH   2  22
BRANCH   6  24
ATOM     24  O   UNL     1      -5.602 -42.008 -30.436  1.00  0.00    -0.507 OA
ATOM     25  H   UNL     1      -5.151 -42.605 -29.761  1.00  0.00     0.293 HD
ENDBRANCH   6  24
BRANCH   8  26
ATOM     26  O   UNL     1      -7.319 -43.739 -34.574  1.00  0.00    -0.508 OA
ATOM     27  H   UNL     1      -8.184 -43.331 -34.911  1.00  0.00     0.293 HD
ENDBRANCH   8  26
TORSDOF 6
ENDMDL
MODEL 2
REMARK VINA RESULT:    -6.184      1.853      7.141
REMARK INTER + INTRA:          -7.778
REMARK INTER:                  -7.733
REMARK INTRA:                  -0.045
REMARK UNBOUND:                -0.329
REMARK SMILES O=c1c(O)c(-c2ccc(O)c(O)c2)oc2cc(O)cc(O)c12
REMARK SMILES IDX 5 1 3 2 2 3 1 4 22 5 20 6 19 7 17 8 16 9 15 10 14 11 6 12
REMARK SMILES IDX 7 13 8 14 9 15 13 16 11 17 10 18 12 20 4 22 21 24 18 26
REMARK H PARENT 10 19 12 21 4 23 21 25 18 27
REMARK Flexibility Score: inf
ROOT
ATOM      1  C   UNL     1      -2.729 -40.229 -34.251  1.00  0.00     0.180 A 
ATOM      2  C   UNL     1      -2.885 -39.394 -35.370  1.00  0.00     0.208 A 
ATOM      3  C   UNL     1      -1.833 -38.538 -35.734  1.00  0.00     0.238 A 
ATOM      4  O   UNL     1      -1.958 -37.832 -36.768  1.00  0.00    -0.285 OA
ATOM      5  C   UNL     1      -0.644 -38.516 -34.965  1.00  0.00     0.111 A 
ATOM      6  C   UNL     1       0.469 -37.660 -35.217  1.00  0.00     0.134 A 
ATOM      7  C   UNL     1       1.644 -37.817 -34.472  1.00  0.00     0.093 A 
ATOM      8  C   UNL     1       1.721 -38.753 -33.438  1.00  0.00     0.123 A 
ATOM      9  C   UNL     1       0.619 -39.552 -33.144  1.00  0.00     0.094 A 
ATOM     10  C   UNL     1      -0.554 -39.445 -33.895  1.00  0.00     0.146 A 
ATOM     11  O   UNL     1      -1.577 -40.233 -33.589  1.00  0.00    -0.452 OA
ENDROOT
BRANCH   1  12
ATOM     12  C   UNL     1      -3.802 -41.139 -33.791  1.00  0.00     0.025 A 
ATOM     13  C   UNL     1      -4.316 -42.103 -34.673  1.00  0.00     0.016 A 
ATOM     14  C   UNL     1      -5.315 -42.985 -34.253  1.00  0.00     0.051 A 
ATOM     15  C   UNL     1      -5.802 -42.931 -32.943  1.00  0.00     0.157 A 
ATOM     16  C   UNL     1      -4.279 -41.099 -32.468  1.00  0.00     0.062 A 
ATOM     17  C   UNL     1      -5.280 -41.986 -32.044  1.00  0.00     0.158 A 
BRANCH  15  18
ATOM     18  O   UNL     1      -6.801 -43.823 -32.554  1.00  0.00    -0.504 OA
ATOM     19  H   UNL     1      -7.480 -43.592 -31.840  1.00  0.00     0.293 HD
ENDBRANCH  15  18
BRANCH  17  20
ATOM     20  O   UNL     1      -5.752 -41.934 -30.734  1.00  0.00    -0.504 OA
ATOM     21  H   UNL     1      -5.140 -42.097 -29.942  1.00  0.00     0.293 HD
ENDBRANCH  17  20
ENDBRANCH   1  12
BRANCH   2  22
ATOM     22  O   UNL     1      -4.058 -39.447 -36.128  1.00  0.00    -0.502 OA
ATOM     23  H   UNL     1      -4.876 -38.893 -35.903  1.00  0.00     0.293 HD
ENDBRANCH   2  22
BRANCH   6  24
ATOM     24  O   UNL     1       0.463 -36.631 -36.164  1.00  0.00    -0.507 OA
ATOM     25  H   UNL     1      -0.276 -36.468 -36.830  1.00  0.00     0.293 HD
ENDBRANCH   6  24
BRANCH   8  26
ATOM     26  O   UNL     1       2.889 -38.892 -32.690  1.00  0.00    -0.508 OA
ATOM     27  H   UNL     1       3.156 -39.782 -32.285  1.00  0.00     0.293 HD
ENDBRANCH   8  26
TORSDOF 6
ENDMDL
MODEL 3
REMARK VINA RESULT:    -6.069      1.498      6.803
REMARK INTER + INTRA:          -7.639
REMARK INTER:                  -7.837
REMARK INTRA:                   0.198
REMARK UNBOUND:                -0.329
REMARK SMILES O=c1c(O)c(-c2ccc(O)c(O)c2)oc2cc(O)cc(O)c12
REMARK SMILES IDX 5 1 3 2 2 3 1 4 22 5 20 6 19 7 17 8 16 9 15 10 14 11 6 12
REMARK SMILES IDX 7 13 8 14 9 15 13 16 11 17 10 18 12 20 4 22 21 24 18 26
REMARK H PARENT 10 19 12 21 4 23 21 25 18 27
REMARK Flexibility Score: inf
ROOT
ATOM      1  C   UNL     1      -2.945 -40.148 -34.020  1.00  0.00     0.180 A 
ATOM      2  C   UNL     1      -2.793 -38.878 -33.438  1.00  0.00     0.208 A 
ATOM      3  C   UNL     1      -1.742 -38.052 -33.868  1.00  0.00     0.238 A 
ATOM      4  O   UNL     1      -1.644 -36.896 -33.382  1.00  0.00    -0.285 OA
ATOM      5  C   UNL     1      -0.846 -38.512 -34.864  1.00  0.00     0.111 A 
ATOM      6  C   UNL     1       0.276 -37.777 -35.347  1.00  0.00     0.134 A 
ATOM      7  C   UNL     1       1.016 -38.275 -36.426  1.00  0.00     0.093 A 
ATOM      8  C   UNL     1       0.714 -39.514 -36.996  1.00  0.00     0.123 A 
ATOM      9  C   UNL     1      -0.343 -40.268 -36.492  1.00  0.00     0.094 A 
ATOM     10  C   UNL     1      -1.123 -39.780 -35.441  1.00  0.00     0.146 A 
ATOM     11  O   UNL     1      -2.128 -40.525 -34.998  1.00  0.00    -0.452 OA
ENDROOT
BRANCH   1  12
ATOM     12  C   UNL     1      -4.012 -41.084 -33.601  1.00  0.00     0.025 A 
ATOM     13  C   UNL     1      -4.549 -41.983 -34.536  1.00  0.00     0.016 A 
ATOM     14  C   UNL     1      -5.543 -42.889 -34.157  1.00  0.00     0.051 A 
ATOM     15  C   UNL     1      -6.002 -42.923 -32.836  1.00  0.00     0.157 A 
ATOM     16  C   UNL     1      -4.461 -41.134 -32.268  1.00  0.00     0.062 A 
ATOM     17  C   UNL     1      -5.457 -42.045 -31.886  1.00  0.00     0.158 A 
BRANCH  15  18
ATOM     18  O   UNL     1      -6.996 -43.837 -32.488  1.00  0.00    -0.504 OA
ATOM     19  H   UNL     1      -7.937 -43.776 -32.858  1.00  0.00     0.293 HD
ENDBRANCH  15  18
BRANCH  17  20
ATOM     20  O   UNL     1      -5.901 -42.082 -30.565  1.00  0.00    -0.504 OA
ATOM     21  H   UNL     1      -6.855 -41.845 -30.318  1.00  0.00     0.293 HD
ENDBRANCH  17  20
ENDBRANCH   1  12
BRANCH   2  22
ATOM     22  O   UNL     1      -3.700 -38.435 -32.472  1.00  0.00    -0.502 OA
ATOM     23  H   UNL     1      -3.486 -38.439 -31.482  1.00  0.00     0.293 HD
ENDBRANCH   2  22
BRANCH   6  24
ATOM     24  O   UNL     1       0.720 -36.573 -34.789  1.00  0.00    -0.507 OA
ATOM     25  H   UNL     1       1.687 -36.300 -34.709  1.00  0.00     0.293 HD
ENDBRANCH   6  24
BRANCH   8  26
ATOM     26  O   UNL     1       1.465 -40.010 -38.060  1.00  0.00    -0.508 OA
ATOM     27  H   UNL     1       2.427 -40.307 -37.937  1.00  0.00     0.293 HD
ENDBRANCH   8  26
TORSDOF 6
ENDMDL
MODEL 4
REMARK VINA RESULT:    -5.942      4.963      6.089
REMARK INTER + INTRA:          -7.486
REMARK INTER:                  -7.221
REMARK INTRA:                  -0.266
REMARK UNBOUND:                -0.329
REMARK SMILES O=c1c(O)c(-c2ccc(O)c(O)c2)oc2cc(O)cc(O)c12
REMARK SMILES IDX 5 1 3 2 2 3 1 4 22 5 20 6 19 7 17 8 16 9 15 10 14 11 6 12
REMARK SMILES IDX 7 13 8 14 9 15 13 16 11 17 10 18 12 20 4 22 21 24 18 26
REMARK H PARENT 10 19 12 21 4 23 21 25 18 27
REMARK Flexibility Score: inf
ROOT
ATOM      1  C   UNL     1      -6.064 -37.621 -31.565  1.00  0.00     0.180 A 
ATOM      2  C   UNL     1      -5.765 -37.978 -30.239  1.00  0.00     0.208 A 
ATOM      3  C   UNL     1      -5.294 -39.273 -29.972  1.00  0.00     0.238 A 
ATOM      4  O   UNL     1      -4.977 -39.570 -28.791  1.00  0.00    -0.285 OA
ATOM      5  C   UNL     1      -5.141 -40.200 -31.032  1.00  0.00     0.111 A 
ATOM      6  C   UNL     1      -4.710 -41.551 -30.871  1.00  0.00     0.134 A 
ATOM      7  C   UNL     1      -4.469 -42.338 -32.004  1.00  0.00     0.093 A 
ATOM      8  C   UNL     1      -4.709 -41.845 -33.288  1.00  0.00     0.123 A 
ATOM      9  C   UNL     1      -5.188 -40.547 -33.453  1.00  0.00     0.094 A 
ATOM     10  C   UNL     1      -5.401 -39.725 -32.344  1.00  0.00     0.146 A 
ATOM     11  O   UNL     1      -5.848 -38.492 -32.545  1.00  0.00    -0.452 OA
ENDROOT
BRANCH   1  12
ATOM     12  C   UNL     1      -6.589 -36.284 -31.923  1.00  0.00     0.025 A 
ATOM     13  C   UNL     1      -5.712 -35.189 -31.980  1.00  0.00     0.016 A 
ATOM     14  C   UNL     1      -6.183 -33.922 -32.335  1.00  0.00     0.051 A 
ATOM     15  C   UNL     1      -7.531 -33.733 -32.653  1.00  0.00     0.157 A 
ATOM     16  C   UNL     1      -7.941 -36.095 -32.263  1.00  0.00     0.062 A 
ATOM     17  C   UNL     1      -8.415 -34.824 -32.621  1.00  0.00     0.158 A 
BRANCH  15  18
ATOM     18  O   UNL     1      -7.972 -32.457 -33.001  1.00  0.00    -0.504 OA
ATOM     19  H   UNL     1      -8.616 -31.933 -32.421  1.00  0.00     0.293 HD
ENDBRANCH  15  18
BRANCH  17  20
ATOM     20  O   UNL     1      -9.757 -34.645 -32.949  1.00  0.00    -0.504 OA
ATOM     21  H   UNL     1     -10.255 -33.795 -32.710  1.00  0.00     0.293 HD
ENDBRANCH  17  20
ENDBRANCH   1  12
BRANCH   2  22
ATOM     22  O   UNL     1      -5.902 -37.041 -29.212  1.00  0.00    -0.502 OA
ATOM     23  H   UNL     1      -6.510 -36.234 -29.289  1.00  0.00     0.293 HD
ENDBRANCH   2  22
BRANCH   6  24
ATOM     24  O   UNL     1      -4.529 -42.170 -29.631  1.00  0.00    -0.507 OA
ATOM     25  H   UNL     1      -4.510 -43.168 -29.485  1.00  0.00     0.293 HD
ENDBRANCH   6  24
BRANCH   8  26
ATOM     26  O   UNL     1      -4.482 -42.640 -34.410  1.00  0.00    -0.508 OA
ATOM     27  H   UNL     1      -5.247 -43.064 -34.923  1.00  0.00     0.293 HD
ENDBRANCH   8  26
TORSDOF 6
ENDMDL
MODEL 5
REMARK VINA RESULT:    -5.902      1.590      3.388
REMARK INTER + INTRA:          -7.438
REMARK INTER:                  -7.108
REMARK INTRA:                  -0.330
REMARK UNBOUND:                -0.329
REMARK SMILES O=c1c(O)c(-c2ccc(O)c(O)c2)oc2cc(O)cc(O)c12
REMARK SMILES IDX 5 1 3 2 2 3 1 4 22 5 20 6 19 7 17 8 16 9 15 10 14 11 6 12
REMARK SMILES IDX 7 13 8 14 9 15 13 16 11 17 10 18 12 20 4 22 21 24 18 26
REMARK H PARENT 10 19 12 21 4 23 21 25 18 27
REMARK Flexibility Score: inf
ROOT
ATOM      1  C   UNL     1      -2.305 -39.740 -34.238  1.00  0.00     0.180 A 
ATOM      2  C   UNL     1      -3.613 -40.125 -34.582  1.00  0.00     0.208 A 
ATOM      3  C   UNL     1      -4.413 -40.755 -33.616  1.00  0.00     0.238 A 
ATOM      4  O   UNL     1      -5.601 -41.048 -33.913  1.00  0.00    -0.285 OA
ATOM      5  C   UNL     1      -3.892 -41.007 -32.323  1.00  0.00     0.111 A 
ATOM      6  C   UNL     1      -4.601 -41.673 -31.280  1.00  0.00     0.134 A 
ATOM      7  C   UNL     1      -4.035 -41.750 -30.001  1.00  0.00     0.093 A 
ATOM      8  C   UNL     1      -2.758 -41.244 -29.746  1.00  0.00     0.123 A 
ATOM      9  C   UNL     1      -2.034 -40.644 -30.774  1.00  0.00     0.094 A 
ATOM     10  C   UNL     1      -2.587 -40.519 -32.050  1.00  0.00     0.146 A 
ATOM     11  O   UNL     1      -1.868 -39.931 -32.998  1.00  0.00    -0.452 OA
ENDROOT
BRANCH   1  12
ATOM     12  C   UNL     1      -1.393 -39.095 -35.209  1.00  0.00     0.025 A 
ATOM     13  C   UNL     1      -1.342 -37.694 -35.284  1.00  0.00     0.016 A 
ATOM     14  C   UNL     1      -0.472 -37.064 -36.179  1.00  0.00     0.051 A 
ATOM     15  C   UNL     1       0.369 -37.822 -37.000  1.00  0.00     0.157 A 
ATOM     16  C   UNL     1      -0.531 -39.855 -36.021  1.00  0.00     0.062 A 
ATOM     17  C   UNL     1       0.343 -39.224 -36.919  1.00  0.00     0.158 A 
BRANCH  15  18
ATOM     18  O   UNL     1       1.224 -37.166 -37.884  1.00  0.00    -0.504 OA
ATOM     19  H   UNL     1       2.191 -36.974 -37.655  1.00  0.00     0.293 HD
ENDBRANCH  15  18
BRANCH  17  20
ATOM     20  O   UNL     1       1.188 -39.985 -37.724  1.00  0.00    -0.504 OA
ATOM     21  H   UNL     1       1.141 -40.998 -37.738  1.00  0.00     0.293 HD
ENDBRANCH  17  20
ENDBRANCH   1  12
BRANCH   2  22
ATOM     22  O   UNL     1      -4.115 -39.848 -35.856  1.00  0.00    -0.502 OA
ATOM     23  H   UNL     1      -4.127 -40.539 -36.598  1.00  0.00     0.293 HD
ENDBRANCH   2  22
BRANCH   6  24
ATOM     24  O   UNL     1      -5.841 -42.295 -31.451  1.00  0.00    -0.507 OA
ATOM     25  H   UNL     1      -6.102 -42.843 -32.256  1.00  0.00     0.293 HD
ENDBRANCH   6  24
BRANCH   8  26
ATOM     26  O   UNL     1      -2.196 -41.338 -28.475  1.00  0.00    -0.508 OA
ATOM     27  H   UNL     1      -1.195 -41.431 -28.343  1.00  0.00     0.293 HD
ENDBRANCH   8  26
TORSDOF 6
ENDMDL
MODEL 6
REMARK VINA RESULT:    -5.791      4.644      5.685
REMARK INTER + INTRA:          -7.305
REMARK INTER:                  -6.974
REMARK INTRA:                  -0.331
REMARK UNBOUND:                -0.329
REMARK SMILES O=c1c(O)c(-c2ccc(O)c(O)c2)oc2cc(O)cc(O)c12
REMARK SMILES IDX 5 1 3 2 2 3 1 4 22 5 20 6 19 7 17 8 16 9 15 10 14 11 6 12
REMARK SMILES IDX 7 13 8 14 9 15 13 16 11 17 10 18 12 20 4 22 21 24 18 26
REMARK H PARENT 10 19 12 21 4 23 21 25 18 27
REMARK Flexibility Score: inf
ROOT
ATOM      1  C   UNL     1      -5.585 -38.759 -31.885  1.00  0.00     0.180 A 
ATOM      2  C   UNL     1      -5.524 -39.013 -30.504  1.00  0.00     0.208 A 
ATOM      3  C   UNL     1      -6.350 -38.277 -29.639  1.00  0.00     0.238 A 
ATOM      4  O   UNL     1      -6.330 -38.546 -28.410  1.00  0.00    -0.285 OA
ATOM      5  C   UNL     1      -7.214 -37.285 -30.164  1.00  0.00     0.111 A 
ATOM      6  C   UNL     1      -8.065 -36.453 -29.377  1.00  0.00     0.134 A 
ATOM      7  C   UNL     1      -8.973 -35.597 -30.012  1.00  0.00     0.093 A 
ATOM      8  C   UNL     1      -9.015 -35.496 -31.404  1.00  0.00     0.123 A 
ATOM      9  C   UNL     1      -8.147 -36.261 -32.180  1.00  0.00     0.094 A 
ATOM     10  C   UNL     1      -7.256 -37.150 -31.576  1.00  0.00     0.146 A 
ATOM     11  O   UNL     1      -6.453 -37.868 -32.352  1.00  0.00    -0.452 OA
ENDROOT
BRANCH   1  12
ATOM     12  C   UNL     1      -4.728 -39.476 -32.856  1.00  0.00     0.025 A 
ATOM     13  C   UNL     1      -5.239 -40.591 -33.537  1.00  0.00     0.016 A 
ATOM     14  C   UNL     1      -4.454 -41.270 -34.473  1.00  0.00     0.051 A 
ATOM     15  C   UNL     1      -3.155 -40.836 -34.755  1.00  0.00     0.157 A 
ATOM     16  C   UNL     1      -3.428 -39.028 -33.156  1.00  0.00     0.062 A 
ATOM     17  C   UNL     1      -2.640 -39.707 -34.097  1.00  0.00     0.158 A 
BRANCH  15  18
ATOM     18  O   UNL     1      -2.395 -41.535 -35.692  1.00  0.00    -0.504 OA
ATOM     19  H   UNL     1      -1.425 -41.310 -35.873  1.00  0.00     0.293 HD
ENDBRANCH  15  18
BRANCH  17  20
ATOM     20  O   UNL     1      -1.351 -39.260 -34.382  1.00  0.00    -0.504 OA
ATOM     21  H   UNL     1      -0.976 -39.284 -35.324  1.00  0.00     0.293 HD
ENDBRANCH  17  20
ENDBRANCH   1  12
BRANCH   2  22
ATOM     22  O   UNL     1      -4.680 -40.010 -30.009  1.00  0.00    -0.502 OA
ATOM     23  H   UNL     1      -4.872 -40.506 -29.146  1.00  0.00     0.293 HD
ENDBRANCH   2  22
BRANCH   6  24
ATOM     24  O   UNL     1      -8.038 -36.408 -27.979  1.00  0.00    -0.507 OA
ATOM     25  H   UNL     1      -8.427 -35.664 -27.421  1.00  0.00     0.293 HD
ENDBRANCH   6  24
BRANCH   8  26
ATOM     26  O   UNL     1      -9.911 -34.631 -32.028  1.00  0.00    -0.508 OA
ATOM     27  H   UNL     1      -9.771 -33.626 -32.021  1.00  0.00     0.293 HD
ENDBRANCH   8  26
TORSDOF 6
ENDMDL
MODEL 7
REMARK VINA RESULT:    -5.670      5.062      7.147
REMARK INTER + INTRA:          -7.159
REMARK INTER:                  -6.930
REMARK INTRA:                  -0.229
REMARK UNBOUND:                -0.329
REMARK SMILES O=c1c(O)c(-c2ccc(O)c(O)c2)oc2cc(O)cc(O)c12
REMARK SMILES IDX 5 1 3 2 2 3 1 4 22 5 20 6 19 7 17 8 16 9 15 10 14 11 6 12
REMARK SMILES IDX 7 13 8 14 9 15 13 16 11 17 10 18 12 20 4 22 21 24 18 26
REMARK H PARENT 10 19 12 21 4 23 21 25 18 27
REMARK Flexibility Score: inf
ROOT
ATOM      1  C   UNL     1      -5.462 -38.157 -31.904  1.00  0.00     0.180 A 
ATOM      2  C   UNL     1      -4.415 -37.250 -31.667  1.00  0.00     0.208 A 
ATOM      3  C   UNL     1      -4.700 -35.875 -31.629  1.00  0.00     0.238 A 
ATOM      4  O   UNL     1      -3.768 -35.072 -31.362  1.00  0.00    -0.285 OA
ATOM      5  C   UNL     1      -6.024 -35.423 -31.844  1.00  0.00     0.111 A 
ATOM      6  C   UNL     1      -6.419 -34.053 -31.868  1.00  0.00     0.134 A 
ATOM      7  C   UNL     1      -7.779 -33.727 -31.959  1.00  0.00     0.093 A 
ATOM      8  C   UNL     1      -8.750 -34.722 -32.095  1.00  0.00     0.123 A 
ATOM      9  C   UNL     1      -8.369 -36.061 -32.133  1.00  0.00     0.094 A 
ATOM     10  C   UNL     1      -7.025 -36.418 -32.007  1.00  0.00     0.146 A 
ATOM     11  O   UNL     1      -6.705 -37.706 -32.038  1.00  0.00    -0.452 OA
ENDROOT
BRANCH   1  12
ATOM     12  C   UNL     1      -5.237 -39.617 -31.983  1.00  0.00     0.025 A 
ATOM     13  C   UNL     1      -5.268 -40.255 -33.233  1.00  0.00     0.016 A 
ATOM     14  C   UNL     1      -5.037 -41.630 -33.333  1.00  0.00     0.051 A 
ATOM     15  C   UNL     1      -4.757 -42.385 -32.190  1.00  0.00     0.157 A 
ATOM     16  C   UNL     1      -4.934 -40.375 -30.837  1.00  0.00     0.062 A 
ATOM     17  C   UNL     1      -4.701 -41.755 -30.935  1.00  0.00     0.158 A 
BRANCH  15  18
ATOM     18  O   UNL     1      -4.533 -43.755 -32.320  1.00  0.00    -0.504 OA
ATOM     19  H   UNL     1      -5.014 -44.314 -33.014  1.00  0.00     0.293 HD
ENDBRANCH  15  18
BRANCH  17  20
ATOM     20  O   UNL     1      -4.408 -42.498 -29.793  1.00  0.00    -0.504 OA
ATOM     21  H   UNL     1      -4.930 -42.378 -28.932  1.00  0.00     0.293 HD
ENDBRANCH  17  20
ENDBRANCH   1  12
BRANCH   2  22
ATOM     22  O   UNL     1      -3.119 -37.718 -31.435  1.00  0.00    -0.502 OA
ATOM     23  H   UNL     1      -2.355 -37.101 -31.184  1.00  0.00     0.293 HD
ENDBRANCH   2  22
BRANCH   6  24
ATOM     24  O   UNL     1      -5.522 -32.981 -31.832  1.00  0.00    -0.507 OA
ATOM     25  H   UNL     1      -5.576 -32.209 -31.185  1.00  0.00     0.293 HD
ENDBRANCH   6  24
BRANCH   8  26
ATOM     26  O   UNL     1     -10.099 -34.389 -32.200  1.00  0.00    -0.508 OA
ATOM     27  H   UNL     1     -10.826 -35.091 -32.117  1.00  0.00     0.293 HD
ENDBRANCH   8  26
TORSDOF 6
ENDMDL
MODEL 8
REMARK VINA RESULT:    -5.395      1.964      7.115
REMARK INTER + INTRA:          -6.828
REMARK INTER:                  -7.238
REMARK INTRA:                   0.410
REMARK UNBOUND:                -0.329
REMARK SMILES O=c1c(O)c(-c2ccc(O)c(O)c2)oc2cc(O)cc(O)c12
REMARK SMILES IDX 5 1 3 2 2 3 1 4 22 5 20 6 19 7 17 8 16 9 15 10 14 11 6 12
REMARK SMILES IDX 7 13 8 14 9 15 13 16 11 17 10 18 12 20 4 22 21 24 18 26
REMARK H PARENT 10 19 12 21 4 23 21 25 18 27
REMARK Flexibility Score: inf
ROOT
ATOM      1  C   UNL     1      -2.934 -40.007 -34.154  1.00  0.00     0.180 A 
ATOM      2  C   UNL     1      -2.132 -40.214 -35.290  1.00  0.00     0.208 A 
ATOM      3  C   UNL     1      -1.206 -39.227 -35.659  1.00  0.00     0.238 A 
ATOM      4  O   UNL     1      -0.454 -39.441 -36.645  1.00  0.00    -0.285 OA
ATOM      5  C   UNL     1      -1.102 -38.037 -34.898  1.00  0.00     0.111 A 
ATOM      6  C   UNL     1      -0.227 -36.953 -35.203  1.00  0.00     0.134 A 
ATOM      7  C   UNL     1      -0.114 -35.883 -34.306  1.00  0.00     0.093 A 
ATOM      8  C   UNL     1      -0.895 -35.827 -33.149  1.00  0.00     0.123 A 
ATOM      9  C   UNL     1      -1.796 -36.852 -32.873  1.00  0.00     0.094 A 
ATOM     10  C   UNL     1      -1.904 -37.950 -33.729  1.00  0.00     0.146 A 
ATOM     11  O   UNL     1      -2.768 -38.910 -33.423  1.00  0.00    -0.452 OA
ENDROOT
BRANCH   1  12
ATOM     12  C   UNL     1      -3.950 -40.990 -33.717  1.00  0.00     0.025 A 
ATOM     13  C   UNL     1      -4.454 -41.921 -34.639  1.00  0.00     0.016 A 
ATOM     14  C   UNL     1      -5.399 -42.871 -34.242  1.00  0.00     0.051 A 
ATOM     15  C   UNL     1      -5.842 -42.916 -32.916  1.00  0.00     0.157 A 
ATOM     16  C   UNL     1      -4.383 -41.051 -32.379  1.00  0.00     0.062 A 
ATOM     17  C   UNL     1      -5.330 -42.005 -31.978  1.00  0.00     0.158 A 
BRANCH  15  18
ATOM     18  O   UNL     1      -6.788 -43.874 -32.551  1.00  0.00    -0.504 OA
ATOM     19  H   UNL     1      -7.308 -44.406 -33.237  1.00  0.00     0.293 HD
ENDBRANCH  15  18
BRANCH  17  20
ATOM     20  O   UNL     1      -5.757 -42.053 -30.653  1.00  0.00    -0.504 OA
ATOM     21  H   UNL     1      -6.110 -41.231 -30.178  1.00  0.00     0.293 HD
ENDBRANCH  17  20
ENDBRANCH   1  12
BRANCH   2  22
ATOM     22  O   UNL     1      -2.235 -41.405 -36.015  1.00  0.00    -0.502 OA
ATOM     23  H   UNL     1      -2.549 -41.429 -36.978  1.00  0.00     0.293 HD
ENDBRANCH   2  22
BRANCH   6  24
ATOM     24  O   UNL     1       0.528 -36.865 -36.376  1.00  0.00    -0.507 OA
ATOM     25  H   UNL     1       0.730 -36.008 -36.867  1.00  0.00     0.293 HD
ENDBRANCH   6  24
BRANCH   8  26
ATOM     26  O   UNL     1      -0.787 -34.751 -32.270  1.00  0.00    -0.508 OA
ATOM     27  H   UNL     1      -1.451 -34.615 -31.515  1.00  0.00     0.293 HD
ENDBRANCH   8  26
TORSDOF 6
ENDMDL
