MODEL 1
REMARK VINA RESULT:    -3.238      0.000      0.000
REMARK INTER + INTRA:          -3.333
REMARK INTER:                  -3.333
REMARK INTRA:                   0.000
REMARK UNBOUND:                 0.000
REMARK SMILES O=c1ccc2ccc(O)cc2o1
REMARK SMILES IDX 6 1 7 2 8 3 10 4 11 5 5 6 4 7 3 8 2 9 1 10 12 11 9 12
REMARK H PARENT 9 13
REMARK Flexibility Score: inf
ROOT
ATOM      1  C   UNL     1      -9.923   6.176  -6.379  1.00  0.00     0.016 A 
ATOM      2  C   UNL     1      -9.950   6.831  -7.614  1.00  0.00     0.047 A 
ATOM      3  C   UNL     1     -10.026   6.097  -8.804  1.00  0.00     0.119 A 
ATOM      4  C   UNL     1     -10.077   4.696  -8.759  1.00  0.00     0.094 A 
ATOM      5  C   UNL     1     -10.051   4.031  -7.528  1.00  0.00     0.142 A 
ATOM      6  C   UNL     1      -9.973   4.776  -6.331  1.00  0.00     0.018 A 
ATOM      7  C   UNL     1      -9.949   4.084  -5.116  1.00  0.00     0.019 A 
ATOM      8  C   UNL     1     -10.001   2.691  -5.121  1.00  0.00     0.094 A 
ATOM      9  C   UNL     1     -10.077   2.019  -6.347  1.00  0.00     0.336 A 
ATOM     10  O   UNL     1     -10.125   0.761  -6.372  1.00  0.00    -0.246 OA
ATOM     11  O   UNL     1     -10.098   2.702  -7.489  1.00  0.00    -0.423 OA
ENDROOT
BRANCH   3  12
ATOM     12  O   UNL     1     -10.052   6.768 -10.025  1.00  0.00    -0.508 OA
ATOM     13  H   UNL     1     -10.498   6.367 -10.840  1.00  0.00     0.293 HD
ENDBRANCH   3  12
TORSDOF 1
ENDMDL
MODEL 2
REMARK VINA RESULT:    -3.184     20.718     21.636
REMARK INTER + INTRA:          -3.278
REMARK INTER:                  -3.278
REMARK INTRA:                   0.000
REMARK UNBOUND:                 0.000
REMARK SMILES O=c1ccc2ccc(O)cc2o1
REMARK SMILES IDX 6 1 7 2 8 3 10 4 11 5 5 6 4 7 3 8 2 9 1 10 12 11 9 12
REMARK H PARENT 9 13
REMARK Flexibility Score: inf
ROOT
ATOM      1  C   UNL     1       0.001  -8.148   8.420  1.00  0.00     0.016 A 
ATOM      2  C   UNL     1       0.707  -7.088   8.998  1.00  0.00     0.047 A 
ATOM      3  C   UNL     1       0.023  -6.001   9.554  1.00  0.00     0.119 A 
ATOM      4  C   UNL     1      -1.379  -5.972   9.533  1.00  0.00     0.094 A 
ATOM      5  C   UNL     1      -2.096  -7.027   8.958  1.00  0.00     0.142 A 
ATOM      6  C   UNL     1      -1.401  -8.122   8.397  1.00  0.00     0.018 A 
ATOM      7  C   UNL     1      -2.143  -9.162   7.830  1.00  0.00     0.019 A 
ATOM      8  C   UNL     1      -3.535  -9.089   7.832  1.00  0.00     0.094 A 
ATOM      9  C   UNL     1      -4.156  -7.973   8.405  1.00  0.00     0.336 A 
ATOM     10  O   UNL     1      -5.412  -7.889   8.417  1.00  0.00    -0.246 OA
ATOM     11  O   UNL     1      -3.425  -6.997   8.939  1.00  0.00    -0.423 OA
ENDROOT
BRANCH   3  12
ATOM     12  O   UNL     1       0.745  -4.955  10.125  1.00  0.00    -0.508 OA
ATOM     13  H   UNL     1       1.151  -5.034  11.049  1.00  0.00     0.293 HD
ENDBRANCH   3  12
TORSDOF 1
ENDMDL
MODEL 3
REMARK VINA RESULT:    -3.180     19.492     20.671
REMARK INTER + INTRA:          -3.273
REMARK INTER:                  -3.273
REMARK INTRA:                   0.000
REMARK UNBOUND:                 0.000
REMARK SMILES O=c1ccc2ccc(O)cc2o1
REMARK SMILES IDX 6 1 7 2 8 3 10 4 11 5 5 6 4 7 3 8 2 9 1 10 12 11 9 12
REMARK H PARENT 9 13
REMARK Flexibility Score: inf
ROOT
ATOM      1  C   UNL     1       1.947   8.800   8.270  1.00  0.00     0.016 A 
ATOM      2  C   UNL     1       3.254   9.146   8.628  1.00  0.00     0.047 A 
ATOM      3  C   UNL     1       4.013   8.297   9.442  1.00  0.00     0.119 A 
ATOM      4  C   UNL     1       3.464   7.092   9.901  1.00  0.00     0.094 A 
ATOM      5  C   UNL     1       2.157   6.736   9.549  1.00  0.00     0.142 A 
ATOM      6  C   UNL     1       1.394   7.596   8.728  1.00  0.00     0.018 A 
ATOM      7  C   UNL     1       0.092   7.214   8.391  1.00  0.00     0.019 A 
ATOM      8  C   UNL     1      -0.413   6.006   8.872  1.00  0.00     0.094 A 
ATOM      9  C   UNL     1       0.401   5.205   9.681  1.00  0.00     0.336 A 
ATOM     10  O   UNL     1      -0.036   4.111  10.125  1.00  0.00    -0.246 OA
ATOM     11  O   UNL     1       1.638   5.593   9.986  1.00  0.00    -0.423 OA
ENDROOT
BRANCH   3  12
ATOM     12  O   UNL     1       5.314   8.660   9.788  1.00  0.00    -0.508 OA
ATOM     13  H   UNL     1       5.677   8.504  10.720  1.00  0.00     0.293 HD
ENDBRANCH   3  12
TORSDOF 1
ENDMDL
MODEL 4
REMARK VINA RESULT:    -3.175     21.805     22.194
REMARK INTER + INTRA:          -3.268
REMARK INTER:                  -3.268
REMARK INTRA:                   0.000
REMARK UNBOUND:                 0.000
REMARK SMILES O=c1ccc2ccc(O)cc2o1
REMARK SMILES IDX 6 1 7 2 8 3 10 4 11 5 5 6 4 7 3 8 2 9 1 10 12 11 9 12
REMARK H PARENT 9 13
REMARK Flexibility Score: inf
ROOT
ATOM      1  C   UNL     1      -1.348  -6.284   9.787  1.00  0.00     0.016 A 
ATOM      2  C   UNL     1      -2.675  -6.637  10.054  1.00  0.00     0.047 A 
ATOM      3  C   UNL     1      -3.207  -7.826   9.540  1.00  0.00     0.119 A 
ATOM      4  C   UNL     1      -2.408  -8.669   8.755  1.00  0.00     0.094 A 
ATOM      5  C   UNL     1      -1.080  -8.325   8.483  1.00  0.00     0.142 A 
ATOM      6  C   UNL     1      -0.546  -7.124   9.002  1.00  0.00     0.018 A 
ATOM      7  C   UNL     1       0.785  -6.807   8.714  1.00  0.00     0.019 A 
ATOM      8  C   UNL     1       1.540  -7.676   7.928  1.00  0.00     0.094 A 
ATOM      9  C   UNL     1       0.945  -8.848   7.447  1.00  0.00     0.336 A 
ATOM     10  O   UNL     1       1.611  -9.645   6.737  1.00  0.00    -0.246 OA
ATOM     11  O   UNL     1      -0.324  -9.126   7.737  1.00  0.00    -0.423 OA
ENDROOT
BRANCH   3  12
ATOM     12  O   UNL     1      -4.532  -8.160   9.817  1.00  0.00    -0.508 OA
ATOM     13  H   UNL     1      -4.804  -9.111  10.033  1.00  0.00     0.293 HD
ENDBRANCH   3  12
TORSDOF 1
ENDMDL
MODEL 5
REMARK VINA RESULT:    -3.147     24.687     24.788
REMARK INTER + INTRA:          -3.239
REMARK INTER:                  -3.239
REMARK INTRA:                   0.000
REMARK UNBOUND:                 0.000
REMARK SMILES O=c1ccc2ccc(O)cc2o1
REMARK SMILES IDX 6 1 7 2 8 3 10 4 11 5 5 6 4 7 3 8 2 9 1 10 12 11 9 12
REMARK H PARENT 9 13
REMARK Flexibility Score: inf
ROOT
ATOM      1  C   UNL     1      10.056   1.880   6.743  1.00  0.00     0.016 A 
ATOM      2  C   UNL     1      10.063   3.247   7.038  1.00  0.00     0.047 A 
ATOM      3  C   UNL     1       9.405   3.729   8.176  1.00  0.00     0.119 A 
ATOM      4  C   UNL     1       8.734   2.838   9.026  1.00  0.00     0.094 A 
ATOM      5  C   UNL     1       8.721   1.469   8.740  1.00  0.00     0.142 A 
ATOM      6  C   UNL     1       9.386   0.987   7.591  1.00  0.00     0.018 A 
ATOM      7  C   UNL     1       9.356  -0.387   7.330  1.00  0.00     0.019 A 
ATOM      8  C   UNL     1       8.676  -1.234   8.204  1.00  0.00     0.094 A 
ATOM      9  C   UNL     1       8.039  -0.685   9.323  1.00  0.00     0.336 A 
ATOM     10  O   UNL     1       7.421  -1.434  10.124  1.00  0.00    -0.246 OA
ATOM     11  O   UNL     1       8.084   0.626   9.548  1.00  0.00    -0.423 OA
ENDROOT
BRANCH   3  12
ATOM     12  O   UNL     1       9.424   5.095   8.453  1.00  0.00    -0.508 OA
ATOM     13  H   UNL     1       9.766   5.451   9.337  1.00  0.00     0.293 HD
ENDBRANCH   3  12
TORSDOF 1
ENDMDL
MODEL 6
REMARK VINA RESULT:    -3.142      7.255      8.358
REMARK INTER + INTRA:          -3.234
REMARK INTER:                  -3.234
REMARK INTRA:                   0.000
REMARK UNBOUND:                 0.000
REMARK SMILES O=c1ccc2ccc(O)cc2o1
REMARK SMILES IDX 6 1 7 2 8 3 10 4 11 5 5 6 4 7 3 8 2 9 1 10 12 11 9 12
REMARK H PARENT 9 13
REMARK Flexibility Score: inf
ROOT
ATOM      1  C   UNL     1     -10.086   8.553  -1.602  1.00  0.00     0.016 A 
ATOM      2  C   UNL     1     -10.123   7.497  -2.520  1.00  0.00     0.047 A 
ATOM      3  C   UNL     1      -9.971   6.175  -2.085  1.00  0.00     0.119 A 
ATOM      4  C   UNL     1      -9.782   5.905  -0.722  1.00  0.00     0.094 A 
ATOM      5  C   UNL     1      -9.743   6.953   0.204  1.00  0.00     0.142 A 
ATOM      6  C   UNL     1      -9.897   8.286  -0.239  1.00  0.00     0.018 A 
ATOM      7  C   UNL     1      -9.855   9.312   0.709  1.00  0.00     0.019 A 
ATOM      8  C   UNL     1      -9.663   8.995   2.053  1.00  0.00     0.094 A 
ATOM      9  C   UNL     1      -9.519   7.652   2.419  1.00  0.00     0.336 A 
ATOM     10  O   UNL     1      -9.346   7.345   3.628  1.00  0.00    -0.246 OA
ATOM     11  O   UNL     1      -9.563   6.694   1.496  1.00  0.00    -0.423 OA
ENDROOT
BRANCH   3  12
ATOM     12  O   UNL     1     -10.011   5.138  -3.014  1.00  0.00    -0.508 OA
ATOM     13  H   UNL     1      -9.289   5.027  -3.716  1.00  0.00     0.293 HD
ENDBRANCH   3  12
TORSDOF 1
ENDMDL
MODEL 7
REMARK VINA RESULT:    -3.139     23.092     23.562
REMARK INTER + INTRA:          -3.231
REMARK INTER:                  -3.231
REMARK INTRA:                   0.000
REMARK UNBOUND:                 0.000
REMARK SMILES O=c1ccc2ccc(O)cc2o1
REMARK SMILES IDX 6 1 7 2 8 3 10 4 11 5 5 6 4 7 3 8 2 9 1 10 12 11 9 12
REMARK H PARENT 9 13
REMARK Flexibility Score: inf
ROOT
ATOM      1  C   UNL     1       7.009 -10.120  -3.250  1.00  0.00     0.016 A 
ATOM      2  C   UNL     1       7.759  -9.916  -4.412  1.00  0.00     0.047 A 
ATOM      3  C   UNL     1       8.996  -9.262  -4.351  1.00  0.00     0.119 A 
ATOM      4  C   UNL     1       9.488  -8.811  -3.118  1.00  0.00     0.094 A 
ATOM      5  C   UNL     1       8.745  -9.010  -1.949  1.00  0.00     0.142 A 
ATOM      6  C   UNL     1       7.497  -9.669  -2.015  1.00  0.00     0.018 A 
ATOM      7  C   UNL     1       6.778  -9.854  -0.831  1.00  0.00     0.019 A 
ATOM      8  C   UNL     1       7.307  -9.387   0.371  1.00  0.00     0.094 A 
ATOM      9  C   UNL     1       8.550  -8.743   0.361  1.00  0.00     0.336 A 
ATOM     10  O   UNL     1       9.045  -8.315   1.436  1.00  0.00    -0.246 OA
ATOM     11  O   UNL     1       9.214  -8.580  -0.781  1.00  0.00    -0.423 OA
ENDROOT
BRANCH   3  12
ATOM     12  O   UNL     1       9.729  -9.069  -5.520  1.00  0.00    -0.508 OA
ATOM     13  H   UNL     1      10.371  -8.292  -5.620  1.00  0.00     0.293 HD
ENDBRANCH   3  12
TORSDOF 1
ENDMDL
MODEL 8
REMARK VINA RESULT:    -3.135      0.831      4.279
REMARK INTER + INTRA:          -3.226
REMARK INTER:                  -3.226
REMARK INTRA:                   0.000
REMARK UNBOUND:                 0.000
REMARK SMILES O=c1ccc2ccc(O)cc2o1
REMARK SMILES IDX 6 1 7 2 8 3 10 4 11 5 5 6 4 7 3 8 2 9 1 10 12 11 9 12
REMARK H PARENT 9 13
REMARK Flexibility Score: inf
ROOT
ATOM      1  C   UNL     1     -10.053   4.643  -5.441  1.00  0.00     0.016 A 
ATOM      2  C   UNL     1     -10.080   3.247  -5.512  1.00  0.00     0.047 A 
ATOM      3  C   UNL     1     -10.099   2.601  -6.754  1.00  0.00     0.119 A 
ATOM      4  C   UNL     1     -10.090   3.357  -7.936  1.00  0.00     0.094 A 
ATOM      5  C   UNL     1     -10.064   4.754  -7.876  1.00  0.00     0.142 A 
ATOM      6  C   UNL     1     -10.045   5.402  -6.620  1.00  0.00     0.018 A 
ATOM      7  C   UNL     1     -10.019   6.799  -6.592  1.00  0.00     0.019 A 
ATOM      8  C   UNL     1     -10.012   7.508  -7.792  1.00  0.00     0.094 A 
ATOM      9  C   UNL     1     -10.032   6.799  -8.999  1.00  0.00     0.336 A 
ATOM     10  O   UNL     1     -10.026   7.421 -10.094  1.00  0.00    -0.246 OA
ATOM     11  O   UNL     1     -10.057   5.469  -8.998  1.00  0.00    -0.423 OA
ENDROOT
BRANCH   3  12
ATOM     12  O   UNL     1     -10.125   1.209  -6.804  1.00  0.00    -0.508 OA
ATOM     13  H   UNL     1     -10.896   0.708  -7.228  1.00  0.00     0.293 HD
ENDBRANCH   3  12
TORSDOF 1
ENDMDL
MODEL 9
REMARK VINA RESULT:    -3.071     12.246     13.613
REMARK INTER + INTRA:          -3.161
REMARK INTER:                  -3.161
REMARK INTRA:                   0.000
REMARK UNBOUND:                 0.000
REMARK SMILES O=c1ccc2ccc(O)cc2o1
REMARK SMILES IDX 6 1 7 2 8 3 10 4 11 5 5 6 4 7 3 8 2 9 1 10 12 11 9 12
REMARK H PARENT 9 13
REMARK Flexibility Score: inf
ROOT
ATOM      1  C   UNL     1     -10.105  -8.223   0.823  1.00  0.00     0.016 A 
ATOM      2  C   UNL     1     -10.110  -7.024   1.543  1.00  0.00     0.047 A 
ATOM      3  C   UNL     1     -10.117  -5.795   0.871  1.00  0.00     0.119 A 
ATOM      4  C   UNL     1     -10.122  -5.765  -0.531  1.00  0.00     0.094 A 
ATOM      5  C   UNL     1     -10.118  -6.958  -1.260  1.00  0.00     0.142 A 
ATOM      6  C   UNL     1     -10.110  -8.196  -0.579  1.00  0.00     0.018 A 
ATOM      7  C   UNL     1     -10.106  -9.372  -1.334  1.00  0.00     0.019 A 
ATOM      8  C   UNL     1     -10.110  -9.292  -2.726  1.00  0.00     0.094 A 
ATOM      9  C   UNL     1     -10.119  -8.031  -3.332  1.00  0.00     0.336 A 
ATOM     10  O   UNL     1     -10.123  -7.937  -4.588  1.00  0.00    -0.246 OA
ATOM     11  O   UNL     1     -10.122  -6.926  -2.590  1.00  0.00    -0.423 OA
ENDROOT
BRANCH   3  12
ATOM     12  O   UNL     1     -10.122  -4.612   1.606  1.00  0.00    -0.508 OA
ATOM     13  H   UNL     1     -10.977  -4.232   1.995  1.00  0.00     0.293 HD
ENDBRANCH   3  12
TORSDOF 1
ENDMDL
