MODEL 1
REMARK VINA RESULT:    -5.922      0.000      0.000
REMARK INTER + INTRA:          -6.704
REMARK INTER:                  -6.441
REMARK INTRA:                  -0.262
REMARK UNBOUND:                -0.262
REMARK SMILES C[C@H]1[C@H](C)CC[C@]2(C(=O)[O-])CC[C@]3(C)C(=CC[C@H]4[C@@]5(C)CC[C@@H](O)C(C)(C)[C@@H]5CC[C@@]43C)[C@H]12
REMARK SMILES IDX 7 1 6 2 11 3 33 4 5 5 12 6 15 7 2 8 3 9 13 10 16 11 1 12
REMARK SMILES IDX 4 13 14 14 31 15 17 16 18 17 30 18 32 19 19 20 29 21 28 22
REMARK SMILES IDX 21 23 20 24 25 25 22 26 23 27 26 28 27 29 8 30 9 31 10 32
REMARK SMILES IDX 24 33
REMARK H PARENT 24 34
REMARK Flexibility Score: inf
ROOT
ATOM      1  C   UNL     1       7.926  -2.390  -6.668  1.00  0.00     0.017 C 
ATOM      2  C   UNL     1       7.922  -3.840  -6.107  1.00  0.00     0.014 C 
ATOM      3  C   UNL     1       7.410  -1.419  -5.546  1.00  0.00     0.014 C 
ATOM      4  C   UNL     1       7.046  -2.306  -7.993  1.00  0.00     0.030 C 
ATOM      5  C   UNL     1       8.126  -4.866  -7.223  1.00  0.00     0.004 C 
ATOM      6  C   UNL     1       5.896  -1.163  -5.585  1.00  0.00     0.013 C 
ATOM      7  C   UNL     1       6.332  -0.943  -8.066  1.00  0.00    -0.063 C 
ATOM      8  C   UNL     1       6.123  -3.545  -8.226  1.00  0.00    -0.003 C 
ATOM      9  C   UNL     1       6.939  -4.882  -8.220  1.00  0.00    -0.011 C 
ATOM     10  C   UNL     1       5.348  -0.524  -6.926  1.00  0.00    -0.006 C 
ATOM     11  C   UNL     1       6.907  -0.032  -8.903  1.00  0.00    -0.027 C 
ATOM     12  C   UNL     1       5.352  -3.408  -9.559  1.00  0.00     0.008 C 
ATOM     13  C   UNL     1       6.025  -6.086  -7.924  1.00  0.00     0.008 C 
ATOM     14  C   UNL     1       3.944  -1.191  -7.155  1.00  0.00     0.017 C 
ATOM     15  C   UNL     1       5.148   1.098  -6.914  1.00  0.00    -0.020 C 
ATOM     16  C   UNL     1       6.925   1.461  -8.668  1.00  0.00     0.032 C 
ATOM     17  C   UNL     1       6.525   1.790  -7.215  1.00  0.00     0.006 C 
ATOM     18  C   UNL     1       4.645   1.641  -5.547  1.00  0.00     0.008 C 
ATOM     19  C   UNL     1       4.088   1.478  -8.021  1.00  0.00     0.012 C 
ATOM     20  C   UNL     1       6.743   3.303  -6.687  1.00  0.00    -0.025 C 
ATOM     21  C   UNL     1       4.382   3.159  -5.530  1.00  0.00     0.005 C 
ATOM     22  C   UNL     1       5.368   4.008  -6.391  1.00  0.00     0.003 C 
ATOM     23  C   UNL     1       7.500   4.173  -7.742  1.00  0.00     0.010 C 
ATOM     24  C   UNL     1       7.631   3.231  -5.402  1.00  0.00     0.012 C 
ATOM     25  C   UNL     1       5.422   5.542  -6.002  1.00  0.00    -0.006 C 
ATOM     26  C   UNL     1       7.611   5.666  -7.377  1.00  0.00     0.033 C 
ATOM     27  C   UNL     1       6.242   6.315  -7.094  1.00  0.00     0.120 C 
ATOM     28  C   UNL     1       6.027   5.823  -4.592  1.00  0.00     0.014 C 
ATOM     29  C   UNL     1       3.975   6.111  -5.984  1.00  0.00     0.014 C 
ENDROOT
BRANCH   1  30
ATOM     30  C   UNL     1       9.387  -2.011  -6.943  1.00  0.00     0.048 C 
ATOM     31  O   UNL     1      10.125  -1.630  -5.993  1.00  0.00    -0.550 OA
ATOM     32  O   UNL     1       9.953  -2.129  -8.209  1.00  0.00    -0.550 OA
ENDBRANCH   1  30
BRANCH  27  33
ATOM     33  O   UNL     1       5.534   6.378  -8.311  1.00  0.00    -0.393 OA
ATOM     34  H   UNL     1       6.108   6.855  -8.965  1.00  0.00     0.210 HD
ENDBRANCH  27  33
TORSDOF 2
ENDMDL
MODEL 2
REMARK VINA RESULT:    -5.321      2.358      4.119
REMARK INTER + INTRA:          -6.050
REMARK INTER:                  -6.048
REMARK INTRA:                  -0.002
REMARK UNBOUND:                -0.262
REMARK SMILES C[C@H]1[C@H](C)CC[C@]2(C(=O)[O-])CC[C@]3(C)C(=CC[C@H]4[C@@]5(C)CC[C@@H](O)C(C)(C)[C@@H]5CC[C@@]43C)[C@H]12
REMARK SMILES IDX 7 1 6 2 11 3 33 4 5 5 12 6 15 7 2 8 3 9 13 10 16 11 1 12
REMARK SMILES IDX 4 13 14 14 31 15 17 16 18 17 30 18 32 19 19 20 29 21 28 22
REMARK SMILES IDX 21 23 20 24 25 25 22 26 23 27 26 28 27 29 8 30 9 31 10 32
REMARK SMILES IDX 24 33
REMARK H PARENT 24 34
REMARK Flexibility Score: inf
ROOT
ATOM      1  C   UNL     1       5.234  -0.570  -7.439  1.00  0.00     0.017 C 
ATOM      2  C   UNL     1       5.088  -1.820  -8.353  1.00  0.00     0.014 C 
ATOM      3  C   UNL     1       5.407   0.698  -8.350  1.00  0.00     0.014 C 
ATOM      4  C   UNL     1       6.451  -0.761  -6.430  1.00  0.00     0.030 C 
ATOM      5  C   UNL     1       5.213  -3.113  -7.547  1.00  0.00     0.004 C 
ATOM      6  C   UNL     1       6.869   1.058  -8.653  1.00  0.00     0.013 C 
ATOM      7  C   UNL     1       7.149   0.590  -6.184  1.00  0.00    -0.063 C 
ATOM      8  C   UNL     1       7.410  -1.938  -6.801  1.00  0.00    -0.003 C 
ATOM      9  C   UNL     1       6.633  -3.290  -6.951  1.00  0.00    -0.011 C 
ATOM     10  C   UNL     1       7.769   1.370  -7.388  1.00  0.00    -0.006 C 
ATOM     11  C   UNL     1       6.829   1.202  -5.008  1.00  0.00    -0.027 C 
ATOM     12  C   UNL     1       8.525  -2.089  -5.742  1.00  0.00     0.008 C 
ATOM     13  C   UNL     1       7.434  -4.297  -7.799  1.00  0.00     0.008 C 
ATOM     14  C   UNL     1       9.184   0.785  -7.738  1.00  0.00     0.017 C 
ATOM     15  C   UNL     1       7.948   2.950  -7.012  1.00  0.00    -0.020 C 
ATOM     16  C   UNL     1       6.736   2.698  -4.813  1.00  0.00     0.032 C 
ATOM     17  C   UNL     1       6.708   3.424  -6.174  1.00  0.00     0.006 C 
ATOM     18  C   UNL     1       8.042   3.869  -8.262  1.00  0.00     0.008 C 
ATOM     19  C   UNL     1       9.275   3.115  -6.172  1.00  0.00     0.012 C 
ATOM     20  C   UNL     1       6.341   4.999  -6.190  1.00  0.00    -0.025 C 
ATOM     21  C   UNL     1       8.280   5.356  -7.936  1.00  0.00     0.005 C 
ATOM     22  C   UNL     1       7.572   5.868  -6.643  1.00  0.00     0.003 C 
ATOM     23  C   UNL     1       5.907   5.500  -4.774  1.00  0.00     0.010 C 
ATOM     24  C   UNL     1       5.126   5.190  -7.157  1.00  0.00     0.012 C 
ATOM     25  C   UNL     1       7.401   7.440  -6.569  1.00  0.00    -0.006 C 
ATOM     26  C   UNL     1       5.689   7.022  -4.675  1.00  0.00     0.033 C 
ATOM     27  C   UNL     1       6.918   7.833  -5.129  1.00  0.00     0.120 C 
ATOM     28  C   UNL     1       6.421   8.027  -7.631  1.00  0.00     0.014 C 
ATOM     29  C   UNL     1       8.781   8.111  -6.822  1.00  0.00     0.014 C 
ENDROOT
BRANCH   1  30
ATOM     30  C   UNL     1       3.908  -0.397  -6.687  1.00  0.00     0.048 C 
ATOM     31  O   UNL     1       3.887   0.221  -5.588  1.00  0.00    -0.550 OA
ATOM     32  O   UNL     1       2.700  -0.852  -7.209  1.00  0.00    -0.550 OA
ENDBRANCH   1  30
BRANCH  27  33
ATOM     33  O   UNL     1       7.941   7.636  -4.179  1.00  0.00    -0.393 OA
ATOM     34  H   UNL     1       8.754   7.355  -4.672  1.00  0.00     0.210 HD
ENDBRANCH  27  33
TORSDOF 2
ENDMDL
MODEL 3
REMARK VINA RESULT:    -5.182      2.014      3.636
REMARK INTER + INTRA:          -5.899
REMARK INTER:                  -5.980
REMARK INTRA:                   0.081
REMARK UNBOUND:                -0.262
REMARK SMILES C[C@H]1[C@H](C)CC[C@]2(C(=O)[O-])CC[C@]3(C)C(=CC[C@H]4[C@@]5(C)CC[C@@H](O)C(C)(C)[C@@H]5CC[C@@]43C)[C@H]12
REMARK SMILES IDX 7 1 6 2 11 3 33 4 5 5 12 6 15 7 2 8 3 9 13 10 16 11 1 12
REMARK SMILES IDX 4 13 14 14 31 15 17 16 18 17 30 18 32 19 19 20 29 21 28 22
REMARK SMILES IDX 21 23 20 24 25 25 22 26 23 27 26 28 27 29 8 30 9 31 10 32
REMARK SMILES IDX 24 33
REMARK H PARENT 24 34
REMARK Flexibility Score: inf
ROOT
ATOM      1  C   UNL     1       5.877  -2.603  -7.994  1.00  0.00     0.017 C 
ATOM      2  C   UNL     1       6.359  -3.870  -8.756  1.00  0.00     0.014 C 
ATOM      3  C   UNL     1       6.015  -1.363  -8.949  1.00  0.00     0.014 C 
ATOM      4  C   UNL     1       6.702  -2.421  -6.644  1.00  0.00     0.030 C 
ATOM      5  C   UNL     1       6.534  -5.054  -7.804  1.00  0.00     0.004 C 
ATOM      6  C   UNL     1       7.354  -0.622  -8.827  1.00  0.00     0.013 C 
ATOM      7  C   UNL     1       6.916  -0.923  -6.355  1.00  0.00    -0.063 C 
ATOM      8  C   UNL     1       7.993  -3.298  -6.561  1.00  0.00    -0.003 C 
ATOM      9  C   UNL     1       7.676  -4.815  -6.783  1.00  0.00    -0.011 C 
ATOM     10  C   UNL     1       7.680  -0.037  -7.392  1.00  0.00    -0.006 C 
ATOM     11  C   UNL     1       6.084  -0.389  -5.415  1.00  0.00    -0.027 C 
ATOM     12  C   UNL     1       8.697  -3.104  -5.199  1.00  0.00     0.008 C 
ATOM     13  C   UNL     1       8.936  -5.586  -7.219  1.00  0.00     0.008 C 
ATOM     14  C   UNL     1       9.230  -0.219  -7.217  1.00  0.00     0.017 C 
ATOM     15  C   UNL     1       7.321   1.541  -7.166  1.00  0.00    -0.020 C 
ATOM     16  C   UNL     1       5.559   1.027  -5.435  1.00  0.00     0.032 C 
ATOM     17  C   UNL     1       5.798   1.678  -6.813  1.00  0.00     0.006 C 
ATOM     18  C   UNL     1       7.586   2.413  -8.426  1.00  0.00     0.008 C 
ATOM     19  C   UNL     1       8.212   2.091  -5.984  1.00  0.00     0.012 C 
ATOM     20  C   UNL     1       5.072   3.090  -7.126  1.00  0.00    -0.025 C 
ATOM     21  C   UNL     1       7.321   3.917  -8.218  1.00  0.00     0.005 C 
ATOM     22  C   UNL     1       6.124   4.251  -7.276  1.00  0.00     0.003 C 
ATOM     23  C   UNL     1       4.086   3.492  -5.982  1.00  0.00     0.010 C 
ATOM     24  C   UNL     1       4.236   2.910  -8.436  1.00  0.00     0.012 C 
ATOM     25  C   UNL     1       5.548   5.716  -7.443  1.00  0.00    -0.006 C 
ATOM     26  C   UNL     1       3.472   4.897  -6.134  1.00  0.00     0.033 C 
ATOM     27  C   UNL     1       4.536   6.002  -6.279  1.00  0.00     0.120 C 
ATOM     28  C   UNL     1       4.857   5.979  -8.817  1.00  0.00     0.014 C 
ATOM     29  C   UNL     1       6.718   6.735  -7.335  1.00  0.00     0.014 C 
ENDROOT
BRANCH   1  30
ATOM     30  C   UNL     1       4.380  -2.781  -7.714  1.00  0.00     0.048 C 
ATOM     31  O   UNL     1       3.736  -1.861  -7.138  1.00  0.00    -0.550 OA
ATOM     32  O   UNL     1       3.682  -3.911  -8.129  1.00  0.00    -0.550 OA
ENDBRANCH   1  30
BRANCH  27  33
ATOM     33  O   UNL     1       5.204   6.123  -5.044  1.00  0.00    -0.393 OA
ATOM     34  H   UNL     1       6.080   6.553  -5.220  1.00  0.00     0.210 HD
ENDBRANCH  27  33
TORSDOF 2
ENDMDL
MODEL 4
REMARK VINA RESULT:    -5.070     10.213     13.531
REMARK INTER + INTRA:          -5.776
REMARK INTER:                  -5.495
REMARK INTRA:                  -0.281
REMARK UNBOUND:                -0.262
REMARK SMILES C[C@H]1[C@H](C)CC[C@]2(C(=O)[O-])CC[C@]3(C)C(=CC[C@H]4[C@@]5(C)CC[C@@H](O)C(C)(C)[C@@H]5CC[C@@]43C)[C@H]12
REMARK SMILES IDX 7 1 6 2 11 3 33 4 5 5 12 6 15 7 2 8 3 9 13 10 16 11 1 12
REMARK SMILES IDX 4 13 14 14 31 15 17 16 18 17 30 18 32 19 19 20 29 21 28 22
REMARK SMILES IDX 21 23 20 24 25 25 22 26 23 27 26 28 27 29 8 30 9 31 10 32
REMARK SMILES IDX 24 33
REMARK H PARENT 24 34
REMARK Flexibility Score: inf
ROOT
ATOM      1  C   UNL     1      -1.165  -9.054   0.251  1.00  0.00     0.017 C 
ATOM      2  C   UNL     1      -1.561  -9.730   1.594  1.00  0.00     0.014 C 
ATOM      3  C   UNL     1      -0.662 -10.165  -0.739  1.00  0.00     0.014 C 
ATOM      4  C   UNL     1      -0.071  -7.924   0.500  1.00  0.00     0.030 C 
ATOM      5  C   UNL     1      -1.775  -8.690   2.695  1.00  0.00     0.004 C 
ATOM      6  C   UNL     1       0.855 -10.400  -0.699  1.00  0.00     0.013 C 
ATOM      7  C   UNL     1       0.913  -7.872  -0.684  1.00  0.00    -0.063 C 
ATOM      8  C   UNL     1       0.601  -7.986   1.910  1.00  0.00    -0.003 C 
ATOM      9  C   UNL     1      -0.463  -7.950   3.059  1.00  0.00    -0.011 C 
ATOM     10  C   UNL     1       1.749  -9.141  -1.051  1.00  0.00    -0.006 C 
ATOM     11  C   UNL     1       0.695  -6.862  -1.575  1.00  0.00    -0.027 C 
ATOM     12  C   UNL     1       1.603  -6.823   2.088  1.00  0.00     0.008 C 
ATOM     13  C   UNL     1       0.115  -8.524   4.366  1.00  0.00     0.008 C 
ATOM     14  C   UNL     1       3.001  -9.251  -0.109  1.00  0.00     0.017 C 
ATOM     15  C   UNL     1       2.276  -9.049  -2.595  1.00  0.00    -0.020 C 
ATOM     16  C   UNL     1       0.947  -6.957  -3.062  1.00  0.00     0.032 C 
ATOM     17  C   UNL     1       1.148  -8.426  -3.489  1.00  0.00     0.006 C 
ATOM     18  C   UNL     1       2.636 -10.435  -3.200  1.00  0.00     0.008 C 
ATOM     19  C   UNL     1       3.569  -8.142  -2.627  1.00  0.00     0.012 C 
ATOM     20  C   UNL     1       1.160  -8.765  -5.070  1.00  0.00    -0.025 C 
ATOM     21  C   UNL     1       3.201 -10.370  -4.633  1.00  0.00     0.005 C 
ATOM     22  C   UNL     1       2.579  -9.261  -5.536  1.00  0.00     0.003 C 
ATOM     23  C   UNL     1       0.796  -7.510  -5.928  1.00  0.00     0.010 C 
ATOM     24  C   UNL     1       0.066  -9.853  -5.328  1.00  0.00     0.012 C 
ATOM     25  C   UNL     1       2.778  -9.495  -7.089  1.00  0.00    -0.006 C 
ATOM     26  C   UNL     1       0.936  -7.713  -7.449  1.00  0.00     0.033 C 
ATOM     27  C   UNL     1       2.339  -8.200  -7.859  1.00  0.00     0.120 C 
ATOM     28  C   UNL     1       2.008 -10.729  -7.654  1.00  0.00     0.014 C 
ATOM     29  C   UNL     1       4.286  -9.746  -7.374  1.00  0.00     0.014 C 
ENDROOT
BRANCH   1  30
ATOM     30  C   UNL     1      -2.445  -8.466  -0.358  1.00  0.00     0.048 C 
ATOM     31  O   UNL     1      -2.644  -7.221  -0.316  1.00  0.00    -0.550 OA
ATOM     32  O   UNL     1      -3.379  -9.259  -1.017  1.00  0.00    -0.550 OA
ENDBRANCH   1  30
BRANCH  27  33
ATOM     33  O   UNL     1       3.246  -7.144  -7.635  1.00  0.00    -0.393 OA
ATOM     34  H   UNL     1       3.458  -7.135  -6.666  1.00  0.00     0.210 HD
ENDBRANCH  27  33
TORSDOF 2
ENDMDL
MODEL 5
REMARK VINA RESULT:    -5.048     13.135     15.255
REMARK INTER + INTRA:          -5.753
REMARK INTER:                  -5.464
REMARK INTRA:                  -0.289
REMARK UNBOUND:                -0.262
REMARK SMILES C[C@H]1[C@H](C)CC[C@]2(C(=O)[O-])CC[C@]3(C)C(=CC[C@H]4[C@@]5(C)CC[C@@H](O)C(C)(C)[C@@H]5CC[C@@]43C)[C@H]12
REMARK SMILES IDX 7 1 6 2 11 3 33 4 5 5 12 6 15 7 2 8 3 9 13 10 16 11 1 12
REMARK SMILES IDX 4 13 14 14 31 15 17 16 18 17 30 18 32 19 19 20 29 21 28 22
REMARK SMILES IDX 21 23 20 24 25 25 22 26 23 27 26 28 27 29 8 30 9 31 10 32
REMARK SMILES IDX 24 33
REMARK H PARENT 24 34
REMARK Flexibility Score: inf
ROOT
ATOM      1  C   UNL     1      -1.167  -0.576   7.437  1.00  0.00     0.017 C 
ATOM      2  C   UNL     1      -1.787  -1.390   8.608  1.00  0.00     0.014 C 
ATOM      3  C   UNL     1      -0.414   0.666   8.036  1.00  0.00     0.014 C 
ATOM      4  C   UNL     1      -2.296  -0.155   6.396  1.00  0.00     0.030 C 
ATOM      5  C   UNL     1      -2.776  -2.436   8.092  1.00  0.00     0.004 C 
ATOM      6  C   UNL     1      -1.274   1.934   8.132  1.00  0.00     0.013 C 
ATOM      7  C   UNL     1      -1.979   1.233   5.807  1.00  0.00    -0.063 C 
ATOM      8  C   UNL     1      -3.754  -0.325   6.931  1.00  0.00    -0.003 C 
ATOM      9  C   UNL     1      -4.019  -1.785   7.433  1.00  0.00    -0.011 C 
ATOM     10  C   UNL     1      -1.858   2.466   6.760  1.00  0.00    -0.006 C 
ATOM     11  C   UNL     1      -1.433   1.222   4.558  1.00  0.00    -0.027 C 
ATOM     12  C   UNL     1      -4.783   0.049   5.840  1.00  0.00     0.008 C 
ATOM     13  C   UNL     1      -5.210  -1.827   8.409  1.00  0.00     0.008 C 
ATOM     14  C   UNL     1      -3.286   3.020   7.109  1.00  0.00     0.017 C 
ATOM     15  C   UNL     1      -1.008   3.661   6.038  1.00  0.00    -0.020 C 
ATOM     16  C   UNL     1      -0.416   2.220   4.054  1.00  0.00     0.032 C 
ATOM     17  C   UNL     1       0.177   3.032   5.223  1.00  0.00     0.006 C 
ATOM     18  C   UNL     1      -0.393   4.670   7.049  1.00  0.00     0.008 C 
ATOM     19  C   UNL     1      -1.979   4.452   5.075  1.00  0.00     0.012 C 
ATOM     20  C   UNL     1       1.470   3.959   4.930  1.00  0.00    -0.025 C 
ATOM     21  C   UNL     1       0.355   5.845   6.391  1.00  0.00     0.005 C 
ATOM     22  C   UNL     1       1.123   5.487   5.081  1.00  0.00     0.003 C 
ATOM     23  C   UNL     1       2.013   3.741   3.480  1.00  0.00     0.010 C 
ATOM     24  C   UNL     1       2.593   3.531   5.930  1.00  0.00     0.012 C 
ATOM     25  C   UNL     1       2.258   6.517   4.685  1.00  0.00    -0.006 C 
ATOM     26  C   UNL     1       3.149   4.699   3.074  1.00  0.00     0.033 C 
ATOM     27  C   UNL     1       2.767   6.183   3.239  1.00  0.00     0.120 C 
ATOM     28  C   UNL     1       3.465   6.551   5.673  1.00  0.00     0.014 C 
ATOM     29  C   UNL     1       1.656   7.951   4.672  1.00  0.00     0.014 C 
ENDROOT
BRANCH   1  30
ATOM     30  C   UNL     1      -0.103  -1.463   6.778  1.00  0.00     0.048 C 
ATOM     31  O   UNL     1      -0.308  -1.938   5.628  1.00  0.00    -0.550 OA
ATOM     32  O   UNL     1       1.123  -1.719   7.386  1.00  0.00    -0.550 OA
ENDBRANCH   1  30
BRANCH  27  33
ATOM     33  O   UNL     1       1.787   6.487   2.272  1.00  0.00    -0.393 OA
ATOM     34  H   UNL     1       1.660   7.471   2.277  1.00  0.00     0.210 HD
ENDBRANCH  27  33
TORSDOF 2
ENDMDL
MODEL 6
REMARK VINA RESULT:    -4.870     12.944     16.331
REMARK INTER + INTRA:          -5.560
REMARK INTER:                  -5.263
REMARK INTRA:                  -0.297
REMARK UNBOUND:                -0.262
REMARK SMILES C[C@H]1[C@H](C)CC[C@]2(C(=O)[O-])CC[C@]3(C)C(=CC[C@H]4[C@@]5(C)CC[C@@H](O)C(C)(C)[C@@H]5CC[C@@]43C)[C@H]12
REMARK SMILES IDX 7 1 6 2 11 3 33 4 5 5 12 6 15 7 2 8 3 9 13 10 16 11 1 12
REMARK SMILES IDX 4 13 14 14 31 15 17 16 18 17 30 18 32 19 19 20 29 21 28 22
REMARK SMILES IDX 21 23 20 24 25 25 22 26 23 27 26 28 27 29 8 30 9 31 10 32
REMARK SMILES IDX 24 33
REMARK H PARENT 24 34
REMARK Flexibility Score: inf
ROOT
ATOM      1  C   UNL     1      -0.275   5.821   3.673  1.00  0.00     0.017 C 
ATOM      2  C   UNL     1       0.334   7.233   3.444  1.00  0.00     0.014 C 
ATOM      3  C   UNL     1      -0.815   5.741   5.146  1.00  0.00     0.014 C 
ATOM      4  C   UNL     1       0.807   4.694   3.363  1.00  0.00     0.030 C 
ATOM      5  C   UNL     1       1.138   7.285   2.144  1.00  0.00     0.004 C 
ATOM      6  C   UNL     1       0.202   5.193   6.158  1.00  0.00     0.013 C 
ATOM      7  C   UNL     1       0.618   3.504   4.323  1.00  0.00    -0.063 C 
ATOM      8  C   UNL     1       2.272   5.227   3.257  1.00  0.00    -0.003 C 
ATOM      9  C   UNL     1       2.393   6.377   2.200  1.00  0.00    -0.011 C 
ATOM     10  C   UNL     1       0.732   3.729   5.865  1.00  0.00    -0.006 C 
ATOM     11  C   UNL     1      -0.028   2.427   3.790  1.00  0.00    -0.027 C 
ATOM     12  C   UNL     1       3.244   4.081   2.897  1.00  0.00     0.008 C 
ATOM     13  C   UNL     1       3.647   7.234   2.458  1.00  0.00     0.008 C 
ATOM     14  C   UNL     1       2.242   3.745   6.297  1.00  0.00     0.017 C 
ATOM     15  C   UNL     1      -0.019   2.524   6.673  1.00  0.00    -0.020 C 
ATOM     16  C   UNL     1      -0.950   1.510   4.559  1.00  0.00     0.032 C 
ATOM     17  C   UNL     1      -1.338   2.137   5.915  1.00  0.00     0.006 C 
ATOM     18  C   UNL     1      -0.417   2.917   8.124  1.00  0.00     0.008 C 
ATOM     19  C   UNL     1       0.959   1.286   6.744  1.00  0.00     0.012 C 
ATOM     20  C   UNL     1      -2.524   1.441   6.765  1.00  0.00    -0.025 C 
ATOM     21  C   UNL     1      -1.065   1.775   8.931  1.00  0.00     0.005 C 
ATOM     22  C   UNL     1      -1.978   0.820   8.104  1.00  0.00     0.003 C 
ATOM     23  C   UNL     1      -3.210   0.292   5.958  1.00  0.00     0.010 C 
ATOM     24  C   UNL     1      -3.605   2.536   7.048  1.00  0.00     0.012 C 
ATOM     25  C   UNL     1      -3.004  -0.019   8.971  1.00  0.00    -0.006 C 
ATOM     26  C   UNL     1      -4.247  -0.520   6.757  1.00  0.00     0.033 C 
ATOM     27  C   UNL     1      -3.670  -1.108   8.059  1.00  0.00     0.120 C 
ATOM     28  C   UNL     1      -4.111   0.839   9.659  1.00  0.00     0.014 C 
ATOM     29  C   UNL     1      -2.231  -0.741  10.111  1.00  0.00     0.014 C 
ENDROOT
BRANCH   1  30
ATOM     30  C   UNL     1      -1.493   5.695   2.749  1.00  0.00     0.048 C 
ATOM     31  O   UNL     1      -2.506   6.422   2.943  1.00  0.00    -0.550 OA
ATOM     32  O   UNL     1      -1.500   4.838   1.652  1.00  0.00    -0.550 OA
ENDBRANCH   1  30
BRANCH  27  33
ATOM     33  O   UNL     1      -2.744  -2.111   7.707  1.00  0.00    -0.393 OA
ATOM     34  H   UNL     1      -2.484  -1.957   6.763  1.00  0.00     0.210 HD
ENDBRANCH  27  33
TORSDOF 2
ENDMDL
MODEL 7
REMARK VINA RESULT:    -4.755     10.636     13.686
REMARK INTER + INTRA:          -5.435
REMARK INTER:                  -5.146
REMARK INTRA:                  -0.288
REMARK UNBOUND:                -0.262
REMARK SMILES C[C@H]1[C@H](C)CC[C@]2(C(=O)[O-])CC[C@]3(C)C(=CC[C@H]4[C@@]5(C)CC[C@@H](O)C(C)(C)[C@@H]5CC[C@@]43C)[C@H]12
REMARK SMILES IDX 7 1 6 2 11 3 33 4 5 5 12 6 15 7 2 8 3 9 13 10 16 11 1 12
REMARK SMILES IDX 4 13 14 14 31 15 17 16 18 17 30 18 32 19 19 20 29 21 28 22
REMARK SMILES IDX 21 23 20 24 25 25 22 26 23 27 26 28 27 29 8 30 9 31 10 32
REMARK SMILES IDX 24 33
REMARK H PARENT 24 34
REMARK Flexibility Score: inf
ROOT
ATOM      1  C   UNL     1       2.660  -9.731  -3.367  1.00  0.00     0.017 C 
ATOM      2  C   UNL     1       3.139 -10.545  -4.603  1.00  0.00     0.014 C 
ATOM      3  C   UNL     1       1.913 -10.706  -2.387  1.00  0.00     0.014 C 
ATOM      4  C   UNL     1       1.741  -8.515  -3.827  1.00  0.00     0.030 C 
ATOM      5  C   UNL     1       3.607  -9.619  -5.727  1.00  0.00     0.004 C 
ATOM      6  C   UNL     1       0.396 -10.782  -2.612  1.00  0.00     0.013 C 
ATOM      7  C   UNL     1       0.630  -8.270  -2.788  1.00  0.00    -0.063 C 
ATOM      8  C   UNL     1       1.247  -8.610  -5.307  1.00  0.00    -0.003 C 
ATOM      9  C   UNL     1       2.444  -8.773  -6.305  1.00  0.00    -0.011 C 
ATOM     10  C   UNL     1      -0.384  -9.413  -2.459  1.00  0.00    -0.006 C 
ATOM     11  C   UNL     1       0.850  -7.225  -1.939  1.00  0.00    -0.027 C 
ATOM     12  C   UNL     1       0.415  -7.365  -5.686  1.00  0.00     0.008 C 
ATOM     13  C   UNL     1       1.970  -9.379  -7.640  1.00  0.00     0.008 C 
ATOM     14  C   UNL     1      -1.514  -9.460  -3.549  1.00  0.00     0.017 C 
ATOM     15  C   UNL     1      -1.086  -9.150  -1.006  1.00  0.00    -0.020 C 
ATOM     16  C   UNL     1       0.406  -7.181  -0.496  1.00  0.00     0.032 C 
ATOM     17  C   UNL     1      -0.013  -8.584  -0.010  1.00  0.00     0.006 C 
ATOM     18  C   UNL     1      -1.674 -10.441  -0.370  1.00  0.00     0.008 C 
ATOM     19  C   UNL     1      -2.260  -8.111  -1.200  1.00  0.00     0.012 C 
ATOM     20  C   UNL     1      -0.261  -8.800   1.574  1.00  0.00    -0.025 C 
ATOM     21  C   UNL     1      -2.402 -10.209   0.969  1.00  0.00     0.005 C 
ATOM     22  C   UNL     1      -1.774  -9.108   1.877  1.00  0.00     0.003 C 
ATOM     23  C   UNL     1       0.135  -7.530   2.394  1.00  0.00     0.010 C 
ATOM     24  C   UNL     1       0.661  -9.975   2.039  1.00  0.00     0.012 C 
ATOM     25  C   UNL     1      -2.190  -9.202   3.402  1.00  0.00    -0.006 C 
ATOM     26  C   UNL     1      -0.216  -7.603   3.892  1.00  0.00     0.033 C 
ATOM     27  C   UNL     1      -1.705  -7.907   4.143  1.00  0.00     0.120 C 
ATOM     28  C   UNL     1      -1.643 -10.465   4.137  1.00  0.00     0.014 C 
ATOM     29  C   UNL     1      -3.740  -9.270   3.500  1.00  0.00     0.014 C 
ENDROOT
BRANCH   1  30
ATOM     30  C   UNL     1       3.912  -9.238  -2.632  1.00  0.00     0.048 C 
ATOM     31  O   UNL     1       4.206  -8.011  -2.648  1.00  0.00    -0.550 OA
ATOM     32  O   UNL     1       4.716 -10.096  -1.887  1.00  0.00    -0.550 OA
ENDBRANCH   1  30
BRANCH  27  33
ATOM     33  O   UNL     1      -2.450  -6.781   3.738  1.00  0.00    -0.393 OA
ATOM     34  H   UNL     1      -2.492  -6.159   4.509  1.00  0.00     0.210 HD
ENDBRANCH  27  33
TORSDOF 2
ENDMDL
MODEL 8
REMARK VINA RESULT:    -4.675     12.196     15.071
REMARK INTER + INTRA:          -5.347
REMARK INTER:                  -5.059
REMARK INTRA:                  -0.289
REMARK UNBOUND:                -0.262
REMARK SMILES C[C@H]1[C@H](C)CC[C@]2(C(=O)[O-])CC[C@]3(C)C(=CC[C@H]4[C@@]5(C)CC[C@@H](O)C(C)(C)[C@@H]5CC[C@@]43C)[C@H]12
REMARK SMILES IDX 7 1 6 2 11 3 33 4 5 5 12 6 15 7 2 8 3 9 13 10 16 11 1 12
REMARK SMILES IDX 4 13 14 14 31 15 17 16 18 17 30 18 32 19 19 20 29 21 28 22
REMARK SMILES IDX 21 23 20 24 25 25 22 26 23 27 26 28 27 29 8 30 9 31 10 32
REMARK SMILES IDX 24 33
REMARK H PARENT 24 34
REMARK Flexibility Score: inf
ROOT
ATOM      1  C   UNL     1       2.462  -9.857  -0.776  1.00  0.00     0.017 C 
ATOM      2  C   UNL     1       3.040 -10.553  -2.042  1.00  0.00     0.014 C 
ATOM      3  C   UNL     1       1.374 -10.797  -0.143  1.00  0.00     0.014 C 
ATOM      4  C   UNL     1       1.880  -8.423  -1.149  1.00  0.00     0.030 C 
ATOM      5  C   UNL     1       3.881  -9.581  -2.872  1.00  0.00     0.004 C 
ATOM      6  C   UNL     1      -0.054 -10.527  -0.638  1.00  0.00     0.013 C 
ATOM      7  C   UNL     1       0.637  -8.119  -0.291  1.00  0.00    -0.063 C 
ATOM      8  C   UNL     1       1.693  -8.188  -2.683  1.00  0.00    -0.003 C 
ATOM      9  C   UNL     1       3.023  -8.437  -3.472  1.00  0.00    -0.011 C 
ATOM     10  C   UNL     1      -0.604  -9.067  -0.365  1.00  0.00    -0.006 C 
ATOM     11  C   UNL     1       0.852  -7.283   0.765  1.00  0.00    -0.027 C 
ATOM     12  C   UNL     1       1.181  -6.756  -2.957  1.00  0.00     0.008 C 
ATOM     13  C   UNL     1       2.739  -8.723  -4.959  1.00  0.00     0.008 C 
ATOM     14  C   UNL     1      -1.476  -8.716  -1.624  1.00  0.00     0.017 C 
ATOM     15  C   UNL     1      -1.534  -8.892   0.967  1.00  0.00    -0.020 C 
ATOM     16  C   UNL     1       0.135  -7.371   2.092  1.00  0.00     0.032 C 
ATOM     17  C   UNL     1      -0.609  -8.716   2.223  1.00  0.00     0.006 C 
ATOM     18  C   UNL     1      -2.452 -10.118   1.235  1.00  0.00     0.008 C 
ATOM     19  C   UNL     1      -2.448  -7.619   0.773  1.00  0.00     0.012 C 
ATOM     20  C   UNL     1      -1.211  -9.118   3.669  1.00  0.00    -0.025 C 
ATOM     21  C   UNL     1      -3.390  -9.950   2.447  1.00  0.00     0.005 C 
ATOM     22  C   UNL     1      -2.784  -9.152   3.642  1.00  0.00     0.003 C 
ATOM     23  C   UNL     1      -0.782  -8.096   4.771  1.00  0.00     0.010 C 
ATOM     24  C   UNL     1      -0.620 -10.513   4.056  1.00  0.00     0.012 C 
ATOM     25  C   UNL     1      -3.515  -9.392   5.026  1.00  0.00    -0.006 C 
ATOM     26  C   UNL     1      -1.441  -8.324   6.145  1.00  0.00     0.033 C 
ATOM     27  C   UNL     1      -2.980  -8.352   6.072  1.00  0.00     0.120 C 
ATOM     28  C   UNL     1      -3.355 -10.837   5.592  1.00  0.00     0.014 C 
ATOM     29  C   UNL     1      -5.041  -9.156   4.840  1.00  0.00     0.014 C 
ENDROOT
BRANCH   1  30
ATOM     30  C   UNL     1       3.602  -9.749   0.245  1.00  0.00     0.048 C 
ATOM     31  O   UNL     1       4.099  -8.620   0.511  1.00  0.00    -0.550 OA
ATOM     32  O   UNL     1       4.075 -10.857   0.942  1.00  0.00    -0.550 OA
ENDBRANCH   1  30
BRANCH  27  33
ATOM     33  O   UNL     1      -3.421  -7.049   5.765  1.00  0.00    -0.393 OA
ATOM     34  H   UNL     1      -4.096  -6.796   6.446  1.00  0.00     0.210 HD
ENDBRANCH  27  33
TORSDOF 2
ENDMDL
MODEL 9
REMARK VINA RESULT:    -4.547     13.795     17.037
REMARK INTER + INTRA:          -5.207
REMARK INTER:                  -4.912
REMARK INTRA:                  -0.295
REMARK UNBOUND:                -0.262
REMARK SMILES C[C@H]1[C@H](C)CC[C@]2(C(=O)[O-])CC[C@]3(C)C(=CC[C@H]4[C@@]5(C)CC[C@@H](O)C(C)(C)[C@@H]5CC[C@@]43C)[C@H]12
REMARK SMILES IDX 7 1 6 2 11 3 33 4 5 5 12 6 15 7 2 8 3 9 13 10 16 11 1 12
REMARK SMILES IDX 4 13 14 14 31 15 17 16 18 17 30 18 32 19 19 20 29 21 28 22
REMARK SMILES IDX 21 23 20 24 25 25 22 26 23 27 26 28 27 29 8 30 9 31 10 32
REMARK SMILES IDX 24 33
REMARK H PARENT 24 34
REMARK Flexibility Score: inf
ROOT
ATOM      1  C   UNL     1      -1.164   1.903   5.715  1.00  0.00     0.017 C 
ATOM      2  C   UNL     1      -2.311   2.954   5.734  1.00  0.00     0.014 C 
ATOM      3  C   UNL     1      -1.794   0.481   5.495  1.00  0.00     0.014 C 
ATOM      4  C   UNL     1      -0.313   1.987   7.059  1.00  0.00     0.030 C 
ATOM      5  C   UNL     1      -1.810   4.309   6.236  1.00  0.00     0.004 C 
ATOM      6  C   UNL     1      -2.121  -0.268   6.796  1.00  0.00     0.013 C 
ATOM      7  C   UNL     1       0.163   0.581   7.471  1.00  0.00    -0.063 C 
ATOM      8  C   UNL     1      -0.998   2.809   8.198  1.00  0.00    -0.003 C 
ATOM      9  C   UNL     1      -1.374   4.254   7.722  1.00  0.00    -0.011 C 
ATOM     10  C   UNL     1      -0.890  -0.539   7.754  1.00  0.00    -0.006 C 
ATOM     11  C   UNL     1       1.463   0.298   7.170  1.00  0.00    -0.027 C 
ATOM     12  C   UNL     1      -0.081   2.889   9.439  1.00  0.00     0.008 C 
ATOM     13  C   UNL     1      -2.475   4.860   8.613  1.00  0.00     0.008 C 
ATOM     14  C   UNL     1      -1.462  -0.385   9.209  1.00  0.00     0.017 C 
ATOM     15  C   UNL     1      -0.199  -2.014   7.629  1.00  0.00    -0.020 C 
ATOM     16  C   UNL     1       1.979  -1.067   6.779  1.00  0.00     0.032 C 
ATOM     17  C   UNL     1       0.811  -2.011   6.427  1.00  0.00     0.006 C 
ATOM     18  C   UNL     1      -1.229  -3.150   7.367  1.00  0.00     0.008 C 
ATOM     19  C   UNL     1       0.554  -2.328   8.981  1.00  0.00     0.012 C 
ATOM     20  C   UNL     1       1.159  -3.427   5.727  1.00  0.00    -0.025 C 
ATOM     21  C   UNL     1      -0.610  -4.561   7.314  1.00  0.00     0.005 C 
ATOM     22  C   UNL     1       0.811  -4.634   6.675  1.00  0.00     0.003 C 
ATOM     23  C   UNL     1       2.677  -3.531   5.371  1.00  0.00     0.010 C 
ATOM     24  C   UNL     1       0.349  -3.504   4.391  1.00  0.00     0.012 C 
ATOM     25  C   UNL     1       1.231  -6.076   6.177  1.00  0.00    -0.006 C 
ATOM     26  C   UNL     1       3.115  -4.910   4.841  1.00  0.00     0.033 C 
ATOM     27  C   UNL     1       2.754  -6.061   5.799  1.00  0.00     0.120 C 
ATOM     28  C   UNL     1       0.395  -6.604   4.970  1.00  0.00     0.014 C 
ATOM     29  C   UNL     1       1.025  -7.092   7.336  1.00  0.00     0.014 C 
ENDROOT
BRANCH   1  30
ATOM     30  C   UNL     1      -0.296   2.197   4.485  1.00  0.00     0.048 C 
ATOM     31  O   UNL     1      -0.780   2.058   3.329  1.00  0.00    -0.550 OA
ATOM     32  O   UNL     1       1.006   2.675   4.600  1.00  0.00    -0.550 OA
ENDBRANCH   1  30
BRANCH  27  33
ATOM     33  O   UNL     1       3.561  -5.936   6.948  1.00  0.00    -0.393 OA
ATOM     34  H   UNL     1       3.293  -5.099   7.409  1.00  0.00     0.210 HD
ENDBRANCH  27  33
TORSDOF 2
ENDMDL
