MODEL 1
REMARK VINA RESULT:    -4.969      0.000      0.000
REMARK INTER + INTRA:          -5.518
REMARK INTER:                  -5.259
REMARK INTRA:                  -0.258
REMARK UNBOUND:                -0.258
REMARK SMILES CC1=CC[C@@H](C(C)C)C=C1
REMARK SMILES IDX 1 1 2 2 3 3 4 4 5 5 9 6 10 7 6 8 7 9 8 10
REMARK H PARENT
REMARK Flexibility Score: inf
ROOT
ATOM      1  C   UNL     1     109.386 110.299 108.053  1.00  0.00     0.044 C 
ATOM      2  C   UNL     1     109.452 110.700 109.496  1.00  0.00    -0.055 C 
ATOM      3  C   UNL     1     109.344 109.774 110.464  1.00  0.00    -0.023 C 
ATOM      4  C   UNL     1     109.357 110.194 111.911  1.00  0.00     0.035 C 
ATOM      5  C   UNL     1     110.364 111.350 112.143  1.00  0.00     0.018 C 
ATOM      6  C   UNL     1     110.098 112.429 111.110  1.00  0.00    -0.023 C 
ATOM      7  C   UNL     1     109.731 112.109 109.861  1.00  0.00    -0.001 C 
ENDROOT
BRANCH   5   8
ATOM      8  C   UNL     1     111.856 110.890 112.087  1.00  0.00    -0.010 C 
ATOM      9  C   UNL     1     112.253 110.056 113.320  1.00  0.00     0.008 C 
ATOM     10  C   UNL     1     112.807 112.096 111.975  1.00  0.00     0.008 C 
ENDBRANCH   5   8
TORSDOF 1
ENDMDL
MODEL 2
REMARK VINA RESULT:    -4.951      1.818      3.400
REMARK INTER + INTRA:          -5.499
REMARK INTER:                  -5.245
REMARK INTRA:                  -0.254
REMARK UNBOUND:                -0.258
REMARK SMILES CC1=CC[C@@H](C(C)C)C=C1
REMARK SMILES IDX 1 1 2 2 3 3 4 4 5 5 9 6 10 7 6 8 7 9 8 10
REMARK H PARENT
REMARK Flexibility Score: inf
ROOT
ATOM      1  C   UNL     1     112.920 111.784 108.117  1.00  0.00     0.044 C 
ATOM      2  C   UNL     1     112.819 111.466 109.580  1.00  0.00    -0.055 C 
ATOM      3  C   UNL     1     112.913 112.445 110.495  1.00  0.00    -0.023 C 
ATOM      4  C   UNL     1     112.865 112.108 111.963  1.00  0.00     0.035 C 
ATOM      5  C   UNL     1     111.844 110.975 112.238  1.00  0.00     0.018 C 
ATOM      6  C   UNL     1     112.124 109.837 111.274  1.00  0.00    -0.023 C 
ATOM      7  C   UNL     1     112.521 110.083 110.018  1.00  0.00    -0.001 C 
ENDROOT
BRANCH   5   8
ATOM      8  C   UNL     1     110.357 111.440 112.122  1.00  0.00    -0.010 C 
ATOM      9  C   UNL     1     109.922 112.298 113.326  1.00  0.00     0.008 C 
ATOM     10  C   UNL     1     109.404 110.237 111.999  1.00  0.00     0.008 C 
ENDBRANCH   5   8
TORSDOF 1
ENDMDL
MODEL 3
REMARK VINA RESULT:    -4.944      3.734      4.909
REMARK INTER + INTRA:          -5.491
REMARK INTER:                  -5.237
REMARK INTRA:                  -0.254
REMARK UNBOUND:                -0.258
REMARK SMILES CC1=CC[C@@H](C(C)C)C=C1
REMARK SMILES IDX 1 1 2 2 3 3 4 4 5 5 9 6 10 7 6 8 7 9 8 10
REMARK H PARENT
REMARK Flexibility Score: inf
ROOT
ATOM      1  C   UNL     1     109.391 110.307 112.943  1.00  0.00     0.044 C 
ATOM      2  C   UNL     1     109.440 110.693 114.391  1.00  0.00    -0.055 C 
ATOM      3  C   UNL     1     109.308 109.760 115.348  1.00  0.00    -0.023 C 
ATOM      4  C   UNL     1     109.305 110.166 116.799  1.00  0.00     0.035 C 
ATOM      5  C   UNL     1     110.322 111.308 117.057  1.00  0.00     0.018 C 
ATOM      6  C   UNL     1     110.082 112.399 116.030  1.00  0.00    -0.023 C 
ATOM      7  C   UNL     1     109.730 112.095 114.773  1.00  0.00    -0.001 C 
ENDROOT
BRANCH   5   8
ATOM      8  C   UNL     1     111.809 110.831 117.017  1.00  0.00    -0.010 C 
ATOM      9  C   UNL     1     112.194 110.027 118.273  1.00  0.00     0.008 C 
ATOM     10  C   UNL     1     112.773 112.024 116.877  1.00  0.00     0.008 C 
ENDBRANCH   5   8
TORSDOF 1
ENDMDL
MODEL 4
REMARK VINA RESULT:    -4.937      3.857      6.018
REMARK INTER + INTRA:          -5.485
REMARK INTER:                  -5.235
REMARK INTRA:                  -0.250
REMARK UNBOUND:                -0.258
REMARK SMILES CC1=CC[C@@H](C(C)C)C=C1
REMARK SMILES IDX 1 1 2 2 3 3 4 4 5 5 9 6 10 7 6 8 7 9 8 10
REMARK H PARENT
REMARK Flexibility Score: inf
ROOT
ATOM      1  C   UNL     1     112.885 111.757 113.009  1.00  0.00     0.044 C 
ATOM      2  C   UNL     1     112.797 111.448 114.474  1.00  0.00    -0.055 C 
ATOM      3  C   UNL     1     112.907 112.431 115.383  1.00  0.00    -0.023 C 
ATOM      4  C   UNL     1     112.871 112.103 116.853  1.00  0.00     0.035 C 
ATOM      5  C   UNL     1     111.845 110.978 117.145  1.00  0.00     0.018 C 
ATOM      6  C   UNL     1     112.108 109.833 116.184  1.00  0.00    -0.023 C 
ATOM      7  C   UNL     1     112.493 110.069 114.922  1.00  0.00    -0.001 C 
ENDROOT
BRANCH   5   8
ATOM      8  C   UNL     1     110.361 111.454 117.041  1.00  0.00    -0.010 C 
ATOM      9  C   UNL     1     109.932 112.286 118.264  1.00  0.00     0.008 C 
ATOM     10  C   UNL     1     109.401 110.258 116.893  1.00  0.00     0.008 C 
ENDBRANCH   5   8
TORSDOF 1
ENDMDL
MODEL 5
REMARK VINA RESULT:    -4.852      1.685      3.401
REMARK INTER + INTRA:          -5.394
REMARK INTER:                  -5.273
REMARK INTRA:                  -0.120
REMARK UNBOUND:                -0.258
REMARK SMILES CC1=CC[C@@H](C(C)C)C=C1
REMARK SMILES IDX 1 1 2 2 3 3 4 4 5 5 9 6 10 7 6 8 7 9 8 10
REMARK H PARENT
REMARK Flexibility Score: inf
ROOT
ATOM      1  C   UNL     1     109.404 112.609 113.102  1.00  0.00     0.044 C 
ATOM      2  C   UNL     1     109.492 111.880 111.794  1.00  0.00    -0.055 C 
ATOM      3  C   UNL     1     109.902 112.519 110.687  1.00  0.00    -0.023 C 
ATOM      4  C   UNL     1     109.935 111.792 109.367  1.00  0.00     0.035 C 
ATOM      5  C   UNL     1     110.401 110.325 109.554  1.00  0.00     0.018 C 
ATOM      6  C   UNL     1     109.581 109.703 110.670  1.00  0.00    -0.023 C 
ATOM      7  C   UNL     1     109.215 110.425 111.738  1.00  0.00    -0.001 C 
ENDROOT
BRANCH   5   8
ATOM      8  C   UNL     1     111.928 110.197 109.856  1.00  0.00    -0.010 C 
ATOM      9  C   UNL     1     112.747 109.893 108.587  1.00  0.00     0.008 C 
ATOM     10  C   UNL     1     112.199 109.095 110.898  1.00  0.00     0.008 C 
ENDBRANCH   5   8
TORSDOF 1
ENDMDL
MODEL 6
REMARK VINA RESULT:    -4.844      3.826      5.952
REMARK INTER + INTRA:          -5.385
REMARK INTER:                  -5.126
REMARK INTRA:                  -0.259
REMARK UNBOUND:                -0.258
REMARK SMILES CC1=CC[C@@H](C(C)C)C=C1
REMARK SMILES IDX 1 1 2 2 3 3 4 4 5 5 9 6 10 7 6 8 7 9 8 10
REMARK H PARENT
REMARK Flexibility Score: inf
ROOT
ATOM      1  C   UNL     1     112.917 111.933 103.196  1.00  0.00     0.044 C 
ATOM      2  C   UNL     1     112.815 111.566 104.646  1.00  0.00    -0.055 C 
ATOM      3  C   UNL     1     112.848 112.520 105.591  1.00  0.00    -0.023 C 
ATOM      4  C   UNL     1     112.800 112.136 107.048  1.00  0.00     0.035 C 
ATOM      5  C   UNL     1     111.835 110.944 107.276  1.00  0.00     0.018 C 
ATOM      6  C   UNL     1     112.185 109.852 106.282  1.00  0.00    -0.023 C 
ATOM      7  C   UNL     1     112.584 110.156 105.039  1.00  0.00    -0.001 C 
ENDROOT
BRANCH   5   8
ATOM      8  C   UNL     1     110.328 111.337 107.153  1.00  0.00    -0.010 C 
ATOM      9  C   UNL     1     109.855 112.195 108.342  1.00  0.00     0.008 C 
ATOM     10  C   UNL     1     109.433 110.088 107.055  1.00  0.00     0.008 C 
ENDBRANCH   5   8
TORSDOF 1
ENDMDL
MODEL 7
REMARK VINA RESULT:    -4.816      3.489      6.153
REMARK INTER + INTRA:          -5.356
REMARK INTER:                  -5.140
REMARK INTRA:                  -0.216
REMARK UNBOUND:                -0.258
REMARK SMILES CC1=CC[C@@H](C(C)C)C=C1
REMARK SMILES IDX 1 1 2 2 3 3 4 4 5 5 9 6 10 7 6 8 7 9 8 10
REMARK H PARENT
REMARK Flexibility Score: inf
ROOT
ATOM      1  C   UNL     1     112.902 109.587 118.234  1.00  0.00     0.044 C 
ATOM      2  C   UNL     1     112.755 110.276 116.909  1.00  0.00    -0.055 C 
ATOM      3  C   UNL     1     112.284 109.607 115.844  1.00  0.00    -0.023 C 
ATOM      4  C   UNL     1     112.191 110.293 114.506  1.00  0.00     0.035 C 
ATOM      5  C   UNL     1     111.748 111.770 114.670  1.00  0.00     0.018 C 
ATOM      6  C   UNL     1     112.628 112.417 115.722  1.00  0.00    -0.023 C 
ATOM      7  C   UNL     1     113.041 111.725 116.793  1.00  0.00    -0.001 C 
ENDROOT
BRANCH   5   8
ATOM      8  C   UNL     1     110.239 111.923 115.044  1.00  0.00    -0.010 C 
ATOM      9  C   UNL     1     109.326 111.867 113.804  1.00  0.00     0.008 C 
ATOM     10  C   UNL     1     109.982 113.245 115.791  1.00  0.00     0.008 C 
ENDBRANCH   5   8
TORSDOF 1
ENDMDL
MODEL 8
REMARK VINA RESULT:    -4.809      1.547      4.019
REMARK INTER + INTRA:          -5.349
REMARK INTER:                  -5.146
REMARK INTRA:                  -0.202
REMARK UNBOUND:                -0.258
REMARK SMILES CC1=CC[C@@H](C(C)C)C=C1
REMARK SMILES IDX 1 1 2 2 3 3 4 4 5 5 9 6 10 7 6 8 7 9 8 10
REMARK H PARENT
REMARK Flexibility Score: inf
ROOT
ATOM      1  C   UNL     1     112.846 109.856 113.584  1.00  0.00     0.044 C 
ATOM      2  C   UNL     1     112.737 110.434 112.204  1.00  0.00    -0.055 C 
ATOM      3  C   UNL     1     112.306 109.675 111.183  1.00  0.00    -0.023 C 
ATOM      4  C   UNL     1     112.252 110.250 109.791  1.00  0.00     0.035 C 
ATOM      5  C   UNL     1     111.791 111.730 109.820  1.00  0.00     0.018 C 
ATOM      6  C   UNL     1     112.631 112.471 110.844  1.00  0.00    -0.023 C 
ATOM      7  C   UNL     1     113.015 111.872 111.980  1.00  0.00    -0.001 C 
ENDROOT
BRANCH   5   8
ATOM      8  C   UNL     1     110.269 111.897 110.132  1.00  0.00    -0.010 C 
ATOM      9  C   UNL     1     109.402 111.788 108.863  1.00  0.00     0.008 C 
ATOM     10  C   UNL     1     109.985 113.248 110.813  1.00  0.00     0.008 C 
ENDBRANCH   5   8
TORSDOF 1
ENDMDL
MODEL 9
REMARK VINA RESULT:    -4.805      4.139      5.068
REMARK INTER + INTRA:          -5.345
REMARK INTER:                  -5.090
REMARK INTRA:                  -0.254
REMARK UNBOUND:                -0.258
REMARK SMILES CC1=CC[C@@H](C(C)C)C=C1
REMARK SMILES IDX 1 1 2 2 3 3 4 4 5 5 9 6 10 7 6 8 7 9 8 10
REMARK H PARENT
REMARK Flexibility Score: inf
ROOT
ATOM      1  C   UNL     1     109.124 110.854 103.082  1.00  0.00     0.044 C 
ATOM      2  C   UNL     1     109.369 110.983 104.556  1.00  0.00    -0.055 C 
ATOM      3  C   UNL     1     109.396 109.890 105.337  1.00  0.00    -0.023 C 
ATOM      4  C   UNL     1     109.589 110.035 106.825  1.00  0.00     0.035 C 
ATOM      5  C   UNL     1     110.603 111.163 107.145  1.00  0.00     0.018 C 
ATOM      6  C   UNL     1     110.194 112.404 106.374  1.00  0.00    -0.023 C 
ATOM      7  C   UNL     1     109.675 112.308 105.143  1.00  0.00    -0.001 C 
ENDROOT
BRANCH   5   8
ATOM      8  C   UNL     1     112.081 110.775 106.820  1.00  0.00    -0.010 C 
ATOM      9  C   UNL     1     112.661 109.786 107.849  1.00  0.00     0.008 C 
ATOM     10  C   UNL     1     112.985 112.021 106.765  1.00  0.00     0.008 C 
ENDBRANCH   5   8
TORSDOF 1
ENDMDL
