MODEL 1
REMARK VINA RESULT:    -0.218      0.000      0.000
REMARK INTER + INTRA:           0.439
REMARK INTER:                  -0.237
REMARK INTRA:                   0.676
REMARK UNBOUND:                 0.676
REMARK SMILES C[C@H]1[C@H]2C3=CC[C@@H]4[C@@]5(C)CC[C@H](O)C(C)(C)[C@H]5CC[C@@]4(C)[C@]3(C)CC[C@]2(C(=O)[O-])CC[C@@H]1C
REMARK SMILES IDX 26 1 30 2 25 3 3 4 31 5 24 6 4 7 2 8 32 9 22 10 5 11 1 12
REMARK SMILES IDX 33 13 23 14 20 15 6 16 7 17 19 18 21 19 8 20 18 21 17 22
REMARK SMILES IDX 10 23 9 24 14 25 11 26 12 27 15 28 16 29 27 30 28 31 29 32
REMARK SMILES IDX 13 33
REMARK H PARENT 13 34
REMARK Flexibility Score: inf
ROOT
ATOM      1  C   UNL     1      45.223  29.064  -4.869  1.00  0.00     0.017 C 
ATOM      2  C   UNL     1      44.571  29.916  -5.999  1.00  0.00     0.014 C 
ATOM      3  C   UNL     1      46.388  29.904  -4.233  1.00  0.00     0.014 C 
ATOM      4  C   UNL     1      44.104  28.736  -3.815  1.00  0.00     0.030 C 
ATOM      5  C   UNL     1      43.359  29.234  -6.652  1.00  0.00     0.004 C 
ATOM      6  C   UNL     1      46.280  30.125  -2.712  1.00  0.00     0.013 C 
ATOM      7  C   UNL     1      44.682  28.155  -2.510  1.00  0.00    -0.063 C 
ATOM      8  C   UNL     1      42.836  28.041  -4.435  1.00  0.00    -0.003 C 
ATOM      9  C   UNL     1      42.264  28.856  -5.632  1.00  0.00    -0.011 C 
ATOM     10  C   UNL     1      45.917  28.838  -1.895  1.00  0.00    -0.006 C 
ATOM     11  C   UNL     1      43.984  27.275  -1.747  1.00  0.00    -0.027 C 
ATOM     12  C   UNL     1      43.026  26.563  -4.846  1.00  0.00     0.008 C 
ATOM     13  C   UNL     1      41.471  30.094  -5.169  1.00  0.00     0.008 C 
ATOM     14  C   UNL     1      47.118  27.842  -2.013  1.00  0.00     0.017 C 
ATOM     15  C   UNL     1      45.572  29.199  -0.364  1.00  0.00    -0.020 C 
ATOM     16  C   UNL     1      44.430  26.821  -0.377  1.00  0.00     0.032 C 
ATOM     17  C   UNL     1      45.307  27.855   0.405  1.00  0.00     0.006 C 
ATOM     18  C   UNL     1      46.753  29.964   0.346  1.00  0.00     0.008 C 
ATOM     19  C   UNL     1      44.298  30.114  -0.298  1.00  0.00     0.012 C 
ATOM     20  C   UNL     1      44.984  27.991   1.963  1.00  0.00    -0.025 C 
ATOM     21  C   UNL     1      47.089  29.479   1.778  1.00  0.00     0.005 C 
ATOM     22  C   UNL     1      45.806  29.202   2.609  1.00  0.00     0.003 C 
ATOM     23  C   UNL     1      45.416  26.624   2.599  1.00  0.00     0.010 C 
ATOM     24  C   UNL     1      43.447  28.213   2.190  1.00  0.00     0.012 C 
ATOM     25  C   UNL     1      46.035  29.110   4.188  1.00  0.00    -0.006 C 
ATOM     26  C   UNL     1      45.491  26.615   4.119  1.00  0.00     0.033 C 
ATOM     27  C   UNL     1      46.473  27.678   4.609  1.00  0.00     0.120 C 
ATOM     28  C   UNL     1      44.742  29.523   4.952  1.00  0.00     0.014 C 
ATOM     29  C   UNL     1      47.125  30.112   4.662  1.00  0.00     0.014 C 
ENDROOT
BRANCH   1  30
ATOM     30  C   UNL     1      45.844  27.802  -5.463  1.00  0.00     0.048 C 
ATOM     31  O   UNL     1      46.158  26.836  -4.718  1.00  0.00    -0.550 OA
ATOM     32  O   UNL     1      45.980  27.647  -6.836  1.00  0.00    -0.550 OA
ENDBRANCH   1  30
BRANCH  27  33
ATOM     33  O   UNL     1      46.578  27.570   6.010  1.00  0.00    -0.393 OA
ATOM     34  H   UNL     1      47.545  27.522   6.230  1.00  0.00     0.210 HD
ENDBRANCH  27  33
TORSDOF 2
ENDMDL
