MODEL 1
REMARK VINA RESULT:    -4.244      0.000      0.000
REMARK INTER + INTRA:         -11.102
REMARK INTER:                  -7.966
REMARK INTRA:                  -3.136
REMARK UNBOUND:                -3.136
REMARK SMILES CCCCCCCCC=CCCCCCCCC(=O)[O-]
REMARK SMILES IDX 10 1 9 2 11 3 12 4 13 5 14 6 15 7 16 8 17 9 18 10 19 11
REMARK SMILES IDX 20 12 8 13 7 14 6 15 5 16 4 17 3 18 2 19 1 20
REMARK H PARENT
REMARK Flexibility Score: inf
ROOT
ATOM      1  C   UNL     1     139.750 140.573 142.649  1.00  0.00    -0.031 C 
ATOM      2  C   UNL     1     140.438 141.517 143.310  1.00  0.00    -0.031 C 
ENDROOT
BRANCH   1   3
ATOM      3  C   UNL     1     140.167 139.128 142.679  1.00  0.00     0.027 C 
BRANCH   3   4
ATOM      4  C   UNL     1     139.791 138.470 144.015  1.00  0.00     0.004 C 
BRANCH   4   5
ATOM      5  C   UNL     1     138.336 138.752 144.432  1.00  0.00     0.000 C 
BRANCH   5   6
ATOM      6  C   UNL     1     138.126 138.976 145.940  1.00  0.00     0.000 C 
BRANCH   6   7
ATOM      7  C   UNL     1     138.819 140.249 146.456  1.00  0.00     0.000 C 
BRANCH   7   8
ATOM      8  C   UNL     1     140.031 139.953 147.358  1.00  0.00     0.006 C 
BRANCH   8   9
ATOM      9  C   UNL     1     141.377 140.385 146.752  1.00  0.00     0.053 C 
BRANCH   9  10
ATOM     10  C   UNL     1     141.673 141.835 146.981  1.00  0.00     0.041 C 
ATOM     11  O   UNL     1     142.368 142.478 146.150  1.00  0.00    -0.550 OA
ATOM     12  O   UNL     1     141.158 142.486 148.095  1.00  0.00    -0.550 OA
ENDBRANCH   9  10
ENDBRANCH   8   9
ENDBRANCH   7   8
ENDBRANCH   6   7
ENDBRANCH   5   6
ENDBRANCH   4   5
ENDBRANCH   3   4
ENDBRANCH   1   3
BRANCH   2  13
ATOM     13  C   UNL     1     140.018 142.960 143.282  1.00  0.00     0.027 C 
BRANCH  13  14
ATOM     14  C   UNL     1     138.935 143.241 144.335  1.00  0.00     0.004 C 
BRANCH  14  15
ATOM     15  C   UNL     1     137.520 143.286 143.735  1.00  0.00     0.000 C 
BRANCH  15  16
ATOM     16  C   UNL     1     136.580 142.245 144.367  1.00  0.00     0.000 C 
BRANCH  16  17
ATOM     17  C   UNL     1     135.998 141.259 143.337  1.00  0.00    -0.000 C 
BRANCH  17  18
ATOM     18  C   UNL     1     136.575 141.382 141.916  1.00  0.00    -0.000 C 
BRANCH  18  19
ATOM     19  C   UNL     1     136.224 140.185 141.020  1.00  0.00    -0.003 C 
ATOM     20  C   UNL     1     135.709 139.011 141.847  1.00  0.00     0.004 C 
ENDBRANCH  18  19
ENDBRANCH  17  18
ENDBRANCH  16  17
ENDBRANCH  15  16
ENDBRANCH  14  15
ENDBRANCH  13  14
ENDBRANCH   2  13
TORSDOF 15
ENDMDL
MODEL 2
REMARK VINA RESULT:    -4.184      2.832      5.888
REMARK INTER + INTRA:         -10.988
REMARK INTER:                  -7.908
REMARK INTRA:                  -3.080
REMARK UNBOUND:                -3.136
REMARK SMILES CCCCCCCCC=CCCCCCCCC(=O)[O-]
REMARK SMILES IDX 10 1 9 2 11 3 12 4 13 5 14 6 15 7 16 8 17 9 18 10 19 11
REMARK SMILES IDX 20 12 8 13 7 14 6 15 5 16 4 17 3 18 2 19 1 20
REMARK H PARENT
REMARK Flexibility Score: inf
ROOT
ATOM      1  C   UNL     1     140.220 141.300 143.195  1.00  0.00    -0.031 C 
ATOM      2  C   UNL     1     139.434 140.279 142.821  1.00  0.00    -0.031 C 
ENDROOT
BRANCH   1   3
ATOM      3  C   UNL     1     139.971 142.704 142.714  1.00  0.00     0.027 C 
BRANCH   3   4
ATOM      4  C   UNL     1     138.468 142.975 142.549  1.00  0.00     0.004 C 
BRANCH   4   5
ATOM      5  C   UNL     1     137.808 143.486 143.843  1.00  0.00     0.000 C 
BRANCH   5   6
ATOM      6  C   UNL     1     136.450 142.841 144.174  1.00  0.00     0.000 C 
BRANCH   6   7
ATOM      7  C   UNL     1     136.589 141.488 144.892  1.00  0.00     0.000 C 
BRANCH   7   8
ATOM      8  C   UNL     1     135.799 140.358 144.207  1.00  0.00     0.006 C 
BRANCH   8   9
ATOM      9  C   UNL     1     135.253 140.733 142.819  1.00  0.00     0.053 C 
BRANCH   9  10
ATOM     10  C   UNL     1     135.943 139.998 141.711  1.00  0.00     0.041 C 
ATOM     11  O   UNL     1     136.302 138.802 141.872  1.00  0.00    -0.550 OA
ATOM     12  O   UNL     1     136.163 140.622 140.489  1.00  0.00    -0.550 OA
ENDBRANCH   9  10
ENDBRANCH   8   9
ENDBRANCH   7   8
ENDBRANCH   6   7
ENDBRANCH   5   6
ENDBRANCH   4   5
ENDBRANCH   3   4
ENDBRANCH   1   3
BRANCH   2  13
ATOM     13  C   UNL     1     139.681 138.878 143.306  1.00  0.00     0.027 C 
BRANCH  13  14
ATOM     14  C   UNL     1     138.823 138.560 144.540  1.00  0.00     0.004 C 
BRANCH  14  15
ATOM     15  C   UNL     1     139.605 137.808 145.629  1.00  0.00     0.000 C 
BRANCH  15  16
ATOM     16  C   UNL     1     140.011 138.721 146.799  1.00  0.00     0.000 C 
BRANCH  16  17
ATOM     17  C   UNL     1     139.172 140.010 146.872  1.00  0.00    -0.000 C 
BRANCH  17  18
ATOM     18  C   UNL     1     139.983 141.317 146.898  1.00  0.00    -0.000 C 
BRANCH  18  19
ATOM     19  C   UNL     1     141.490 141.092 146.699  1.00  0.00    -0.003 C 
ATOM     20  C   UNL     1     142.168 142.347 146.160  1.00  0.00     0.004 C 
ENDBRANCH  18  19
ENDBRANCH  17  18
ENDBRANCH  16  17
ENDBRANCH  15  16
ENDBRANCH  14  15
ENDBRANCH  13  14
ENDBRANCH   2  13
TORSDOF 15
ENDMDL
MODEL 3
REMARK VINA RESULT:    -4.170      1.553      2.744
REMARK INTER + INTRA:         -10.963
REMARK INTER:                  -7.674
REMARK INTRA:                  -3.289
REMARK UNBOUND:                -3.136
REMARK SMILES CCCCCCCCC=CCCCCCCCC(=O)[O-]
REMARK SMILES IDX 10 1 9 2 11 3 12 4 13 5 14 6 15 7 16 8 17 9 18 10 19 11
REMARK SMILES IDX 20 12 8 13 7 14 6 15 5 16 4 17 3 18 2 19 1 20
REMARK H PARENT
REMARK Flexibility Score: inf
ROOT
ATOM      1  C   UNL     1     136.523 140.774 145.997  1.00  0.00    -0.031 C 
ATOM      2  C   UNL     1     137.081 141.504 145.019  1.00  0.00    -0.031 C 
ENDROOT
BRANCH   1   3
ATOM      3  C   UNL     1     136.852 139.317 146.177  1.00  0.00     0.027 C 
BRANCH   3   4
ATOM      4  C   UNL     1     137.478 138.728 144.904  1.00  0.00     0.004 C 
BRANCH   4   5
ATOM      5  C   UNL     1     138.924 138.243 145.118  1.00  0.00     0.000 C 
BRANCH   5   6
ATOM      6  C   UNL     1     139.840 138.377 143.889  1.00  0.00     0.000 C 
BRANCH   6   7
ATOM      7  C   UNL     1     140.516 139.756 143.795  1.00  0.00     0.000 C 
BRANCH   7   8
ATOM      8  C   UNL     1     141.110 140.230 145.133  1.00  0.00     0.006 C 
BRANCH   8   9
ATOM      9  C   UNL     1     141.281 141.756 145.233  1.00  0.00     0.053 C 
BRANCH   9  10
ATOM     10  C   UNL     1     140.365 142.372 146.246  1.00  0.00     0.041 C 
ATOM     11  O   UNL     1     140.049 143.587 146.157  1.00  0.00    -0.550 OA
ATOM     12  O   UNL     1     139.835 141.598 147.271  1.00  0.00    -0.550 OA
ENDBRANCH   9  10
ENDBRANCH   8   9
ENDBRANCH   7   8
ENDBRANCH   6   7
ENDBRANCH   5   6
ENDBRANCH   4   5
ENDBRANCH   3   4
ENDBRANCH   1   3
BRANCH   2  13
ATOM     13  C   UNL     1     136.755 142.961 144.842  1.00  0.00     0.027 C 
BRANCH  13  14
ATOM     14  C   UNL     1     137.243 143.474 143.478  1.00  0.00     0.004 C 
BRANCH  14  15
ATOM     15  C   UNL     1     138.474 142.711 142.963  1.00  0.00     0.000 C 
BRANCH  15  16
ATOM     16  C   UNL     1     138.242 142.088 141.576  1.00  0.00     0.000 C 
BRANCH  16  17
ATOM     17  C   UNL     1     137.599 140.690 141.646  1.00  0.00    -0.000 C 
BRANCH  17  18
ATOM     18  C   UNL     1     136.109 140.636 141.268  1.00  0.00    -0.000 C 
BRANCH  18  19
ATOM     19  C   UNL     1     135.307 139.650 142.130  1.00  0.00    -0.003 C 
ATOM     20  C   UNL     1     134.258 140.376 142.967  1.00  0.00     0.004 C 
ENDBRANCH  18  19
ENDBRANCH  17  18
ENDBRANCH  16  17
ENDBRANCH  15  16
ENDBRANCH  14  15
ENDBRANCH  13  14
ENDBRANCH   2  13
TORSDOF 15
ENDMDL
MODEL 4
REMARK VINA RESULT:    -4.163      2.750      4.694
REMARK INTER + INTRA:         -10.949
REMARK INTER:                  -7.998
REMARK INTRA:                  -2.951
REMARK UNBOUND:                -3.136
REMARK SMILES CCCCCCCCC=CCCCCCCCC(=O)[O-]
REMARK SMILES IDX 10 1 9 2 11 3 12 4 13 5 14 6 15 7 16 8 17 9 18 10 19 11
REMARK SMILES IDX 20 12 8 13 7 14 6 15 5 16 4 17 3 18 2 19 1 20
REMARK H PARENT
REMARK Flexibility Score: inf
ROOT
ATOM      1  C   UNL     1     137.514 142.450 141.848  1.00  0.00    -0.031 C 
ATOM      2  C   UNL     1     137.537 141.292 141.171  1.00  0.00    -0.031 C 
ENDROOT
BRANCH   1   3
ATOM      3  C   UNL     1     138.778 143.101 142.339  1.00  0.00     0.027 C 
BRANCH   3   4
ATOM      4  C   UNL     1     138.662 143.489 143.821  1.00  0.00     0.004 C 
BRANCH   4   5
ATOM      5  C   UNL     1     137.202 143.604 144.297  1.00  0.00     0.000 C 
BRANCH   5   6
ATOM      6  C   UNL     1     137.017 143.591 145.825  1.00  0.00     0.000 C 
BRANCH   6   7
ATOM      7  C   UNL     1     138.201 142.944 146.565  1.00  0.00     0.000 C 
BRANCH   7   8
ATOM      8  C   UNL     1     137.761 142.006 147.704  1.00  0.00     0.006 C 
BRANCH   8   9
ATOM      9  C   UNL     1     136.275 141.612 147.646  1.00  0.00     0.053 C 
BRANCH   9  10
ATOM     10  C   UNL     1     135.511 142.071 148.850  1.00  0.00     0.041 C 
ATOM     11  O   UNL     1     135.460 143.296 149.138  1.00  0.00    -0.550 OA
ATOM     12  O   UNL     1     134.829 141.151 149.637  1.00  0.00    -0.550 OA
ENDBRANCH   9  10
ENDBRANCH   8   9
ENDBRANCH   7   8
ENDBRANCH   6   7
ENDBRANCH   5   6
ENDBRANCH   4   5
ENDBRANCH   3   4
ENDBRANCH   1   3
BRANCH   2  13
ATOM     13  C   UNL     1     136.273 140.644 140.678  1.00  0.00     0.027 C 
BRANCH  13  14
ATOM     14  C   UNL     1     135.756 139.604 141.684  1.00  0.00     0.004 C 
BRANCH  14  15
ATOM     15  C   UNL     1     134.963 140.239 142.838  1.00  0.00     0.000 C 
BRANCH  15  16
ATOM     16  C   UNL     1     135.750 140.244 144.160  1.00  0.00     0.000 C 
BRANCH  16  17
ATOM     17  C   UNL     1     136.919 139.241 144.165  1.00  0.00    -0.000 C 
BRANCH  17  18
ATOM     18  C   UNL     1     138.285 139.832 144.559  1.00  0.00    -0.000 C 
BRANCH  18  19
ATOM     19  C   UNL     1     139.464 138.929 144.167  1.00  0.00    -0.003 C 
ATOM     20  C   UNL     1     140.100 139.391 142.860  1.00  0.00     0.004 C 
ENDBRANCH  18  19
ENDBRANCH  17  18
ENDBRANCH  16  17
ENDBRANCH  15  16
ENDBRANCH  14  15
ENDBRANCH  13  14
ENDBRANCH   2  13
TORSDOF 15
ENDMDL
MODEL 5
REMARK VINA RESULT:    -4.122      3.070      6.302
REMARK INTER + INTRA:         -10.873
REMARK INTER:                  -7.763
REMARK INTRA:                  -3.110
REMARK UNBOUND:                -3.136
REMARK SMILES CCCCCCCCC=CCCCCCCCC(=O)[O-]
REMARK SMILES IDX 10 1 9 2 11 3 12 4 13 5 14 6 15 7 16 8 17 9 18 10 19 11
REMARK SMILES IDX 20 12 8 13 7 14 6 15 5 16 4 17 3 18 2 19 1 20
REMARK H PARENT
REMARK Flexibility Score: inf
ROOT
ATOM      1  C   UNL     1     137.246 141.663 146.318  1.00  0.00    -0.031 C 
ATOM      2  C   UNL     1     136.727 140.853 145.383  1.00  0.00    -0.031 C 
ENDROOT
BRANCH   1   3
ATOM      3  C   UNL     1     137.475 143.126 146.054  1.00  0.00     0.027 C 
BRANCH   3   4
ATOM      4  C   UNL     1     137.367 143.442 144.554  1.00  0.00     0.004 C 
BRANCH   4   5
ATOM      5  C   UNL     1     138.741 143.616 143.879  1.00  0.00     0.000 C 
BRANCH   5   6
ATOM      6  C   UNL     1     138.875 142.939 142.503  1.00  0.00     0.000 C 
BRANCH   6   7
ATOM      7  C   UNL     1     137.523 142.486 141.926  1.00  0.00     0.000 C 
BRANCH   7   8
ATOM      8  C   UNL     1     137.579 141.087 141.285  1.00  0.00     0.006 C 
BRANCH   8   9
ATOM      9  C   UNL     1     136.221 140.588 140.762  1.00  0.00     0.053 C 
BRANCH   9  10
ATOM     10  C   UNL     1     135.473 139.783 141.779  1.00  0.00     0.041 C 
ATOM     11  O   UNL     1     135.671 138.543 141.875  1.00  0.00    -0.550 OA
ATOM     12  O   UNL     1     134.579 140.404 142.643  1.00  0.00    -0.550 OA
ENDBRANCH   9  10
ENDBRANCH   8   9
ENDBRANCH   7   8
ENDBRANCH   6   7
ENDBRANCH   5   6
ENDBRANCH   4   5
ENDBRANCH   3   4
ENDBRANCH   1   3
BRANCH   2  13
ATOM     13  C   UNL     1     136.496 139.391 145.649  1.00  0.00     0.027 C 
BRANCH  13  14
ATOM     14  C   UNL     1     137.734 138.560 145.279  1.00  0.00     0.004 C 
BRANCH  14  15
ATOM     15  C   UNL     1     138.448 139.085 144.023  1.00  0.00     0.000 C 
BRANCH  15  16
ATOM     16  C   UNL     1     139.976 138.931 144.107  1.00  0.00     0.000 C 
BRANCH  16  17
ATOM     17  C   UNL     1     140.708 140.280 144.232  1.00  0.00    -0.000 C 
BRANCH  17  18
ATOM     18  C   UNL     1     140.828 140.829 145.665  1.00  0.00    -0.000 C 
BRANCH  18  19
ATOM     19  C   UNL     1     141.611 142.148 145.739  1.00  0.00    -0.003 C 
ATOM     20  C   UNL     1     141.054 143.060 146.827  1.00  0.00     0.004 C 
ENDBRANCH  18  19
ENDBRANCH  17  18
ENDBRANCH  16  17
ENDBRANCH  15  16
ENDBRANCH  14  15
ENDBRANCH  13  14
ENDBRANCH   2  13
TORSDOF 15
ENDMDL
MODEL 6
REMARK VINA RESULT:    -4.108      1.189      2.946
REMARK INTER + INTRA:         -10.846
REMARK INTER:                  -7.613
REMARK INTRA:                  -3.232
REMARK UNBOUND:                -3.136
REMARK SMILES CCCCCCCCC=CCCCCCCCC(=O)[O-]
REMARK SMILES IDX 10 1 9 2 11 3 12 4 13 5 14 6 15 7 16 8 17 9 18 10 19 11
REMARK SMILES IDX 20 12 8 13 7 14 6 15 5 16 4 17 3 18 2 19 1 20
REMARK H PARENT
REMARK Flexibility Score: inf
ROOT
ATOM      1  C   UNL     1     139.595 138.744 143.117  1.00  0.00    -0.031 C 
ATOM      2  C   UNL     1     139.774 138.763 144.446  1.00  0.00    -0.031 C 
ENDROOT
BRANCH   1   3
ATOM      3  C   UNL     1     140.389 139.636 142.202  1.00  0.00     0.027 C 
BRANCH   3   4
ATOM      4  C   UNL     1     139.665 140.970 141.963  1.00  0.00     0.004 C 
BRANCH   4   5
ATOM      5  C   UNL     1     140.351 142.157 142.665  1.00  0.00     0.000 C 
BRANCH   5   6
ATOM      6  C   UNL     1     139.483 142.878 143.711  1.00  0.00     0.000 C 
BRANCH   6   7
ATOM      7  C   UNL     1     139.981 142.665 145.150  1.00  0.00     0.000 C 
BRANCH   7   8
ATOM      8  C   UNL     1     141.367 141.997 145.217  1.00  0.00     0.006 C 
BRANCH   8   9
ATOM      9  C   UNL     1     141.644 141.270 146.544  1.00  0.00     0.053 C 
BRANCH   9  10
ATOM     10  C   UNL     1     142.686 141.957 147.371  1.00  0.00     0.041 C 
ATOM     11  O   UNL     1     143.893 141.941 147.010  1.00  0.00    -0.550 OA
ATOM     12  O   UNL     1     142.324 142.642 148.524  1.00  0.00    -0.550 OA
ENDBRANCH   9  10
ENDBRANCH   8   9
ENDBRANCH   7   8
ENDBRANCH   6   7
ENDBRANCH   5   6
ENDBRANCH   4   5
ENDBRANCH   3   4
ENDBRANCH   1   3
BRANCH   2  13
ATOM     13  C   UNL     1     138.982 137.869 145.360  1.00  0.00     0.027 C 
BRANCH  13  14
ATOM     14  C   UNL     1     137.609 138.482 145.678  1.00  0.00     0.004 C 
BRANCH  14  15
ATOM     15  C   UNL     1     137.710 139.924 146.203  1.00  0.00     0.000 C 
BRANCH  15  16
ATOM     16  C   UNL     1     136.660 140.854 145.572  1.00  0.00     0.000 C 
BRANCH  16  17
ATOM     17  C   UNL     1     136.041 140.275 144.286  1.00  0.00    -0.000 C 
BRANCH  17  18
ATOM     18  C   UNL     1     136.195 141.155 143.033  1.00  0.00    -0.000 C 
BRANCH  18  19
ATOM     19  C   UNL     1     136.006 140.375 141.725  1.00  0.00    -0.003 C 
ATOM     20  C   UNL     1     135.984 138.871 141.978  1.00  0.00     0.004 C 
ENDBRANCH  18  19
ENDBRANCH  17  18
ENDBRANCH  16  17
ENDBRANCH  15  16
ENDBRANCH  14  15
ENDBRANCH  13  14
ENDBRANCH   2  13
TORSDOF 15
ENDMDL
MODEL 7
REMARK VINA RESULT:    -4.100      1.766      2.062
REMARK INTER + INTRA:         -10.830
REMARK INTER:                  -8.392
REMARK INTRA:                  -2.438
REMARK UNBOUND:                -3.136
REMARK SMILES CCCCCCCCC=CCCCCCCCC(=O)[O-]
REMARK SMILES IDX 10 1 9 2 11 3 12 4 13 5 14 6 15 7 16 8 17 9 18 10 19 11
REMARK SMILES IDX 20 12 8 13 7 14 6 15 5 16 4 17 3 18 2 19 1 20
REMARK H PARENT
REMARK Flexibility Score: inf
ROOT
ATOM      1  C   UNL     1     139.473 140.844 142.327  1.00  0.00    -0.031 C 
ATOM      2  C   UNL     1     140.185 141.969 142.499  1.00  0.00    -0.031 C 
ENDROOT
BRANCH   1   3
ATOM      3  C   UNL     1     140.136 139.497 142.243  1.00  0.00     0.027 C 
BRANCH   3   4
ATOM      4  C   UNL     1     140.460 138.950 143.641  1.00  0.00     0.004 C 
BRANCH   4   5
ATOM      5  C   UNL     1     139.338 139.215 144.662  1.00  0.00     0.000 C 
BRANCH   5   6
ATOM      6  C   UNL     1     139.737 140.122 145.840  1.00  0.00     0.000 C 
BRANCH   6   7
ATOM      7  C   UNL     1     141.229 140.497 145.828  1.00  0.00     0.000 C 
BRANCH   7   8
ATOM      8  C   UNL     1     141.975 140.044 147.096  1.00  0.00     0.006 C 
BRANCH   8   9
ATOM      9  C   UNL     1     143.182 140.927 147.456  1.00  0.00     0.053 C 
BRANCH   9  10
ATOM     10  C   UNL     1     144.416 140.128 147.741  1.00  0.00     0.041 C 
ATOM     11  O   UNL     1     145.003 139.516 146.810  1.00  0.00    -0.550 OA
ATOM     12  O   UNL     1     144.937 140.081 149.029  1.00  0.00    -0.550 OA
ENDBRANCH   9  10
ENDBRANCH   8   9
ENDBRANCH   7   8
ENDBRANCH   6   7
ENDBRANCH   5   6
ENDBRANCH   4   5
ENDBRANCH   3   4
ENDBRANCH   1   3
BRANCH   2  13
ATOM     13  C   UNL     1     139.522 143.315 142.586  1.00  0.00     0.027 C 
BRANCH  13  14
ATOM     14  C   UNL     1     138.006 143.200 142.358  1.00  0.00     0.004 C 
BRANCH  14  15
ATOM     15  C   UNL     1     137.196 143.394 143.650  1.00  0.00     0.000 C 
BRANCH  15  16
ATOM     16  C   UNL     1     136.718 142.061 144.252  1.00  0.00     0.000 C 
BRANCH  16  17
ATOM     17  C   UNL     1     135.784 141.279 143.310  1.00  0.00    -0.000 C 
BRANCH  17  18
ATOM     18  C   UNL     1     136.046 139.765 143.238  1.00  0.00    -0.000 C 
BRANCH  18  19
ATOM     19  C   UNL     1     136.061 139.227 141.800  1.00  0.00    -0.003 C 
ATOM     20  C   UNL     1     136.146 140.364 140.786  1.00  0.00     0.004 C 
ENDBRANCH  18  19
ENDBRANCH  17  18
ENDBRANCH  16  17
ENDBRANCH  15  16
ENDBRANCH  14  15
ENDBRANCH  13  14
ENDBRANCH   2  13
TORSDOF 15
ENDMDL
MODEL 8
REMARK VINA RESULT:    -4.037      2.610      4.310
REMARK INTER + INTRA:         -10.713
REMARK INTER:                  -7.961
REMARK INTRA:                  -2.752
REMARK UNBOUND:                -3.136
REMARK SMILES CCCCCCCCC=CCCCCCCCC(=O)[O-]
REMARK SMILES IDX 10 1 9 2 11 3 12 4 13 5 14 6 15 7 16 8 17 9 18 10 19 11
REMARK SMILES IDX 20 12 8 13 7 14 6 15 5 16 4 17 3 18 2 19 1 20
REMARK H PARENT
REMARK Flexibility Score: inf
ROOT
ATOM      1  C   UNL     1     139.684 141.417 142.457  1.00  0.00    -0.031 C 
ATOM      2  C   UNL     1     140.087 140.680 143.503  1.00  0.00    -0.031 C 
ENDROOT
BRANCH   1   3
ATOM      3  C   UNL     1     139.394 142.887 142.593  1.00  0.00     0.027 C 
BRANCH   3   4
ATOM      4  C   UNL     1     137.893 143.172 142.444  1.00  0.00     0.004 C 
BRANCH   4   5
ATOM      5  C   UNL     1     137.147 143.175 143.791  1.00  0.00     0.000 C 
BRANCH   5   6
ATOM      6  C   UNL     1     137.968 143.697 144.984  1.00  0.00     0.000 C 
BRANCH   6   7
ATOM      7  C   UNL     1     138.000 142.713 146.165  1.00  0.00     0.000 C 
BRANCH   7   8
ATOM      8  C   UNL     1     136.597 142.304 146.648  1.00  0.00     0.006 C 
BRANCH   8   9
ATOM      9  C   UNL     1     135.955 143.311 147.618  1.00  0.00     0.053 C 
BRANCH   9  10
ATOM     10  C   UNL     1     135.741 142.738 148.985  1.00  0.00     0.041 C 
ATOM     11  O   UNL     1     136.048 143.406 150.007  1.00  0.00    -0.550 OA
ATOM     12  O   UNL     1     135.175 141.477 149.133  1.00  0.00    -0.550 OA
ENDBRANCH   9  10
ENDBRANCH   8   9
ENDBRANCH   7   8
ENDBRANCH   6   7
ENDBRANCH   5   6
ENDBRANCH   4   5
ENDBRANCH   3   4
ENDBRANCH   1   3
BRANCH   2  13
ATOM     13  C   UNL     1     140.380 139.212 143.365  1.00  0.00     0.027 C 
BRANCH  13  14
ATOM     14  C   UNL     1     139.708 138.408 144.489  1.00  0.00     0.004 C 
BRANCH  14  15
ATOM     15  C   UNL     1     138.685 139.237 145.283  1.00  0.00     0.000 C 
BRANCH  15  16
ATOM     16  C   UNL     1     137.236 138.796 145.013  1.00  0.00     0.000 C 
BRANCH  16  17
ATOM     17  C   UNL     1     136.547 139.637 143.921  1.00  0.00    -0.000 C 
BRANCH  17  18
ATOM     18  C   UNL     1     136.710 139.104 142.487  1.00  0.00    -0.000 C 
BRANCH  18  19
ATOM     19  C   UNL     1     135.667 139.672 141.514  1.00  0.00    -0.003 C 
ATOM     20  C   UNL     1     136.310 140.626 140.511  1.00  0.00     0.004 C 
ENDBRANCH  18  19
ENDBRANCH  17  18
ENDBRANCH  16  17
ENDBRANCH  15  16
ENDBRANCH  14  15
ENDBRANCH  13  14
ENDBRANCH   2  13
TORSDOF 15
ENDMDL
MODEL 9
REMARK VINA RESULT:    -4.009      1.454      1.721
REMARK INTER + INTRA:         -10.660
REMARK INTER:                  -7.569
REMARK INTRA:                  -3.092
REMARK UNBOUND:                -3.136
REMARK SMILES CCCCCCCCC=CCCCCCCCC(=O)[O-]
REMARK SMILES IDX 10 1 9 2 11 3 12 4 13 5 14 6 15 7 16 8 17 9 18 10 19 11
REMARK SMILES IDX 20 12 8 13 7 14 6 15 5 16 4 17 3 18 2 19 1 20
REMARK H PARENT
REMARK Flexibility Score: inf
ROOT
ATOM      1  C   UNL     1     139.775 140.808 142.604  1.00  0.00    -0.031 C 
ATOM      2  C   UNL     1     140.188 142.001 143.060  1.00  0.00    -0.031 C 
ENDROOT
BRANCH   1   3
ATOM      3  C   UNL     1     140.434 139.527 143.038  1.00  0.00     0.027 C 
BRANCH   3   4
ATOM      4  C   UNL     1     139.397 138.520 143.558  1.00  0.00     0.004 C 
BRANCH   4   5
ATOM      5  C   UNL     1     138.833 138.901 144.940  1.00  0.00     0.000 C 
BRANCH   5   6
ATOM      6  C   UNL     1     139.680 138.431 146.136  1.00  0.00     0.000 C 
BRANCH   6   7
ATOM      7  C   UNL     1     140.109 139.588 147.056  1.00  0.00     0.000 C 
BRANCH   7   8
ATOM      8  C   UNL     1     139.642 140.965 146.551  1.00  0.00     0.006 C 
BRANCH   8   9
ATOM      9  C   UNL     1     139.157 141.906 147.667  1.00  0.00     0.053 C 
BRANCH   9  10
ATOM     10  C   UNL     1     139.137 143.341 147.242  1.00  0.00     0.041 C 
ATOM     11  O   UNL     1     140.003 143.777 146.439  1.00  0.00    -0.550 OA
ATOM     12  O   UNL     1     138.142 144.194 147.707  1.00  0.00    -0.550 OA
ENDBRANCH   9  10
ENDBRANCH   8   9
ENDBRANCH   7   8
ENDBRANCH   6   7
ENDBRANCH   5   6
ENDBRANCH   4   5
ENDBRANCH   3   4
ENDBRANCH   1   3
BRANCH   2  13
ATOM     13  C   UNL     1     139.527 143.280 142.628  1.00  0.00     0.027 C 
BRANCH  13  14
ATOM     14  C   UNL     1     137.997 143.136 142.620  1.00  0.00     0.004 C 
BRANCH  14  15
ATOM     15  C   UNL     1     137.385 143.223 144.028  1.00  0.00     0.000 C 
BRANCH  15  16
ATOM     16  C   UNL     1     136.651 141.932 144.431  1.00  0.00     0.000 C 
BRANCH  16  17
ATOM     17  C   UNL     1     135.768 141.368 143.302  1.00  0.00    -0.000 C 
BRANCH  17  18
ATOM     18  C   UNL     1     135.893 139.852 143.070  1.00  0.00    -0.000 C 
BRANCH  18  19
ATOM     19  C   UNL     1     136.385 139.499 141.659  1.00  0.00    -0.003 C 
ATOM     20  C   UNL     1     136.152 140.654 140.690  1.00  0.00     0.004 C 
ENDBRANCH  18  19
ENDBRANCH  17  18
ENDBRANCH  16  17
ENDBRANCH  15  16
ENDBRANCH  14  15
ENDBRANCH  13  14
ENDBRANCH   2  13
TORSDOF 15
ENDMDL
