MODEL 1
REMARK VINA RESULT:    -6.634      0.000      0.000
REMARK INTER + INTRA:          -8.081
REMARK INTER:                  -7.798
REMARK INTRA:                  -0.283
REMARK UNBOUND:                -0.283
REMARK SMILES O=c1cc(-c2ccc(O)c(O)c2)oc2cc(O)cc(O)c12
REMARK SMILES IDX 4 1 3 2 2 3 1 4 21 5 19 6 18 7 16 8 15 9 14 10 13 11 5 12
REMARK SMILES IDX 6 13 7 14 8 15 12 16 10 17 9 18 11 20 20 22 17 24
REMARK H PARENT 9 19 11 21 20 23 17 25
REMARK Flexibility Score: inf
ROOT
ATOM      1  C   UNL     1       8.263  -6.266  -8.549  1.00  0.00     0.138 A 
ATOM      2  C   UNL     1       8.724  -7.414  -9.208  1.00  0.00     0.100 A 
ATOM      3  C   UNL     1       8.791  -7.430 -10.601  1.00  0.00     0.197 A 
ATOM      4  O   UNL     1       9.268  -8.451 -11.161  1.00  0.00    -0.289 OA
ATOM      5  C   UNL     1       8.365  -6.300 -11.339  1.00  0.00     0.107 A 
ATOM      6  C   UNL     1       8.352  -6.217 -12.763  1.00  0.00     0.134 A 
ATOM      7  C   UNL     1       8.019  -5.006 -13.381  1.00  0.00     0.093 A 
ATOM      8  C   UNL     1       7.642  -3.893 -12.630  1.00  0.00     0.123 A 
ATOM      9  C   UNL     1       7.601  -3.978 -11.238  1.00  0.00     0.094 A 
ATOM     10  C   UNL     1       7.960  -5.162 -10.590  1.00  0.00     0.146 A 
ATOM     11  O   UNL     1       7.921  -5.199  -9.263  1.00  0.00    -0.456 OA
ENDROOT
BRANCH   1  12
ATOM     12  C   UNL     1       8.169  -6.195  -7.069  1.00  0.00     0.021 A 
ATOM     13  C   UNL     1       8.491  -4.995  -6.411  1.00  0.00     0.016 A 
ATOM     14  C   UNL     1       8.404  -4.902  -5.020  1.00  0.00     0.051 A 
ATOM     15  C   UNL     1       7.984  -5.998  -4.263  1.00  0.00     0.157 A 
ATOM     16  C   UNL     1       7.734  -7.294  -6.301  1.00  0.00     0.062 A 
ATOM     17  C   UNL     1       7.644  -7.199  -4.905  1.00  0.00     0.158 A 
BRANCH  15  18
ATOM     18  O   UNL     1       7.909  -5.874  -2.875  1.00  0.00    -0.504 OA
ATOM     19  H   UNL     1       7.310  -6.468  -2.314  1.00  0.00     0.293 HD
ENDBRANCH  15  18
BRANCH  17  20
ATOM     20  O   UNL     1       7.214  -8.293  -4.155  1.00  0.00    -0.504 OA
ATOM     21  H   UNL     1       7.039  -9.195  -4.582  1.00  0.00     0.293 HD
ENDBRANCH  17  20
ENDBRANCH   1  12
BRANCH   6  22
ATOM     22  O   UNL     1       8.630  -7.294 -13.612  1.00  0.00    -0.507 OA
ATOM     23  H   UNL     1       9.515  -7.776 -13.660  1.00  0.00     0.293 HD
ENDBRANCH   6  22
BRANCH   8  24
ATOM     24  O   UNL     1       7.303  -2.707 -13.280  1.00  0.00    -0.508 OA
ATOM     25  H   UNL     1       6.384  -2.567 -13.681  1.00  0.00     0.293 HD
ENDBRANCH   8  24
TORSDOF 5
ENDMDL
MODEL 2
REMARK VINA RESULT:    -6.618     12.254     15.493
REMARK INTER + INTRA:          -8.061
REMARK INTER:                  -7.798
REMARK INTRA:                  -0.264
REMARK UNBOUND:                -0.283
REMARK SMILES O=c1cc(-c2ccc(O)c(O)c2)oc2cc(O)cc(O)c12
REMARK SMILES IDX 4 1 3 2 2 3 1 4 21 5 19 6 18 7 16 8 15 9 14 10 13 11 5 12
REMARK SMILES IDX 6 13 7 14 8 15 12 16 10 17 9 18 11 20 20 22 17 24
REMARK H PARENT 9 19 11 21 20 23 17 25
REMARK Flexibility Score: inf
ROOT
ATOM      1  C   UNL     1      18.881  -1.717 -17.159  1.00  0.00     0.138 A 
ATOM      2  C   UNL     1      18.152  -0.995 -16.204  1.00  0.00     0.100 A 
ATOM      3  C   UNL     1      17.414  -1.678 -15.238  1.00  0.00     0.197 A 
ATOM      4  O   UNL     1      16.821  -1.003 -14.357  1.00  0.00    -0.289 OA
ATOM      5  C   UNL     1      17.382  -3.093 -15.248  1.00  0.00     0.107 A 
ATOM      6  C   UNL     1      16.632  -3.894 -14.336  1.00  0.00     0.134 A 
ATOM      7  C   UNL     1      16.769  -5.288 -14.368  1.00  0.00     0.093 A 
ATOM      8  C   UNL     1      17.581  -5.911 -15.316  1.00  0.00     0.123 A 
ATOM      9  C   UNL     1      18.278  -5.139 -16.246  1.00  0.00     0.094 A 
ATOM     10  C   UNL     1      18.189  -3.745 -16.218  1.00  0.00     0.146 A 
ATOM     11  O   UNL     1      18.878  -3.046 -17.112  1.00  0.00    -0.456 OA
ENDROOT
BRANCH   1  12
ATOM     12  C   UNL     1      19.683  -1.041 -18.210  1.00  0.00     0.021 A 
ATOM     13  C   UNL     1      19.221  -1.036 -19.538  1.00  0.00     0.016 A 
ATOM     14  C   UNL     1      19.954  -0.400 -20.543  1.00  0.00     0.051 A 
ATOM     15  C   UNL     1      21.153   0.250 -20.240  1.00  0.00     0.157 A 
ATOM     16  C   UNL     1      20.887  -0.373 -17.908  1.00  0.00     0.062 A 
ATOM     17  C   UNL     1      21.622   0.267 -18.917  1.00  0.00     0.158 A 
BRANCH  15  18
ATOM     18  O   UNL     1      21.863   0.874 -21.266  1.00  0.00    -0.504 OA
ATOM     19  H   UNL     1      22.615   1.527 -21.080  1.00  0.00     0.293 HD
ENDBRANCH  15  18
BRANCH  17  20
ATOM     20  O   UNL     1      22.812   0.923 -18.607  1.00  0.00    -0.504 OA
ATOM     21  H   UNL     1      23.011   1.855 -18.951  1.00  0.00     0.293 HD
ENDBRANCH  17  20
ENDBRANCH   1  12
BRANCH   6  22
ATOM     22  O   UNL     1      15.727  -3.379 -13.403  1.00  0.00    -0.507 OA
ATOM     23  H   UNL     1      14.752  -3.635 -13.345  1.00  0.00     0.293 HD
ENDBRANCH   6  22
BRANCH   8  24
ATOM     24  O   UNL     1      17.682  -7.300 -15.328  1.00  0.00    -0.508 OA
ATOM     25  H   UNL     1      17.116  -7.878 -14.717  1.00  0.00     0.293 HD
ENDBRANCH   8  24
TORSDOF 5
ENDMDL
MODEL 3
REMARK VINA RESULT:    -6.578      3.479      6.988
REMARK INTER + INTRA:          -8.015
REMARK INTER:                  -7.698
REMARK INTRA:                  -0.317
REMARK UNBOUND:                -0.283
REMARK SMILES O=c1cc(-c2ccc(O)c(O)c2)oc2cc(O)cc(O)c12
REMARK SMILES IDX 4 1 3 2 2 3 1 4 21 5 19 6 18 7 16 8 15 9 14 10 13 11 5 12
REMARK SMILES IDX 6 13 7 14 8 15 12 16 10 17 9 18 11 20 20 22 17 24
REMARK H PARENT 9 19 11 21 20 23 17 25
REMARK Flexibility Score: inf
ROOT
ATOM      1  C   UNL     1      10.804  -6.745  -9.061  1.00  0.00     0.138 A 
ATOM      2  C   UNL     1       9.985  -7.877  -9.166  1.00  0.00     0.100 A 
ATOM      3  C   UNL     1       8.953  -8.071  -8.248  1.00  0.00     0.197 A 
ATOM      4  O   UNL     1       8.195  -9.063  -8.405  1.00  0.00    -0.289 OA
ATOM      5  C   UNL     1       8.762  -7.139  -7.199  1.00  0.00     0.107 A 
ATOM      6  C   UNL     1       7.768  -7.255  -6.182  1.00  0.00     0.134 A 
ATOM      7  C   UNL     1       7.597  -6.212  -5.263  1.00  0.00     0.093 A 
ATOM      8  C   UNL     1       8.421  -5.088  -5.287  1.00  0.00     0.123 A 
ATOM      9  C   UNL     1       9.431  -4.989  -6.245  1.00  0.00     0.094 A 
ATOM     10  C   UNL     1       9.605  -5.996  -7.196  1.00  0.00     0.146 A 
ATOM     11  O   UNL     1      10.569  -5.858  -8.100  1.00  0.00    -0.456 OA
ENDROOT
BRANCH   1  12
ATOM     12  C   UNL     1      11.917  -6.491 -10.011  1.00  0.00     0.021 A 
ATOM     13  C   UNL     1      12.252  -7.469 -10.964  1.00  0.00     0.016 A 
ATOM     14  C   UNL     1      13.290  -7.249 -11.873  1.00  0.00     0.051 A 
ATOM     15  C   UNL     1      14.003  -6.048 -11.855  1.00  0.00     0.157 A 
ATOM     16  C   UNL     1      12.631  -5.275 -10.006  1.00  0.00     0.062 A 
ATOM     17  C   UNL     1      13.671  -5.054 -10.921  1.00  0.00     0.158 A 
BRANCH  15  18
ATOM     18  O   UNL     1      15.034  -5.859 -12.775  1.00  0.00    -0.504 OA
ATOM     19  H   UNL     1      15.694  -6.594 -13.002  1.00  0.00     0.293 HD
ENDBRANCH  15  18
BRANCH  17  20
ATOM     20  O   UNL     1      14.372  -3.849 -10.905  1.00  0.00    -0.504 OA
ATOM     21  H   UNL     1      13.938  -2.977 -11.185  1.00  0.00     0.293 HD
ENDBRANCH  17  20
ENDBRANCH   1  12
BRANCH   6  22
ATOM     22  O   UNL     1       6.946  -8.374  -6.015  1.00  0.00    -0.507 OA
ATOM     23  H   UNL     1       6.432  -8.590  -5.174  1.00  0.00     0.293 HD
ENDBRANCH   6  22
BRANCH   8  24
ATOM     24  O   UNL     1       8.231  -4.076  -4.347  1.00  0.00    -0.508 OA
ATOM     25  H   UNL     1       9.002  -3.706  -3.803  1.00  0.00     0.293 HD
ENDBRANCH   8  24
TORSDOF 5
ENDMDL
MODEL 4
REMARK VINA RESULT:    -6.480     12.982     16.342
REMARK INTER + INTRA:          -7.899
REMARK INTER:                  -7.596
REMARK INTRA:                  -0.303
REMARK UNBOUND:                -0.283
REMARK SMILES O=c1cc(-c2ccc(O)c(O)c2)oc2cc(O)cc(O)c12
REMARK SMILES IDX 4 1 3 2 2 3 1 4 21 5 19 6 18 7 16 8 15 9 14 10 13 11 5 12
REMARK SMILES IDX 6 13 7 14 8 15 12 16 10 17 9 18 11 20 20 22 17 24
REMARK H PARENT 9 19 11 21 20 23 17 25
REMARK Flexibility Score: inf
ROOT
ATOM      1  C   UNL     1      19.457  -1.329 -17.941  1.00  0.00     0.138 A 
ATOM      2  C   UNL     1      18.987  -0.493 -16.919  1.00  0.00     0.100 A 
ATOM      3  C   UNL     1      18.264  -1.039 -15.858  1.00  0.00     0.197 A 
ATOM      4  O   UNL     1      17.909  -0.273 -14.924  1.00  0.00    -0.289 OA
ATOM      5  C   UNL     1      17.984  -2.426 -15.838  1.00  0.00     0.107 A 
ATOM      6  C   UNL     1      17.222  -3.086 -14.828  1.00  0.00     0.134 A 
ATOM      7  C   UNL     1      17.108  -4.482 -14.852  1.00  0.00     0.093 A 
ATOM      8  C   UNL     1      17.677  -5.234 -15.878  1.00  0.00     0.123 A 
ATOM      9  C   UNL     1      18.380  -4.594 -16.899  1.00  0.00     0.094 A 
ATOM     10  C   UNL     1      18.540  -3.207 -16.886  1.00  0.00     0.146 A 
ATOM     11  O   UNL     1      19.227  -2.637 -17.870  1.00  0.00    -0.456 OA
ENDROOT
BRANCH   1  12
ATOM     12  C   UNL     1      20.231  -0.802 -19.093  1.00  0.00     0.021 A 
ATOM     13  C   UNL     1      21.099   0.288 -18.904  1.00  0.00     0.016 A 
ATOM     14  C   UNL     1      21.843   0.797 -19.971  1.00  0.00     0.051 A 
ATOM     15  C   UNL     1      21.743   0.223 -21.240  1.00  0.00     0.157 A 
ATOM     16  C   UNL     1      20.143  -1.386 -20.373  1.00  0.00     0.062 A 
ATOM     17  C   UNL     1      20.893  -0.876 -21.443  1.00  0.00     0.158 A 
BRANCH  15  18
ATOM     18  O   UNL     1      22.498   0.755 -22.286  1.00  0.00    -0.504 OA
ATOM     19  H   UNL     1      22.075   1.281 -23.041  1.00  0.00     0.293 HD
ENDBRANCH  15  18
BRANCH  17  20
ATOM     20  O   UNL     1      20.797  -1.460 -22.706  1.00  0.00    -0.504 OA
ATOM     21  H   UNL     1      21.455  -1.241 -23.444  1.00  0.00     0.293 HD
ENDBRANCH  17  20
ENDBRANCH   1  12
BRANCH   6  22
ATOM     22  O   UNL     1      16.540  -2.422 -13.803  1.00  0.00    -0.507 OA
ATOM     23  H   UNL     1      15.561  -2.180 -13.825  1.00  0.00     0.293 HD
ENDBRANCH   6  22
BRANCH   8  24
ATOM     24  O   UNL     1      17.531  -6.621 -15.877  1.00  0.00    -0.508 OA
ATOM     25  H   UNL     1      16.934  -7.090 -15.206  1.00  0.00     0.293 HD
ENDBRANCH   8  24
TORSDOF 5
ENDMDL
MODEL 5
REMARK VINA RESULT:    -6.479     13.721     17.013
REMARK INTER + INTRA:          -7.898
REMARK INTER:                  -7.583
REMARK INTRA:                  -0.315
REMARK UNBOUND:                -0.283
REMARK SMILES O=c1cc(-c2ccc(O)c(O)c2)oc2cc(O)cc(O)c12
REMARK SMILES IDX 4 1 3 2 2 3 1 4 21 5 19 6 18 7 16 8 15 9 14 10 13 11 5 12
REMARK SMILES IDX 6 13 7 14 8 15 12 16 10 17 9 18 11 20 20 22 17 24
REMARK H PARENT 9 19 11 21 20 23 17 25
REMARK Flexibility Score: inf
ROOT
ATOM      1  C   UNL     1      19.927  -1.382 -18.905  1.00  0.00     0.138 A 
ATOM      2  C   UNL     1      19.698  -2.764 -18.947  1.00  0.00     0.100 A 
ATOM      3  C   UNL     1      19.001  -3.379 -17.907  1.00  0.00     0.197 A 
ATOM      4  O   UNL     1      18.755  -4.609 -18.003  1.00  0.00    -0.289 OA
ATOM      5  C   UNL     1      18.559  -2.609 -16.804  1.00  0.00     0.107 A 
ATOM      6  C   UNL     1      17.873  -3.136 -15.669  1.00  0.00     0.134 A 
ATOM      7  C   UNL     1      17.382  -2.260 -14.693  1.00  0.00     0.093 A 
ATOM      8  C   UNL     1      17.601  -0.886 -14.780  1.00  0.00     0.123 A 
ATOM      9  C   UNL     1      18.316  -0.366 -15.860  1.00  0.00     0.094 A 
ATOM     10  C   UNL     1      18.790  -1.209 -16.867  1.00  0.00     0.146 A 
ATOM     11  O   UNL     1      19.454  -0.673 -17.885  1.00  0.00    -0.456 OA
ENDROOT
BRANCH   1  12
ATOM     12  C   UNL     1      20.664  -0.676 -19.984  1.00  0.00     0.021 A 
ATOM     13  C   UNL     1      20.887  -1.326 -21.210  1.00  0.00     0.016 A 
ATOM     14  C   UNL     1      21.571  -0.680 -22.243  1.00  0.00     0.051 A 
ATOM     15  C   UNL     1      22.034   0.628 -22.076  1.00  0.00     0.157 A 
ATOM     16  C   UNL     1      21.121   0.648 -19.825  1.00  0.00     0.062 A 
ATOM     17  C   UNL     1      21.806   1.297 -20.863  1.00  0.00     0.158 A 
BRANCH  15  18
ATOM     18  O   UNL     1      22.714   1.246 -23.125  1.00  0.00    -0.504 OA
ATOM     19  H   UNL     1      23.114   2.172 -23.035  1.00  0.00     0.293 HD
ENDBRANCH  15  18
BRANCH  17  20
ATOM     20  O   UNL     1      22.256   2.606 -20.693  1.00  0.00    -0.504 OA
ATOM     21  H   UNL     1      21.853   3.221 -19.996  1.00  0.00     0.293 HD
ENDBRANCH  17  20
ENDBRANCH   1  12
BRANCH   6  22
ATOM     22  O   UNL     1      17.673  -4.501 -15.440  1.00  0.00    -0.507 OA
ATOM     23  H   UNL     1      17.338  -5.157 -16.128  1.00  0.00     0.293 HD
ENDBRANCH   6  22
BRANCH   8  24
ATOM     24  O   UNL     1      17.109  -0.046 -13.783  1.00  0.00    -0.508 OA
ATOM     25  H   UNL     1      16.434  -0.372 -13.101  1.00  0.00     0.293 HD
ENDBRANCH   8  24
TORSDOF 5
ENDMDL
MODEL 6
REMARK VINA RESULT:    -6.250     12.292     15.404
REMARK INTER + INTRA:          -7.629
REMARK INTER:                  -7.362
REMARK INTRA:                  -0.267
REMARK UNBOUND:                -0.283
REMARK SMILES O=c1cc(-c2ccc(O)c(O)c2)oc2cc(O)cc(O)c12
REMARK SMILES IDX 4 1 3 2 2 3 1 4 21 5 19 6 18 7 16 8 15 9 14 10 13 11 5 12
REMARK SMILES IDX 6 13 7 14 8 15 12 16 10 17 9 18 11 20 20 22 17 24
REMARK H PARENT 9 19 11 21 20 23 17 25
REMARK Flexibility Score: inf
ROOT
ATOM      1  C   UNL     1      18.899  -1.498 -17.318  1.00  0.00     0.138 A 
ATOM      2  C   UNL     1      18.893  -2.885 -17.115  1.00  0.00     0.100 A 
ATOM      3  C   UNL     1      18.137  -3.427 -16.076  1.00  0.00     0.197 A 
ATOM      4  O   UNL     1      18.100  -4.679 -15.958  1.00  0.00    -0.289 OA
ATOM      5  C   UNL     1      17.408  -2.571 -15.216  1.00  0.00     0.107 A 
ATOM      6  C   UNL     1      16.634  -3.009 -14.100  1.00  0.00     0.134 A 
ATOM      7  C   UNL     1      15.861  -2.081 -13.390  1.00  0.00     0.093 A 
ATOM      8  C   UNL     1      15.880  -0.726 -13.717  1.00  0.00     0.123 A 
ATOM      9  C   UNL     1      16.675  -0.279 -14.774  1.00  0.00     0.094 A 
ATOM     10  C   UNL     1      17.430  -1.184 -15.523  1.00  0.00     0.146 A 
ATOM     11  O   UNL     1      18.163  -0.721 -16.530  1.00  0.00    -0.456 OA
ENDROOT
BRANCH   1  12
ATOM     12  C   UNL     1      19.687  -0.868 -18.408  1.00  0.00     0.021 A 
ATOM     13  C   UNL     1      19.195  -0.899 -19.724  1.00  0.00     0.016 A 
ATOM     14  C   UNL     1      19.914  -0.306 -20.766  1.00  0.00     0.051 A 
ATOM     15  C   UNL     1      21.128   0.336 -20.510  1.00  0.00     0.157 A 
ATOM     16  C   UNL     1      20.906  -0.207 -18.154  1.00  0.00     0.062 A 
ATOM     17  C   UNL     1      21.626   0.390 -19.199  1.00  0.00     0.158 A 
BRANCH  15  18
ATOM     18  O   UNL     1      21.823   0.917 -21.571  1.00  0.00    -0.504 OA
ATOM     19  H   UNL     1      21.362   1.190 -22.431  1.00  0.00     0.293 HD
ENDBRANCH  15  18
BRANCH  17  20
ATOM     20  O   UNL     1      22.832   1.038 -18.936  1.00  0.00    -0.504 OA
ATOM     21  H   UNL     1      23.654   0.530 -18.631  1.00  0.00     0.293 HD
ENDBRANCH  17  20
ENDBRANCH   1  12
BRANCH   6  22
ATOM     22  O   UNL     1      16.609  -4.327 -13.634  1.00  0.00    -0.507 OA
ATOM     23  H   UNL     1      16.125  -4.635 -12.804  1.00  0.00     0.293 HD
ENDBRANCH   6  22
BRANCH   8  24
ATOM     24  O   UNL     1      15.110   0.171 -12.980  1.00  0.00    -0.508 OA
ATOM     25  H   UNL     1      15.534   0.921 -12.446  1.00  0.00     0.293 HD
ENDBRANCH   8  24
TORSDOF 5
ENDMDL
MODEL 7
REMARK VINA RESULT:    -6.222      1.998      2.626
REMARK INTER + INTRA:          -7.596
REMARK INTER:                  -7.333
REMARK INTRA:                  -0.263
REMARK UNBOUND:                -0.283
REMARK SMILES O=c1cc(-c2ccc(O)c(O)c2)oc2cc(O)cc(O)c12
REMARK SMILES IDX 4 1 3 2 2 3 1 4 21 5 19 6 18 7 16 8 15 9 14 10 13 11 5 12
REMARK SMILES IDX 6 13 7 14 8 15 12 16 10 17 9 18 11 20 20 22 17 24
REMARK H PARENT 9 19 11 21 20 23 17 25
REMARK Flexibility Score: inf
ROOT
ATOM      1  C   UNL     1       8.895  -6.405  -7.700  1.00  0.00     0.138 A 
ATOM      2  C   UNL     1      10.286  -6.433  -7.866  1.00  0.00     0.100 A 
ATOM      3  C   UNL     1      10.863  -5.793  -8.963  1.00  0.00     0.197 A 
ATOM      4  O   UNL     1      12.119  -5.781  -9.051  1.00  0.00    -0.289 OA
ATOM      5  C   UNL     1      10.038  -5.148  -9.915  1.00  0.00     0.107 A 
ATOM      6  C   UNL     1      10.513  -4.497 -11.093  1.00  0.00     0.134 A 
ATOM      7  C   UNL     1       9.613  -3.792 -11.902  1.00  0.00     0.093 A 
ATOM      8  C   UNL     1       8.250  -3.764 -11.610  1.00  0.00     0.123 A 
ATOM      9  C   UNL     1       7.767  -4.442 -10.489  1.00  0.00     0.094 A 
ATOM     10  C   UNL     1       8.644  -5.125  -9.643  1.00  0.00     0.146 A 
ATOM     11  O   UNL     1       8.147  -5.746  -8.579  1.00  0.00    -0.456 OA
ENDROOT
BRANCH   1  12
ATOM     12  C   UNL     1       8.228  -7.071  -6.552  1.00  0.00     0.021 A 
ATOM     13  C   UNL     1       7.655  -8.343  -6.726  1.00  0.00     0.016 A 
ATOM     14  C   UNL     1       7.029  -8.992  -5.659  1.00  0.00     0.051 A 
ATOM     15  C   UNL     1       6.974  -8.390  -4.400  1.00  0.00     0.157 A 
ATOM     16  C   UNL     1       8.181  -6.474  -5.276  1.00  0.00     0.062 A 
ATOM     17  C   UNL     1       7.555  -7.127  -4.205  1.00  0.00     0.158 A 
BRANCH  15  18
ATOM     18  O   UNL     1       6.340  -9.063  -3.355  1.00  0.00    -0.504 OA
ATOM     19  H   UNL     1       6.665  -9.962  -3.020  1.00  0.00     0.293 HD
ENDBRANCH  15  18
BRANCH  17  20
ATOM     20  O   UNL     1       7.511  -6.526  -2.947  1.00  0.00    -0.504 OA
ATOM     21  H   UNL     1       8.213  -6.719  -2.242  1.00  0.00     0.293 HD
ENDBRANCH  17  20
ENDBRANCH   1  12
BRANCH   6  22
ATOM     22  O   UNL     1      11.842  -4.532 -11.524  1.00  0.00    -0.507 OA
ATOM     23  H   UNL     1      12.134  -4.588 -12.489  1.00  0.00     0.293 HD
ENDBRANCH   6  22
BRANCH   8  24
ATOM     24  O   UNL     1       7.381  -3.065 -12.445  1.00  0.00    -0.508 OA
ATOM     25  H   UNL     1       6.434  -3.384 -12.612  1.00  0.00     0.293 HD
ENDBRANCH   8  24
TORSDOF 5
ENDMDL
MODEL 8
REMARK VINA RESULT:    -5.952     11.684     14.861
REMARK INTER + INTRA:          -7.279
REMARK INTER:                  -7.009
REMARK INTRA:                  -0.269
REMARK UNBOUND:                -0.283
REMARK SMILES O=c1cc(-c2ccc(O)c(O)c2)oc2cc(O)cc(O)c12
REMARK SMILES IDX 4 1 3 2 2 3 1 4 21 5 19 6 18 7 16 8 15 9 14 10 13 11 5 12
REMARK SMILES IDX 6 13 7 14 8 15 12 16 10 17 9 18 11 20 20 22 17 24
REMARK H PARENT 9 19 11 21 20 23 17 25
REMARK Flexibility Score: inf
ROOT
ATOM      1  C   UNL     1      18.240  -1.192 -16.329  1.00  0.00     0.138 A 
ATOM      2  C   UNL     1      17.130  -0.397 -16.012  1.00  0.00     0.100 A 
ATOM      3  C   UNL     1      16.329  -0.733 -14.921  1.00  0.00     0.197 A 
ATOM      4  O   UNL     1      15.377   0.035 -14.624  1.00  0.00    -0.289 OA
ATOM      5  C   UNL     1      16.626  -1.889 -14.160  1.00  0.00     0.107 A 
ATOM      6  C   UNL     1      15.856  -2.351 -13.050  1.00  0.00     0.134 A 
ATOM      7  C   UNL     1      16.312  -3.443 -12.302  1.00  0.00     0.093 A 
ATOM      8  C   UNL     1      17.474  -4.126 -12.657  1.00  0.00     0.123 A 
ATOM      9  C   UNL     1      18.206  -3.715 -13.772  1.00  0.00     0.094 A 
ATOM     10  C   UNL     1      17.797  -2.609 -14.519  1.00  0.00     0.146 A 
ATOM     11  O   UNL     1      18.528  -2.242 -15.566  1.00  0.00    -0.456 OA
ENDROOT
BRANCH   1  12
ATOM     12  C   UNL     1      19.125  -0.882 -17.480  1.00  0.00     0.021 A 
ATOM     13  C   UNL     1      18.675  -1.134 -18.787  1.00  0.00     0.016 A 
ATOM     14  C   UNL     1      19.486  -0.843 -19.887  1.00  0.00     0.051 A 
ATOM     15  C   UNL     1      20.754  -0.286 -19.702  1.00  0.00     0.157 A 
ATOM     16  C   UNL     1      20.399  -0.307 -17.300  1.00  0.00     0.062 A 
ATOM     17  C   UNL     1      21.213  -0.013 -18.404  1.00  0.00     0.158 A 
BRANCH  15  18
ATOM     18  O   UNL     1      21.541  -0.008 -20.820  1.00  0.00    -0.504 OA
ATOM     19  H   UNL     1      21.385   0.809 -21.398  1.00  0.00     0.293 HD
ENDBRANCH  15  18
BRANCH  17  20
ATOM     20  O   UNL     1      22.473   0.552 -18.214  1.00  0.00    -0.504 OA
ATOM     21  H   UNL     1      23.238   0.373 -18.854  1.00  0.00     0.293 HD
ENDBRANCH  17  20
ENDBRANCH   1  12
BRANCH   6  22
ATOM     22  O   UNL     1      14.635  -1.794 -12.660  1.00  0.00    -0.507 OA
ATOM     23  H   UNL     1      13.741  -2.254 -12.739  1.00  0.00     0.293 HD
ENDBRANCH   6  22
BRANCH   8  24
ATOM     24  O   UNL     1      17.890  -5.218 -11.897  1.00  0.00    -0.508 OA
ATOM     25  H   UNL     1      17.297  -6.028 -11.765  1.00  0.00     0.293 HD
ENDBRANCH   8  24
TORSDOF 5
ENDMDL
MODEL 9
REMARK VINA RESULT:    -5.865      4.070      4.632
REMARK INTER + INTRA:          -7.176
REMARK INTER:                  -6.911
REMARK INTRA:                  -0.265
REMARK UNBOUND:                -0.283
REMARK SMILES O=c1cc(-c2ccc(O)c(O)c2)oc2cc(O)cc(O)c12
REMARK SMILES IDX 4 1 3 2 2 3 1 4 21 5 19 6 18 7 16 8 15 9 14 10 13 11 5 12
REMARK SMILES IDX 6 13 7 14 8 15 12 16 10 17 9 18 11 20 20 22 17 24
REMARK H PARENT 9 19 11 21 20 23 17 25
REMARK Flexibility Score: inf
ROOT
ATOM      1  C   UNL     1      10.959  -6.123  -9.329  1.00  0.00     0.138 A 
ATOM      2  C   UNL     1      10.889  -7.357  -9.989  1.00  0.00     0.100 A 
ATOM      3  C   UNL     1      11.852  -7.685 -10.944  1.00  0.00     0.197 A 
ATOM      4  O   UNL     1      11.799  -8.825 -11.474  1.00  0.00    -0.289 OA
ATOM      5  C   UNL     1      12.872  -6.757 -11.261  1.00  0.00     0.107 A 
ATOM      6  C   UNL     1      13.883  -6.966 -12.246  1.00  0.00     0.134 A 
ATOM      7  C   UNL     1      14.910  -6.025 -12.391  1.00  0.00     0.093 A 
ATOM      8  C   UNL     1      14.930  -4.857 -11.632  1.00  0.00     0.123 A 
ATOM      9  C   UNL     1      13.917  -4.616 -10.702  1.00  0.00     0.094 A 
ATOM     10  C   UNL     1      12.898  -5.551 -10.510  1.00  0.00     0.146 A 
ATOM     11  O   UNL     1      11.959  -5.292  -9.606  1.00  0.00    -0.456 OA
ENDROOT
BRANCH   1  12
ATOM     12  C   UNL     1       9.961  -5.723  -8.305  1.00  0.00     0.021 A 
ATOM     13  C   UNL     1      10.349  -5.633  -6.957  1.00  0.00     0.016 A 
ATOM     14  C   UNL     1       9.430  -5.251  -5.977  1.00  0.00     0.051 A 
ATOM     15  C   UNL     1       8.113  -4.942  -6.324  1.00  0.00     0.157 A 
ATOM     16  C   UNL     1       8.634  -5.397  -8.653  1.00  0.00     0.062 A 
ATOM     17  C   UNL     1       7.712  -5.012  -7.668  1.00  0.00     0.158 A 
BRANCH  15  18
ATOM     18  O   UNL     1       7.218  -4.566  -5.323  1.00  0.00    -0.504 OA
ATOM     19  H   UNL     1       6.330  -4.126  -5.532  1.00  0.00     0.293 HD
ENDBRANCH  15  18
BRANCH  17  20
ATOM     20  O   UNL     1       6.401  -4.694  -8.023  1.00  0.00    -0.504 OA
ATOM     21  H   UNL     1       6.172  -3.822  -8.485  1.00  0.00     0.293 HD
ENDBRANCH  17  20
ENDBRANCH   1  12
BRANCH   6  22
ATOM     22  O   UNL     1      13.912  -8.059 -13.117  1.00  0.00    -0.507 OA
ATOM     23  H   UNL     1      14.532  -8.150 -13.907  1.00  0.00     0.293 HD
ENDBRANCH   6  22
BRANCH   8  24
ATOM     24  O   UNL     1      15.960  -3.935 -11.813  1.00  0.00    -0.508 OA
ATOM     25  H   UNL     1      16.861  -4.214 -12.185  1.00  0.00     0.293 HD
ENDBRANCH   8  24
TORSDOF 5
ENDMDL
