MODEL 1
REMARK VINA RESULT:    -3.677      0.000      0.000
REMARK INTER + INTRA:          -7.363
REMARK INTER:                  -5.827
REMARK INTRA:                  -1.536
REMARK UNBOUND:                -1.536
REMARK SMILES CCCCCCCCCCCC(=O)[O-]
REMARK SMILES IDX 7 1 8 2 9 3 10 4 11 5 12 6 13 7 14 8 6 9 5 10 4 11 3 12 2 13
REMARK SMILES IDX 1 14
REMARK H PARENT
REMARK Flexibility Score: inf
ROOT
ATOM      1  C   UNL     1       7.828 -20.173  22.885  1.00  0.00     0.000 C 
ENDROOT
BRANCH   1   2
ATOM      2  C   UNL     1       6.737 -19.153  23.247  1.00  0.00     0.000 C 
BRANCH   2   3
ATOM      3  C   UNL     1       7.276 -17.713  23.320  1.00  0.00     0.000 C 
BRANCH   3   4
ATOM      4  C   UNL     1       6.431 -16.813  24.236  1.00  0.00     0.006 C 
BRANCH   4   5
ATOM      5  C   UNL     1       7.289 -15.921  25.143  1.00  0.00     0.053 C 
BRANCH   5   6
ATOM      6  C   UNL     1       7.822 -14.754  24.372  1.00  0.00     0.041 C 
ATOM      7  O   UNL     1       7.064 -14.098  23.611  1.00  0.00    -0.550 OA
ATOM      8  O   UNL     1       9.168 -14.421  24.458  1.00  0.00    -0.550 OA
ENDBRANCH   5   6
ENDBRANCH   4   5
ENDBRANCH   3   4
ENDBRANCH   2   3
ENDBRANCH   1   2
BRANCH   1   9
ATOM      9  C   UNL     1       8.157 -21.129  24.042  1.00  0.00     0.000 C 
BRANCH   9  10
ATOM     10  C   UNL     1       7.169 -20.942  25.204  1.00  0.00    -0.000 C 
BRANCH  10  11
ATOM     11  C   UNL     1       7.871 -20.647  26.540  1.00  0.00    -0.000 C 
BRANCH  11  12
ATOM     12  C   UNL     1       8.273 -19.170  26.683  1.00  0.00    -0.000 C 
BRANCH  12  13
ATOM     13  C   UNL     1       9.797 -18.969  26.661  1.00  0.00    -0.003 C 
ATOM     14  C   UNL     1      10.269 -18.155  25.457  1.00  0.00     0.004 C 
ENDBRANCH  12  13
ENDBRANCH  11  12
ENDBRANCH  10  11
ENDBRANCH   9  10
ENDBRANCH   1   9
TORSDOF 10
ENDMDL
MODEL 2
REMARK VINA RESULT:    -3.659      2.055      3.577
REMARK INTER + INTRA:          -7.334
REMARK INTER:                  -6.387
REMARK INTRA:                  -0.947
REMARK UNBOUND:                -1.536
REMARK SMILES CCCCCCCCCCCC(=O)[O-]
REMARK SMILES IDX 7 1 8 2 9 3 10 4 11 5 12 6 13 7 14 8 6 9 5 10 4 11 3 12 2 13
REMARK SMILES IDX 1 14
REMARK H PARENT
REMARK Flexibility Score: inf
ROOT
ATOM      1  C   UNL     1       6.739 -16.653  25.311  1.00  0.00     0.000 C 
ENDROOT
BRANCH   1   2
ATOM      2  C   UNL     1       6.302 -15.875  24.060  1.00  0.00     0.000 C 
BRANCH   2   3
ATOM      3  C   UNL     1       7.274 -14.737  23.702  1.00  0.00     0.000 C 
BRANCH   3   4
ATOM      4  C   UNL     1       8.336 -14.505  24.789  1.00  0.00     0.006 C 
BRANCH   4   5
ATOM      5  C   UNL     1       9.769 -14.658  24.260  1.00  0.00     0.053 C 
BRANCH   5   6
ATOM      6  C   UNL     1      10.329 -15.989  24.653  1.00  0.00     0.041 C 
ATOM      7  O   UNL     1      10.643 -16.215  25.851  1.00  0.00    -0.550 OA
ATOM      8  O   UNL     1      10.550 -16.963  23.688  1.00  0.00    -0.550 OA
ENDBRANCH   5   6
ENDBRANCH   4   5
ENDBRANCH   3   4
ENDBRANCH   2   3
ENDBRANCH   1   2
BRANCH   1   9
ATOM      9  C   UNL     1       7.261 -18.060  24.985  1.00  0.00     0.000 C 
BRANCH   9  10
ATOM     10  C   UNL     1       7.053 -18.390  23.498  1.00  0.00    -0.000 C 
BRANCH  10  11
ATOM     11  C   UNL     1       6.811 -19.888  23.249  1.00  0.00    -0.000 C 
BRANCH  11  12
ATOM     12  C   UNL     1       7.406 -20.775  24.355  1.00  0.00    -0.000 C 
BRANCH  12  13
ATOM     13  C   UNL     1       8.786 -21.339  23.978  1.00  0.00    -0.003 C 
ATOM     14  C   UNL     1       8.736 -22.260  22.760  1.00  0.00     0.004 C 
ENDBRANCH  12  13
ENDBRANCH  11  12
ENDBRANCH  10  11
ENDBRANCH   9  10
ENDBRANCH   1   9
TORSDOF 10
ENDMDL
MODEL 3
REMARK VINA RESULT:    -3.646      2.219      3.289
REMARK INTER + INTRA:          -7.314
REMARK INTER:                  -6.439
REMARK INTRA:                  -0.875
REMARK UNBOUND:                -1.536
REMARK SMILES CCCCCCCCCCCC(=O)[O-]
REMARK SMILES IDX 7 1 8 2 9 3 10 4 11 5 12 6 13 7 14 8 6 9 5 10 4 11 3 12 2 13
REMARK SMILES IDX 1 14
REMARK H PARENT
REMARK Flexibility Score: inf
ROOT
ATOM      1  C   UNL     1       7.685 -17.349  23.271  1.00  0.00     0.000 C 
ENDROOT
BRANCH   1   2
ATOM      2  C   UNL     1       6.425 -17.013  24.084  1.00  0.00     0.000 C 
BRANCH   2   3
ATOM      3  C   UNL     1       6.052 -15.523  24.007  1.00  0.00     0.000 C 
BRANCH   3   4
ATOM      4  C   UNL     1       6.823 -14.777  22.907  1.00  0.00     0.006 C 
BRANCH   4   5
ATOM      5  C   UNL     1       5.898 -14.028  21.938  1.00  0.00     0.053 C 
BRANCH   5   6
ATOM      6  C   UNL     1       6.225 -14.388  20.522  1.00  0.00     0.041 C 
ATOM      7  O   UNL     1       5.903 -13.615  19.582  1.00  0.00    -0.550 OA
ATOM      8  O   UNL     1       6.843 -15.599  20.239  1.00  0.00    -0.550 OA
ENDBRANCH   5   6
ENDBRANCH   4   5
ENDBRANCH   3   4
ENDBRANCH   2   3
ENDBRANCH   1   2
BRANCH   1   9
ATOM      9  C   UNL     1       7.462 -18.495  22.273  1.00  0.00     0.000 C 
BRANCH   9  10
ATOM     10  C   UNL     1       6.742 -19.675  22.946  1.00  0.00    -0.000 C 
BRANCH  10  11
ATOM     11  C   UNL     1       7.687 -20.544  23.792  1.00  0.00    -0.000 C 
BRANCH  11  12
ATOM     12  C   UNL     1       7.144 -20.801  25.208  1.00  0.00    -0.000 C 
BRANCH  12  13
ATOM     13  C   UNL     1       7.877 -19.976  26.278  1.00  0.00    -0.003 C 
ATOM     14  C   UNL     1       8.614 -20.847  27.295  1.00  0.00     0.004 C 
ENDBRANCH  12  13
ENDBRANCH  11  12
ENDBRANCH  10  11
ENDBRANCH   9  10
ENDBRANCH   1   9
TORSDOF 10
ENDMDL
MODEL 4
REMARK VINA RESULT:    -3.646      2.711      5.116
REMARK INTER + INTRA:          -7.314
REMARK INTER:                  -6.252
REMARK INTRA:                  -1.061
REMARK UNBOUND:                -1.536
REMARK SMILES CCCCCCCCCCCC(=O)[O-]
REMARK SMILES IDX 7 1 8 2 9 3 10 4 11 5 12 6 13 7 14 8 6 9 5 10 4 11 3 12 2 13
REMARK SMILES IDX 1 14
REMARK H PARENT
REMARK Flexibility Score: inf
ROOT
ATOM      1  C   UNL     1       7.072 -17.358  25.746  1.00  0.00     0.000 C 
ENDROOT
BRANCH   1   2
ATOM      2  C   UNL     1       8.198 -16.423  26.215  1.00  0.00     0.000 C 
BRANCH   2   3
ATOM      3  C   UNL     1       9.514 -17.173  26.486  1.00  0.00     0.000 C 
BRANCH   3   4
ATOM      4  C   UNL     1      10.717 -16.527  25.781  1.00  0.00     0.006 C 
BRANCH   4   5
ATOM      5  C   UNL     1      10.302 -15.464  24.755  1.00  0.00     0.053 C 
BRANCH   5   6
ATOM      6  C   UNL     1      11.336 -15.345  23.680  1.00  0.00     0.041 C 
ATOM      7  O   UNL     1      11.943 -16.369  23.269  1.00  0.00    -0.550 OA
ATOM      8  O   UNL     1      11.663 -14.097  23.167  1.00  0.00    -0.550 OA
ENDBRANCH   5   6
ENDBRANCH   4   5
ENDBRANCH   3   4
ENDBRANCH   2   3
ENDBRANCH   1   2
BRANCH   1   9
ATOM      9  C   UNL     1       6.474 -16.937  24.395  1.00  0.00     0.000 C 
BRANCH   9  10
ATOM     10  C   UNL     1       7.493 -17.131  23.261  1.00  0.00    -0.000 C 
BRANCH  10  11
ATOM     11  C   UNL     1       7.466 -15.987  22.234  1.00  0.00    -0.000 C 
BRANCH  11  12
ATOM     12  C   UNL     1       7.020 -14.651  22.850  1.00  0.00    -0.000 C 
BRANCH  12  13
ATOM     13  C   UNL     1       5.803 -14.047  22.130  1.00  0.00    -0.003 C 
ATOM     14  C   UNL     1       5.934 -14.092  20.608  1.00  0.00     0.004 C 
ENDBRANCH  12  13
ENDBRANCH  11  12
ENDBRANCH  10  11
ENDBRANCH   9  10
ENDBRANCH   1   9
TORSDOF 10
ENDMDL
MODEL 5
REMARK VINA RESULT:    -3.606      3.809      5.518
REMARK INTER + INTRA:          -7.250
REMARK INTER:                  -6.110
REMARK INTRA:                  -1.140
REMARK UNBOUND:                -1.536
REMARK SMILES CCCCCCCCCCCC(=O)[O-]
REMARK SMILES IDX 7 1 8 2 9 3 10 4 11 5 12 6 13 7 14 8 6 9 5 10 4 11 3 12 2 13
REMARK SMILES IDX 1 14
REMARK H PARENT
REMARK Flexibility Score: inf
ROOT
ATOM      1  C   UNL     1       6.700 -16.833  24.136  1.00  0.00     0.000 C 
ENDROOT
BRANCH   1   2
ATOM      2  C   UNL     1       7.125 -18.221  23.631  1.00  0.00     0.000 C 
BRANCH   2   3
ATOM      3  C   UNL     1       8.165 -18.146  22.500  1.00  0.00     0.000 C 
BRANCH   3   4
ATOM      4  C   UNL     1       7.797 -19.034  21.301  1.00  0.00     0.006 C 
BRANCH   4   5
ATOM      5  C   UNL     1       7.180 -20.374  21.723  1.00  0.00     0.053 C 
BRANCH   5   6
ATOM      6  C   UNL     1       7.968 -21.513  21.156  1.00  0.00     0.041 C 
ATOM      7  O   UNL     1       8.188 -21.576  19.918  1.00  0.00    -0.550 OA
ATOM      8  O   UNL     1       8.419 -22.529  21.989  1.00  0.00    -0.550 OA
ENDBRANCH   5   6
ENDBRANCH   4   5
ENDBRANCH   3   4
ENDBRANCH   2   3
ENDBRANCH   1   2
BRANCH   1   9
ATOM      9  C   UNL     1       6.966 -15.720  23.110  1.00  0.00     0.000 C 
BRANCH   9  10
ATOM     10  C   UNL     1       7.238 -14.381  23.814  1.00  0.00    -0.000 C 
BRANCH  10  11
ATOM     11  C   UNL     1       8.367 -14.474  24.854  1.00  0.00    -0.000 C 
BRANCH  11  12
ATOM     12  C   UNL     1       9.747 -14.690  24.211  1.00  0.00    -0.000 C 
BRANCH  12  13
ATOM     13  C   UNL     1      10.480 -15.913  24.786  1.00  0.00    -0.003 C 
ATOM     14  C   UNL     1       9.927 -16.352  26.141  1.00  0.00     0.004 C 
ENDBRANCH  12  13
ENDBRANCH  11  12
ENDBRANCH  10  11
ENDBRANCH   9  10
ENDBRANCH   1   9
TORSDOF 10
ENDMDL
MODEL 6
REMARK VINA RESULT:    -3.598      1.274      2.808
REMARK INTER + INTRA:          -7.238
REMARK INTER:                  -5.724
REMARK INTRA:                  -1.514
REMARK UNBOUND:                -1.536
REMARK SMILES CCCCCCCCCCCC(=O)[O-]
REMARK SMILES IDX 7 1 8 2 9 3 10 4 11 5 12 6 13 7 14 8 6 9 5 10 4 11 3 12 2 13
REMARK SMILES IDX 1 14
REMARK H PARENT
REMARK Flexibility Score: inf
ROOT
ATOM      1  C   UNL     1       8.105 -19.454  26.185  1.00  0.00     0.000 C 
ENDROOT
BRANCH   1   2
ATOM      2  C   UNL     1       7.129 -18.343  26.605  1.00  0.00     0.000 C 
BRANCH   2   3
ATOM      3  C   UNL     1       7.353 -17.034  25.827  1.00  0.00     0.000 C 
BRANCH   3   4
ATOM      4  C   UNL     1       6.370 -16.868  24.657  1.00  0.00     0.006 C 
BRANCH   4   5
ATOM      5  C   UNL     1       7.030 -16.263  23.411  1.00  0.00     0.053 C 
BRANCH   5   6
ATOM      6  C   UNL     1       6.729 -14.800  23.321  1.00  0.00     0.041 C 
ATOM      7  O   UNL     1       7.383 -13.975  24.012  1.00  0.00    -0.550 OA
ATOM      8  O   UNL     1       5.694 -14.352  22.510  1.00  0.00    -0.550 OA
ENDBRANCH   5   6
ENDBRANCH   4   5
ENDBRANCH   3   4
ENDBRANCH   2   3
ENDBRANCH   1   2
BRANCH   1   9
ATOM      9  C   UNL     1       7.387 -20.733  25.725  1.00  0.00     0.000 C 
BRANCH   9  10
ATOM     10  C   UNL     1       7.796 -21.104  24.290  1.00  0.00    -0.000 C 
BRANCH  10  11
ATOM     11  C   UNL     1       7.071 -20.260  23.229  1.00  0.00    -0.000 C 
BRANCH  11  12
ATOM     12  C   UNL     1       8.042 -19.598  22.237  1.00  0.00    -0.000 C 
BRANCH  12  13
ATOM     13  C   UNL     1       9.507 -19.693  22.694  1.00  0.00    -0.003 C 
ATOM     14  C   UNL     1      10.068 -18.353  23.168  1.00  0.00     0.004 C 
ENDBRANCH  12  13
ENDBRANCH  11  12
ENDBRANCH  10  11
ENDBRANCH   9  10
ENDBRANCH   1   9
TORSDOF 10
ENDMDL
MODEL 7
REMARK VINA RESULT:    -3.598      1.507      3.082
REMARK INTER + INTRA:          -7.237
REMARK INTER:                  -6.013
REMARK INTRA:                  -1.224
REMARK UNBOUND:                -1.536
REMARK SMILES CCCCCCCCCCCC(=O)[O-]
REMARK SMILES IDX 7 1 8 2 9 3 10 4 11 5 12 6 13 7 14 8 6 9 5 10 4 11 3 12 2 13
REMARK SMILES IDX 1 14
REMARK H PARENT
REMARK Flexibility Score: inf
ROOT
ATOM      1  C   UNL     1       7.498 -17.362  23.062  1.00  0.00     0.000 C 
ENDROOT
BRANCH   1   2
ATOM      2  C   UNL     1       6.674 -16.429  23.964  1.00  0.00     0.000 C 
BRANCH   2   3
ATOM      3  C   UNL     1       6.737 -16.835  25.447  1.00  0.00     0.000 C 
BRANCH   3   4
ATOM      4  C   UNL     1       7.844 -16.095  26.214  1.00  0.00     0.006 C 
BRANCH   4   5
ATOM      5  C   UNL     1       9.138 -16.913  26.323  1.00  0.00     0.053 C 
BRANCH   5   6
ATOM      6  C   UNL     1      10.242 -16.245  25.566  1.00  0.00     0.041 C 
ATOM      7  O   UNL     1      11.425 -16.663  25.671  1.00  0.00    -0.550 OA
ATOM      8  O   UNL     1       9.972 -15.131  24.783  1.00  0.00    -0.550 OA
ENDBRANCH   5   6
ENDBRANCH   4   5
ENDBRANCH   3   4
ENDBRANCH   2   3
ENDBRANCH   1   2
BRANCH   1   9
ATOM      9  C   UNL     1       6.968 -18.804  23.056  1.00  0.00     0.000 C 
BRANCH   9  10
ATOM     10  C   UNL     1       7.991 -19.766  23.682  1.00  0.00    -0.000 C 
BRANCH  10  11
ATOM     11  C   UNL     1       7.349 -20.765  24.658  1.00  0.00    -0.000 C 
BRANCH  11  12
ATOM     12  C   UNL     1       7.992 -20.724  26.054  1.00  0.00    -0.000 C 
BRANCH  12  13
ATOM     13  C   UNL     1       7.080 -20.070  27.104  1.00  0.00    -0.003 C 
ATOM     14  C   UNL     1       6.135 -21.068  27.773  1.00  0.00     0.004 C 
ENDBRANCH  12  13
ENDBRANCH  11  12
ENDBRANCH  10  11
ENDBRANCH   9  10
ENDBRANCH   1   9
TORSDOF 10
ENDMDL
MODEL 8
REMARK VINA RESULT:    -3.586      3.279      5.625
REMARK INTER + INTRA:          -7.219
REMARK INTER:                  -5.632
REMARK INTRA:                  -1.587
REMARK UNBOUND:                -1.536
REMARK SMILES CCCCCCCCCCCC(=O)[O-]
REMARK SMILES IDX 7 1 8 2 9 3 10 4 11 5 12 6 13 7 14 8 6 9 5 10 4 11 3 12 2 13
REMARK SMILES IDX 1 14
REMARK H PARENT
REMARK Flexibility Score: inf
ROOT
ATOM      1  C   UNL     1       9.884 -15.010  24.364  1.00  0.00     0.000 C 
ENDROOT
BRANCH   1   2
ATOM      2  C   UNL     1      10.655 -16.115  25.103  1.00  0.00     0.000 C 
BRANCH   2   3
ATOM      3  C   UNL     1       9.983 -16.522  26.426  1.00  0.00     0.000 C 
BRANCH   3   4
ATOM      4  C   UNL     1       9.792 -18.043  26.547  1.00  0.00     0.006 C 
BRANCH   4   5
ATOM      5  C   UNL     1      10.589 -18.825  25.494  1.00  0.00     0.053 C 
BRANCH   5   6
ATOM      6  C   UNL     1      11.711 -19.575  26.142  1.00  0.00     0.041 C 
ATOM      7  O   UNL     1      12.658 -18.951  26.687  1.00  0.00    -0.550 OA
ATOM      8  O   UNL     1      11.734 -20.963  26.100  1.00  0.00    -0.550 OA
ENDBRANCH   5   6
ENDBRANCH   4   5
ENDBRANCH   3   4
ENDBRANCH   2   3
ENDBRANCH   1   2
BRANCH   1   9
ATOM      9  C   UNL     1       8.546 -14.667  25.037  1.00  0.00     0.000 C 
BRANCH   9  10
ATOM     10  C   UNL     1       7.489 -14.284  23.988  1.00  0.00    -0.000 C 
BRANCH  10  11
ATOM     11  C   UNL     1       6.485 -15.416  23.714  1.00  0.00    -0.000 C 
BRANCH  11  12
ATOM     12  C   UNL     1       6.551 -16.533  24.768  1.00  0.00    -0.000 C 
BRANCH  12  13
ATOM     13  C   UNL     1       6.926 -17.895  24.161  1.00  0.00    -0.003 C 
ATOM     14  C   UNL     1       7.801 -17.767  22.915  1.00  0.00     0.004 C 
ENDBRANCH  12  13
ENDBRANCH  11  12
ENDBRANCH  10  11
ENDBRANCH   9  10
ENDBRANCH   1   9
TORSDOF 10
ENDMDL
MODEL 9
REMARK VINA RESULT:    -3.570      1.200      2.046
REMARK INTER + INTRA:          -7.194
REMARK INTER:                  -5.863
REMARK INTRA:                  -1.331
REMARK UNBOUND:                -1.536
REMARK SMILES CCCCCCCCCCCC(=O)[O-]
REMARK SMILES IDX 7 1 8 2 9 3 10 4 11 5 12 6 13 7 14 8 6 9 5 10 4 11 3 12 2 13
REMARK SMILES IDX 1 14
REMARK H PARENT
REMARK Flexibility Score: inf
ROOT
ATOM      1  C   UNL     1       6.731 -19.530  23.044  1.00  0.00     0.000 C 
ENDROOT
BRANCH   1   2
ATOM      2  C   UNL     1       7.458 -18.204  23.319  1.00  0.00     0.000 C 
BRANCH   2   3
ATOM      3  C   UNL     1       7.048 -17.572  24.660  1.00  0.00     0.000 C 
BRANCH   3   4
ATOM      4  C   UNL     1       8.258 -17.129  25.498  1.00  0.00     0.006 C 
BRANCH   4   5
ATOM      5  C   UNL     1       8.148 -15.673  25.973  1.00  0.00     0.053 C 
BRANCH   5   6
ATOM      6  C   UNL     1       8.372 -14.734  24.830  1.00  0.00     0.041 C 
ATOM      7  O   UNL     1       7.391 -14.255  24.203  1.00  0.00    -0.550 OA
ATOM      8  O   UNL     1       9.665 -14.427  24.426  1.00  0.00    -0.550 OA
ENDBRANCH   5   6
ENDBRANCH   4   5
ENDBRANCH   3   4
ENDBRANCH   2   3
ENDBRANCH   1   2
BRANCH   1   9
ATOM      9  C   UNL     1       7.614 -20.551  22.311  1.00  0.00     0.000 C 
BRANCH   9  10
ATOM     10  C   UNL     1       8.897 -20.838  23.107  1.00  0.00    -0.000 C 
BRANCH  10  11
ATOM     11  C   UNL     1       8.619 -21.508  24.463  1.00  0.00    -0.000 C 
BRANCH  11  12
ATOM     12  C   UNL     1       9.324 -20.797  25.629  1.00  0.00    -0.000 C 
BRANCH  12  13
ATOM     13  C   UNL     1       8.459 -20.747  26.899  1.00  0.00    -0.003 C 
ATOM     14  C   UNL     1       6.963 -20.832  26.599  1.00  0.00     0.004 C 
ENDBRANCH  12  13
ENDBRANCH  11  12
ENDBRANCH  10  11
ENDBRANCH   9  10
ENDBRANCH   1   9
TORSDOF 10
ENDMDL
