MODEL 1
REMARK VINA RESULT:    -5.395      0.000      0.000
REMARK INTER + INTRA:          -9.305
REMARK INTER:                  -8.549
REMARK INTRA:                  -0.756
REMARK UNBOUND:                -0.756
REMARK SMILES CCCCCCCCCCCC(=O)[O-]
REMARK SMILES IDX 7 1 8 2 9 3 10 4 11 5 12 6 13 7 14 8 6 9 5 10 4 11 3 12 2 13
REMARK SMILES IDX 1 14
REMARK H PARENT
REMARK Flexibility Score: inf
ROOT
ATOM      1  C   UNL     1     -16.063  28.636   0.112  1.00  0.00     0.000 C 
ENDROOT
BRANCH   1   2
ATOM      2  C   UNL     1     -17.437  28.133  -0.363  1.00  0.00     0.000 C 
BRANCH   2   3
ATOM      3  C   UNL     1     -17.403  26.664  -0.816  1.00  0.00     0.000 C 
BRANCH   3   4
ATOM      4  C   UNL     1     -17.077  25.698   0.336  1.00  0.00     0.006 C 
BRANCH   4   5
ATOM      5  C   UNL     1     -18.290  25.449   1.243  1.00  0.00     0.053 C 
BRANCH   5   6
ATOM      6  C   UNL     1     -19.270  24.504   0.618  1.00  0.00     0.041 C 
ATOM      7  O   UNL     1     -18.884  23.388   0.181  1.00  0.00    -0.550 OA
ATOM      8  O   UNL     1     -20.616  24.843   0.547  1.00  0.00    -0.550 OA
ENDBRANCH   5   6
ENDBRANCH   4   5
ENDBRANCH   3   4
ENDBRANCH   2   3
ENDBRANCH   1   2
BRANCH   1   9
ATOM      9  C   UNL     1     -16.117  29.320   1.490  1.00  0.00     0.000 C 
BRANCH   9  10
ATOM     10  C   UNL     1     -15.522  30.738   1.539  1.00  0.00    -0.000 C 
BRANCH  10  11
ATOM     11  C   UNL     1     -16.587  31.839   1.398  1.00  0.00    -0.000 C 
BRANCH  11  12
ATOM     12  C   UNL     1     -16.129  33.002   0.500  1.00  0.00    -0.000 C 
BRANCH  12  13
ATOM     13  C   UNL     1     -17.100  33.355  -0.642  1.00  0.00    -0.003 C 
ATOM     14  C   UNL     1     -18.008  32.190  -1.036  1.00  0.00     0.004 C 
ENDBRANCH  12  13
ENDBRANCH  11  12
ENDBRANCH  10  11
ENDBRANCH   9  10
ENDBRANCH   1   9
TORSDOF 10
ENDMDL
MODEL 2
REMARK VINA RESULT:    -5.188      2.776      6.088
REMARK INTER + INTRA:          -8.978
REMARK INTER:                  -8.431
REMARK INTRA:                  -0.547
REMARK UNBOUND:                -0.756
REMARK SMILES CCCCCCCCCCCC(=O)[O-]
REMARK SMILES IDX 7 1 8 2 9 3 10 4 11 5 12 6 13 7 14 8 6 9 5 10 4 11 3 12 2 13
REMARK SMILES IDX 1 14
REMARK H PARENT
REMARK Flexibility Score: inf
ROOT
ATOM      1  C   UNL     1     -16.147  31.058   2.596  1.00  0.00     0.000 C 
ENDROOT
BRANCH   1   2
ATOM      2  C   UNL     1     -15.898  31.519   1.149  1.00  0.00     0.000 C 
BRANCH   2   3
ATOM      3  C   UNL     1     -16.608  32.844   0.822  1.00  0.00     0.000 C 
BRANCH   3   4
ATOM      4  C   UNL     1     -16.972  32.968  -0.668  1.00  0.00     0.006 C 
BRANCH   4   5
ATOM      5  C   UNL     1     -18.345  32.359  -0.980  1.00  0.00     0.053 C 
BRANCH   5   6
ATOM      6  C   UNL     1     -18.230  31.122  -1.819  1.00  0.00     0.041 C 
ATOM      7  O   UNL     1     -18.160  31.212  -3.073  1.00  0.00    -0.550 OA
ATOM      8  O   UNL     1     -18.168  29.873  -1.213  1.00  0.00    -0.550 OA
ENDBRANCH   5   6
ENDBRANCH   4   5
ENDBRANCH   3   4
ENDBRANCH   2   3
ENDBRANCH   1   2
BRANCH   1   9
ATOM      9  C   UNL     1     -15.871  29.558   2.804  1.00  0.00     0.000 C 
BRANCH   9  10
ATOM     10  C   UNL     1     -16.218  28.659   1.603  1.00  0.00    -0.000 C 
BRANCH  10  11
ATOM     11  C   UNL     1     -16.471  27.196   2.006  1.00  0.00    -0.000 C 
BRANCH  11  12
ATOM     12  C   UNL     1     -16.177  26.203   0.867  1.00  0.00    -0.000 C 
BRANCH  12  13
ATOM     13  C   UNL     1     -17.397  25.831   0.007  1.00  0.00    -0.003 C 
ATOM     14  C   UNL     1     -18.510  25.155   0.808  1.00  0.00     0.004 C 
ENDBRANCH  12  13
ENDBRANCH  11  12
ENDBRANCH  10  11
ENDBRANCH   9  10
ENDBRANCH   1   9
TORSDOF 10
ENDMDL
MODEL 3
REMARK VINA RESULT:    -5.157      1.296      1.994
REMARK INTER + INTRA:          -8.927
REMARK INTER:                  -8.415
REMARK INTRA:                  -0.513
REMARK UNBOUND:                -0.756
REMARK SMILES CCCCCCCCCCCC(=O)[O-]
REMARK SMILES IDX 7 1 8 2 9 3 10 4 11 5 12 6 13 7 14 8 6 9 5 10 4 11 3 12 2 13
REMARK SMILES IDX 1 14
REMARK H PARENT
REMARK Flexibility Score: inf
ROOT
ATOM      1  C   UNL     1     -16.258  27.357  -0.112  1.00  0.00     0.000 C 
ENDROOT
BRANCH   1   2
ATOM      2  C   UNL     1     -16.360  26.548   1.193  1.00  0.00     0.000 C 
BRANCH   2   3
ATOM      3  C   UNL     1     -17.685  25.776   1.306  1.00  0.00     0.000 C 
BRANCH   3   4
ATOM      4  C   UNL     1     -18.071  25.068  -0.004  1.00  0.00     0.006 C 
BRANCH   4   5
ATOM      5  C   UNL     1     -19.007  23.875   0.237  1.00  0.00     0.053 C 
BRANCH   5   6
ATOM      6  C   UNL     1     -18.927  22.871  -0.873  1.00  0.00     0.041 C 
ATOM      7  O   UNL     1     -19.236  23.200  -2.048  1.00  0.00    -0.550 OA
ATOM      8  O   UNL     1     -18.480  21.581  -0.614  1.00  0.00    -0.550 OA
ENDBRANCH   5   6
ENDBRANCH   4   5
ENDBRANCH   3   4
ENDBRANCH   2   3
ENDBRANCH   1   2
BRANCH   1   9
ATOM      9  C   UNL     1     -16.593  28.848   0.079  1.00  0.00     0.000 C 
BRANCH   9  10
ATOM     10  C   UNL     1     -16.105  29.460   1.405  1.00  0.00    -0.000 C 
BRANCH  10  11
ATOM     11  C   UNL     1     -15.541  30.882   1.235  1.00  0.00    -0.000 C 
BRANCH  11  12
ATOM     12  C   UNL     1     -16.614  31.973   1.399  1.00  0.00    -0.000 C 
BRANCH  12  13
ATOM     13  C   UNL     1     -16.622  33.039   0.289  1.00  0.00    -0.003 C 
ATOM     14  C   UNL     1     -17.696  32.791  -0.770  1.00  0.00     0.004 C 
ENDBRANCH  12  13
ENDBRANCH  11  12
ENDBRANCH  10  11
ENDBRANCH   9  10
ENDBRANCH   1   9
TORSDOF 10
ENDMDL
MODEL 4
REMARK VINA RESULT:    -5.069      0.973      2.263
REMARK INTER + INTRA:          -8.789
REMARK INTER:                  -8.165
REMARK INTRA:                  -0.624
REMARK UNBOUND:                -0.756
REMARK SMILES CCCCCCCCCCCC(=O)[O-]
REMARK SMILES IDX 7 1 8 2 9 3 10 4 11 5 12 6 13 7 14 8 6 9 5 10 4 11 3 12 2 13
REMARK SMILES IDX 1 14
REMARK H PARENT
REMARK Flexibility Score: inf
ROOT
ATOM      1  C   UNL     1     -18.513  28.848  -1.033  1.00  0.00     0.000 C 
ENDROOT
BRANCH   1   2
ATOM      2  C   UNL     1     -17.103  29.025  -0.445  1.00  0.00     0.000 C 
BRANCH   2   3
ATOM      3  C   UNL     1     -16.529  27.713   0.116  1.00  0.00     0.000 C 
BRANCH   3   4
ATOM      4  C   UNL     1     -17.361  26.484  -0.289  1.00  0.00     0.006 C 
BRANCH   4   5
ATOM      5  C   UNL     1     -17.854  25.692   0.929  1.00  0.00     0.053 C 
BRANCH   5   6
ATOM      6  C   UNL     1     -18.958  24.744   0.569  1.00  0.00     0.041 C 
ATOM      7  O   UNL     1     -18.691  23.563   0.227  1.00  0.00    -0.550 OA
ATOM      8  O   UNL     1     -20.283  25.157   0.644  1.00  0.00    -0.550 OA
ENDBRANCH   5   6
ENDBRANCH   4   5
ENDBRANCH   3   4
ENDBRANCH   2   3
ENDBRANCH   1   2
BRANCH   1   9
ATOM      9  C   UNL     1     -18.996  30.082  -1.817  1.00  0.00     0.000 C 
BRANCH   9  10
ATOM     10  C   UNL     1     -17.982  31.237  -1.903  1.00  0.00    -0.000 C 
BRANCH  10  11
ATOM     11  C   UNL     1     -18.242  32.340  -0.863  1.00  0.00    -0.000 C 
BRANCH  11  12
ATOM     12  C   UNL     1     -17.079  33.341  -0.750  1.00  0.00    -0.000 C 
BRANCH  12  13
ATOM     13  C   UNL     1     -16.367  33.349   0.615  1.00  0.00    -0.003 C 
ATOM     14  C   UNL     1     -16.511  32.030   1.373  1.00  0.00     0.004 C 
ENDBRANCH  12  13
ENDBRANCH  11  12
ENDBRANCH  10  11
ENDBRANCH   9  10
ENDBRANCH   1   9
TORSDOF 10
ENDMDL
MODEL 5
REMARK VINA RESULT:    -5.008      3.688      7.248
REMARK INTER + INTRA:          -8.692
REMARK INTER:                  -8.120
REMARK INTRA:                  -0.572
REMARK UNBOUND:                -0.756
REMARK SMILES CCCCCCCCCCCC(=O)[O-]
REMARK SMILES IDX 7 1 8 2 9 3 10 4 11 5 12 6 13 7 14 8 6 9 5 10 4 11 3 12 2 13
REMARK SMILES IDX 1 14
REMARK H PARENT
REMARK Flexibility Score: inf
ROOT
ATOM      1  C   UNL     1     -16.351  26.608   1.433  1.00  0.00     0.000 C 
ENDROOT
BRANCH   1   2
ATOM      2  C   UNL     1     -16.322  28.030   2.020  1.00  0.00     0.000 C 
BRANCH   2   3
ATOM      3  C   UNL     1     -16.252  29.115   0.931  1.00  0.00     0.000 C 
BRANCH   3   4
ATOM      4  C   UNL     1     -15.466  30.357   1.384  1.00  0.00     0.006 C 
BRANCH   4   5
ATOM      5  C   UNL     1     -16.384  31.442   1.965  1.00  0.00     0.053 C 
BRANCH   5   6
ATOM      6  C   UNL     1     -16.694  32.508   0.958  1.00  0.00     0.041 C 
ATOM      7  O   UNL     1     -17.613  32.335   0.116  1.00  0.00    -0.550 OA
ATOM      8  O   UNL     1     -15.989  33.706   0.972  1.00  0.00    -0.550 OA
ENDBRANCH   5   6
ENDBRANCH   4   5
ENDBRANCH   3   4
ENDBRANCH   2   3
ENDBRANCH   1   2
BRANCH   1   9
ATOM      9  C   UNL     1     -16.610  26.590  -0.084  1.00  0.00     0.000 C 
BRANCH   9  10
ATOM     10  C   UNL     1     -17.840  25.777  -0.526  1.00  0.00    -0.000 C 
BRANCH  10  11
ATOM     11  C   UNL     1     -18.570  25.109   0.652  1.00  0.00    -0.000 C 
BRANCH  11  12
ATOM     12  C   UNL     1     -19.365  23.860   0.232  1.00  0.00    -0.000 C 
BRANCH  12  13
ATOM     13  C   UNL     1     -18.802  23.122  -0.996  1.00  0.00    -0.003 C 
ATOM     14  C   UNL     1     -19.891  22.503  -1.872  1.00  0.00     0.004 C 
ENDBRANCH  12  13
ENDBRANCH  11  12
ENDBRANCH  10  11
ENDBRANCH   9  10
ENDBRANCH   1   9
TORSDOF 10
ENDMDL
MODEL 6
REMARK VINA RESULT:    -4.912      3.666      7.317
REMARK INTER + INTRA:          -8.540
REMARK INTER:                  -8.077
REMARK INTRA:                  -0.464
REMARK UNBOUND:                -0.756
REMARK SMILES CCCCCCCCCCCC(=O)[O-]
REMARK SMILES IDX 7 1 8 2 9 3 10 4 11 5 12 6 13 7 14 8 6 9 5 10 4 11 3 12 2 13
REMARK SMILES IDX 1 14
REMARK H PARENT
REMARK Flexibility Score: inf
ROOT
ATOM      1  C   UNL     1     -17.501  27.901  -0.310  1.00  0.00     0.000 C 
ENDROOT
BRANCH   1   2
ATOM      2  C   UNL     1     -16.246  28.759  -0.071  1.00  0.00     0.000 C 
BRANCH   2   3
ATOM      3  C   UNL     1     -16.068  29.144   1.408  1.00  0.00     0.000 C 
BRANCH   3   4
ATOM      4  C   UNL     1     -15.422  30.529   1.584  1.00  0.00     0.006 C 
BRANCH   4   5
ATOM      5  C   UNL     1     -16.441  31.592   2.013  1.00  0.00     0.053 C 
BRANCH   5   6
ATOM      6  C   UNL     1     -16.617  32.651   0.967  1.00  0.00     0.041 C 
ATOM      7  O   UNL     1     -15.977  33.732   1.047  1.00  0.00    -0.550 OA
ATOM      8  O   UNL     1     -17.463  32.430  -0.113  1.00  0.00    -0.550 OA
ENDBRANCH   5   6
ENDBRANCH   4   5
ENDBRANCH   3   4
ENDBRANCH   2   3
ENDBRANCH   1   2
BRANCH   1   9
ATOM      9  C   UNL     1     -17.211  26.390  -0.270  1.00  0.00     0.000 C 
BRANCH   9  10
ATOM     10  C   UNL     1     -17.913  25.621   0.864  1.00  0.00    -0.000 C 
BRANCH  10  11
ATOM     11  C   UNL     1     -19.020  24.682   0.354  1.00  0.00    -0.000 C 
BRANCH  11  12
ATOM     12  C   UNL     1     -18.535  23.736  -0.759  1.00  0.00    -0.000 C 
BRANCH  12  13
ATOM     13  C   UNL     1     -19.659  23.031  -1.539  1.00  0.00    -0.003 C 
ATOM     14  C   UNL     1     -20.968  22.945  -0.756  1.00  0.00     0.004 C 
ENDBRANCH  12  13
ENDBRANCH  11  12
ENDBRANCH  10  11
ENDBRANCH   9  10
ENDBRANCH   1   9
TORSDOF 10
ENDMDL
MODEL 7
REMARK VINA RESULT:    -4.865      3.273      5.831
REMARK INTER + INTRA:          -8.465
REMARK INTER:                  -7.584
REMARK INTRA:                  -0.881
REMARK UNBOUND:                -0.756
REMARK SMILES CCCCCCCCCCCC(=O)[O-]
REMARK SMILES IDX 7 1 8 2 9 3 10 4 11 5 12 6 13 7 14 8 6 9 5 10 4 11 3 12 2 13
REMARK SMILES IDX 1 14
REMARK H PARENT
REMARK Flexibility Score: inf
ROOT
ATOM      1  C   UNL     1     -16.970  33.284  -0.809  1.00  0.00     0.000 C 
ENDROOT
BRANCH   1   2
ATOM      2  C   UNL     1     -16.368  33.269   0.607  1.00  0.00     0.000 C 
BRANCH   2   3
ATOM      3  C   UNL     1     -16.692  31.973   1.371  1.00  0.00     0.000 C 
BRANCH   3   4
ATOM      4  C   UNL     1     -15.466  31.058   1.528  1.00  0.00     0.006 C 
BRANCH   4   5
ATOM      5  C   UNL     1     -15.765  29.837   2.409  1.00  0.00     0.053 C 
BRANCH   5   6
ATOM      6  C   UNL     1     -16.094  30.232   3.817  1.00  0.00     0.041 C 
ATOM      7  O   UNL     1     -15.535  31.231   4.341  1.00  0.00    -0.550 OA
ATOM      8  O   UNL     1     -17.041  29.515   4.539  1.00  0.00    -0.550 OA
ENDBRANCH   5   6
ENDBRANCH   4   5
ENDBRANCH   3   4
ENDBRANCH   2   3
ENDBRANCH   1   2
BRANCH   1   9
ATOM      9  C   UNL     1     -18.219  32.393  -0.940  1.00  0.00     0.000 C 
BRANCH   9  10
ATOM     10  C   UNL     1     -18.139  31.316  -2.036  1.00  0.00    -0.000 C 
BRANCH  10  11
ATOM     11  C   UNL     1     -18.618  29.935  -1.554  1.00  0.00    -0.000 C 
BRANCH  11  12
ATOM     12  C   UNL     1     -17.543  29.174  -0.760  1.00  0.00    -0.000 C 
BRANCH  12  13
ATOM     13  C   UNL     1     -17.806  27.666  -0.602  1.00  0.00    -0.003 C 
ATOM     14  C   UNL     1     -16.983  27.028   0.517  1.00  0.00     0.004 C 
ENDBRANCH  12  13
ENDBRANCH  11  12
ENDBRANCH  10  11
ENDBRANCH   9  10
ENDBRANCH   1   9
TORSDOF 10
ENDMDL
MODEL 8
REMARK VINA RESULT:    -4.709      3.069      6.881
REMARK INTER + INTRA:          -8.217
REMARK INTER:                  -7.551
REMARK INTRA:                  -0.666
REMARK UNBOUND:                -0.756
REMARK SMILES CCCCCCCCCCCC(=O)[O-]
REMARK SMILES IDX 7 1 8 2 9 3 10 4 11 5 12 6 13 7 14 8 6 9 5 10 4 11 3 12 2 13
REMARK SMILES IDX 1 14
REMARK H PARENT
REMARK Flexibility Score: inf
ROOT
ATOM      1  C   UNL     1     -16.954  26.182   1.238  1.00  0.00     0.000 C 
ENDROOT
BRANCH   1   2
ATOM      2  C   UNL     1     -16.276  27.055   0.167  1.00  0.00     0.000 C 
BRANCH   2   3
ATOM      3  C   UNL     1     -16.079  28.508   0.630  1.00  0.00     0.000 C 
BRANCH   3   4
ATOM      4  C   UNL     1     -17.028  29.489  -0.082  1.00  0.00     0.006 C 
BRANCH   4   5
ATOM      5  C   UNL     1     -18.040  28.765  -0.979  1.00  0.00     0.053 C 
BRANCH   5   6
ATOM      6  C   UNL     1     -18.871  29.728  -1.772  1.00  0.00     0.041 C 
ATOM      7  O   UNL     1     -20.127  29.652  -1.745  1.00  0.00    -0.550 OA
ATOM      8  O   UNL     1     -18.257  30.729  -2.515  1.00  0.00    -0.550 OA
ENDBRANCH   5   6
ENDBRANCH   4   5
ENDBRANCH   3   4
ENDBRANCH   2   3
ENDBRANCH   1   2
BRANCH   1   9
ATOM      9  C   UNL     1     -18.254  25.525   0.740  1.00  0.00     0.000 C 
BRANCH   9  10
ATOM     10  C   UNL     1     -18.168  24.885  -0.657  1.00  0.00    -0.000 C 
BRANCH  10  11
ATOM     11  C   UNL     1     -18.522  23.388  -0.653  1.00  0.00    -0.000 C 
BRANCH  11  12
ATOM     12  C   UNL     1     -19.547  23.013  -1.738  1.00  0.00    -0.000 C 
BRANCH  12  13
ATOM     13  C   UNL     1     -20.865  22.426  -1.202  1.00  0.00    -0.003 C 
ATOM     14  C   UNL     1     -21.561  23.340  -0.193  1.00  0.00     0.004 C 
ENDBRANCH  12  13
ENDBRANCH  11  12
ENDBRANCH  10  11
ENDBRANCH   9  10
ENDBRANCH   1   9
TORSDOF 10
ENDMDL
MODEL 9
REMARK VINA RESULT:    -4.637      2.255      3.536
REMARK INTER + INTRA:          -8.105
REMARK INTER:                  -7.495
REMARK INTRA:                  -0.609
REMARK UNBOUND:                -0.756
REMARK SMILES CCCCCCCCCCCC(=O)[O-]
REMARK SMILES IDX 7 1 8 2 9 3 10 4 11 5 12 6 13 7 14 8 6 9 5 10 4 11 3 12 2 13
REMARK SMILES IDX 1 14
REMARK H PARENT
REMARK Flexibility Score: inf
ROOT
ATOM      1  C   UNL     1     -17.091  26.140   1.202  1.00  0.00     0.000 C 
ENDROOT
BRANCH   1   2
ATOM      2  C   UNL     1     -17.899  25.464   0.080  1.00  0.00     0.000 C 
BRANCH   2   3
ATOM      3  C   UNL     1     -19.184  24.797   0.600  1.00  0.00     0.000 C 
BRANCH   3   4
ATOM      4  C   UNL     1     -19.332  23.343   0.119  1.00  0.00     0.006 C 
BRANCH   4   5
ATOM      5  C   UNL     1     -18.894  23.170  -1.342  1.00  0.00     0.053 C 
BRANCH   5   6
ATOM      6  C   UNL     1     -19.600  22.026  -2.004  1.00  0.00     0.041 C 
ATOM      7  O   UNL     1     -18.939  21.104  -2.550  1.00  0.00    -0.550 OA
ATOM      8  O   UNL     1     -20.988  21.963  -1.991  1.00  0.00    -0.550 OA
ENDBRANCH   5   6
ENDBRANCH   4   5
ENDBRANCH   3   4
ENDBRANCH   2   3
ENDBRANCH   1   2
BRANCH   1   9
ATOM      9  C   UNL     1     -16.230  27.313   0.697  1.00  0.00     0.000 C 
BRANCH   9  10
ATOM     10  C   UNL     1     -16.992  28.383  -0.105  1.00  0.00    -0.000 C 
BRANCH  10  11
ATOM     11  C   UNL     1     -16.605  29.818   0.293  1.00  0.00    -0.000 C 
BRANCH  11  12
ATOM     12  C   UNL     1     -15.507  29.863   1.371  1.00  0.00    -0.000 C 
BRANCH  12  13
ATOM     13  C   UNL     1     -15.955  30.452   2.720  1.00  0.00    -0.003 C 
ATOM     14  C   UNL     1     -16.202  29.385   3.787  1.00  0.00     0.004 C 
ENDBRANCH  12  13
ENDBRANCH  11  12
ENDBRANCH  10  11
ENDBRANCH   9  10
ENDBRANCH   1   9
TORSDOF 10
ENDMDL
