MODEL 1
REMARK VINA RESULT:    -5.703      0.000      0.000
REMARK INTER + INTRA:          -6.764
REMARK INTER:                  -6.536
REMARK INTRA:                  -0.227
REMARK UNBOUND:                -0.227
REMARK SMILES O=C([O-])C=Cc1ccc(O)cc1
REMARK SMILES IDX 6 1 7 2 12 3 8 4 11 5 9 6 5 7 4 8 2 9 1 10 3 11 10 12
REMARK H PARENT 10 13
REMARK Flexibility Score: inf
ROOT
ATOM      1  C   UNL     1     -31.343  -3.104 -17.948  1.00  0.00    -0.025 A 
ATOM      2  C   UNL     1     -30.043  -3.078 -18.474  1.00  0.00     0.012 A 
ATOM      3  C   UNL     1     -32.420  -2.694 -18.755  1.00  0.00     0.012 A 
ATOM      4  C   UNL     1     -29.825  -2.699 -19.802  1.00  0.00     0.047 A 
ATOM      5  C   UNL     1     -32.201  -2.314 -20.082  1.00  0.00     0.047 A 
ATOM      6  C   UNL     1     -30.905  -2.319 -20.611  1.00  0.00     0.115 A 
ENDROOT
BRANCH   1   7
ATOM      7  C   UNL     1     -31.544  -3.458 -16.528  1.00  0.00     0.010 C 
ATOM      8  C   UNL     1     -32.141  -4.574 -16.080  1.00  0.00     0.025 C 
BRANCH   8   9
ATOM      9  C   UNL     1     -32.542  -5.729 -16.907  1.00  0.00     0.064 C 
ATOM     10  O   UNL     1     -33.657  -5.766 -17.490  1.00  0.00    -0.545 OA
ATOM     11  O   UNL     1     -31.641  -6.767 -17.101  1.00  0.00    -0.545 OA
ENDBRANCH   8   9
ENDBRANCH   1   7
BRANCH   6  12
ATOM     12  O   UNL     1     -30.701  -1.940 -21.936  1.00  0.00    -0.508 OA
ATOM     13  H   UNL     1     -30.631  -0.965 -22.203  1.00  0.00     0.293 HD
ENDBRANCH   6  12
TORSDOF 3
ENDMDL
MODEL 2
REMARK VINA RESULT:    -5.506      6.169      9.213
REMARK INTER + INTRA:          -6.538
REMARK INTER:                  -6.245
REMARK INTRA:                  -0.293
REMARK UNBOUND:                -0.227
REMARK SMILES O=C([O-])C=Cc1ccc(O)cc1
REMARK SMILES IDX 6 1 7 2 12 3 8 4 11 5 9 6 5 7 4 8 2 9 1 10 3 11 10 12
REMARK H PARENT 10 13
REMARK Flexibility Score: inf
ROOT
ATOM      1  C   UNL     1     -37.148  -6.942 -13.319  1.00  0.00    -0.025 A 
ATOM      2  C   UNL     1     -36.953  -8.318 -13.503  1.00  0.00     0.012 A 
ATOM      3  C   UNL     1     -38.458  -6.442 -13.208  1.00  0.00     0.012 A 
ATOM      4  C   UNL     1     -38.045  -9.191 -13.523  1.00  0.00     0.047 A 
ATOM      5  C   UNL     1     -39.550  -7.316 -13.229  1.00  0.00     0.047 A 
ATOM      6  C   UNL     1     -39.347  -8.691 -13.383  1.00  0.00     0.115 A 
ENDROOT
BRANCH   1   7
ATOM      7  C   UNL     1     -35.984  -6.033 -13.353  1.00  0.00     0.010 C 
ATOM      8  C   UNL     1     -35.430  -5.518 -14.462  1.00  0.00     0.025 C 
BRANCH   8   9
ATOM      9  C   UNL     1     -35.984  -5.615 -15.827  1.00  0.00     0.064 C 
ATOM     10  O   UNL     1     -35.569  -6.475 -16.648  1.00  0.00    -0.545 OA
ATOM     11  O   UNL     1     -37.033  -4.782 -16.191  1.00  0.00    -0.545 OA
ENDBRANCH   8   9
ENDBRANCH   1   7
BRANCH   6  12
ATOM     12  O   UNL     1     -40.443  -9.551 -13.400  1.00  0.00    -0.508 OA
ATOM     13  H   UNL     1     -41.221  -9.430 -12.762  1.00  0.00     0.293 HD
ENDBRANCH   6  12
TORSDOF 3
ENDMDL
MODEL 3
REMARK VINA RESULT:    -5.491      6.109      9.238
REMARK INTER + INTRA:          -6.520
REMARK INTER:                  -6.220
REMARK INTRA:                  -0.300
REMARK UNBOUND:                -0.227
REMARK SMILES O=C([O-])C=Cc1ccc(O)cc1
REMARK SMILES IDX 6 1 7 2 12 3 8 4 11 5 9 6 5 7 4 8 2 9 1 10 3 11 10 12
REMARK H PARENT 10 13
REMARK Flexibility Score: inf
ROOT
ATOM      1  C   UNL     1     -37.096  -6.962 -13.385  1.00  0.00    -0.025 A 
ATOM      2  C   UNL     1     -38.391  -6.453 -13.207  1.00  0.00     0.012 A 
ATOM      3  C   UNL     1     -36.916  -8.349 -13.531  1.00  0.00     0.012 A 
ATOM      4  C   UNL     1     -39.496  -7.309 -13.227  1.00  0.00     0.047 A 
ATOM      5  C   UNL     1     -38.022  -9.204 -13.551  1.00  0.00     0.047 A 
ATOM      6  C   UNL     1     -39.314  -8.688 -13.403  1.00  0.00     0.115 A 
ENDROOT
BRANCH   1   7
ATOM      7  C   UNL     1     -35.940  -6.045 -13.308  1.00  0.00     0.010 C 
ATOM      8  C   UNL     1     -35.309  -5.496 -14.358  1.00  0.00     0.025 C 
BRANCH   8   9
ATOM      9  C   UNL     1     -35.759  -5.559 -15.762  1.00  0.00     0.064 C 
ATOM     10  O   UNL     1     -35.333  -6.442 -16.552  1.00  0.00    -0.545 OA
ATOM     11  O   UNL     1     -36.725  -4.664 -16.204  1.00  0.00    -0.545 OA
ENDBRANCH   8   9
ENDBRANCH   1   7
BRANCH   6  12
ATOM     12  O   UNL     1     -40.407  -9.550 -13.426  1.00  0.00    -0.508 OA
ATOM     13  H   UNL     1     -40.834  -9.842 -14.297  1.00  0.00     0.293 HD
ENDBRANCH   6  12
TORSDOF 3
ENDMDL
MODEL 4
REMARK VINA RESULT:    -5.101      5.609      7.533
REMARK INTER + INTRA:          -6.074
REMARK INTER:                  -5.873
REMARK INTRA:                  -0.202
REMARK UNBOUND:                -0.227
REMARK SMILES O=C([O-])C=Cc1ccc(O)cc1
REMARK SMILES IDX 6 1 7 2 12 3 8 4 11 5 9 6 5 7 4 8 2 9 1 10 3 11 10 12
REMARK H PARENT 10 13
REMARK Flexibility Score: inf
ROOT
ATOM      1  C   UNL     1     -36.206  -6.944 -13.939  1.00  0.00    -0.025 A 
ATOM      2  C   UNL     1     -35.933  -6.861 -15.313  1.00  0.00     0.012 A 
ATOM      3  C   UNL     1     -35.996  -5.816 -13.126  1.00  0.00     0.012 A 
ATOM      4  C   UNL     1     -35.506  -5.655 -15.876  1.00  0.00     0.047 A 
ATOM      5  C   UNL     1     -35.569  -4.611 -13.692  1.00  0.00     0.047 A 
ATOM      6  C   UNL     1     -35.326  -4.525 -15.066  1.00  0.00     0.115 A 
ENDROOT
BRANCH   1   7
ATOM      7  C   UNL     1     -36.605  -8.242 -13.357  1.00  0.00     0.010 C 
ATOM      8  C   UNL     1     -37.830  -8.786 -13.433  1.00  0.00     0.025 C 
BRANCH   8   9
ATOM      9  C   UNL     1     -38.947  -8.284 -14.256  1.00  0.00     0.064 C 
ATOM     10  O   UNL     1     -39.836  -7.532 -13.774  1.00  0.00    -0.545 OA
ATOM     11  O   UNL     1     -38.982  -8.591 -15.610  1.00  0.00    -0.545 OA
ENDBRANCH   8   9
ENDBRANCH   1   7
BRANCH   6  12
ATOM     12  O   UNL     1     -34.902  -3.318 -15.617  1.00  0.00    -0.508 OA
ATOM     13  H   UNL     1     -33.961  -3.199 -15.973  1.00  0.00     0.293 HD
ENDBRANCH   6  12
TORSDOF 3
ENDMDL
MODEL 5
REMARK VINA RESULT:    -5.090      6.237      8.977
REMARK INTER + INTRA:          -6.061
REMARK INTER:                  -5.808
REMARK INTRA:                  -0.253
REMARK UNBOUND:                -0.227
REMARK SMILES O=C([O-])C=Cc1ccc(O)cc1
REMARK SMILES IDX 6 1 7 2 12 3 8 4 11 5 9 6 5 7 4 8 2 9 1 10 3 11 10 12
REMARK H PARENT 10 13
REMARK Flexibility Score: inf
ROOT
ATOM      1  C   UNL     1     -36.862  -7.488 -15.042  1.00  0.00    -0.025 A 
ATOM      2  C   UNL     1     -36.677  -8.057 -13.773  1.00  0.00     0.012 A 
ATOM      3  C   UNL     1     -38.045  -7.760 -15.752  1.00  0.00     0.012 A 
ATOM      4  C   UNL     1     -37.679  -8.843 -13.198  1.00  0.00     0.047 A 
ATOM      5  C   UNL     1     -39.047  -8.547 -15.175  1.00  0.00     0.047 A 
ATOM      6  C   UNL     1     -38.870  -9.087 -13.897  1.00  0.00     0.115 A 
ENDROOT
BRANCH   1   7
ATOM      7  C   UNL     1     -35.768  -6.705 -15.652  1.00  0.00     0.010 C 
ATOM      8  C   UNL     1     -35.518  -5.406 -15.423  1.00  0.00     0.025 C 
BRANCH   8   9
ATOM      9  C   UNL     1     -36.169  -4.571 -14.394  1.00  0.00     0.064 C 
ATOM     10  O   UNL     1     -37.250  -3.966 -14.623  1.00  0.00    -0.545 OA
ATOM     11  O   UNL     1     -35.613  -4.508 -13.124  1.00  0.00    -0.545 OA
ENDBRANCH   8   9
ENDBRANCH   1   7
BRANCH   6  12
ATOM     12  O   UNL     1     -39.877  -9.867 -13.333  1.00  0.00    -0.508 OA
ATOM     13  H   UNL     1     -40.832  -9.536 -13.272  1.00  0.00     0.293 HD
ENDBRANCH   6  12
TORSDOF 3
ENDMDL
MODEL 6
REMARK VINA RESULT:    -5.028      6.733      8.609
REMARK INTER + INTRA:          -5.989
REMARK INTER:                  -5.701
REMARK INTRA:                  -0.289
REMARK UNBOUND:                -0.227
REMARK SMILES O=C([O-])C=Cc1ccc(O)cc1
REMARK SMILES IDX 6 1 7 2 12 3 8 4 11 5 9 6 5 7 4 8 2 9 1 10 3 11 10 12
REMARK H PARENT 10 13
REMARK Flexibility Score: inf
ROOT
ATOM      1  C   UNL     1     -36.851  -6.550 -13.704  1.00  0.00    -0.025 A 
ATOM      2  C   UNL     1     -38.200  -6.638 -13.331  1.00  0.00     0.012 A 
ATOM      3  C   UNL     1     -36.390  -7.300 -14.800  1.00  0.00     0.012 A 
ATOM      4  C   UNL     1     -39.088  -7.422 -14.072  1.00  0.00     0.047 A 
ATOM      5  C   UNL     1     -37.279  -8.084 -15.541  1.00  0.00     0.047 A 
ATOM      6  C   UNL     1     -38.630  -8.145 -15.182  1.00  0.00     0.115 A 
ENDROOT
BRANCH   1   7
ATOM      7  C   UNL     1     -35.920  -5.757 -12.875  1.00  0.00     0.010 C 
ATOM      8  C   UNL     1     -35.633  -4.457 -13.051  1.00  0.00     0.025 C 
BRANCH   8   9
ATOM      9  C   UNL     1     -36.322  -3.541 -13.981  1.00  0.00     0.064 C 
ATOM     10  O   UNL     1     -35.907  -3.358 -15.156  1.00  0.00    -0.545 OA
ATOM     11  O   UNL     1     -37.494  -2.918 -13.573  1.00  0.00    -0.545 OA
ENDBRANCH   8   9
ENDBRANCH   1   7
BRANCH   6  12
ATOM     12  O   UNL     1     -39.506  -8.929 -15.929  1.00  0.00    -0.508 OA
ATOM     13  H   UNL     1     -39.178  -9.515 -16.688  1.00  0.00     0.293 HD
ENDBRANCH   6  12
TORSDOF 3
ENDMDL
MODEL 7
REMARK VINA RESULT:    -4.952      7.457     10.041
REMARK INTER + INTRA:          -5.903
REMARK INTER:                  -5.634
REMARK INTRA:                  -0.269
REMARK UNBOUND:                -0.227
REMARK SMILES O=C([O-])C=Cc1ccc(O)cc1
REMARK SMILES IDX 6 1 7 2 12 3 8 4 11 5 9 6 5 7 4 8 2 9 1 10 3 11 10 12
REMARK H PARENT 10 13
REMARK Flexibility Score: inf
ROOT
ATOM      1  C   UNL     1     -38.664  -6.123 -13.177  1.00  0.00    -0.025 A 
ATOM      2  C   UNL     1     -40.014  -6.413 -12.934  1.00  0.00     0.012 A 
ATOM      3  C   UNL     1     -37.776  -7.175 -13.468  1.00  0.00     0.012 A 
ATOM      4  C   UNL     1     -40.484  -7.726 -13.031  1.00  0.00     0.047 A 
ATOM      5  C   UNL     1     -38.248  -8.487 -13.564  1.00  0.00     0.047 A 
ATOM      6  C   UNL     1     -39.601  -8.767 -13.350  1.00  0.00     0.115 A 
ENDROOT
BRANCH   1   7
ATOM      7  C   UNL     1     -38.180  -4.736 -13.017  1.00  0.00     0.010 C 
ATOM      8  C   UNL     1     -37.913  -3.884 -14.019  1.00  0.00     0.025 C 
BRANCH   8   9
ATOM      9  C   UNL     1     -38.223  -4.106 -15.445  1.00  0.00     0.064 C 
ATOM     10  O   UNL     1     -39.395  -3.992 -15.891  1.00  0.00    -0.545 OA
ATOM     11  O   UNL     1     -37.187  -4.381 -16.328  1.00  0.00    -0.545 OA
ENDBRANCH   8   9
ENDBRANCH   1   7
BRANCH   6  12
ATOM     12  O   UNL     1     -40.058 -10.079 -13.451  1.00  0.00    -0.508 OA
ATOM     13  H   UNL     1     -39.421 -10.852 -13.603  1.00  0.00     0.293 HD
ENDBRANCH   6  12
TORSDOF 3
ENDMDL
MODEL 8
REMARK VINA RESULT:    -4.907      4.403      6.282
REMARK INTER + INTRA:          -5.852
REMARK INTER:                  -5.588
REMARK INTRA:                  -0.264
REMARK UNBOUND:                -0.227
REMARK SMILES O=C([O-])C=Cc1ccc(O)cc1
REMARK SMILES IDX 6 1 7 2 12 3 8 4 11 5 9 6 5 7 4 8 2 9 1 10 3 11 10 12
REMARK H PARENT 10 13
REMARK Flexibility Score: inf
ROOT
ATOM      1  C   UNL     1     -36.530  -5.639 -15.983  1.00  0.00    -0.025 A 
ATOM      2  C   UNL     1     -35.501  -5.995 -16.868  1.00  0.00     0.012 A 
ATOM      3  C   UNL     1     -36.255  -4.744 -14.934  1.00  0.00     0.012 A 
ATOM      4  C   UNL     1     -34.231  -5.426 -16.740  1.00  0.00     0.047 A 
ATOM      5  C   UNL     1     -34.984  -4.175 -14.807  1.00  0.00     0.047 A 
ATOM      6  C   UNL     1     -33.970  -4.511 -15.711  1.00  0.00     0.115 A 
ENDROOT
BRANCH   1   7
ATOM      7  C   UNL     1     -37.849  -6.293 -16.105  1.00  0.00     0.010 C 
ATOM      8  C   UNL     1     -38.156  -7.518 -15.651  1.00  0.00     0.025 C 
BRANCH   8   9
ATOM      9  C   UNL     1     -37.298  -8.360 -14.794  1.00  0.00     0.064 C 
ATOM     10  O   UNL     1     -36.380  -9.074 -15.279  1.00  0.00    -0.545 OA
ATOM     11  O   UNL     1     -37.462  -8.312 -13.417  1.00  0.00    -0.545 OA
ENDBRANCH   8   9
ENDBRANCH   1   7
BRANCH   6  12
ATOM     12  O   UNL     1     -32.709  -3.936 -15.574  1.00  0.00    -0.508 OA
ATOM     13  H   UNL     1     -31.869  -4.502 -15.540  1.00  0.00     0.293 HD
ENDBRANCH   6  12
TORSDOF 3
ENDMDL
