MODEL 1
REMARK VINA RESULT:    -4.524      0.000      0.000
REMARK INTER + INTRA:          -5.587
REMARK INTER:                  -5.318
REMARK INTRA:                  -0.269
REMARK UNBOUND:                -0.269
REMARK SMILES O=c1c(O)c(-c2ccc(O)cc2)oc2cc(O)cc(O)c12
REMARK SMILES IDX 5 1 3 2 2 3 1 4 21 5 19 6 18 7 16 8 15 9 14 10 13 11 6 12
REMARK SMILES IDX 7 13 8 14 9 15 12 16 11 17 10 18 4 20 20 22 17 24
REMARK H PARENT 10 19 4 21 20 23 17 25
REMARK Flexibility Score: inf
ROOT
ATOM      1  C   UNL     1      13.083   8.890  17.732  1.00  0.00     0.180 A 
ATOM      2  C   UNL     1      11.850   9.209  17.137  1.00  0.00     0.208 A 
ATOM      3  C   UNL     1      11.823   9.584  15.784  1.00  0.00     0.238 A 
ATOM      4  O   UNL     1      10.723   9.921  15.273  1.00  0.00    -0.285 OA
ATOM      5  C   UNL     1      13.025   9.621  15.039  1.00  0.00     0.111 A 
ATOM      6  C   UNL     1      13.109   9.948  13.652  1.00  0.00     0.134 A 
ATOM      7  C   UNL     1      14.366  10.081  13.049  1.00  0.00     0.093 A 
ATOM      8  C   UNL     1      15.537   9.834  13.763  1.00  0.00     0.123 A 
ATOM      9  C   UNL     1      15.465   9.455  15.104  1.00  0.00     0.094 A 
ATOM     10  C   UNL     1      14.227   9.350  15.743  1.00  0.00     0.146 A 
ATOM     11  O   UNL     1      14.202   8.998  17.023  1.00  0.00    -0.452 OA
ENDROOT
BRANCH   1  12
ATOM     12  C   UNL     1      13.190   8.461  19.145  1.00  0.00     0.021 A 
ATOM     13  C   UNL     1      12.885   7.144  19.536  1.00  0.00     0.016 A 
ATOM     14  C   UNL     1      13.017   6.757  20.873  1.00  0.00     0.047 A 
ATOM     15  C   UNL     1      13.465   7.671  21.831  1.00  0.00     0.115 A 
ATOM     16  C   UNL     1      13.659   9.369  20.109  1.00  0.00     0.016 A 
ATOM     17  C   UNL     1      13.788   8.979  21.446  1.00  0.00     0.047 A 
BRANCH  15  18
ATOM     18  O   UNL     1      13.589   7.271  23.160  1.00  0.00    -0.508 OA
ATOM     19  H   UNL     1      13.517   6.296  23.427  1.00  0.00     0.293 HD
ENDBRANCH  15  18
ENDBRANCH   1  12
BRANCH   2  20
ATOM     20  O   UNL     1      10.677   9.187  17.897  1.00  0.00    -0.502 OA
ATOM     21  H   UNL     1      10.484   8.463  18.579  1.00  0.00     0.293 HD
ENDBRANCH   2  20
BRANCH   6  22
ATOM     22  O   UNL     1      11.998  10.125  12.823  1.00  0.00    -0.507 OA
ATOM     23  H   UNL     1      12.036  10.182  11.816  1.00  0.00     0.293 HD
ENDBRANCH   6  22
BRANCH   8  24
ATOM     24  O   UNL     1      16.770   9.959  13.127  1.00  0.00    -0.508 OA
ATOM     25  H   UNL     1      16.874  10.491  12.271  1.00  0.00     0.293 HD
ENDBRANCH   8  24
TORSDOF 5
ENDMDL
MODEL 2
REMARK VINA RESULT:    -4.506     12.145     15.331
REMARK INTER + INTRA:          -5.566
REMARK INTER:                  -5.272
REMARK INTRA:                  -0.294
REMARK UNBOUND:                -0.269
REMARK SMILES O=c1c(O)c(-c2ccc(O)cc2)oc2cc(O)cc(O)c12
REMARK SMILES IDX 5 1 3 2 2 3 1 4 21 5 19 6 18 7 16 8 15 9 14 10 13 11 6 12
REMARK SMILES IDX 7 13 8 14 9 15 12 16 11 17 10 18 4 20 20 22 17 24
REMARK H PARENT 10 19 4 21 20 23 17 25
REMARK Flexibility Score: inf
ROOT
ATOM      1  C   UNL     1      13.468  -4.326  20.855  1.00  0.00     0.180 A 
ATOM      2  C   UNL     1      13.447  -5.526  20.123  1.00  0.00     0.208 A 
ATOM      3  C   UNL     1      14.385  -6.526  20.427  1.00  0.00     0.238 A 
ATOM      4  O   UNL     1      14.396  -7.575  19.732  1.00  0.00    -0.285 OA
ATOM      5  C   UNL     1      15.322  -6.321  21.468  1.00  0.00     0.111 A 
ATOM      6  C   UNL     1      16.291  -7.281  21.887  1.00  0.00     0.134 A 
ATOM      7  C   UNL     1      17.253  -6.921  22.840  1.00  0.00     0.093 A 
ATOM      8  C   UNL     1      17.239  -5.661  23.436  1.00  0.00     0.123 A 
ATOM      9  C   UNL     1      16.260  -4.734  23.077  1.00  0.00     0.094 A 
ATOM     10  C   UNL     1      15.310  -5.051  22.103  1.00  0.00     0.146 A 
ATOM     11  O   UNL     1      14.402  -4.138  21.781  1.00  0.00    -0.452 OA
ENDROOT
BRANCH   1  12
ATOM     12  C   UNL     1      12.496  -3.237  20.611  1.00  0.00     0.021 A 
ATOM     13  C   UNL     1      11.226  -3.238  21.216  1.00  0.00     0.016 A 
ATOM     14  C   UNL     1      10.334  -2.186  20.989  1.00  0.00     0.047 A 
ATOM     15  C   UNL     1      10.702  -1.115  20.168  1.00  0.00     0.115 A 
ATOM     16  C   UNL     1      12.866  -2.148  19.804  1.00  0.00     0.016 A 
ATOM     17  C   UNL     1      11.971  -1.097  19.577  1.00  0.00     0.047 A 
BRANCH  15  18
ATOM     18  O   UNL     1       9.802  -0.074  19.950  1.00  0.00    -0.508 OA
ATOM     19  H   UNL     1       8.847  -0.252  19.659  1.00  0.00     0.293 HD
ENDBRANCH  15  18
ENDBRANCH   1  12
BRANCH   2  20
ATOM     20  O   UNL     1      12.528  -5.699  19.084  1.00  0.00    -0.502 OA
ATOM     21  H   UNL     1      11.609  -5.273  19.095  1.00  0.00     0.293 HD
ENDBRANCH   2  20
BRANCH   6  22
ATOM     22  O   UNL     1      16.335  -8.599  21.424  1.00  0.00    -0.507 OA
ATOM     23  H   UNL     1      15.687  -8.997  20.761  1.00  0.00     0.293 HD
ENDBRANCH   6  22
BRANCH   8  24
ATOM     24  O   UNL     1      18.201  -5.342  24.392  1.00  0.00    -0.508 OA
ATOM     25  H   UNL     1      17.984  -5.337  25.382  1.00  0.00     0.293 HD
ENDBRANCH   8  24
TORSDOF 5
ENDMDL
MODEL 3
REMARK VINA RESULT:    -4.414     12.670     15.637
REMARK INTER + INTRA:          -5.457
REMARK INTER:                  -5.240
REMARK INTRA:                  -0.217
REMARK UNBOUND:                -0.269
REMARK SMILES O=c1c(O)c(-c2ccc(O)cc2)oc2cc(O)cc(O)c12
REMARK SMILES IDX 5 1 3 2 2 3 1 4 21 5 19 6 18 7 16 8 15 9 14 10 13 11 6 12
REMARK SMILES IDX 7 13 8 14 9 15 12 16 11 17 10 18 4 20 20 22 17 24
REMARK H PARENT 10 19 4 21 20 23 17 25
REMARK Flexibility Score: inf
ROOT
ATOM      1  C   UNL     1      13.204  -4.794  20.577  1.00  0.00     0.180 A 
ATOM      2  C   UNL     1      12.765  -6.014  20.034  1.00  0.00     0.208 A 
ATOM      3  C   UNL     1      13.552  -7.163  20.218  1.00  0.00     0.238 A 
ATOM      4  O   UNL     1      13.181  -8.240  19.684  1.00  0.00    -0.285 OA
ATOM      5  C   UNL     1      14.758  -7.081  20.953  1.00  0.00     0.111 A 
ATOM      6  C   UNL     1      15.613  -8.189  21.235  1.00  0.00     0.134 A 
ATOM      7  C   UNL     1      16.847  -7.968  21.859  1.00  0.00     0.093 A 
ATOM      8  C   UNL     1      17.227  -6.692  22.271  1.00  0.00     0.123 A 
ATOM      9  C   UNL     1      16.373  -5.609  22.055  1.00  0.00     0.094 A 
ATOM     10  C   UNL     1      15.152  -5.793  21.402  1.00  0.00     0.146 A 
ATOM     11  O   UNL     1      14.373  -4.736  21.205  1.00  0.00    -0.452 OA
ENDROOT
BRANCH   1  12
ATOM     12  C   UNL     1      12.418  -3.546  20.448  1.00  0.00     0.021 A 
ATOM     13  C   UNL     1      11.214  -3.361  21.153  1.00  0.00     0.016 A 
ATOM     14  C   UNL     1      10.502  -2.165  21.033  1.00  0.00     0.047 A 
ATOM     15  C   UNL     1      10.986  -1.134  20.222  1.00  0.00     0.115 A 
ATOM     16  C   UNL     1      12.908  -2.499  19.650  1.00  0.00     0.016 A 
ATOM     17  C   UNL     1      12.193  -1.302  19.531  1.00  0.00     0.047 A 
BRANCH  15  18
ATOM     18  O   UNL     1      10.264   0.052  20.111  1.00  0.00    -0.508 OA
ATOM     19  H   UNL     1      10.728   0.953  20.074  1.00  0.00     0.293 HD
ENDBRANCH  15  18
ENDBRANCH   1  12
BRANCH   2  20
ATOM     20  O   UNL     1      11.582  -6.068  19.293  1.00  0.00    -0.502 OA
ATOM     21  H   UNL     1      10.677  -6.214  19.723  1.00  0.00     0.293 HD
ENDBRANCH   2  20
BRANCH   6  22
ATOM     22  O   UNL     1      15.288  -9.518  20.948  1.00  0.00    -0.507 OA
ATOM     23  H   UNL     1      14.351  -9.859  20.793  1.00  0.00     0.293 HD
ENDBRANCH   6  22
BRANCH   8  24
ATOM     24  O   UNL     1      18.455  -6.511  22.904  1.00  0.00    -0.508 OA
ATOM     25  H   UNL     1      19.017  -5.682  22.746  1.00  0.00     0.293 HD
ENDBRANCH   8  24
TORSDOF 5
ENDMDL
MODEL 4
REMARK VINA RESULT:    -4.328     14.521     17.104
REMARK INTER + INTRA:          -5.356
REMARK INTER:                  -5.060
REMARK INTRA:                  -0.296
REMARK UNBOUND:                -0.269
REMARK SMILES O=c1c(O)c(-c2ccc(O)cc2)oc2cc(O)cc(O)c12
REMARK SMILES IDX 5 1 3 2 2 3 1 4 21 5 19 6 18 7 16 8 15 9 14 10 13 11 6 12
REMARK SMILES IDX 7 13 8 14 9 15 12 16 11 17 10 18 4 20 20 22 17 24
REMARK H PARENT 10 19 4 21 20 23 17 25
REMARK Flexibility Score: inf
ROOT
ATOM      1  C   UNL     1       9.883  -7.383  21.261  1.00  0.00     0.180 A 
ATOM      2  C   UNL     1      10.890  -8.038  20.532  1.00  0.00     0.208 A 
ATOM      3  C   UNL     1      11.934  -7.278  19.979  1.00  0.00     0.238 A 
ATOM      4  O   UNL     1      12.803  -7.864  19.282  1.00  0.00    -0.285 OA
ATOM      5  C   UNL     1      11.966  -5.877  20.174  1.00  0.00     0.111 A 
ATOM      6  C   UNL     1      12.997  -5.015  19.693  1.00  0.00     0.134 A 
ATOM      7  C   UNL     1      12.858  -3.628  19.832  1.00  0.00     0.093 A 
ATOM      8  C   UNL     1      11.762  -3.077  20.492  1.00  0.00     0.123 A 
ATOM      9  C   UNL     1      10.777  -3.913  21.020  1.00  0.00     0.094 A 
ATOM     10  C   UNL     1      10.869  -5.299  20.864  1.00  0.00     0.146 A 
ATOM     11  O   UNL     1       9.905  -6.059  21.370  1.00  0.00    -0.452 OA
ENDROOT
BRANCH   1  12
ATOM     12  C   UNL     1       8.764  -8.117  21.895  1.00  0.00     0.021 A 
ATOM     13  C   UNL     1       8.853  -8.589  23.218  1.00  0.00     0.016 A 
ATOM     14  C   UNL     1       7.775  -9.258  23.803  1.00  0.00     0.047 A 
ATOM     15  C   UNL     1       6.592  -9.454  23.083  1.00  0.00     0.115 A 
ATOM     16  C   UNL     1       7.566  -8.300  21.184  1.00  0.00     0.016 A 
ATOM     17  C   UNL     1       6.489  -8.972  21.772  1.00  0.00     0.047 A 
BRANCH  15  18
ATOM     18  O   UNL     1       5.527 -10.125  23.679  1.00  0.00    -0.508 OA
ATOM     19  H   UNL     1       5.588 -10.480  24.626  1.00  0.00     0.293 HD
ENDBRANCH  15  18
ENDBRANCH   1  12
BRANCH   2  20
ATOM     20  O   UNL     1      10.828  -9.420  20.332  1.00  0.00    -0.502 OA
ATOM     21  H   UNL     1      10.938  -9.843  19.418  1.00  0.00     0.293 HD
ENDBRANCH   2  20
BRANCH   6  22
ATOM     22  O   UNL     1      14.180  -5.467  19.101  1.00  0.00    -0.507 OA
ATOM     23  H   UNL     1      15.072  -5.524  19.569  1.00  0.00     0.293 HD
ENDBRANCH   6  22
BRANCH   8  24
ATOM     24  O   UNL     1      11.664  -1.694  20.627  1.00  0.00    -0.508 OA
ATOM     25  H   UNL     1      11.257  -1.117  19.900  1.00  0.00     0.293 HD
ENDBRANCH   8  24
TORSDOF 5
ENDMDL
MODEL 5
REMARK VINA RESULT:    -4.236      6.005     11.376
REMARK INTER + INTRA:          -5.248
REMARK INTER:                  -4.961
REMARK INTRA:                  -0.288
REMARK UNBOUND:                -0.269
REMARK SMILES O=c1c(O)c(-c2ccc(O)cc2)oc2cc(O)cc(O)c12
REMARK SMILES IDX 5 1 3 2 2 3 1 4 21 5 19 6 18 7 16 8 15 9 14 10 13 11 6 12
REMARK SMILES IDX 7 13 8 14 9 15 12 16 11 17 10 18 4 20 20 22 17 24
REMARK H PARENT 10 19 4 21 20 23 17 25
REMARK Flexibility Score: inf
ROOT
ATOM      1  C   UNL     1      12.030   8.222  25.661  1.00  0.00     0.180 A 
ATOM      2  C   UNL     1      10.662   8.516  25.792  1.00  0.00     0.208 A 
ATOM      3  C   UNL     1       9.997   8.149  26.973  1.00  0.00     0.238 A 
ATOM      4  O   UNL     1       8.760   8.367  27.062  1.00  0.00    -0.285 OA
ATOM      5  C   UNL     1      10.709   7.507  28.012  1.00  0.00     0.111 A 
ATOM      6  C   UNL     1      10.145   7.127  29.268  1.00  0.00     0.134 A 
ATOM      7  C   UNL     1      10.911   6.379  30.171  1.00  0.00     0.093 A 
ATOM      8  C   UNL     1      12.239   6.057  29.895  1.00  0.00     0.123 A 
ATOM      9  C   UNL     1      12.820   6.475  28.697  1.00  0.00     0.094 A 
ATOM     10  C   UNL     1      12.070   7.190  27.760  1.00  0.00     0.146 A 
ATOM     11  O   UNL     1      12.656   7.559  26.627  1.00  0.00    -0.452 OA
ENDROOT
BRANCH   1  12
ATOM     12  C   UNL     1      12.806   8.600  24.458  1.00  0.00     0.021 A 
ATOM     13  C   UNL     1      13.539   9.800  24.404  1.00  0.00     0.016 A 
ATOM     14  C   UNL     1      14.283  10.124  23.266  1.00  0.00     0.047 A 
ATOM     15  C   UNL     1      14.317   9.251  22.175  1.00  0.00     0.115 A 
ATOM     16  C   UNL     1      12.861   7.718  23.365  1.00  0.00     0.016 A 
ATOM     17  C   UNL     1      13.606   8.045  22.227  1.00  0.00     0.047 A 
BRANCH  15  18
ATOM     18  O   UNL     1      15.062   9.588  21.047  1.00  0.00    -0.508 OA
ATOM     19  H   UNL     1      14.633   9.661  20.132  1.00  0.00     0.293 HD
ENDBRANCH  15  18
ENDBRANCH   1  12
BRANCH   2  20
ATOM     20  O   UNL     1       9.972   9.132  24.743  1.00  0.00    -0.502 OA
ATOM     21  H   UNL     1       8.999   9.405  24.819  1.00  0.00     0.293 HD
ENDBRANCH   2  20
BRANCH   6  22
ATOM     22  O   UNL     1       8.858   7.477  29.683  1.00  0.00    -0.507 OA
ATOM     23  H   UNL     1       8.627   8.318  30.193  1.00  0.00     0.293 HD
ENDBRANCH   6  22
BRANCH   8  24
ATOM     24  O   UNL     1      12.977   5.327  30.824  1.00  0.00    -0.508 OA
ATOM     25  H   UNL     1      13.199   4.349  30.675  1.00  0.00     0.293 HD
ENDBRANCH   8  24
TORSDOF 5
ENDMDL
MODEL 6
REMARK VINA RESULT:    -4.195     13.308     16.418
REMARK INTER + INTRA:          -5.200
REMARK INTER:                  -5.595
REMARK INTRA:                   0.396
REMARK UNBOUND:                -0.269
REMARK SMILES O=c1c(O)c(-c2ccc(O)cc2)oc2cc(O)cc(O)c12
REMARK SMILES IDX 5 1 3 2 2 3 1 4 21 5 19 6 18 7 16 8 15 9 14 10 13 11 6 12
REMARK SMILES IDX 7 13 8 14 9 15 12 16 11 17 10 18 4 20 20 22 17 24
REMARK H PARENT 10 19 4 21 20 23 17 25
REMARK Flexibility Score: inf
ROOT
ATOM      1  C   UNL     1      11.309  -5.024  20.627  1.00  0.00     0.180 A 
ATOM      2  C   UNL     1      12.464  -5.747  20.279  1.00  0.00     0.208 A 
ATOM      3  C   UNL     1      12.405  -7.150  20.248  1.00  0.00     0.238 A 
ATOM      4  O   UNL     1      13.455  -7.793  19.988  1.00  0.00    -0.285 OA
ATOM      5  C   UNL     1      11.190  -7.811  20.549  1.00  0.00     0.111 A 
ATOM      6  C   UNL     1      11.006  -9.227  20.509  1.00  0.00     0.134 A 
ATOM      7  C   UNL     1       9.798  -9.779  20.954  1.00  0.00     0.093 A 
ATOM      8  C   UNL     1       8.746  -8.966  21.373  1.00  0.00     0.123 A 
ATOM      9  C   UNL     1       8.894  -7.578  21.360  1.00  0.00     0.094 A 
ATOM     10  C   UNL     1      10.100  -7.000  20.956  1.00  0.00     0.146 A 
ATOM     11  O   UNL     1      10.203  -5.676  20.969  1.00  0.00    -0.452 OA
ENDROOT
BRANCH   1  12
ATOM     12  C   UNL     1      11.286  -3.544  20.658  1.00  0.00     0.021 A 
ATOM     13  C   UNL     1      12.255  -2.781  19.980  1.00  0.00     0.016 A 
ATOM     14  C   UNL     1      12.198  -1.385  20.004  1.00  0.00     0.047 A 
ATOM     15  C   UNL     1      11.169  -0.734  20.690  1.00  0.00     0.115 A 
ATOM     16  C   UNL     1      10.244  -2.883  21.328  1.00  0.00     0.016 A 
ATOM     17  C   UNL     1      10.190  -1.485  21.352  1.00  0.00     0.047 A 
BRANCH  15  18
ATOM     18  O   UNL     1      11.126   0.659  20.706  1.00  0.00    -0.508 OA
ATOM     19  H   UNL     1      11.025   1.176  21.572  1.00  0.00     0.293 HD
ENDBRANCH  15  18
ENDBRANCH   1  12
BRANCH   2  20
ATOM     20  O   UNL     1      13.658  -5.075  20.006  1.00  0.00    -0.502 OA
ATOM     21  H   UNL     1      14.440  -5.073  20.650  1.00  0.00     0.293 HD
ENDBRANCH   2  20
BRANCH   6  22
ATOM     22  O   UNL     1      11.960 -10.124  20.021  1.00  0.00    -0.507 OA
ATOM     23  H   UNL     1      11.910 -11.127  20.122  1.00  0.00     0.293 HD
ENDBRANCH   6  22
BRANCH   8  24
ATOM     24  O   UNL     1       7.553  -9.548  21.793  1.00  0.00    -0.508 OA
ATOM     25  H   UNL     1       7.540 -10.306  22.467  1.00  0.00     0.293 HD
ENDBRANCH   8  24
TORSDOF 5
ENDMDL
MODEL 7
REMARK VINA RESULT:    -4.182      8.873      9.612
REMARK INTER + INTRA:          -5.185
REMARK INTER:                  -4.905
REMARK INTRA:                  -0.280
REMARK UNBOUND:                -0.269
REMARK SMILES O=c1c(O)c(-c2ccc(O)cc2)oc2cc(O)cc(O)c12
REMARK SMILES IDX 5 1 3 2 2 3 1 4 21 5 19 6 18 7 16 8 15 9 14 10 13 11 6 12
REMARK SMILES IDX 7 13 8 14 9 15 12 16 11 17 10 18 4 20 20 22 17 24
REMARK H PARENT 10 19 4 21 20 23 17 25
REMARK Flexibility Score: inf
ROOT
ATOM      1  C   UNL     1      10.922   0.452  14.080  1.00  0.00     0.180 A 
ATOM      2  C   UNL     1       9.527   0.300  14.170  1.00  0.00     0.208 A 
ATOM      3  C   UNL     1       8.698   1.337  13.712  1.00  0.00     0.238 A 
ATOM      4  O   UNL     1       7.453   1.218  13.845  1.00  0.00    -0.285 OA
ATOM      5  C   UNL     1       9.273   2.505  13.157  1.00  0.00     0.111 A 
ATOM      6  C   UNL     1       8.527   3.601  12.625  1.00  0.00     0.134 A 
ATOM      7  C   UNL     1       9.200   4.761  12.221  1.00  0.00     0.093 A 
ATOM      8  C   UNL     1      10.590   4.841  12.266  1.00  0.00     0.123 A 
ATOM      9  C   UNL     1      11.333   3.753  12.727  1.00  0.00     0.094 A 
ATOM     10  C   UNL     1      10.689   2.595  13.172  1.00  0.00     0.146 A 
ATOM     11  O   UNL     1      11.431   1.587  13.615  1.00  0.00    -0.452 OA
ENDROOT
BRANCH   1  12
ATOM     12  C   UNL     1      11.860  -0.607  14.518  1.00  0.00     0.021 A 
ATOM     13  C   UNL     1      12.152  -1.713  13.698  1.00  0.00     0.016 A 
ATOM     14  C   UNL     1      13.059  -2.687  14.123  1.00  0.00     0.047 A 
ATOM     15  C   UNL     1      13.695  -2.565  15.362  1.00  0.00     0.115 A 
ATOM     16  C   UNL     1      12.518  -0.480  15.752  1.00  0.00     0.016 A 
ATOM     17  C   UNL     1      13.425  -1.458  16.176  1.00  0.00     0.047 A 
BRANCH  15  18
ATOM     18  O   UNL     1      14.596  -3.545  15.773  1.00  0.00    -0.508 OA
ATOM     19  H   UNL     1      15.548  -3.568  15.425  1.00  0.00     0.293 HD
ENDBRANCH  15  18
ENDBRANCH   1  12
BRANCH   2  20
ATOM     20  O   UNL     1       8.981  -0.852  14.742  1.00  0.00    -0.502 OA
ATOM     21  H   UNL     1       9.546  -1.655  14.994  1.00  0.00     0.293 HD
ENDBRANCH   2  20
BRANCH   6  22
ATOM     22  O   UNL     1       7.141   3.590  12.450  1.00  0.00    -0.507 OA
ATOM     23  H   UNL     1       6.564   2.763  12.485  1.00  0.00     0.293 HD
ENDBRANCH   6  22
BRANCH   8  24
ATOM     24  O   UNL     1      11.227   6.004  11.840  1.00  0.00    -0.508 OA
ATOM     25  H   UNL     1      11.581   6.687  12.499  1.00  0.00     0.293 HD
ENDBRANCH   8  24
TORSDOF 5
ENDMDL
MODEL 8
REMARK VINA RESULT:    -4.094      3.588      8.891
REMARK INTER + INTRA:          -5.081
REMARK INTER:                  -4.917
REMARK INTRA:                  -0.164
REMARK UNBOUND:                -0.269
REMARK SMILES O=c1c(O)c(-c2ccc(O)cc2)oc2cc(O)cc(O)c12
REMARK SMILES IDX 5 1 3 2 2 3 1 4 21 5 19 6 18 7 16 8 15 9 14 10 13 11 6 12
REMARK SMILES IDX 7 13 8 14 9 15 12 16 11 17 10 18 4 20 20 22 17 24
REMARK H PARENT 10 19 4 21 20 23 17 25
REMARK Flexibility Score: inf
ROOT
ATOM      1  C   UNL     1      13.160   8.389  22.169  1.00  0.00     0.180 A 
ATOM      2  C   UNL     1      14.348   8.976  22.639  1.00  0.00     0.208 A 
ATOM      3  C   UNL     1      14.402   9.436  23.964  1.00  0.00     0.238 A 
ATOM      4  O   UNL     1      15.450  10.009  24.362  1.00  0.00    -0.285 OA
ATOM      5  C   UNL     1      13.276   9.291  24.808  1.00  0.00     0.111 A 
ATOM      6  C   UNL     1      13.233   9.686  26.179  1.00  0.00     0.134 A 
ATOM      7  C   UNL     1      12.023   9.614  26.881  1.00  0.00     0.093 A 
ATOM      8  C   UNL     1      10.873   9.102  26.283  1.00  0.00     0.123 A 
ATOM      9  C   UNL     1      10.917   8.657  24.961  1.00  0.00     0.094 A 
ATOM     10  C   UNL     1      12.101   8.750  24.224  1.00  0.00     0.146 A 
ATOM     11  O   UNL     1      12.098   8.327  22.965  1.00  0.00    -0.452 OA
ENDROOT
BRANCH   1  12
ATOM     12  C   UNL     1      13.034   7.857  20.794  1.00  0.00     0.021 A 
ATOM     13  C   UNL     1      12.888   6.478  20.551  1.00  0.00     0.016 A 
ATOM     14  C   UNL     1      12.747   6.003  19.244  1.00  0.00     0.047 A 
ATOM     15  C   UNL     1      12.735   6.894  18.167  1.00  0.00     0.115 A 
ATOM     16  C   UNL     1      13.000   8.748  19.708  1.00  0.00     0.016 A 
ATOM     17  C   UNL     1      12.860   8.269  18.401  1.00  0.00     0.047 A 
BRANCH  15  18
ATOM     18  O   UNL     1      12.594   6.404  16.870  1.00  0.00    -0.508 OA
ATOM     19  H   UNL     1      11.682   6.221  16.469  1.00  0.00     0.293 HD
ENDBRANCH  15  18
ENDBRANCH   1  12
BRANCH   2  20
ATOM     20  O   UNL     1      15.442   9.130  21.782  1.00  0.00    -0.502 OA
ATOM     21  H   UNL     1      16.278   8.563  21.861  1.00  0.00     0.293 HD
ENDBRANCH   2  20
BRANCH   6  22
ATOM     22  O   UNL     1      14.347  10.125  26.900  1.00  0.00    -0.507 OA
ATOM     23  H   UNL     1      14.326  10.842  27.610  1.00  0.00     0.293 HD
ENDBRANCH   6  22
BRANCH   8  24
ATOM     24  O   UNL     1       9.691   9.030  27.016  1.00  0.00    -0.508 OA
ATOM     25  H   UNL     1       8.838   8.658  26.613  1.00  0.00     0.293 HD
ENDBRANCH   8  24
TORSDOF 5
ENDMDL
MODEL 9
REMARK VINA RESULT:    -4.045      4.140      6.049
REMARK INTER + INTRA:          -5.023
REMARK INTER:                  -5.414
REMARK INTRA:                   0.391
REMARK UNBOUND:                -0.269
REMARK SMILES O=c1c(O)c(-c2ccc(O)cc2)oc2cc(O)cc(O)c12
REMARK SMILES IDX 5 1 3 2 2 3 1 4 21 5 19 6 18 7 16 8 15 9 14 10 13 11 6 12
REMARK SMILES IDX 7 13 8 14 9 15 12 16 11 17 10 18 4 20 20 22 17 24
REMARK H PARENT 10 19 4 21 20 23 17 25
REMARK Flexibility Score: inf
ROOT
ATOM      1  C   UNL     1      13.785   8.275  22.259  1.00  0.00     0.180 A 
ATOM      2  C   UNL     1      12.504   8.305  22.837  1.00  0.00     0.208 A 
ATOM      3  C   UNL     1      11.416   7.801  22.106  1.00  0.00     0.238 A 
ATOM      4  O   UNL     1      10.264   7.879  22.607  1.00  0.00    -0.285 OA
ATOM      5  C   UNL     1      11.624   7.260  20.815  1.00  0.00     0.111 A 
ATOM      6  C   UNL     1      10.600   6.686  20.002  1.00  0.00     0.134 A 
ATOM      7  C   UNL     1      10.897   6.300  18.689  1.00  0.00     0.093 A 
ATOM      8  C   UNL     1      12.191   6.406  18.182  1.00  0.00     0.123 A 
ATOM      9  C   UNL     1      13.212   6.911  18.988  1.00  0.00     0.094 A 
ATOM     10  C   UNL     1      12.940   7.338  20.290  1.00  0.00     0.146 A 
ATOM     11  O   UNL     1      13.937   7.822  21.020  1.00  0.00    -0.452 OA
ENDROOT
BRANCH   1  12
ATOM     12  C   UNL     1      14.984   8.765  22.976  1.00  0.00     0.021 A 
ATOM     13  C   UNL     1      14.882   9.696  24.026  1.00  0.00     0.016 A 
ATOM     14  C   UNL     1      16.026  10.125  24.704  1.00  0.00     0.047 A 
ATOM     15  C   UNL     1      17.283   9.621  24.354  1.00  0.00     0.115 A 
ATOM     16  C   UNL     1      16.248   8.248  22.644  1.00  0.00     0.016 A 
ATOM     17  C   UNL     1      17.392   8.680  23.323  1.00  0.00     0.047 A 
BRANCH  15  18
ATOM     18  O   UNL     1      18.415  10.059  25.039  1.00  0.00    -0.508 OA
ATOM     19  H   UNL     1      18.642  11.045  25.109  1.00  0.00     0.293 HD
ENDBRANCH  15  18
ENDBRANCH   1  12
BRANCH   2  20
ATOM     20  O   UNL     1      12.317   8.863  24.104  1.00  0.00    -0.502 OA
ATOM     21  H   UNL     1      12.756   9.732  24.386  1.00  0.00     0.293 HD
ENDBRANCH   2  20
BRANCH   6  22
ATOM     22  O   UNL     1       9.295   6.449  20.442  1.00  0.00    -0.507 OA
ATOM     23  H   UNL     1       8.528   6.177  19.845  1.00  0.00     0.293 HD
ENDBRANCH   6  22
BRANCH   8  24
ATOM     24  O   UNL     1      12.453   5.998  16.876  1.00  0.00    -0.508 OA
ATOM     25  H   UNL     1      13.182   6.432  16.321  1.00  0.00     0.293 HD
ENDBRANCH   8  24
TORSDOF 5
ENDMDL
