MODEL 1
REMARK VINA RESULT:   141.187      0.000      0.000
REMARK INTER + INTRA:         154.420
REMARK INTER:                 153.568
REMARK INTRA:                   0.852
REMARK UNBOUND:                 0.852
REMARK SMILES CC1(C)CC[C@]2(C(=O)[O-])CC[C@@]3(C)C(=CC[C@H]4[C@]5(C)CC[C@@H](O)C(C)(C)[C@@H]5CC[C@@]43C)[C@H]2C1
REMARK SMILES IDX 6 1 5 2 10 3 32 4 4 5 11 6 14 7 33 8 2 9 12 10 15 11 1 12
REMARK SMILES IDX 3 13 13 14 30 15 16 16 17 17 29 18 31 19 18 20 28 21 27 22
REMARK SMILES IDX 20 23 19 24 24 25 21 26 22 27 25 28 26 29 7 30 8 31 9 32
REMARK SMILES IDX 23 33
REMARK H PARENT 23 34
REMARK Flexibility Score: inf
ROOT
ATOM      1  C   UNL     1      -4.640  -0.392   2.829  1.00  0.00     0.017 C 
ATOM      2  C   UNL     1      -4.930  -1.891   3.085  1.00  0.00     0.014 C 
ATOM      3  C   UNL     1      -5.100   0.428   4.085  1.00  0.00     0.014 C 
ATOM      4  C   UNL     1      -5.452   0.028   1.564  1.00  0.00     0.028 C 
ATOM      5  C   UNL     1      -4.379  -2.785   1.969  1.00  0.00     0.007 C 
ATOM      6  C   UNL     1      -5.811   1.772   3.802  1.00  0.00     0.013 C 
ATOM      7  C   UNL     1      -5.397   1.559   1.315  1.00  0.00    -0.064 C 
ATOM      8  C   UNL     1      -5.062  -0.838   0.326  1.00  0.00     0.015 C 
ATOM      9  C   UNL     1      -4.896  -2.392   0.553  1.00  0.00    -0.035 C 
ATOM     10  C   UNL     1      -5.348   2.536   2.518  1.00  0.00    -0.006 C 
ATOM     11  C   UNL     1      -5.609   2.057   0.062  1.00  0.00    -0.027 C 
ATOM     12  C   UNL     1      -6.246  -3.120   0.273  1.00  0.00     0.011 C 
ATOM     13  C   UNL     1      -3.853  -2.915  -0.474  1.00  0.00     0.011 C 
ATOM     14  C   UNL     1      -3.858   2.969   2.732  1.00  0.00     0.017 C 
ATOM     15  C   UNL     1      -6.315   3.794   2.218  1.00  0.00    -0.020 C 
ATOM     16  C   UNL     1      -5.978   3.483  -0.275  1.00  0.00     0.032 C 
ATOM     17  C   UNL     1      -5.832   4.485   0.903  1.00  0.00     0.006 C 
ATOM     18  C   UNL     1      -6.262   4.880   3.321  1.00  0.00     0.008 C 
ATOM     19  C   UNL     1      -7.795   3.269   2.073  1.00  0.00     0.012 C 
ATOM     20  C   UNL     1      -6.320   6.018   0.656  1.00  0.00    -0.025 C 
ATOM     21  C   UNL     1      -7.227   6.051   3.091  1.00  0.00     0.005 C 
ATOM     22  C   UNL     1      -7.517   6.438   1.600  1.00  0.00     0.003 C 
ATOM     23  C   UNL     1      -5.114   7.000   0.914  1.00  0.00     0.010 C 
ATOM     24  C   UNL     1      -6.738   6.186  -0.835  1.00  0.00     0.012 C 
ATOM     25  C   UNL     1      -8.014   7.956   1.456  1.00  0.00    -0.006 C 
ATOM     26  C   UNL     1      -5.455   8.375   1.537  1.00  0.00     0.033 C 
ATOM     27  C   UNL     1      -6.828   8.941   1.145  1.00  0.00     0.120 C 
ATOM     28  C   UNL     1      -9.125   8.058   0.364  1.00  0.00     0.014 C 
ATOM     29  C   UNL     1      -8.733   8.456   2.752  1.00  0.00     0.014 C 
ENDROOT
BRANCH   1  30
ATOM     30  C   UNL     1      -3.127  -0.223   2.652  1.00  0.00     0.048 C 
ATOM     31  O   UNL     1      -2.381   0.139   3.604  1.00  0.00    -0.550 OA
ATOM     32  O   UNL     1      -2.541  -0.489   1.413  1.00  0.00    -0.550 OA
ENDBRANCH   1  30
BRANCH  27  33
ATOM     33  O   UNL     1      -6.807   9.370  -0.198  1.00  0.00    -0.393 OA
ATOM     34  H   UNL     1      -6.153   8.800  -0.678  1.00  0.00     0.210 HD
ENDBRANCH  27  33
TORSDOF 2
ENDMDL
