MODEL 1
REMARK VINA RESULT:    -5.093      0.000      0.000
REMARK INTER + INTRA:         -10.616
REMARK INTER:                  -9.261
REMARK INTRA:                  -1.355
REMARK UNBOUND:                -1.355
REMARK SMILES CCCCCCCCCCCCCCCC(=O)[O-]
REMARK SMILES IDX 9 1 10 2 11 3 12 4 13 5 14 6 15 7 16 8 17 9 18 10 8 11 7 12
REMARK SMILES IDX 6 13 5 14 4 15 3 16 2 17 1 18
REMARK H PARENT
REMARK Flexibility Score: inf
ROOT
ATOM      1  C   UNL     1       9.685  17.765  32.974  1.00  0.00     0.000 C 
ENDROOT
BRANCH   1   2
ATOM      2  C   UNL     1       8.384  18.231  33.641  1.00  0.00     0.000 C 
BRANCH   2   3
ATOM      3  C   UNL     1       8.134  17.468  34.950  1.00  0.00     0.000 C 
BRANCH   3   4
ATOM      4  C   UNL     1       7.887  18.400  36.150  1.00  0.00     0.000 C 
BRANCH   4   5
ATOM      5  C   UNL     1       8.640  19.742  36.100  1.00  0.00     0.000 C 
BRANCH   5   6
ATOM      6  C   UNL     1       8.670  20.463  37.458  1.00  0.00     0.006 C 
BRANCH   6   7
ATOM      7  C   UNL     1       8.261  19.538  38.613  1.00  0.00     0.053 C 
BRANCH   7   8
ATOM      8  C   UNL     1       9.173  19.685  39.793  1.00  0.00     0.041 C 
ATOM      9  O   UNL     1       9.642  20.812  40.096  1.00  0.00    -0.550 OA
ATOM     10  O   UNL     1       9.483  18.578  40.574  1.00  0.00    -0.550 OA
ENDBRANCH   7   8
ENDBRANCH   6   7
ENDBRANCH   5   6
ENDBRANCH   4   5
ENDBRANCH   3   4
ENDBRANCH   2   3
ENDBRANCH   1   2
BRANCH   1  11
ATOM     11  C   UNL     1      10.077  18.702  31.821  1.00  0.00     0.000 C 
BRANCH  11  12
ATOM     12  C   UNL     1       9.288  18.417  30.535  1.00  0.00    -0.000 C 
BRANCH  12  13
ATOM     13  C   UNL     1       8.689  19.691  29.914  1.00  0.00    -0.000 C 
BRANCH  13  14
ATOM     14  C   UNL     1       8.173  20.686  30.971  1.00  0.00    -0.000 C 
BRANCH  14  15
ATOM     15  C   UNL     1       8.344  22.171  30.600  1.00  0.00    -0.000 C 
BRANCH  15  16
ATOM     16  C   UNL     1       9.101  22.973  31.668  1.00  0.00    -0.000 C 
BRANCH  16  17
ATOM     17  C   UNL     1       9.012  22.286  33.035  1.00  0.00    -0.003 C 
ATOM     18  C   UNL     1       8.850  23.308  34.157  1.00  0.00     0.004 C 
ENDBRANCH  16  17
ENDBRANCH  15  16
ENDBRANCH  14  15
ENDBRANCH  13  14
ENDBRANCH  12  13
ENDBRANCH  11  12
ENDBRANCH   1  11
TORSDOF 14
ENDMDL
MODEL 2
REMARK VINA RESULT:    -5.087      2.124      2.553
REMARK INTER + INTRA:         -10.606
REMARK INTER:                  -8.722
REMARK INTRA:                  -1.884
REMARK UNBOUND:                -1.355
REMARK SMILES CCCCCCCCCCCCCCCC(=O)[O-]
REMARK SMILES IDX 9 1 10 2 11 3 12 4 13 5 14 6 15 7 16 8 17 9 18 10 8 11 7 12
REMARK SMILES IDX 6 13 5 14 4 15 3 16 2 17 1 18
REMARK H PARENT
REMARK Flexibility Score: inf
ROOT
ATOM      1  C   UNL     1      10.119  18.534  32.140  1.00  0.00     0.000 C 
ENDROOT
BRANCH   1   2
ATOM      2  C   UNL     1       9.463  17.845  33.342  1.00  0.00     0.000 C 
BRANCH   2   3
ATOM      3  C   UNL     1       8.099  18.476  33.660  1.00  0.00     0.000 C 
BRANCH   3   4
ATOM      4  C   UNL     1       7.912  18.779  35.158  1.00  0.00     0.000 C 
BRANCH   4   5
ATOM      5  C   UNL     1       8.978  19.703  35.775  1.00  0.00     0.000 C 
BRANCH   5   6
ATOM      6  C   UNL     1       9.622  19.111  37.040  1.00  0.00     0.006 C 
BRANCH   6   7
ATOM      7  C   UNL     1      11.054  18.621  36.785  1.00  0.00     0.053 C 
BRANCH   7   8
ATOM      8  C   UNL     1      11.110  17.133  36.613  1.00  0.00     0.041 C 
ATOM      9  O   UNL     1      10.059  16.446  36.686  1.00  0.00    -0.550 OA
ATOM     10  O   UNL     1      12.322  16.510  36.342  1.00  0.00    -0.550 OA
ENDBRANCH   7   8
ENDBRANCH   6   7
ENDBRANCH   5   6
ENDBRANCH   4   5
ENDBRANCH   3   4
ENDBRANCH   2   3
ENDBRANCH   1   2
BRANCH   1  11
ATOM     11  C   UNL     1       9.952  17.693  30.865  1.00  0.00     0.000 C 
BRANCH  11  12
ATOM     12  C   UNL     1       9.253  18.466  29.736  1.00  0.00    -0.000 C 
BRANCH  12  13
ATOM     13  C   UNL     1       8.242  19.499  30.265  1.00  0.00    -0.000 C 
BRANCH  13  14
ATOM     14  C   UNL     1       8.094  20.719  29.338  1.00  0.00    -0.000 C 
BRANCH  14  15
ATOM     15  C   UNL     1       8.099  22.082  30.056  1.00  0.00    -0.000 C 
BRANCH  15  16
ATOM     16  C   UNL     1       8.416  21.970  31.554  1.00  0.00    -0.000 C 
BRANCH  16  17
ATOM     17  C   UNL     1       9.808  22.532  31.864  1.00  0.00    -0.003 C 
ATOM     18  C   UNL     1      10.298  22.067  33.232  1.00  0.00     0.004 C 
ENDBRANCH  16  17
ENDBRANCH  15  16
ENDBRANCH  14  15
ENDBRANCH  13  14
ENDBRANCH  12  13
ENDBRANCH  11  12
ENDBRANCH   1  11
TORSDOF 14
ENDMDL
MODEL 3
REMARK VINA RESULT:    -5.086      2.728      5.983
REMARK INTER + INTRA:         -10.604
REMARK INTER:                  -9.308
REMARK INTRA:                  -1.296
REMARK UNBOUND:                -1.355
REMARK SMILES CCCCCCCCCCCCCCCC(=O)[O-]
REMARK SMILES IDX 9 1 10 2 11 3 12 4 13 5 14 6 15 7 16 8 17 9 18 10 8 11 7 12
REMARK SMILES IDX 6 13 5 14 4 15 3 16 2 17 1 18
REMARK H PARENT
REMARK Flexibility Score: inf
ROOT
ATOM      1  C   UNL     1      10.044  17.848  30.637  1.00  0.00     0.000 C 
ENDROOT
BRANCH   1   2
ATOM      2  C   UNL     1       9.053  18.524  29.680  1.00  0.00     0.000 C 
BRANCH   2   3
ATOM      3  C   UNL     1       8.333  19.692  30.370  1.00  0.00     0.000 C 
BRANCH   3   4
ATOM      4  C   UNL     1       8.024  20.856  29.412  1.00  0.00     0.000 C 
BRANCH   4   5
ATOM      5  C   UNL     1       7.976  22.248  30.069  1.00  0.00     0.000 C 
BRANCH   5   6
ATOM      6  C   UNL     1       8.048  22.187  31.604  1.00  0.00     0.006 C 
BRANCH   6   7
ATOM      7  C   UNL     1       9.416  22.634  32.137  1.00  0.00     0.053 C 
BRANCH   7   8
ATOM      8  C   UNL     1       9.309  23.870  32.977  1.00  0.00     0.041 C 
ATOM      9  O   UNL     1       8.926  23.794  34.173  1.00  0.00    -0.550 OA
ATOM     10  O   UNL     1       9.661  25.105  32.446  1.00  0.00    -0.550 OA
ENDBRANCH   7   8
ENDBRANCH   6   7
ENDBRANCH   5   6
ENDBRANCH   4   5
ENDBRANCH   3   4
ENDBRANCH   2   3
ENDBRANCH   1   2
BRANCH   1  11
ATOM     11  C   UNL     1      10.151  18.626  31.957  1.00  0.00     0.000 C 
BRANCH  11  12
ATOM     12  C   UNL     1       9.672  17.806  33.165  1.00  0.00    -0.000 C 
BRANCH  12  13
ATOM     13  C   UNL     1       8.235  18.158  33.586  1.00  0.00    -0.000 C 
BRANCH  13  14
ATOM     14  C   UNL     1       8.163  19.409  34.481  1.00  0.00    -0.000 C 
BRANCH  14  15
ATOM     15  C   UNL     1       9.093  19.380  35.709  1.00  0.00    -0.000 C 
BRANCH  15  16
ATOM     16  C   UNL     1       8.457  18.693  36.927  1.00  0.00    -0.000 C 
BRANCH  16  17
ATOM     17  C   UNL     1       8.196  19.702  38.052  1.00  0.00    -0.003 C 
ATOM     18  C   UNL     1       8.834  19.244  39.361  1.00  0.00     0.004 C 
ENDBRANCH  16  17
ENDBRANCH  15  16
ENDBRANCH  14  15
ENDBRANCH  13  14
ENDBRANCH  12  13
ENDBRANCH  11  12
ENDBRANCH   1  11
TORSDOF 14
ENDMDL
MODEL 4
REMARK VINA RESULT:    -5.031      3.248      5.817
REMARK INTER + INTRA:         -10.504
REMARK INTER:                  -8.229
REMARK INTRA:                  -2.275
REMARK UNBOUND:                -1.355
REMARK SMILES CCCCCCCCCCCCCCCC(=O)[O-]
REMARK SMILES IDX 9 1 10 2 11 3 12 4 13 5 14 6 15 7 16 8 17 9 18 10 8 11 7 12
REMARK SMILES IDX 6 13 5 14 4 15 3 16 2 17 1 18
REMARK H PARENT
REMARK Flexibility Score: inf
ROOT
ATOM      1  C   UNL     1      10.063  18.311  32.091  1.00  0.00     0.000 C 
ENDROOT
BRANCH   1   2
ATOM      2  C   UNL     1       9.853  17.804  30.659  1.00  0.00     0.000 C 
BRANCH   2   3
ATOM      3  C   UNL     1       8.996  18.787  29.847  1.00  0.00     0.000 C 
BRANCH   3   4
ATOM      4  C   UNL     1       8.260  19.812  30.728  1.00  0.00     0.000 C 
BRANCH   4   5
ATOM      5  C   UNL     1       8.193  21.239  30.153  1.00  0.00     0.000 C 
BRANCH   5   6
ATOM      6  C   UNL     1       8.358  22.326  31.227  1.00  0.00     0.006 C 
BRANCH   6   7
ATOM      7  C   UNL     1       9.514  22.019  32.189  1.00  0.00     0.053 C 
BRANCH   7   8
ATOM      8  C   UNL     1      10.577  23.074  32.136  1.00  0.00     0.041 C 
ATOM      9  O   UNL     1      10.528  23.982  31.265  1.00  0.00    -0.550 OA
ATOM     10  O   UNL     1      11.609  23.069  33.067  1.00  0.00    -0.550 OA
ENDBRANCH   7   8
ENDBRANCH   6   7
ENDBRANCH   5   6
ENDBRANCH   4   5
ENDBRANCH   3   4
ENDBRANCH   2   3
ENDBRANCH   1   2
BRANCH   1  11
ATOM     11  C   UNL     1      10.180  17.140  33.077  1.00  0.00     0.000 C 
BRANCH  11  12
ATOM     12  C   UNL     1       9.200  17.259  34.254  1.00  0.00    -0.000 C 
BRANCH  12  13
ATOM     13  C   UNL     1       8.153  18.366  34.041  1.00  0.00    -0.000 C 
BRANCH  13  14
ATOM     14  C   UNL     1       8.230  19.477  35.105  1.00  0.00    -0.000 C 
BRANCH  14  15
ATOM     15  C   UNL     1       9.532  19.495  35.928  1.00  0.00    -0.000 C 
BRANCH  15  16
ATOM     16  C   UNL     1      10.498  20.609  35.497  1.00  0.00    -0.000 C 
BRANCH  16  17
ATOM     17  C   UNL     1      11.737  20.025  34.809  1.00  0.00    -0.003 C 
ATOM     18  C   UNL     1      12.392  18.950  35.671  1.00  0.00     0.004 C 
ENDBRANCH  16  17
ENDBRANCH  15  16
ENDBRANCH  14  15
ENDBRANCH  13  14
ENDBRANCH  12  13
ENDBRANCH  11  12
ENDBRANCH   1  11
TORSDOF 14
ENDMDL
MODEL 5
REMARK VINA RESULT:    -5.011      3.501      6.063
REMARK INTER + INTRA:         -10.468
REMARK INTER:                  -8.867
REMARK INTRA:                  -1.601
REMARK UNBOUND:                -1.355
REMARK SMILES CCCCCCCCCCCCCCCC(=O)[O-]
REMARK SMILES IDX 9 1 10 2 11 3 12 4 13 5 14 6 15 7 16 8 17 9 18 10 8 11 7 12
REMARK SMILES IDX 6 13 5 14 4 15 3 16 2 17 1 18
REMARK H PARENT
REMARK Flexibility Score: inf
ROOT
ATOM      1  C   UNL     1       9.378  18.204  30.077  1.00  0.00     0.000 C 
ENDROOT
BRANCH   1   2
ATOM      2  C   UNL     1       8.616  19.380  30.701  1.00  0.00     0.000 C 
BRANCH   2   3
ATOM      3  C   UNL     1       8.180  20.387  29.626  1.00  0.00     0.000 C 
BRANCH   3   4
ATOM      4  C   UNL     1       8.138  21.836  30.143  1.00  0.00     0.000 C 
BRANCH   4   5
ATOM      5  C   UNL     1       8.380  21.997  31.655  1.00  0.00     0.000 C 
BRANCH   5   6
ATOM      6  C   UNL     1       9.780  22.544  31.982  1.00  0.00     0.006 C 
BRANCH   6   7
ATOM      7  C   UNL     1       9.747  24.034  32.352  1.00  0.00     0.053 C 
BRANCH   7   8
ATOM      8  C   UNL     1      11.083  24.684  32.156  1.00  0.00     0.041 C 
ATOM      9  O   UNL     1      11.821  24.930  33.145  1.00  0.00    -0.550 OA
ATOM     10  O   UNL     1      11.525  24.994  30.875  1.00  0.00    -0.550 OA
ENDBRANCH   7   8
ENDBRANCH   6   7
ENDBRANCH   5   6
ENDBRANCH   4   5
ENDBRANCH   3   4
ENDBRANCH   2   3
ENDBRANCH   1   2
BRANCH   1  11
ATOM     11  C   UNL     1      10.092  17.377  31.156  1.00  0.00     0.000 C 
BRANCH  11  12
ATOM     12  C   UNL     1      10.002  18.020  32.548  1.00  0.00    -0.000 C 
BRANCH  12  13
ATOM     13  C   UNL     1      10.180  16.998  33.684  1.00  0.00    -0.000 C 
BRANCH  13  14
ATOM     14  C   UNL     1       9.041  17.051  34.720  1.00  0.00    -0.000 C 
BRANCH  14  15
ATOM     15  C   UNL     1       8.016  18.178  34.498  1.00  0.00    -0.000 C 
BRANCH  15  16
ATOM     16  C   UNL     1       8.131  19.306  35.534  1.00  0.00    -0.000 C 
BRANCH  16  17
ATOM     17  C   UNL     1       9.003  20.450  35.007  1.00  0.00    -0.003 C 
ATOM     18  C   UNL     1      10.423  20.361  35.558  1.00  0.00     0.004 C 
ENDBRANCH  16  17
ENDBRANCH  15  16
ENDBRANCH  14  15
ENDBRANCH  13  14
ENDBRANCH  12  13
ENDBRANCH  11  12
ENDBRANCH   1  11
TORSDOF 14
ENDMDL
MODEL 6
REMARK VINA RESULT:    -4.996      4.181      5.204
REMARK INTER + INTRA:         -10.439
REMARK INTER:                  -8.782
REMARK INTRA:                  -1.658
REMARK UNBOUND:                -1.355
REMARK SMILES CCCCCCCCCCCCCCCC(=O)[O-]
REMARK SMILES IDX 9 1 10 2 11 3 12 4 13 5 14 6 15 7 16 8 17 9 18 10 8 11 7 12
REMARK SMILES IDX 6 13 5 14 4 15 3 16 2 17 1 18
REMARK H PARENT
REMARK Flexibility Score: inf
ROOT
ATOM      1  C   UNL     1       9.986  17.025  34.152  1.00  0.00     0.000 C 
ENDROOT
BRANCH   1   2
ATOM      2  C   UNL     1      11.193  17.312  35.055  1.00  0.00     0.000 C 
BRANCH   2   3
ATOM      3  C   UNL     1      10.863  17.017  36.525  1.00  0.00     0.000 C 
BRANCH   3   4
ATOM      4  C   UNL     1      11.787  17.757  37.508  1.00  0.00     0.000 C 
BRANCH   4   5
ATOM      5  C   UNL     1      13.069  18.341  36.886  1.00  0.00     0.000 C 
BRANCH   5   6
ATOM      6  C   UNL     1      14.345  17.905  37.624  1.00  0.00     0.006 C 
BRANCH   6   7
ATOM      7  C   UNL     1      14.227  16.485  38.196  1.00  0.00     0.053 C 
BRANCH   7   8
ATOM      8  C   UNL     1      14.938  15.480  37.341  1.00  0.00     0.041 C 
ATOM      9  O   UNL     1      15.741  15.860  36.450  1.00  0.00    -0.550 OA
ATOM     10  O   UNL     1      14.733  14.122  37.549  1.00  0.00    -0.550 OA
ENDBRANCH   7   8
ENDBRANCH   6   7
ENDBRANCH   5   6
ENDBRANCH   4   5
ENDBRANCH   3   4
ENDBRANCH   2   3
ENDBRANCH   1   2
BRANCH   1  11
ATOM     11  C   UNL     1       8.672  17.133  34.941  1.00  0.00     0.000 C 
BRANCH  11  12
ATOM     12  C   UNL     1       7.884  18.407  34.601  1.00  0.00    -0.000 C 
BRANCH  12  13
ATOM     13  C   UNL     1       8.507  19.670  35.220  1.00  0.00    -0.000 C 
BRANCH  13  14
ATOM     14  C   UNL     1       9.201  20.568  34.179  1.00  0.00    -0.000 C 
BRANCH  14  15
ATOM     15  C   UNL     1       8.652  20.441  32.745  1.00  0.00    -0.000 C 
BRANCH  15  16
ATOM     16  C   UNL     1       9.672  19.849  31.762  1.00  0.00    -0.000 C 
BRANCH  16  17
ATOM     17  C   UNL     1       8.984  18.945  30.734  1.00  0.00    -0.003 C 
ATOM     18  C   UNL     1       9.823  17.706  30.439  1.00  0.00     0.004 C 
ENDBRANCH  16  17
ENDBRANCH  15  16
ENDBRANCH  14  15
ENDBRANCH  13  14
ENDBRANCH  12  13
ENDBRANCH  11  12
ENDBRANCH   1  11
TORSDOF 14
ENDMDL
MODEL 7
REMARK VINA RESULT:    -4.995      1.909      2.820
REMARK INTER + INTRA:         -10.438
REMARK INTER:                  -8.289
REMARK INTRA:                  -2.150
REMARK UNBOUND:                -1.355
REMARK SMILES CCCCCCCCCCCCCCCC(=O)[O-]
REMARK SMILES IDX 9 1 10 2 11 3 12 4 13 5 14 6 15 7 16 8 17 9 18 10 8 11 7 12
REMARK SMILES IDX 6 13 5 14 4 15 3 16 2 17 1 18
REMARK H PARENT
REMARK Flexibility Score: inf
ROOT
ATOM      1  C   UNL     1       8.562  18.731  31.075  1.00  0.00     0.000 C 
ENDROOT
BRANCH   1   2
ATOM      2  C   UNL     1       9.946  18.332  31.600  1.00  0.00     0.000 C 
BRANCH   2   3
ATOM      3  C   UNL     1       9.929  18.165  33.127  1.00  0.00     0.000 C 
BRANCH   3   4
ATOM      4  C   UNL     1       8.505  18.058  33.703  1.00  0.00     0.000 C 
BRANCH   4   5
ATOM      5  C   UNL     1       8.132  19.145  34.728  1.00  0.00     0.000 C 
BRANCH   5   6
ATOM      6  C   UNL     1       8.306  18.679  36.184  1.00  0.00     0.006 C 
BRANCH   6   7
ATOM      7  C   UNL     1       9.731  18.917  36.701  1.00  0.00     0.053 C 
BRANCH   7   8
ATOM      8  C   UNL     1      10.443  17.628  36.981  1.00  0.00     0.041 C 
ATOM      9  O   UNL     1       9.970  16.538  36.566  1.00  0.00    -0.550 OA
ATOM     10  O   UNL     1      11.646  17.635  37.676  1.00  0.00    -0.550 OA
ENDBRANCH   7   8
ENDBRANCH   6   7
ENDBRANCH   5   6
ENDBRANCH   4   5
ENDBRANCH   3   4
ENDBRANCH   2   3
ENDBRANCH   1   2
BRANCH   1  11
ATOM     11  C   UNL     1       8.681  19.570  29.794  1.00  0.00     0.000 C 
BRANCH  11  12
ATOM     12  C   UNL     1       7.961  20.922  29.905  1.00  0.00    -0.000 C 
BRANCH  12  13
ATOM     13  C   UNL     1       8.185  21.601  31.267  1.00  0.00    -0.000 C 
BRANCH  13  14
ATOM     14  C   UNL     1       9.098  22.838  31.177  1.00  0.00    -0.000 C 
BRANCH  14  15
ATOM     15  C   UNL     1      10.332  22.801  32.099  1.00  0.00    -0.000 C 
BRANCH  15  16
ATOM     16  C   UNL     1      10.255  21.694  33.160  1.00  0.00    -0.000 C 
BRANCH  16  17
ATOM     17  C   UNL     1      10.558  22.250  34.556  1.00  0.00    -0.003 C 
ATOM     18  C   UNL     1       9.273  22.587  35.307  1.00  0.00     0.004 C 
ENDBRANCH  16  17
ENDBRANCH  15  16
ENDBRANCH  14  15
ENDBRANCH  13  14
ENDBRANCH  12  13
ENDBRANCH  11  12
ENDBRANCH   1  11
TORSDOF 14
ENDMDL
MODEL 8
REMARK VINA RESULT:    -4.982      1.257      2.543
REMARK INTER + INTRA:         -10.415
REMARK INTER:                  -8.640
REMARK INTRA:                  -1.775
REMARK UNBOUND:                -1.355
REMARK SMILES CCCCCCCCCCCCCCCC(=O)[O-]
REMARK SMILES IDX 9 1 10 2 11 3 12 4 13 5 14 6 15 7 16 8 17 9 18 10 8 11 7 12
REMARK SMILES IDX 6 13 5 14 4 15 3 16 2 17 1 18
REMARK H PARENT
REMARK Flexibility Score: inf
ROOT
ATOM      1  C   UNL     1       9.414  18.468  30.446  1.00  0.00     0.000 C 
ENDROOT
BRANCH   1   2
ATOM      2  C   UNL     1       9.957  18.690  31.864  1.00  0.00     0.000 C 
BRANCH   2   3
ATOM      3  C   UNL     1      10.122  17.355  32.605  1.00  0.00     0.000 C 
BRANCH   3   4
ATOM      4  C   UNL     1       9.514  17.373  34.018  1.00  0.00     0.000 C 
BRANCH   4   5
ATOM      5  C   UNL     1       8.473  18.481  34.267  1.00  0.00     0.000 C 
BRANCH   5   6
ATOM      6  C   UNL     1       8.912  19.483  35.347  1.00  0.00     0.006 C 
BRANCH   6   7
ATOM      7  C   UNL     1       8.082  19.352  36.631  1.00  0.00     0.053 C 
BRANCH   7   8
ATOM      8  C   UNL     1       8.918  18.900  37.790  1.00  0.00     0.041 C 
ATOM      9  O   UNL     1       8.619  19.249  38.962  1.00  0.00    -0.550 OA
ATOM     10  O   UNL     1      10.011  18.070  37.577  1.00  0.00    -0.550 OA
ENDBRANCH   7   8
ENDBRANCH   6   7
ENDBRANCH   5   6
ENDBRANCH   4   5
ENDBRANCH   3   4
ENDBRANCH   2   3
ENDBRANCH   1   2
BRANCH   1  11
ATOM     11  C   UNL     1       8.544  19.653  29.999  1.00  0.00     0.000 C 
BRANCH  11  12
ATOM     12  C   UNL     1       8.258  20.638  31.142  1.00  0.00    -0.000 C 
BRANCH  12  13
ATOM     13  C   UNL     1       8.304  22.106  30.683  1.00  0.00    -0.000 C 
BRANCH  13  14
ATOM     14  C   UNL     1       9.192  22.986  31.582  1.00  0.00    -0.000 C 
BRANCH  14  15
ATOM     15  C   UNL     1       9.659  22.315  32.888  1.00  0.00    -0.000 C 
BRANCH  15  16
ATOM     16  C   UNL     1       9.000  22.912  34.139  1.00  0.00    -0.000 C 
BRANCH  16  17
ATOM     17  C   UNL     1      10.025  23.103  35.262  1.00  0.00    -0.003 C 
ATOM     18  C   UNL     1       9.367  22.995  36.634  1.00  0.00     0.004 C 
ENDBRANCH  16  17
ENDBRANCH  15  16
ENDBRANCH  14  15
ENDBRANCH  13  14
ENDBRANCH  12  13
ENDBRANCH  11  12
ENDBRANCH   1  11
TORSDOF 14
ENDMDL
MODEL 9
REMARK VINA RESULT:    -4.963      3.412      4.009
REMARK INTER + INTRA:         -10.379
REMARK INTER:                  -8.651
REMARK INTRA:                  -1.728
REMARK UNBOUND:                -1.355
REMARK SMILES CCCCCCCCCCCCCCCC(=O)[O-]
REMARK SMILES IDX 9 1 10 2 11 3 12 4 13 5 14 6 15 7 16 8 17 9 18 10 8 11 7 12
REMARK SMILES IDX 6 13 5 14 4 15 3 16 2 17 1 18
REMARK H PARENT
REMARK Flexibility Score: inf
ROOT
ATOM      1  C   UNL     1       9.736  17.929  31.568  1.00  0.00     0.000 C 
ENDROOT
BRANCH   1   2
ATOM      2  C   UNL     1       8.689  18.160  32.665  1.00  0.00     0.000 C 
BRANCH   2   3
ATOM      3  C   UNL     1       9.247  17.781  34.045  1.00  0.00     0.000 C 
BRANCH   3   4
ATOM      4  C   UNL     1      10.767  17.540  34.033  1.00  0.00     0.000 C 
BRANCH   4   5
ATOM      5  C   UNL     1      11.441  17.550  35.418  1.00  0.00     0.000 C 
BRANCH   5   6
ATOM      6  C   UNL     1      12.875  16.996  35.389  1.00  0.00     0.006 C 
BRANCH   6   7
ATOM      7  C   UNL     1      13.589  17.168  36.737  1.00  0.00     0.053 C 
BRANCH   7   8
ATOM      8  C   UNL     1      14.310  15.920  37.149  1.00  0.00     0.041 C 
ATOM      9  O   UNL     1      13.939  14.800  36.712  1.00  0.00    -0.550 OA
ATOM     10  O   UNL     1      15.410  15.999  37.994  1.00  0.00    -0.550 OA
ENDBRANCH   7   8
ENDBRANCH   6   7
ENDBRANCH   5   6
ENDBRANCH   4   5
ENDBRANCH   3   4
ENDBRANCH   2   3
ENDBRANCH   1   2
BRANCH   1  11
ATOM     11  C   UNL     1       9.355  18.674  30.280  1.00  0.00     0.000 C 
BRANCH  11  12
ATOM     12  C   UNL     1       8.175  19.636  30.482  1.00  0.00    -0.000 C 
BRANCH  12  13
ATOM     13  C   UNL     1       8.209  20.827  29.508  1.00  0.00    -0.000 C 
BRANCH  13  14
ATOM     14  C   UNL     1       7.986  22.180  30.209  1.00  0.00    -0.000 C 
BRANCH  14  15
ATOM     15  C   UNL     1       9.134  22.627  31.135  1.00  0.00    -0.000 C 
BRANCH  15  16
ATOM     16  C   UNL     1       8.744  22.619  32.620  1.00  0.00    -0.000 C 
BRANCH  16  17
ATOM     17  C   UNL     1       9.616  21.638  33.411  1.00  0.00    -0.003 C 
ATOM     18  C   UNL     1      10.896  21.302  32.652  1.00  0.00     0.004 C 
ENDBRANCH  16  17
ENDBRANCH  15  16
ENDBRANCH  14  15
ENDBRANCH  13  14
ENDBRANCH  12  13
ENDBRANCH  11  12
ENDBRANCH   1  11
TORSDOF 14
ENDMDL
