MODEL 1
REMARK VINA RESULT:    -3.803      0.000      0.000
REMARK INTER + INTRA:         -10.154
REMARK INTER:                  -7.138
REMARK INTRA:                  -3.016
REMARK UNBOUND:                -3.016
REMARK SMILES CCCCCCCCC=CCCCCCCCC(=O)[O-]
REMARK SMILES IDX 10 1 9 2 11 3 12 4 13 5 14 6 15 7 16 8 17 9 18 10 19 11
REMARK SMILES IDX 20 12 8 13 7 14 6 15 5 16 4 17 3 18 2 19 1 20
REMARK H PARENT
REMARK Flexibility Score: inf
ROOT
ATOM      1  C   UNL     1       1.095   7.789  38.931  1.00  0.00    -0.031 C 
ATOM      2  C   UNL     1       0.888   7.059  40.043  1.00  0.00    -0.031 C 
ENDROOT
BRANCH   1   3
ATOM      3  C   UNL     1       1.545   9.232  38.912  1.00  0.00     0.027 C 
BRANCH   3   4
ATOM      4  C   UNL     1       0.542  10.124  38.170  1.00  0.00     0.004 C 
BRANCH   4   5
ATOM      5  C   UNL     1      -0.840  10.123  38.844  1.00  0.00     0.000 C 
BRANCH   5   6
ATOM      6  C   UNL     1      -1.974   9.782  37.863  1.00  0.00     0.000 C 
BRANCH   6   7
ATOM      7  C   UNL     1      -1.457   9.145  36.561  1.00  0.00     0.000 C 
BRANCH   7   8
ATOM      8  C   UNL     1      -1.685   7.623  36.511  1.00  0.00     0.006 C 
BRANCH   8   9
ATOM      9  C   UNL     1      -1.090   6.937  35.271  1.00  0.00     0.053 C 
BRANCH   9  10
ATOM     10  C   UNL     1       0.264   6.359  35.543  1.00  0.00     0.041 C 
ATOM     11  O   UNL     1       0.374   5.186  35.991  1.00  0.00    -0.550 OA
ATOM     12  O   UNL     1       1.403   7.127  35.338  1.00  0.00    -0.550 OA
ENDBRANCH   9  10
ENDBRANCH   8   9
ENDBRANCH   7   8
ENDBRANCH   6   7
ENDBRANCH   5   6
ENDBRANCH   4   5
ENDBRANCH   3   4
ENDBRANCH   1   3
BRANCH   2  13
ATOM     13  C   UNL     1       1.032   7.579  41.449  1.00  0.00     0.027 C 
BRANCH  13  14
ATOM     14  C   UNL     1      -0.182   7.191  42.307  1.00  0.00     0.004 C 
BRANCH  14  15
ATOM     15  C   UNL     1      -1.376   8.134  42.092  1.00  0.00     0.000 C 
BRANCH  15  16
ATOM     16  C   UNL     1      -2.666   7.372  41.737  1.00  0.00     0.000 C 
BRANCH  16  17
ATOM     17  C   UNL     1      -3.027   7.484  40.248  1.00  0.00    -0.000 C 
BRANCH  17  18
ATOM     18  C   UNL     1      -3.346   6.119  39.612  1.00  0.00    -0.000 C 
BRANCH  18  19
ATOM     19  C   UNL     1      -2.380   5.016  40.073  1.00  0.00    -0.003 C 
ATOM     20  C   UNL     1      -1.435   4.558  38.963  1.00  0.00     0.004 C 
ENDBRANCH  18  19
ENDBRANCH  17  18
ENDBRANCH  16  17
ENDBRANCH  15  16
ENDBRANCH  14  15
ENDBRANCH  13  14
ENDBRANCH   2  13
TORSDOF 15
ENDMDL
MODEL 2
REMARK VINA RESULT:    -3.747      1.632      4.119
REMARK INTER + INTRA:         -10.049
REMARK INTER:                  -7.311
REMARK INTRA:                  -2.738
REMARK UNBOUND:                -3.016
REMARK SMILES CCCCCCCCC=CCCCCCCCC(=O)[O-]
REMARK SMILES IDX 10 1 9 2 11 3 12 4 13 5 14 6 15 7 16 8 17 9 18 10 19 11
REMARK SMILES IDX 20 12 8 13 7 14 6 15 5 16 4 17 3 18 2 19 1 20
REMARK H PARENT
REMARK Flexibility Score: inf
ROOT
ATOM      1  C   UNL     1      -1.695   4.635  40.208  1.00  0.00    -0.031 C 
ATOM      2  C   UNL     1      -2.584   5.567  40.604  1.00  0.00    -0.031 C 
ENDROOT
BRANCH   1   3
ATOM      3  C   UNL     1      -1.215   4.443  38.788  1.00  0.00     0.027 C 
BRANCH   3   4
ATOM      4  C   UNL     1       0.116   5.166  38.543  1.00  0.00     0.004 C 
BRANCH   4   5
ATOM      5  C   UNL     1       0.151   5.862  37.172  1.00  0.00     0.000 C 
BRANCH   5   6
ATOM      6  C   UNL     1      -1.244   5.992  36.542  1.00  0.00     0.000 C 
BRANCH   6   7
ATOM      7  C   UNL     1      -1.231   6.811  35.240  1.00  0.00     0.000 C 
BRANCH   7   8
ATOM      8  C   UNL     1       0.132   6.769  34.525  1.00  0.00     0.006 C 
BRANCH   8   9
ATOM      9  C   UNL     1       0.690   8.151  34.148  1.00  0.00     0.053 C 
BRANCH   9  10
ATOM     10  C   UNL     1       0.608   9.121  35.287  1.00  0.00     0.041 C 
ATOM     11  O   UNL     1       1.416   9.036  36.249  1.00  0.00    -0.550 OA
ATOM     12  O   UNL     1      -0.384  10.093  35.303  1.00  0.00    -0.550 OA
ENDBRANCH   9  10
ENDBRANCH   8   9
ENDBRANCH   7   8
ENDBRANCH   6   7
ENDBRANCH   5   6
ENDBRANCH   4   5
ENDBRANCH   3   4
ENDBRANCH   1   3
BRANCH   2  13
ATOM     13  C   UNL     1      -3.273   6.540  39.683  1.00  0.00     0.027 C 
BRANCH  13  14
ATOM     14  C   UNL     1      -3.010   7.990  40.117  1.00  0.00     0.004 C 
BRANCH  14  15
ATOM     15  C   UNL     1      -2.655   8.900  38.931  1.00  0.00     0.000 C 
BRANCH  15  16
ATOM     16  C   UNL     1      -1.147   8.891  38.619  1.00  0.00     0.000 C 
BRANCH  16  17
ATOM     17  C   UNL     1      -0.422  10.125  39.178  1.00  0.00    -0.000 C 
BRANCH  17  18
ATOM     18  C   UNL     1       0.766   9.755  40.083  1.00  0.00    -0.000 C 
BRANCH  18  19
ATOM     19  C   UNL     1       0.319   9.101  41.401  1.00  0.00    -0.003 C 
ATOM     20  C   UNL     1       0.735   7.634  41.503  1.00  0.00     0.004 C 
ENDBRANCH  18  19
ENDBRANCH  17  18
ENDBRANCH  16  17
ENDBRANCH  15  16
ENDBRANCH  14  15
ENDBRANCH  13  14
ENDBRANCH   2  13
TORSDOF 15
ENDMDL
MODEL 3
REMARK VINA RESULT:    -3.742      1.405      4.418
REMARK INTER + INTRA:         -10.040
REMARK INTER:                  -6.921
REMARK INTRA:                  -3.119
REMARK UNBOUND:                -3.016
REMARK SMILES CCCCCCCCC=CCCCCCCCC(=O)[O-]
REMARK SMILES IDX 10 1 9 2 11 3 12 4 13 5 14 6 15 7 16 8 17 9 18 10 19 11
REMARK SMILES IDX 20 12 8 13 7 14 6 15 5 16 4 17 3 18 2 19 1 20
REMARK H PARENT
REMARK Flexibility Score: inf
ROOT
ATOM      1  C   UNL     1      -3.119   7.519  40.165  1.00  0.00    -0.031 C 
ATOM      2  C   UNL     1      -2.619   8.527  39.425  1.00  0.00    -0.031 C 
ENDROOT
BRANCH   1   3
ATOM      3  C   UNL     1      -3.150   6.068  39.745  1.00  0.00     0.027 C 
BRANCH   3   4
ATOM      4  C   UNL     1      -2.054   5.256  40.449  1.00  0.00     0.004 C 
BRANCH   4   5
ATOM      5  C   UNL     1      -1.131   4.544  39.447  1.00  0.00     0.000 C 
BRANCH   5   6
ATOM      6  C   UNL     1      -1.634   4.655  37.999  1.00  0.00     0.000 C 
BRANCH   6   7
ATOM      7  C   UNL     1      -0.823   3.785  37.023  1.00  0.00     0.000 C 
BRANCH   7   8
ATOM      8  C   UNL     1      -0.204   4.600  35.872  1.00  0.00     0.006 C 
BRANCH   8   9
ATOM      9  C   UNL     1      -1.060   5.792  35.413  1.00  0.00     0.053 C 
BRANCH   9  10
ATOM     10  C   UNL     1      -0.338   6.656  34.425  1.00  0.00     0.041 C 
ATOM     11  O   UNL     1       0.040   6.178  33.323  1.00  0.00    -0.550 OA
ATOM     12  O   UNL     1      -0.050   7.978  34.737  1.00  0.00    -0.550 OA
ENDBRANCH   9  10
ENDBRANCH   8   9
ENDBRANCH   7   8
ENDBRANCH   6   7
ENDBRANCH   5   6
ENDBRANCH   4   5
ENDBRANCH   3   4
ENDBRANCH   1   3
BRANCH   2  13
ATOM     13  C   UNL     1      -2.047   8.371  38.040  1.00  0.00     0.027 C 
BRANCH  13  14
ATOM     14  C   UNL     1      -0.575   8.809  37.999  1.00  0.00     0.004 C 
BRANCH  14  15
ATOM     15  C   UNL     1       0.386   7.666  38.359  1.00  0.00     0.000 C 
BRANCH  15  16
ATOM     16  C   UNL     1       1.028   7.858  39.745  1.00  0.00     0.000 C 
BRANCH  16  17
ATOM     17  C   UNL     1       0.894   9.299  40.263  1.00  0.00    -0.000 C 
BRANCH  17  18
ATOM     18  C   UNL     1       0.220   9.371  41.645  1.00  0.00    -0.000 C 
BRANCH  18  19
ATOM     19  C   UNL     1       0.524   8.139  42.512  1.00  0.00    -0.003 C 
ATOM     20  C   UNL     1      -0.740   7.479  43.062  1.00  0.00     0.004 C 
ENDBRANCH  18  19
ENDBRANCH  17  18
ENDBRANCH  16  17
ENDBRANCH  15  16
ENDBRANCH  14  15
ENDBRANCH  13  14
ENDBRANCH   2  13
TORSDOF 15
ENDMDL
MODEL 4
REMARK VINA RESULT:    -3.734      1.471      4.481
REMARK INTER + INTRA:         -10.024
REMARK INTER:                  -6.940
REMARK INTRA:                  -3.085
REMARK UNBOUND:                -3.016
REMARK SMILES CCCCCCCCC=CCCCCCCCC(=O)[O-]
REMARK SMILES IDX 10 1 9 2 11 3 12 4 13 5 14 6 15 7 16 8 17 9 18 10 19 11
REMARK SMILES IDX 20 12 8 13 7 14 6 15 5 16 4 17 3 18 2 19 1 20
REMARK H PARENT
REMARK Flexibility Score: inf
ROOT
ATOM      1  C   UNL     1      -2.232   9.612  38.306  1.00  0.00    -0.031 C 
ATOM      2  C   UNL     1      -1.942   9.639  36.992  1.00  0.00    -0.031 C 
ENDROOT
BRANCH   1   3
ATOM      3  C   UNL     1      -1.819   8.518  39.263  1.00  0.00     0.027 C 
BRANCH   3   4
ATOM      4  C   UNL     1      -3.024   7.963  40.035  1.00  0.00     0.004 C 
BRANCH   4   5
ATOM      5  C   UNL     1      -3.140   6.435  39.902  1.00  0.00     0.000 C 
BRANCH   5   6
ATOM      6  C   UNL     1      -2.547   5.911  38.585  1.00  0.00     0.000 C 
BRANCH   6   7
ATOM      7  C   UNL     1      -1.520   4.787  38.805  1.00  0.00     0.000 C 
BRANCH   7   8
ATOM      8  C   UNL     1      -0.841   4.337  37.498  1.00  0.00     0.006 C 
BRANCH   8   9
ATOM      9  C   UNL     1      -1.502   4.887  36.223  1.00  0.00     0.053 C 
BRANCH   9  10
ATOM     10  C   UNL     1      -0.612   4.754  35.026  1.00  0.00     0.041 C 
ATOM     11  O   UNL     1      -0.014   3.669  34.799  1.00  0.00    -0.550 OA
ATOM     12  O   UNL     1      -0.414   5.840  34.183  1.00  0.00    -0.550 OA
ENDBRANCH   9  10
ENDBRANCH   8   9
ENDBRANCH   7   8
ENDBRANCH   6   7
ENDBRANCH   5   6
ENDBRANCH   4   5
ENDBRANCH   3   4
ENDBRANCH   1   3
BRANCH   2  13
ATOM     13  C   UNL     1      -1.195   8.557  36.257  1.00  0.00     0.027 C 
BRANCH  13  14
ATOM     14  C   UNL     1       0.036   9.128  35.537  1.00  0.00     0.004 C 
BRANCH  14  15
ATOM     15  C   UNL     1       1.346   8.806  36.273  1.00  0.00     0.000 C 
BRANCH  15  16
ATOM     16  C   UNL     1       1.201   7.601  37.221  1.00  0.00     0.000 C 
BRANCH  16  17
ATOM     17  C   UNL     1       1.655   7.920  38.654  1.00  0.00    -0.000 C 
BRANCH  17  18
ATOM     18  C   UNL     1       1.374   6.767  39.634  1.00  0.00    -0.000 C 
BRANCH  18  19
ATOM     19  C   UNL     1       1.076   7.264  41.057  1.00  0.00    -0.003 C 
ATOM     20  C   UNL     1       0.055   6.391  41.785  1.00  0.00     0.004 C 
ENDBRANCH  18  19
ENDBRANCH  17  18
ENDBRANCH  16  17
ENDBRANCH  15  16
ENDBRANCH  14  15
ENDBRANCH  13  14
ENDBRANCH   2  13
TORSDOF 15
ENDMDL
MODEL 5
REMARK VINA RESULT:    -3.721      1.366      4.129
REMARK INTER + INTRA:         -10.000
REMARK INTER:                  -6.995
REMARK INTRA:                  -3.005
REMARK UNBOUND:                -3.016
REMARK SMILES CCCCCCCCC=CCCCCCCCC(=O)[O-]
REMARK SMILES IDX 10 1 9 2 11 3 12 4 13 5 14 6 15 7 16 8 17 9 18 10 19 11
REMARK SMILES IDX 20 12 8 13 7 14 6 15 5 16 4 17 3 18 2 19 1 20
REMARK H PARENT
REMARK Flexibility Score: inf
ROOT
ATOM      1  C   UNL     1      -2.726   5.738  39.577  1.00  0.00    -0.031 C 
ATOM      2  C   UNL     1      -3.369   6.901  39.797  1.00  0.00    -0.031 C 
ENDROOT
BRANCH   1   3
ATOM      3  C   UNL     1      -1.225   5.574  39.522  1.00  0.00     0.027 C 
BRANCH   3   4
ATOM      4  C   UNL     1      -0.738   5.334  38.087  1.00  0.00     0.004 C 
BRANCH   4   5
ATOM      5  C   UNL     1      -1.899   5.025  37.128  1.00  0.00     0.000 C 
BRANCH   5   6
ATOM      6  C   UNL     1      -1.621   5.502  35.693  1.00  0.00     0.000 C 
BRANCH   6   7
ATOM      7  C   UNL     1      -1.436   7.027  35.603  1.00  0.00     0.000 C 
BRANCH   7   8
ATOM      8  C   UNL     1      -0.111   7.426  34.927  1.00  0.00     0.006 C 
BRANCH   8   9
ATOM      9  C   UNL     1       0.795   6.237  34.566  1.00  0.00     0.053 C 
BRANCH   9  10
ATOM     10  C   UNL     1       1.937   6.090  35.524  1.00  0.00     0.041 C 
ATOM     11  O   UNL     1       2.052   6.879  36.500  1.00  0.00    -0.550 OA
ATOM     12  O   UNL     1       2.894   5.104  35.320  1.00  0.00    -0.550 OA
ENDBRANCH   9  10
ENDBRANCH   8   9
ENDBRANCH   7   8
ENDBRANCH   6   7
ENDBRANCH   5   6
ENDBRANCH   4   5
ENDBRANCH   3   4
ENDBRANCH   1   3
BRANCH   2  13
ATOM     13  C   UNL     1      -2.690   8.233  39.982  1.00  0.00     0.027 C 
BRANCH  13  14
ATOM     14  C   UNL     1      -2.469   8.932  38.632  1.00  0.00     0.004 C 
BRANCH  14  15
ATOM     15  C   UNL     1      -1.222   9.829  38.635  1.00  0.00     0.000 C 
BRANCH  15  16
ATOM     16  C   UNL     1       0.064   9.042  38.320  1.00  0.00     0.000 C 
BRANCH  16  17
ATOM     17  C   UNL     1       0.966   8.869  39.551  1.00  0.00    -0.000 C 
BRANCH  17  18
ATOM     18  C   UNL     1       0.587   9.818  40.701  1.00  0.00    -0.000 C 
BRANCH  18  19
ATOM     19  C   UNL     1       0.323   9.071  42.018  1.00  0.00    -0.003 C 
ATOM     20  C   UNL     1       0.746   7.603  41.958  1.00  0.00     0.004 C 
ENDBRANCH  18  19
ENDBRANCH  17  18
ENDBRANCH  16  17
ENDBRANCH  15  16
ENDBRANCH  14  15
ENDBRANCH  13  14
ENDBRANCH   2  13
TORSDOF 15
ENDMDL
MODEL 6
REMARK VINA RESULT:    -3.698      1.685      3.717
REMARK INTER + INTRA:          -9.958
REMARK INTER:                  -6.979
REMARK INTRA:                  -2.979
REMARK UNBOUND:                -3.016
REMARK SMILES CCCCCCCCC=CCCCCCCCC(=O)[O-]
REMARK SMILES IDX 10 1 9 2 11 3 12 4 13 5 14 6 15 7 16 8 17 9 18 10 19 11
REMARK SMILES IDX 20 12 8 13 7 14 6 15 5 16 4 17 3 18 2 19 1 20
REMARK H PARENT
REMARK Flexibility Score: inf
ROOT
ATOM      1  C   UNL     1      -2.848   8.270  39.825  1.00  0.00    -0.031 C 
ATOM      2  C   UNL     1      -3.139   6.955  39.812  1.00  0.00    -0.031 C 
ENDROOT
BRANCH   1   3
ATOM      3  C   UNL     1      -1.763   8.926  39.002  1.00  0.00     0.027 C 
BRANCH   3   4
ATOM      4  C   UNL     1      -2.352   9.731  37.836  1.00  0.00     0.004 C 
BRANCH   4   5
ATOM      5  C   UNL     1      -1.478   9.643  36.575  1.00  0.00     0.000 C 
BRANCH   5   6
ATOM      6  C   UNL     1      -0.788   8.277  36.429  1.00  0.00     0.000 C 
BRANCH   6   7
ATOM      7  C   UNL     1      -1.650   7.259  35.663  1.00  0.00     0.000 C 
BRANCH   7   8
ATOM      8  C   UNL     1      -0.820   6.104  35.072  1.00  0.00     0.006 C 
BRANCH   8   9
ATOM      9  C   UNL     1      -0.035   5.294  36.117  1.00  0.00     0.053 C 
BRANCH   9  10
ATOM     10  C   UNL     1      -0.675   3.969  36.400  1.00  0.00     0.041 C 
ATOM     11  O   UNL     1       0.012   3.020  36.862  1.00  0.00    -0.550 OA
ATOM     12  O   UNL     1      -2.021   3.773  36.119  1.00  0.00    -0.550 OA
ENDBRANCH   9  10
ENDBRANCH   8   9
ENDBRANCH   7   8
ENDBRANCH   6   7
ENDBRANCH   5   6
ENDBRANCH   4   5
ENDBRANCH   3   4
ENDBRANCH   1   3
BRANCH   2  13
ATOM     13  C   UNL     1      -2.399   5.922  39.003  1.00  0.00     0.027 C 
BRANCH  13  14
ATOM     14  C   UNL     1      -1.763   4.861  39.914  1.00  0.00     0.004 C 
BRANCH  14  15
ATOM     15  C   UNL     1      -0.514   5.386  40.639  1.00  0.00     0.000 C 
BRANCH  15  16
ATOM     16  C   UNL     1       0.503   6.014  39.669  1.00  0.00     0.000 C 
BRANCH  16  17
ATOM     17  C   UNL     1       1.130   7.302  40.224  1.00  0.00    -0.000 C 
BRANCH  17  18
ATOM     18  C   UNL     1       0.887   7.475  41.734  1.00  0.00    -0.000 C 
BRANCH  18  19
ATOM     19  C   UNL     1       0.244   8.829  42.074  1.00  0.00    -0.003 C 
ATOM     20  C   UNL     1      -0.934   8.696  43.038  1.00  0.00     0.004 C 
ENDBRANCH  18  19
ENDBRANCH  17  18
ENDBRANCH  16  17
ENDBRANCH  15  16
ENDBRANCH  14  15
ENDBRANCH  13  14
ENDBRANCH   2  13
TORSDOF 15
ENDMDL
MODEL 7
REMARK VINA RESULT:    -3.679      1.351      2.863
REMARK INTER + INTRA:          -9.922
REMARK INTER:                  -6.746
REMARK INTRA:                  -3.177
REMARK UNBOUND:                -3.016
REMARK SMILES CCCCCCCCC=CCCCCCCCC(=O)[O-]
REMARK SMILES IDX 10 1 9 2 11 3 12 4 13 5 14 6 15 7 16 8 17 9 18 10 19 11
REMARK SMILES IDX 20 12 8 13 7 14 6 15 5 16 4 17 3 18 2 19 1 20
REMARK H PARENT
REMARK Flexibility Score: inf
ROOT
ATOM      1  C   UNL     1      -2.463   7.807  38.989  1.00  0.00    -0.031 C 
ATOM      2  C   UNL     1      -3.019   7.251  40.082  1.00  0.00    -0.031 C 
ENDROOT
BRANCH   1   3
ATOM      3  C   UNL     1      -1.720   9.123  38.967  1.00  0.00     0.027 C 
BRANCH   3   4
ATOM      4  C   UNL     1      -2.284  10.068  37.898  1.00  0.00     0.004 C 
BRANCH   4   5
ATOM      5  C   UNL     1      -1.414  10.090  36.630  1.00  0.00     0.000 C 
BRANCH   5   6
ATOM      6  C   UNL     1      -0.084   9.341  36.815  1.00  0.00     0.000 C 
BRANCH   6   7
ATOM      7  C   UNL     1       0.154   8.280  35.726  1.00  0.00     0.000 C 
BRANCH   7   8
ATOM      8  C   UNL     1      -1.121   7.491  35.377  1.00  0.00     0.006 C 
BRANCH   8   9
ATOM      9  C   UNL     1      -1.143   6.054  35.923  1.00  0.00     0.053 C 
BRANCH   9  10
ATOM     10  C   UNL     1      -0.173   5.165  35.206  1.00  0.00     0.041 C 
ATOM     11  O   UNL     1       0.743   4.582  35.844  1.00  0.00    -0.550 OA
ATOM     12  O   UNL     1      -0.259   5.010  33.828  1.00  0.00    -0.550 OA
ENDBRANCH   9  10
ENDBRANCH   8   9
ENDBRANCH   7   8
ENDBRANCH   6   7
ENDBRANCH   5   6
ENDBRANCH   4   5
ENDBRANCH   3   4
ENDBRANCH   1   3
BRANCH   2  13
ATOM     13  C   UNL     1      -3.024   7.878  41.453  1.00  0.00     0.027 C 
BRANCH  13  14
ATOM     14  C   UNL     1      -1.820   7.403  42.281  1.00  0.00     0.004 C 
BRANCH  14  15
ATOM     15  C   UNL     1      -0.903   8.563  42.697  1.00  0.00     0.000 C 
BRANCH  15  16
ATOM     16  C   UNL     1       0.451   8.528  41.964  1.00  0.00     0.000 C 
BRANCH  16  17
ATOM     17  C   UNL     1       0.653   7.235  41.159  1.00  0.00    -0.000 C 
BRANCH  17  18
ATOM     18  C   UNL     1       1.348   7.480  39.808  1.00  0.00    -0.000 C 
BRANCH  18  19
ATOM     19  C   UNL     1       1.108   6.338  38.807  1.00  0.00    -0.003 C 
ATOM     20  C   UNL     1       0.247   5.217  39.387  1.00  0.00     0.004 C 
ENDBRANCH  18  19
ENDBRANCH  17  18
ENDBRANCH  16  17
ENDBRANCH  15  16
ENDBRANCH  14  15
ENDBRANCH  13  14
ENDBRANCH   2  13
TORSDOF 15
ENDMDL
MODEL 8
REMARK VINA RESULT:    -3.657      1.510      3.679
REMARK INTER + INTRA:          -9.881
REMARK INTER:                  -6.626
REMARK INTRA:                  -3.255
REMARK UNBOUND:                -3.016
REMARK SMILES CCCCCCCCC=CCCCCCCCC(=O)[O-]
REMARK SMILES IDX 10 1 9 2 11 3 12 4 13 5 14 6 15 7 16 8 17 9 18 10 19 11
REMARK SMILES IDX 20 12 8 13 7 14 6 15 5 16 4 17 3 18 2 19 1 20
REMARK H PARENT
REMARK Flexibility Score: inf
ROOT
ATOM      1  C   UNL     1      -2.657   8.297  39.778  1.00  0.00    -0.031 C 
ATOM      2  C   UNL     1      -2.903   6.999  40.041  1.00  0.00    -0.031 C 
ENDROOT
BRANCH   1   3
ATOM      3  C   UNL     1      -2.274   8.849  38.424  1.00  0.00     0.027 C 
BRANCH   3   4
ATOM      4  C   UNL     1      -1.349  10.066  38.555  1.00  0.00     0.004 C 
BRANCH   4   5
ATOM      5  C   UNL     1       0.019   9.825  37.895  1.00  0.00     0.000 C 
BRANCH   5   6
ATOM      6  C   UNL     1       0.165   8.397  37.347  1.00  0.00     0.000 C 
BRANCH   6   7
ATOM      7  C   UNL     1       1.622   7.901  37.370  1.00  0.00     0.000 C 
BRANCH   7   8
ATOM      8  C   UNL     1       1.764   6.450  36.874  1.00  0.00     0.006 C 
BRANCH   8   9
ATOM      9  C   UNL     1       0.824   6.086  35.713  1.00  0.00     0.053 C 
BRANCH   9  10
ATOM     10  C   UNL     1       1.400   6.465  34.383  1.00  0.00     0.041 C 
ATOM     11  O   UNL     1       2.403   5.852  33.930  1.00  0.00    -0.550 OA
ATOM     12  O   UNL     1       0.853   7.518  33.662  1.00  0.00    -0.550 OA
ENDBRANCH   9  10
ENDBRANCH   8   9
ENDBRANCH   7   8
ENDBRANCH   6   7
ENDBRANCH   5   6
ENDBRANCH   4   5
ENDBRANCH   3   4
ENDBRANCH   1   3
BRANCH   2  13
ATOM     13  C   UNL     1      -2.795   5.885  39.034  1.00  0.00     0.027 C 
BRANCH  13  14
ATOM     14  C   UNL     1      -1.346   5.389  38.913  1.00  0.00     0.004 C 
BRANCH  14  15
ATOM     15  C   UNL     1      -0.695   5.145  40.284  1.00  0.00     0.000 C 
BRANCH  15  16
ATOM     16  C   UNL     1       0.675   5.835  40.411  1.00  0.00     0.000 C 
BRANCH  16  17
ATOM     17  C   UNL     1       0.724   6.841  41.571  1.00  0.00    -0.000 C 
BRANCH  17  18
ATOM     18  C   UNL     1       0.943   8.287  41.092  1.00  0.00    -0.000 C 
BRANCH  18  19
ATOM     19  C   UNL     1       0.132   9.306  41.909  1.00  0.00    -0.003 C 
ATOM     20  C   UNL     1      -0.817   8.642  42.905  1.00  0.00     0.004 C 
ENDBRANCH  18  19
ENDBRANCH  17  18
ENDBRANCH  16  17
ENDBRANCH  15  16
ENDBRANCH  14  15
ENDBRANCH  13  14
ENDBRANCH   2  13
TORSDOF 15
ENDMDL
MODEL 9
REMARK VINA RESULT:    -3.632      1.461      3.107
REMARK INTER + INTRA:          -9.833
REMARK INTER:                  -6.691
REMARK INTRA:                  -3.143
REMARK UNBOUND:                -3.016
REMARK SMILES CCCCCCCCC=CCCCCCCCC(=O)[O-]
REMARK SMILES IDX 10 1 9 2 11 3 12 4 13 5 14 6 15 7 16 8 17 9 18 10 19 11
REMARK SMILES IDX 20 12 8 13 7 14 6 15 5 16 4 17 3 18 2 19 1 20
REMARK H PARENT
REMARK Flexibility Score: inf
ROOT
ATOM      1  C   UNL     1      -2.522   7.536  39.203  1.00  0.00    -0.031 C 
ATOM      2  C   UNL     1      -2.843   6.971  40.383  1.00  0.00    -0.031 C 
ENDROOT
BRANCH   1   3
ATOM      3  C   UNL     1      -2.264   9.010  38.989  1.00  0.00     0.027 C 
BRANCH   3   4
ATOM      4  C   UNL     1      -1.869   9.306  37.537  1.00  0.00     0.004 C 
BRANCH   4   5
ATOM      5  C   UNL     1      -0.911   8.244  36.971  1.00  0.00     0.000 C 
BRANCH   5   6
ATOM      6  C   UNL     1      -1.410   7.647  35.645  1.00  0.00     0.000 C 
BRANCH   6   7
ATOM      7  C   UNL     1      -1.783   6.159  35.770  1.00  0.00     0.000 C 
BRANCH   7   8
ATOM      8  C   UNL     1      -0.781   5.365  36.629  1.00  0.00     0.006 C 
BRANCH   8   9
ATOM      9  C   UNL     1       0.237   4.549  35.817  1.00  0.00     0.053 C 
BRANCH   9  10
ATOM     10  C   UNL     1       1.638   5.045  36.009  1.00  0.00     0.041 C 
ATOM     11  O   UNL     1       2.573   4.231  36.232  1.00  0.00    -0.550 OA
ATOM     12  O   UNL     1       1.903   6.408  35.979  1.00  0.00    -0.550 OA
ENDBRANCH   9  10
ENDBRANCH   8   9
ENDBRANCH   7   8
ENDBRANCH   6   7
ENDBRANCH   5   6
ENDBRANCH   4   5
ENDBRANCH   3   4
ENDBRANCH   1   3
BRANCH   2  13
ATOM     13  C   UNL     1      -3.036   7.728  41.671  1.00  0.00     0.027 C 
BRANCH  13  14
ATOM     14  C   UNL     1      -1.917   7.405  42.673  1.00  0.00     0.004 C 
BRANCH  14  15
ATOM     15  C   UNL     1      -1.157   8.661  43.125  1.00  0.00     0.000 C 
BRANCH  15  16
ATOM     16  C   UNL     1      -0.033   9.047  42.145  1.00  0.00     0.000 C 
BRANCH  16  17
ATOM     17  C   UNL     1       0.740   7.826  41.624  1.00  0.00    -0.000 C 
BRANCH  17  18
ATOM     18  C   UNL     1       1.116   7.954  40.137  1.00  0.00    -0.000 C 
BRANCH  18  19
ATOM     19  C   UNL     1       1.264   6.588  39.449  1.00  0.00    -0.003 C 
ATOM     20  C   UNL     1       0.552   5.467  40.205  1.00  0.00     0.004 C 
ENDBRANCH  18  19
ENDBRANCH  17  18
ENDBRANCH  16  17
ENDBRANCH  15  16
ENDBRANCH  14  15
ENDBRANCH  13  14
ENDBRANCH   2  13
TORSDOF 15
ENDMDL
