MODEL 1
REMARK VINA RESULT:    -5.330      0.000      0.000
REMARK INTER + INTRA:         -16.207
REMARK INTER:                 -13.432
REMARK INTRA:                  -2.775
REMARK UNBOUND:                -2.775
REMARK SMILES CCCCCCCCCCCCCCCCCCCCCCCCCCCC(=O)[O-]
REMARK SMILES IDX 15 1 16 2 17 3 18 4 19 5 20 6 21 7 22 8 23 9 24 10 25 11
REMARK SMILES IDX 26 12 27 13 28 14 29 15 30 16 14 17 13 18 12 19 11 20 10 21
REMARK SMILES IDX 9 22 8 23 7 24 6 25 5 26 4 27 3 28 2 29 1 30
REMARK H PARENT
REMARK Flexibility Score: inf
ROOT
ATOM      1  C   UNL     1      10.192  49.748  22.308  1.00  0.00     0.000 C 
ENDROOT
BRANCH   1   2
ATOM      2  C   UNL     1      10.257  51.239  22.680  1.00  0.00     0.000 C 
BRANCH   2   3
ATOM      3  C   UNL     1      10.151  52.152  21.446  1.00  0.00     0.000 C 
BRANCH   3   4
ATOM      4  C   UNL     1      10.531  53.614  21.748  1.00  0.00     0.000 C 
BRANCH   4   5
ATOM      5  C   UNL     1      10.483  54.004  23.239  1.00  0.00     0.000 C 
BRANCH   5   6
ATOM      6  C   UNL     1       9.144  54.597  23.725  1.00  0.00     0.000 C 
BRANCH   6   7
ATOM      7  C   UNL     1       8.127  53.564  24.243  1.00  0.00     0.000 C 
BRANCH   7   8
ATOM      8  C   UNL     1       6.782  53.624  23.508  1.00  0.00     0.000 C 
BRANCH   8   9
ATOM      9  C   UNL     1       6.987  54.002  22.033  1.00  0.00     0.000 C 
BRANCH   9  10
ATOM     10  C   UNL     1       6.379  55.369  21.673  1.00  0.00     0.000 C 
BRANCH  10  11
ATOM     11  C   UNL     1       7.284  56.278  20.822  1.00  0.00     0.000 C 
BRANCH  11  12
ATOM     12  C   UNL     1       7.963  55.527  19.664  1.00  0.00     0.006 C 
BRANCH  12  13
ATOM     13  C   UNL     1       7.244  55.751  18.327  1.00  0.00     0.053 C 
BRANCH  13  14
ATOM     14  C   UNL     1       6.700  54.471  17.766  1.00  0.00     0.041 C 
ATOM     15  O   UNL     1       6.148  54.461  16.634  1.00  0.00    -0.550 OA
ATOM     16  O   UNL     1       6.783  53.298  18.502  1.00  0.00    -0.550 OA
ENDBRANCH  13  14
ENDBRANCH  12  13
ENDBRANCH  11  12
ENDBRANCH  10  11
ENDBRANCH   9  10
ENDBRANCH   8   9
ENDBRANCH   7   8
ENDBRANCH   6   7
ENDBRANCH   5   6
ENDBRANCH   4   5
ENDBRANCH   3   4
ENDBRANCH   2   3
ENDBRANCH   1   2
BRANCH   1  17
ATOM     17  C   UNL     1      11.303  48.925  22.983  1.00  0.00     0.000 C 
BRANCH  17  18
ATOM     18  C   UNL     1      10.740  47.886  23.976  1.00  0.00     0.000 C 
BRANCH  18  19
ATOM     19  C   UNL     1       9.817  46.844  23.324  1.00  0.00     0.000 C 
BRANCH  19  20
ATOM     20  C   UNL     1      10.436  45.436  23.281  1.00  0.00     0.000 C 
BRANCH  20  21
ATOM     21  C   UNL     1      10.350  44.718  24.643  1.00  0.00     0.000 C 
BRANCH  21  22
ATOM     22  C   UNL     1      11.551  44.982  25.573  1.00  0.00    -0.000 C 
BRANCH  22  23
ATOM     23  C   UNL     1      12.630  43.883  25.543  1.00  0.00    -0.000 C 
BRANCH  23  24
ATOM     24  C   UNL     1      13.776  44.158  26.529  1.00  0.00    -0.000 C 
BRANCH  24  25
ATOM     25  C   UNL     1      13.270  44.146  27.979  1.00  0.00    -0.000 C 
BRANCH  25  26
ATOM     26  C   UNL     1      13.442  45.505  28.682  1.00  0.00    -0.000 C 
BRANCH  26  27
ATOM     27  C   UNL     1      12.193  46.405  28.667  1.00  0.00    -0.000 C 
BRANCH  27  28
ATOM     28  C   UNL     1      12.456  47.889  28.343  1.00  0.00    -0.000 C 
BRANCH  28  29
ATOM     29  C   UNL     1      13.752  48.134  27.544  1.00  0.00    -0.003 C 
ATOM     30  C   UNL     1      13.541  48.053  26.032  1.00  0.00     0.004 C 
ENDBRANCH  28  29
ENDBRANCH  27  28
ENDBRANCH  26  27
ENDBRANCH  25  26
ENDBRANCH  24  25
ENDBRANCH  23  24
ENDBRANCH  22  23
ENDBRANCH  21  22
ENDBRANCH  20  21
ENDBRANCH  19  20
ENDBRANCH  18  19
ENDBRANCH  17  18
ENDBRANCH   1  17
TORSDOF 26
ENDMDL
MODEL 2
REMARK VINA RESULT:    -5.167      4.573      7.528
REMARK INTER + INTRA:         -15.796
REMARK INTER:                 -13.558
REMARK INTRA:                  -2.239
REMARK UNBOUND:                -2.775
REMARK SMILES CCCCCCCCCCCCCCCCCCCCCCCCCCCC(=O)[O-]
REMARK SMILES IDX 15 1 16 2 17 3 18 4 19 5 20 6 21 7 22 8 23 9 24 10 25 11
REMARK SMILES IDX 26 12 27 13 28 14 29 15 30 16 14 17 13 18 12 19 11 20 10 21
REMARK SMILES IDX 9 22 8 23 7 24 6 25 5 26 4 27 3 28 2 29 1 30
REMARK H PARENT
REMARK Flexibility Score: inf
ROOT
ATOM      1  C   UNL     1       9.440  46.451  23.852  1.00  0.00     0.000 C 
ENDROOT
BRANCH   1   2
ATOM      2  C   UNL     1      10.823  46.340  23.190  1.00  0.00     0.000 C 
BRANCH   2   3
ATOM      3  C   UNL     1      11.372  47.708  22.754  1.00  0.00     0.000 C 
BRANCH   3   4
ATOM      4  C   UNL     1      10.299  48.812  22.747  1.00  0.00     0.000 C 
BRANCH   4   5
ATOM      5  C   UNL     1      10.816  50.222  22.400  1.00  0.00     0.000 C 
BRANCH   5   6
ATOM      6  C   UNL     1       9.745  51.332  22.374  1.00  0.00     0.000 C 
BRANCH   6   7
ATOM      7  C   UNL     1      10.258  52.721  21.952  1.00  0.00     0.000 C 
BRANCH   7   8
ATOM      8  C   UNL     1      10.256  53.737  23.101  1.00  0.00     0.000 C 
BRANCH   8   9
ATOM      9  C   UNL     1       9.083  54.718  22.954  1.00  0.00     0.000 C 
BRANCH   9  10
ATOM     10  C   UNL     1       7.714  54.015  22.898  1.00  0.00     0.000 C 
BRANCH  10  11
ATOM     11  C   UNL     1       6.768  54.526  21.798  1.00  0.00     0.000 C 
BRANCH  11  12
ATOM     12  C   UNL     1       6.912  53.748  20.479  1.00  0.00     0.006 C 
BRANCH  12  13
ATOM     13  C   UNL     1       6.078  54.365  19.348  1.00  0.00     0.053 C 
BRANCH  13  14
ATOM     14  C   UNL     1       6.705  54.138  18.005  1.00  0.00     0.041 C 
ATOM     15  O   UNL     1       7.956  54.055  17.897  1.00  0.00    -0.550 OA
ATOM     16  O   UNL     1       5.908  54.041  16.873  1.00  0.00    -0.550 OA
ENDBRANCH  13  14
ENDBRANCH  12  13
ENDBRANCH  11  12
ENDBRANCH  10  11
ENDBRANCH   9  10
ENDBRANCH   8   9
ENDBRANCH   7   8
ENDBRANCH   6   7
ENDBRANCH   5   6
ENDBRANCH   4   5
ENDBRANCH   3   4
ENDBRANCH   2   3
ENDBRANCH   1   2
BRANCH   1  17
ATOM     17  C   UNL     1       8.520  45.271  23.494  1.00  0.00     0.000 C 
BRANCH  17  18
ATOM     18  C   UNL     1       7.026  45.656  23.547  1.00  0.00     0.000 C 
BRANCH  18  19
ATOM     19  C   UNL     1       6.216  44.850  24.577  1.00  0.00     0.000 C 
BRANCH  19  20
ATOM     20  C   UNL     1       4.705  45.128  24.501  1.00  0.00     0.000 C 
BRANCH  20  21
ATOM     21  C   UNL     1       4.395  46.534  23.950  1.00  0.00     0.000 C 
BRANCH  21  22
ATOM     22  C   UNL     1       3.368  46.550  22.800  1.00  0.00    -0.000 C 
BRANCH  22  23
ATOM     23  C   UNL     1       2.007  45.920  23.157  1.00  0.00    -0.000 C 
BRANCH  23  24
ATOM     24  C   UNL     1       0.836  46.606  22.440  1.00  0.00    -0.000 C 
BRANCH  24  25
ATOM     25  C   UNL     1       1.176  48.064  22.099  1.00  0.00    -0.000 C 
BRANCH  25  26
ATOM     26  C   UNL     1       0.254  49.073  22.807  1.00  0.00    -0.000 C 
BRANCH  26  27
ATOM     27  C   UNL     1       0.982  50.228  23.520  1.00  0.00    -0.000 C 
BRANCH  27  28
ATOM     28  C   UNL     1       1.899  49.807  24.685  1.00  0.00    -0.000 C 
BRANCH  28  29
ATOM     29  C   UNL     1       1.177  49.016  25.795  1.00  0.00    -0.003 C 
ATOM     30  C   UNL     1       2.000  47.838  26.317  1.00  0.00     0.004 C 
ENDBRANCH  28  29
ENDBRANCH  27  28
ENDBRANCH  26  27
ENDBRANCH  25  26
ENDBRANCH  24  25
ENDBRANCH  23  24
ENDBRANCH  22  23
ENDBRANCH  21  22
ENDBRANCH  20  21
ENDBRANCH  19  20
ENDBRANCH  18  19
ENDBRANCH  17  18
ENDBRANCH   1  17
TORSDOF 26
ENDMDL
MODEL 3
REMARK VINA RESULT:    -5.075      3.803      6.014
REMARK INTER + INTRA:         -15.565
REMARK INTER:                 -13.751
REMARK INTRA:                  -1.814
REMARK UNBOUND:                -2.775
REMARK SMILES CCCCCCCCCCCCCCCCCCCCCCCCCCCC(=O)[O-]
REMARK SMILES IDX 15 1 16 2 17 3 18 4 19 5 20 6 21 7 22 8 23 9 24 10 25 11
REMARK SMILES IDX 26 12 27 13 28 14 29 15 30 16 14 17 13 18 12 19 11 20 10 21
REMARK SMILES IDX 9 22 8 23 7 24 6 25 5 26 4 27 3 28 2 29 1 30
REMARK H PARENT
REMARK Flexibility Score: inf
ROOT
ATOM      1  C   UNL     1      10.754  50.383  22.742  1.00  0.00     0.000 C 
ENDROOT
BRANCH   1   2
ATOM      2  C   UNL     1       9.851  51.413  22.042  1.00  0.00     0.000 C 
BRANCH   2   3
ATOM      3  C   UNL     1      10.634  52.653  21.578  1.00  0.00     0.000 C 
BRANCH   3   4
ATOM      4  C   UNL     1      10.151  53.953  22.248  1.00  0.00     0.000 C 
BRANCH   4   5
ATOM      5  C   UNL     1      10.329  54.001  23.779  1.00  0.00     0.000 C 
BRANCH   5   6
ATOM      6  C   UNL     1       9.043  54.282  24.585  1.00  0.00     0.000 C 
BRANCH   6   7
ATOM      7  C   UNL     1       7.997  53.153  24.553  1.00  0.00     0.000 C 
BRANCH   7   8
ATOM      8  C   UNL     1       7.149  53.156  23.274  1.00  0.00     0.000 C 
BRANCH   8   9
ATOM      9  C   UNL     1       6.575  54.555  23.009  1.00  0.00     0.000 C 
BRANCH   9  10
ATOM     10  C   UNL     1       6.047  54.727  21.573  1.00  0.00     0.000 C 
BRANCH  10  11
ATOM     11  C   UNL     1       6.601  55.950  20.821  1.00  0.00     0.000 C 
BRANCH  11  12
ATOM     12  C   UNL     1       7.721  55.585  19.832  1.00  0.00     0.006 C 
BRANCH  12  13
ATOM     13  C   UNL     1       7.369  55.969  18.389  1.00  0.00     0.053 C 
BRANCH  13  14
ATOM     14  C   UNL     1       6.845  54.799  17.612  1.00  0.00     0.041 C 
ATOM     15  O   UNL     1       6.612  54.911  16.379  1.00  0.00    -0.550 OA
ATOM     16  O   UNL     1       6.595  53.594  18.252  1.00  0.00    -0.550 OA
ENDBRANCH  13  14
ENDBRANCH  12  13
ENDBRANCH  11  12
ENDBRANCH  10  11
ENDBRANCH   9  10
ENDBRANCH   8   9
ENDBRANCH   7   8
ENDBRANCH   6   7
ENDBRANCH   5   6
ENDBRANCH   4   5
ENDBRANCH   3   4
ENDBRANCH   2   3
ENDBRANCH   1   2
BRANCH   1  17
ATOM     17  C   UNL     1      10.389  48.935  22.373  1.00  0.00     0.000 C 
BRANCH  17  18
ATOM     18  C   UNL     1      11.503  47.936  22.750  1.00  0.00     0.000 C 
BRANCH  18  19
ATOM     19  C   UNL     1      11.017  46.768  23.625  1.00  0.00     0.000 C 
BRANCH  19  20
ATOM     20  C   UNL     1       9.517  46.473  23.454  1.00  0.00     0.000 C 
BRANCH  20  21
ATOM     21  C   UNL     1       9.212  44.962  23.476  1.00  0.00     0.000 C 
BRANCH  21  22
ATOM     22  C   UNL     1       7.930  44.587  24.246  1.00  0.00    -0.000 C 
BRANCH  22  23
ATOM     23  C   UNL     1       6.973  45.769  24.496  1.00  0.00    -0.000 C 
BRANCH  23  24
ATOM     24  C   UNL     1       5.496  45.349  24.450  1.00  0.00    -0.000 C 
BRANCH  24  25
ATOM     25  C   UNL     1       4.735  46.126  23.367  1.00  0.00    -0.000 C 
BRANCH  25  26
ATOM     26  C   UNL     1       3.215  46.155  23.609  1.00  0.00    -0.000 C 
BRANCH  26  27
ATOM     27  C   UNL     1       2.444  47.186  22.765  1.00  0.00    -0.000 C 
BRANCH  27  28
ATOM     28  C   UNL     1       1.648  46.604  21.581  1.00  0.00    -0.000 C 
BRANCH  28  29
ATOM     29  C   UNL     1       0.460  45.715  22.003  1.00  0.00    -0.003 C 
ATOM     30  C   UNL     1       0.518  44.316  21.390  1.00  0.00     0.004 C 
ENDBRANCH  28  29
ENDBRANCH  27  28
ENDBRANCH  26  27
ENDBRANCH  25  26
ENDBRANCH  24  25
ENDBRANCH  23  24
ENDBRANCH  22  23
ENDBRANCH  21  22
ENDBRANCH  20  21
ENDBRANCH  19  20
ENDBRANCH  18  19
ENDBRANCH  17  18
ENDBRANCH   1  17
TORSDOF 26
ENDMDL
MODEL 4
REMARK VINA RESULT:    -5.058      4.444      6.981
REMARK INTER + INTRA:         -15.522
REMARK INTER:                 -13.826
REMARK INTRA:                  -1.696
REMARK UNBOUND:                -2.775
REMARK SMILES CCCCCCCCCCCCCCCCCCCCCCCCCCCC(=O)[O-]
REMARK SMILES IDX 15 1 16 2 17 3 18 4 19 5 20 6 21 7 22 8 23 9 24 10 25 11
REMARK SMILES IDX 26 12 27 13 28 14 29 15 30 16 14 17 13 18 12 19 11 20 10 21
REMARK SMILES IDX 9 22 8 23 7 24 6 25 5 26 4 27 3 28 2 29 1 30
REMARK H PARENT
REMARK Flexibility Score: inf
ROOT
ATOM      1  C   UNL     1      11.484  46.930  24.192  1.00  0.00     0.000 C 
ENDROOT
BRANCH   1   2
ATOM      2  C   UNL     1      10.184  47.668  23.834  1.00  0.00     0.000 C 
BRANCH   2   3
ATOM      3  C   UNL     1      10.300  48.444  22.511  1.00  0.00     0.000 C 
BRANCH   3   4
ATOM      4  C   UNL     1      10.860  49.866  22.696  1.00  0.00     0.000 C 
BRANCH   4   5
ATOM      5  C   UNL     1       9.903  51.002  22.284  1.00  0.00     0.000 C 
BRANCH   5   6
ATOM      6  C   UNL     1      10.562  52.383  22.085  1.00  0.00     0.000 C 
BRANCH   6   7
ATOM      7  C   UNL     1       9.623  53.480  21.551  1.00  0.00     0.000 C 
BRANCH   7   8
ATOM      8  C   UNL     1       8.976  54.312  22.666  1.00  0.00     0.000 C 
BRANCH   8   9
ATOM      9  C   UNL     1       7.470  54.023  22.752  1.00  0.00     0.000 C 
BRANCH   9  10
ATOM     10  C   UNL     1       6.747  54.183  21.402  1.00  0.00     0.000 C 
BRANCH  10  11
ATOM     11  C   UNL     1       6.301  55.618  21.072  1.00  0.00     0.000 C 
BRANCH  11  12
ATOM     12  C   UNL     1       7.017  56.197  19.841  1.00  0.00     0.006 C 
BRANCH  12  13
ATOM     13  C   UNL     1       7.794  55.125  19.064  1.00  0.00     0.053 C 
BRANCH  13  14
ATOM     14  C   UNL     1       7.041  54.658  17.854  1.00  0.00     0.041 C 
ATOM     15  O   UNL     1       6.797  55.458  16.912  1.00  0.00    -0.550 OA
ATOM     16  O   UNL     1       6.590  53.348  17.778  1.00  0.00    -0.550 OA
ENDBRANCH  13  14
ENDBRANCH  12  13
ENDBRANCH  11  12
ENDBRANCH  10  11
ENDBRANCH   9  10
ENDBRANCH   8   9
ENDBRANCH   7   8
ENDBRANCH   6   7
ENDBRANCH   5   6
ENDBRANCH   4   5
ENDBRANCH   3   4
ENDBRANCH   2   3
ENDBRANCH   1   2
BRANCH   1  17
ATOM     17  C   UNL     1      11.225  45.617  24.951  1.00  0.00     0.000 C 
BRANCH  17  18
ATOM     18  C   UNL     1       9.739  45.203  24.915  1.00  0.00     0.000 C 
BRANCH  18  19
ATOM     19  C   UNL     1       9.370  44.328  23.705  1.00  0.00     0.000 C 
BRANCH  19  20
ATOM     20  C   UNL     1       7.851  44.212  23.489  1.00  0.00     0.000 C 
BRANCH  20  21
ATOM     21  C   UNL     1       7.083  44.040  24.816  1.00  0.00     0.000 C 
BRANCH  21  22
ATOM     22  C   UNL     1       5.692  44.704  24.831  1.00  0.00    -0.000 C 
BRANCH  22  23
ATOM     23  C   UNL     1       5.581  45.963  23.948  1.00  0.00    -0.000 C 
BRANCH  23  24
ATOM     24  C   UNL     1       4.181  46.593  23.999  1.00  0.00    -0.000 C 
BRANCH  24  25
ATOM     25  C   UNL     1       3.512  46.562  22.617  1.00  0.00    -0.000 C 
BRANCH  25  26
ATOM     26  C   UNL     1       2.379  47.594  22.480  1.00  0.00    -0.000 C 
BRANCH  26  27
ATOM     27  C   UNL     1       1.038  47.023  21.981  1.00  0.00    -0.000 C 
BRANCH  27  28
ATOM     28  C   UNL     1       0.682  45.622  22.516  1.00  0.00    -0.000 C 
BRANCH  28  29
ATOM     29  C   UNL     1       0.474  44.565  21.413  1.00  0.00    -0.003 C 
ATOM     30  C   UNL     1      -0.889  43.878  21.497  1.00  0.00     0.004 C 
ENDBRANCH  28  29
ENDBRANCH  27  28
ENDBRANCH  26  27
ENDBRANCH  25  26
ENDBRANCH  24  25
ENDBRANCH  23  24
ENDBRANCH  22  23
ENDBRANCH  21  22
ENDBRANCH  20  21
ENDBRANCH  19  20
ENDBRANCH  18  19
ENDBRANCH  17  18
ENDBRANCH   1  17
TORSDOF 26
ENDMDL
MODEL 5
REMARK VINA RESULT:    -5.053      4.346      9.989
REMARK INTER + INTRA:         -15.509
REMARK INTER:                 -13.933
REMARK INTRA:                  -1.575
REMARK UNBOUND:                -2.775
REMARK SMILES CCCCCCCCCCCCCCCCCCCCCCCCCCCC(=O)[O-]
REMARK SMILES IDX 15 1 16 2 17 3 18 4 19 5 20 6 21 7 22 8 23 9 24 10 25 11
REMARK SMILES IDX 26 12 27 13 28 14 29 15 30 16 14 17 13 18 12 19 11 20 10 21
REMARK SMILES IDX 9 22 8 23 7 24 6 25 5 26 4 27 3 28 2 29 1 30
REMARK H PARENT
REMARK Flexibility Score: inf
ROOT
ATOM      1  C   UNL     1      11.625  47.601  22.705  1.00  0.00     0.000 C 
ENDROOT
BRANCH   1   2
ATOM      2  C   UNL     1      11.166  46.357  23.483  1.00  0.00     0.000 C 
BRANCH   2   3
ATOM      3  C   UNL     1       9.634  46.224  23.518  1.00  0.00     0.000 C 
BRANCH   3   4
ATOM      4  C   UNL     1       9.161  44.760  23.572  1.00  0.00     0.000 C 
BRANCH   4   5
ATOM      5  C   UNL     1       7.630  44.570  23.579  1.00  0.00     0.000 C 
BRANCH   5   6
ATOM      6  C   UNL     1       6.822  45.737  24.185  1.00  0.00     0.000 C 
BRANCH   6   7
ATOM      7  C   UNL     1       5.501  46.056  23.462  1.00  0.00     0.000 C 
BRANCH   7   8
ATOM      8  C   UNL     1       4.305  46.164  24.416  1.00  0.00     0.000 C 
BRANCH   8   9
ATOM      9  C   UNL     1       3.244  47.120  23.850  1.00  0.00     0.000 C 
BRANCH   9  10
ATOM     10  C   UNL     1       2.776  46.732  22.436  1.00  0.00     0.000 C 
BRANCH  10  11
ATOM     11  C   UNL     1       1.458  47.386  21.987  1.00  0.00     0.000 C 
BRANCH  11  12
ATOM     12  C   UNL     1       0.723  48.098  23.135  1.00  0.00     0.006 C 
BRANCH  12  13
ATOM     13  C   UNL     1       0.448  49.574  22.820  1.00  0.00     0.053 C 
BRANCH  13  14
ATOM     14  C   UNL     1       0.954  50.479  23.903  1.00  0.00     0.041 C 
ATOM     15  O   UNL     1       0.722  51.716  23.854  1.00  0.00    -0.550 OA
ATOM     16  O   UNL     1       1.699  49.960  24.952  1.00  0.00    -0.550 OA
ENDBRANCH  13  14
ENDBRANCH  12  13
ENDBRANCH  11  12
ENDBRANCH  10  11
ENDBRANCH   9  10
ENDBRANCH   8   9
ENDBRANCH   7   8
ENDBRANCH   6   7
ENDBRANCH   5   6
ENDBRANCH   4   5
ENDBRANCH   3   4
ENDBRANCH   2   3
ENDBRANCH   1   2
BRANCH   1  17
ATOM     17  C   UNL     1      10.475  48.591  22.447  1.00  0.00     0.000 C 
BRANCH  17  18
ATOM     18  C   UNL     1      10.963  50.053  22.386  1.00  0.00     0.000 C 
BRANCH  18  19
ATOM     19  C   UNL     1       9.838  51.089  22.549  1.00  0.00     0.000 C 
BRANCH  19  20
ATOM     20  C   UNL     1      10.258  52.505  22.122  1.00  0.00     0.000 C 
BRANCH  20  21
ATOM     21  C   UNL     1       9.663  53.594  23.037  1.00  0.00     0.000 C 
BRANCH  21  22
ATOM     22  C   UNL     1       8.184  53.366  23.411  1.00  0.00    -0.000 C 
BRANCH  22  23
ATOM     23  C   UNL     1       7.197  53.575  22.246  1.00  0.00    -0.000 C 
BRANCH  23  24
ATOM     24  C   UNL     1       6.388  54.873  22.387  1.00  0.00    -0.000 C 
BRANCH  24  25
ATOM     25  C   UNL     1       5.731  55.261  21.055  1.00  0.00    -0.000 C 
BRANCH  25  26
ATOM     26  C   UNL     1       6.342  56.532  20.436  1.00  0.00    -0.000 C 
BRANCH  26  27
ATOM     27  C   UNL     1       7.191  56.294  19.174  1.00  0.00    -0.000 C 
BRANCH  27  28
ATOM     28  C   UNL     1       7.470  54.817  18.838  1.00  0.00    -0.000 C 
BRANCH  28  29
ATOM     29  C   UNL     1       6.551  54.241  17.742  1.00  0.00    -0.003 C 
ATOM     30  C   UNL     1       6.702  54.960  16.401  1.00  0.00     0.004 C 
ENDBRANCH  28  29
ENDBRANCH  27  28
ENDBRANCH  26  27
ENDBRANCH  25  26
ENDBRANCH  24  25
ENDBRANCH  23  24
ENDBRANCH  22  23
ENDBRANCH  21  22
ENDBRANCH  20  21
ENDBRANCH  19  20
ENDBRANCH  18  19
ENDBRANCH  17  18
ENDBRANCH   1  17
TORSDOF 26
ENDMDL
MODEL 6
REMARK VINA RESULT:    -4.984      4.332      9.979
REMARK INTER + INTRA:         -15.335
REMARK INTER:                 -13.329
REMARK INTRA:                  -2.006
REMARK UNBOUND:                -2.775
REMARK SMILES CCCCCCCCCCCCCCCCCCCCCCCCCCCC(=O)[O-]
REMARK SMILES IDX 15 1 16 2 17 3 18 4 19 5 20 6 21 7 22 8 23 9 24 10 25 11
REMARK SMILES IDX 26 12 27 13 28 14 29 15 30 16 14 17 13 18 12 19 11 20 10 21
REMARK SMILES IDX 9 22 8 23 7 24 6 25 5 26 4 27 3 28 2 29 1 30
REMARK H PARENT
REMARK Flexibility Score: inf
ROOT
ATOM      1  C   UNL     1      10.273  48.034  23.526  1.00  0.00     0.000 C 
ENDROOT
BRANCH   1   2
ATOM      2  C   UNL     1      11.499  47.139  23.774  1.00  0.00     0.000 C 
BRANCH   2   3
ATOM      3  C   UNL     1      11.128  45.825  24.482  1.00  0.00     0.000 C 
BRANCH   3   4
ATOM      4  C   UNL     1      10.311  44.872  23.590  1.00  0.00     0.000 C 
BRANCH   4   5
ATOM      5  C   UNL     1       9.132  44.171  24.295  1.00  0.00     0.000 C 
BRANCH   5   6
ATOM      6  C   UNL     1       7.861  43.993  23.438  1.00  0.00     0.000 C 
BRANCH   6   7
ATOM      7  C   UNL     1       7.155  45.304  23.045  1.00  0.00     0.000 C 
BRANCH   7   8
ATOM      8  C   UNL     1       6.594  46.069  24.251  1.00  0.00     0.000 C 
BRANCH   8   9
ATOM      9  C   UNL     1       5.470  45.268  24.925  1.00  0.00     0.000 C 
BRANCH   9  10
ATOM     10  C   UNL     1       4.065  45.705  24.476  1.00  0.00     0.000 C 
BRANCH  10  11
ATOM     11  C   UNL     1       3.979  46.227  23.031  1.00  0.00     0.000 C 
BRANCH  11  12
ATOM     12  C   UNL     1       2.878  47.284  22.843  1.00  0.00     0.006 C 
BRANCH  12  13
ATOM     13  C   UNL     1       1.816  46.842  21.828  1.00  0.00     0.053 C 
BRANCH  13  14
ATOM     14  C   UNL     1       0.471  46.671  22.467  1.00  0.00     0.041 C 
ATOM     15  O   UNL     1      -0.062  47.630  23.085  1.00  0.00    -0.550 OA
ATOM     16  O   UNL     1      -0.182  45.449  22.398  1.00  0.00    -0.550 OA
ENDBRANCH  13  14
ENDBRANCH  12  13
ENDBRANCH  11  12
ENDBRANCH  10  11
ENDBRANCH   9  10
ENDBRANCH   8   9
ENDBRANCH   7   8
ENDBRANCH   6   7
ENDBRANCH   5   6
ENDBRANCH   4   5
ENDBRANCH   3   4
ENDBRANCH   2   3
ENDBRANCH   1   2
BRANCH   1  17
ATOM     17  C   UNL     1      10.473  48.987  22.335  1.00  0.00     0.000 C 
BRANCH  17  18
ATOM     18  C   UNL     1      10.615  50.458  22.780  1.00  0.00     0.000 C 
BRANCH  18  19
ATOM     19  C   UNL     1       9.751  51.437  21.966  1.00  0.00     0.000 C 
BRANCH  19  20
ATOM     20  C   UNL     1      10.440  52.791  21.729  1.00  0.00     0.000 C 
BRANCH  20  21
ATOM     21  C   UNL     1      10.567  53.619  23.025  1.00  0.00     0.000 C 
BRANCH  21  22
ATOM     22  C   UNL     1       9.376  54.559  23.293  1.00  0.00    -0.000 C 
BRANCH  22  23
ATOM     23  C   UNL     1       8.289  53.961  24.208  1.00  0.00    -0.000 C 
BRANCH  23  24
ATOM     24  C   UNL     1       7.016  53.581  23.437  1.00  0.00    -0.000 C 
BRANCH  24  25
ATOM     25  C   UNL     1       7.104  54.031  21.972  1.00  0.00    -0.000 C 
BRANCH  25  26
ATOM     26  C   UNL     1       6.023  55.062  21.598  1.00  0.00    -0.000 C 
BRANCH  26  27
ATOM     27  C   UNL     1       6.498  56.191  20.665  1.00  0.00    -0.000 C 
BRANCH  27  28
ATOM     28  C   UNL     1       7.689  55.833  19.754  1.00  0.00    -0.000 C 
BRANCH  28  29
ATOM     29  C   UNL     1       7.280  55.411  18.328  1.00  0.00    -0.003 C 
ATOM     30  C   UNL     1       6.624  54.031  18.282  1.00  0.00     0.004 C 
ENDBRANCH  28  29
ENDBRANCH  27  28
ENDBRANCH  26  27
ENDBRANCH  25  26
ENDBRANCH  24  25
ENDBRANCH  23  24
ENDBRANCH  22  23
ENDBRANCH  21  22
ENDBRANCH  20  21
ENDBRANCH  19  20
ENDBRANCH  18  19
ENDBRANCH  17  18
ENDBRANCH   1  17
TORSDOF 26
ENDMDL
MODEL 7
REMARK VINA RESULT:    -4.963      5.401      7.587
REMARK INTER + INTRA:         -15.282
REMARK INTER:                 -11.305
REMARK INTRA:                  -3.976
REMARK UNBOUND:                -2.775
REMARK SMILES CCCCCCCCCCCCCCCCCCCCCCCCCCCC(=O)[O-]
REMARK SMILES IDX 15 1 16 2 17 3 18 4 19 5 20 6 21 7 22 8 23 9 24 10 25 11
REMARK SMILES IDX 26 12 27 13 28 14 29 15 30 16 14 17 13 18 12 19 11 20 10 21
REMARK SMILES IDX 9 22 8 23 7 24 6 25 5 26 4 27 3 28 2 29 1 30
REMARK H PARENT
REMARK Flexibility Score: inf
ROOT
ATOM      1  C   UNL     1       7.580  46.077  23.882  1.00  0.00     0.000 C 
ENDROOT
BRANCH   1   2
ATOM      2  C   UNL     1       6.859  44.719  23.848  1.00  0.00     0.000 C 
BRANCH   2   3
ATOM      3  C   UNL     1       6.052  44.455  25.130  1.00  0.00     0.000 C 
BRANCH   3   4
ATOM      4  C   UNL     1       6.058  45.651  26.100  1.00  0.00     0.000 C 
BRANCH   4   5
ATOM      5  C   UNL     1       4.856  45.715  27.064  1.00  0.00     0.000 C 
BRANCH   5   6
ATOM      6  C   UNL     1       3.859  46.863  26.803  1.00  0.00     0.000 C 
BRANCH   6   7
ATOM      7  C   UNL     1       2.966  46.678  25.562  1.00  0.00     0.000 C 
BRANCH   7   8
ATOM      8  C   UNL     1       3.478  47.441  24.334  1.00  0.00     0.000 C 
BRANCH   8   9
ATOM      9  C   UNL     1       3.378  46.568  23.073  1.00  0.00     0.000 C 
BRANCH   9  10
ATOM     10  C   UNL     1       2.207  45.571  23.123  1.00  0.00     0.000 C 
BRANCH  10  11
ATOM     11  C   UNL     1       1.242  45.643  21.927  1.00  0.00     0.000 C 
BRANCH  11  12
ATOM     12  C   UNL     1      -0.178  46.072  22.331  1.00  0.00     0.006 C 
BRANCH  12  13
ATOM     13  C   UNL     1      -0.170  47.153  23.420  1.00  0.00     0.053 C 
BRANCH  13  14
ATOM     14  C   UNL     1      -0.217  48.533  22.837  1.00  0.00     0.041 C 
ATOM     15  O   UNL     1       0.849  49.179  22.653  1.00  0.00    -0.550 OA
ATOM     16  O   UNL     1      -1.436  49.113  22.518  1.00  0.00    -0.550 OA
ENDBRANCH  13  14
ENDBRANCH  12  13
ENDBRANCH  11  12
ENDBRANCH  10  11
ENDBRANCH   9  10
ENDBRANCH   8   9
ENDBRANCH   7   8
ENDBRANCH   6   7
ENDBRANCH   5   6
ENDBRANCH   4   5
ENDBRANCH   3   4
ENDBRANCH   2   3
ENDBRANCH   1   2
BRANCH   1  17
ATOM     17  C   UNL     1       9.090  45.947  23.617  1.00  0.00     0.000 C 
BRANCH  17  18
ATOM     18  C   UNL     1       9.594  44.499  23.796  1.00  0.00     0.000 C 
BRANCH  18  19
ATOM     19  C   UNL     1      10.590  44.330  24.956  1.00  0.00     0.000 C 
BRANCH  19  20
ATOM     20  C   UNL     1       9.904  44.257  26.330  1.00  0.00     0.000 C 
BRANCH  20  21
ATOM     21  C   UNL     1      10.920  44.197  27.489  1.00  0.00     0.000 C 
BRANCH  21  22
ATOM     22  C   UNL     1      12.388  44.366  27.052  1.00  0.00    -0.000 C 
BRANCH  22  23
ATOM     23  C   UNL     1      13.195  45.361  27.910  1.00  0.00    -0.000 C 
BRANCH  23  24
ATOM     24  C   UNL     1      12.293  46.262  28.768  1.00  0.00    -0.000 C 
BRANCH  24  25
ATOM     25  C   UNL     1      12.281  47.700  28.232  1.00  0.00    -0.000 C 
BRANCH  25  26
ATOM     26  C   UNL     1      13.174  47.882  26.991  1.00  0.00    -0.000 C 
BRANCH  26  27
ATOM     27  C   UNL     1      12.411  48.068  25.666  1.00  0.00    -0.000 C 
BRANCH  27  28
ATOM     28  C   UNL     1      12.823  47.111  24.531  1.00  0.00    -0.000 C 
BRANCH  28  29
ATOM     29  C   UNL     1      12.372  47.571  23.130  1.00  0.00    -0.003 C 
ATOM     30  C   UNL     1      11.438  48.780  23.174  1.00  0.00     0.004 C 
ENDBRANCH  28  29
ENDBRANCH  27  28
ENDBRANCH  26  27
ENDBRANCH  25  26
ENDBRANCH  24  25
ENDBRANCH  23  24
ENDBRANCH  22  23
ENDBRANCH  21  22
ENDBRANCH  20  21
ENDBRANCH  19  20
ENDBRANCH  18  19
ENDBRANCH  17  18
ENDBRANCH   1  17
TORSDOF 26
ENDMDL
MODEL 8
REMARK VINA RESULT:    -4.941      3.497      5.817
REMARK INTER + INTRA:         -15.227
REMARK INTER:                 -13.521
REMARK INTRA:                  -1.706
REMARK UNBOUND:                -2.775
REMARK SMILES CCCCCCCCCCCCCCCCCCCCCCCCCCCC(=O)[O-]
REMARK SMILES IDX 15 1 16 2 17 3 18 4 19 5 20 6 21 7 22 8 23 9 24 10 25 11
REMARK SMILES IDX 26 12 27 13 28 14 29 15 30 16 14 17 13 18 12 19 11 20 10 21
REMARK SMILES IDX 9 22 8 23 7 24 6 25 5 26 4 27 3 28 2 29 1 30
REMARK H PARENT
REMARK Flexibility Score: inf
ROOT
ATOM      1  C   UNL     1      10.228  49.436  22.336  1.00  0.00     0.000 C 
ENDROOT
BRANCH   1   2
ATOM      2  C   UNL     1      10.283  50.915  22.753  1.00  0.00     0.000 C 
BRANCH   2   3
ATOM      3  C   UNL     1       9.977  51.863  21.582  1.00  0.00     0.000 C 
BRANCH   3   4
ATOM      4  C   UNL     1      10.610  53.256  21.756  1.00  0.00     0.000 C 
BRANCH   4   5
ATOM      5  C   UNL     1      10.554  53.822  23.189  1.00  0.00     0.000 C 
BRANCH   5   6
ATOM      6  C   UNL     1       9.306  54.669  23.517  1.00  0.00     0.000 C 
BRANCH   6   7
ATOM      7  C   UNL     1       8.209  53.929  24.305  1.00  0.00     0.000 C 
BRANCH   7   8
ATOM      8  C   UNL     1       7.027  53.496  23.429  1.00  0.00     0.000 C 
BRANCH   8   9
ATOM      9  C   UNL     1       7.199  54.015  21.993  1.00  0.00     0.000 C 
BRANCH   9  10
ATOM     10  C   UNL     1       6.093  54.998  21.572  1.00  0.00     0.000 C 
BRANCH  10  11
ATOM     11  C   UNL     1       6.585  56.406  21.194  1.00  0.00     0.000 C 
BRANCH  11  12
ATOM     12  C   UNL     1       6.738  56.597  19.676  1.00  0.00     0.006 C 
BRANCH  12  13
ATOM     13  C   UNL     1       7.652  55.537  19.046  1.00  0.00     0.053 C 
BRANCH  13  14
ATOM     14  C   UNL     1       6.952  54.768  17.966  1.00  0.00     0.041 C 
ATOM     15  O   UNL     1       6.476  53.627  18.209  1.00  0.00    -0.550 OA
ATOM     16  O   UNL     1       6.847  55.300  16.689  1.00  0.00    -0.550 OA
ENDBRANCH  13  14
ENDBRANCH  12  13
ENDBRANCH  11  12
ENDBRANCH  10  11
ENDBRANCH   9  10
ENDBRANCH   8   9
ENDBRANCH   7   8
ENDBRANCH   6   7
ENDBRANCH   5   6
ENDBRANCH   4   5
ENDBRANCH   3   4
ENDBRANCH   2   3
ENDBRANCH   1   2
BRANCH   1  17
ATOM     17  C   UNL     1      11.277  48.580  23.066  1.00  0.00     0.000 C 
BRANCH  17  18
ATOM     18  C   UNL     1      10.639  47.631  24.102  1.00  0.00     0.000 C 
BRANCH  18  19
ATOM     19  C   UNL     1      10.118  46.316  23.498  1.00  0.00     0.000 C 
BRANCH  19  20
ATOM     20  C   UNL     1       9.525  45.365  24.552  1.00  0.00     0.000 C 
BRANCH  20  21
ATOM     21  C   UNL     1       8.114  44.872  24.168  1.00  0.00     0.000 C 
BRANCH  21  22
ATOM     22  C   UNL     1       6.982  45.854  24.530  1.00  0.00    -0.000 C 
BRANCH  22  23
ATOM     23  C   UNL     1       5.582  45.211  24.591  1.00  0.00    -0.000 C 
BRANCH  23  24
ATOM     24  C   UNL     1       4.459  46.256  24.670  1.00  0.00    -0.000 C 
BRANCH  24  25
ATOM     25  C   UNL     1       3.920  46.593  23.273  1.00  0.00    -0.000 C 
BRANCH  25  26
ATOM     26  C   UNL     1       2.683  47.509  23.316  1.00  0.00    -0.000 C 
BRANCH  26  27
ATOM     27  C   UNL     1       2.756  48.650  24.347  1.00  0.00    -0.000 C 
BRANCH  27  28
ATOM     28  C   UNL     1       1.744  48.555  25.505  1.00  0.00    -0.000 C 
BRANCH  28  29
ATOM     29  C   UNL     1       1.131  49.911  25.912  1.00  0.00    -0.003 C 
ATOM     30  C   UNL     1       1.325  50.229  27.395  1.00  0.00     0.004 C 
ENDBRANCH  28  29
ENDBRANCH  27  28
ENDBRANCH  26  27
ENDBRANCH  25  26
ENDBRANCH  24  25
ENDBRANCH  23  24
ENDBRANCH  22  23
ENDBRANCH  21  22
ENDBRANCH  20  21
ENDBRANCH  19  20
ENDBRANCH  18  19
ENDBRANCH  17  18
ENDBRANCH   1  17
TORSDOF 26
ENDMDL
MODEL 9
REMARK VINA RESULT:    -4.937      8.743     10.784
REMARK INTER + INTRA:         -15.216
REMARK INTER:                  -9.816
REMARK INTRA:                  -5.399
REMARK UNBOUND:                -2.775
REMARK SMILES CCCCCCCCCCCCCCCCCCCCCCCCCCCC(=O)[O-]
REMARK SMILES IDX 15 1 16 2 17 3 18 4 19 5 20 6 21 7 22 8 23 9 24 10 25 11
REMARK SMILES IDX 26 12 27 13 28 14 29 15 30 16 14 17 13 18 12 19 11 20 10 21
REMARK SMILES IDX 9 22 8 23 7 24 6 25 5 26 4 27 3 28 2 29 1 30
REMARK H PARENT
REMARK Flexibility Score: inf
ROOT
ATOM      1  C   UNL     1       3.112  46.463  24.888  1.00  0.00     0.000 C 
ENDROOT
BRANCH   1   2
ATOM      2  C   UNL     1       3.709  46.146  23.507  1.00  0.00     0.000 C 
BRANCH   2   3
ATOM      3  C   UNL     1       3.022  46.935  22.380  1.00  0.00     0.000 C 
BRANCH   3   4
ATOM      4  C   UNL     1       1.615  46.407  22.049  1.00  0.00     0.000 C 
BRANCH   4   5
ATOM      5  C   UNL     1       0.459  47.361  22.411  1.00  0.00     0.000 C 
BRANCH   5   6
ATOM      6  C   UNL     1       0.809  48.864  22.383  1.00  0.00     0.000 C 
BRANCH   6   7
ATOM      7  C   UNL     1       0.182  49.697  23.516  1.00  0.00     0.000 C 
BRANCH   7   8
ATOM      8  C   UNL     1       1.038  50.906  23.917  1.00  0.00     0.000 C 
BRANCH   8   9
ATOM      9  C   UNL     1       0.148  52.069  24.382  1.00  0.00     0.000 C 
BRANCH   9  10
ATOM     10  C   UNL     1      -1.031  51.612  25.260  1.00  0.00     0.000 C 
BRANCH  10  11
ATOM     11  C   UNL     1      -0.946  52.042  26.735  1.00  0.00     0.000 C 
BRANCH  11  12
ATOM     12  C   UNL     1       0.501  52.160  27.240  1.00  0.00     0.006 C 
BRANCH  12  13
ATOM     13  C   UNL     1       0.605  53.021  28.506  1.00  0.00     0.053 C 
BRANCH  13  14
ATOM     14  C   UNL     1       0.008  54.382  28.305  1.00  0.00     0.041 C 
ATOM     15  O   UNL     1       0.442  55.136  27.395  1.00  0.00    -0.550 OA
ATOM     16  O   UNL     1      -1.010  54.825  29.137  1.00  0.00    -0.550 OA
ENDBRANCH  13  14
ENDBRANCH  12  13
ENDBRANCH  11  12
ENDBRANCH  10  11
ENDBRANCH   9  10
ENDBRANCH   8   9
ENDBRANCH   7   8
ENDBRANCH   6   7
ENDBRANCH   5   6
ENDBRANCH   4   5
ENDBRANCH   3   4
ENDBRANCH   2   3
ENDBRANCH   1   2
BRANCH   1  17
ATOM     17  C   UNL     1       3.080  47.973  25.182  1.00  0.00     0.000 C 
BRANCH  17  18
ATOM     18  C   UNL     1       2.217  48.311  26.415  1.00  0.00     0.000 C 
BRANCH  18  19
ATOM     19  C   UNL     1       0.881  47.550  26.463  1.00  0.00     0.000 C 
BRANCH  19  20
ATOM     20  C   UNL     1      -0.267  48.388  27.050  1.00  0.00     0.000 C 
BRANCH  20  21
ATOM     21  C   UNL     1      -1.027  47.640  28.164  1.00  0.00     0.000 C 
BRANCH  21  22
ATOM     22  C   UNL     1      -0.940  48.310  29.550  1.00  0.00    -0.000 C 
BRANCH  22  23
ATOM     23  C   UNL     1       0.074  49.469  29.630  1.00  0.00    -0.000 C 
BRANCH  23  24
ATOM     24  C   UNL     1       1.269  49.141  30.537  1.00  0.00    -0.000 C 
BRANCH  24  25
ATOM     25  C   UNL     1       1.253  47.665  30.959  1.00  0.00    -0.000 C 
BRANCH  25  26
ATOM     26  C   UNL     1       2.485  46.888  30.460  1.00  0.00    -0.000 C 
BRANCH  26  27
ATOM     27  C   UNL     1       2.187  45.811  29.402  1.00  0.00    -0.000 C 
BRANCH  27  28
ATOM     28  C   UNL     1       3.402  45.351  28.572  1.00  0.00    -0.000 C 
BRANCH  28  29
ATOM     29  C   UNL     1       4.621  46.289  28.676  1.00  0.00    -0.003 C 
ATOM     30  C   UNL     1       5.587  46.141  27.500  1.00  0.00     0.004 C 
ENDBRANCH  28  29
ENDBRANCH  27  28
ENDBRANCH  26  27
ENDBRANCH  25  26
ENDBRANCH  24  25
ENDBRANCH  23  24
ENDBRANCH  22  23
ENDBRANCH  21  22
ENDBRANCH  20  21
ENDBRANCH  19  20
ENDBRANCH  18  19
ENDBRANCH  17  18
ENDBRANCH   1  17
TORSDOF 26
ENDMDL
