MODEL 1
REMARK VINA RESULT:     3.963      0.000      0.000
REMARK INTER + INTRA:           5.972
REMARK INTER:                   6.743
REMARK INTRA:                  -0.771
REMARK UNBOUND:                -0.771
REMARK SMILES CCCCCCCCCCCCCC(=O)[O-]
REMARK SMILES IDX 8 1 9 2 10 3 11 4 12 5 13 6 14 7 15 8 16 9 7 10 6 11 5 12
REMARK SMILES IDX 4 13 3 14 2 15 1 16
REMARK H PARENT
REMARK Flexibility Score: inf
ROOT
ATOM      1  C   UNL     1      12.088  -1.329 -16.509  1.00  0.00     0.000 C 
ENDROOT
BRANCH   1   2
ATOM      2  C   UNL     1      10.851  -2.231 -16.665  1.00  0.00     0.000 C 
BRANCH   2   3
ATOM      3  C   UNL     1      11.173  -3.716 -16.426  1.00  0.00     0.000 C 
BRANCH   3   4
ATOM      4  C   UNL     1      11.265  -4.518 -17.735  1.00  0.00     0.000 C 
BRANCH   4   5
ATOM      5  C   UNL     1      12.187  -5.742 -17.614  1.00  0.00     0.006 C 
BRANCH   5   6
ATOM      6  C   UNL     1      12.914  -6.069 -18.925  1.00  0.00     0.053 C 
BRANCH   6   7
ATOM      7  C   UNL     1      14.318  -6.503 -18.649  1.00  0.00     0.041 C 
ATOM      8  O   UNL     1      14.558  -7.319 -17.721  1.00  0.00    -0.550 OA
ATOM      9  O   UNL     1      15.357  -6.046 -19.450  1.00  0.00    -0.550 OA
ENDBRANCH   6   7
ENDBRANCH   5   6
ENDBRANCH   4   5
ENDBRANCH   3   4
ENDBRANCH   2   3
ENDBRANCH   1   2
BRANCH   1  10
ATOM     10  C   UNL     1      12.072  -0.133 -17.475  1.00  0.00     0.000 C 
BRANCH  10  11
ATOM     11  C   UNL     1      13.279   0.800 -17.286  1.00  0.00    -0.000 C 
BRANCH  11  12
ATOM     12  C   UNL     1      12.967   2.003 -16.378  1.00  0.00    -0.000 C 
BRANCH  12  13
ATOM     13  C   UNL     1      11.464   2.340 -16.296  1.00  0.00    -0.000 C 
BRANCH  13  14
ATOM     14  C   UNL     1      10.960   2.394 -14.842  1.00  0.00    -0.000 C 
BRANCH  14  15
ATOM     15  C   UNL     1      10.859   1.001 -14.202  1.00  0.00    -0.003 C 
ATOM     16  C   UNL     1       9.617   0.845 -13.323  1.00  0.00     0.004 C 
ENDBRANCH  14  15
ENDBRANCH  13  14
ENDBRANCH  12  13
ENDBRANCH  11  12
ENDBRANCH  10  11
ENDBRANCH   1  10
TORSDOF 12
ENDMDL
MODEL 2
REMARK VINA RESULT:     4.200      1.191      3.145
REMARK INTER + INTRA:           6.375
REMARK INTER:                   7.087
REMARK INTRA:                  -0.712
REMARK UNBOUND:                -0.771
REMARK SMILES CCCCCCCCCCCCCC(=O)[O-]
REMARK SMILES IDX 8 1 9 2 10 3 11 4 12 5 13 6 14 7 15 8 16 9 7 10 6 11 5 12
REMARK SMILES IDX 4 13 3 14 2 15 1 16
REMARK H PARENT
REMARK Flexibility Score: inf
ROOT
ATOM      1  C   UNL     1      11.850  -1.448 -16.835  1.00  0.00     0.000 C 
ENDROOT
BRANCH   1   2
ATOM      2  C   UNL     1      10.700  -2.363 -16.378  1.00  0.00     0.000 C 
BRANCH   2   3
ATOM      3  C   UNL     1      11.107  -3.845 -16.342  1.00  0.00     0.000 C 
BRANCH   3   4
ATOM      4  C   UNL     1      11.449  -4.398 -17.736  1.00  0.00     0.000 C 
BRANCH   4   5
ATOM      5  C   UNL     1      12.160  -5.759 -17.674  1.00  0.00     0.006 C 
BRANCH   5   6
ATOM      6  C   UNL     1      12.889  -6.109 -18.978  1.00  0.00     0.053 C 
BRANCH   6   7
ATOM      7  C   UNL     1      14.301  -6.514 -18.694  1.00  0.00     0.041 C 
ATOM      8  O   UNL     1      15.245  -6.047 -19.383  1.00  0.00    -0.550 OA
ATOM      9  O   UNL     1      14.579  -7.367 -17.633  1.00  0.00    -0.550 OA
ENDBRANCH   6   7
ENDBRANCH   5   6
ENDBRANCH   4   5
ENDBRANCH   3   4
ENDBRANCH   2   3
ENDBRANCH   1   2
BRANCH   1  10
ATOM     10  C   UNL     1      12.402  -0.580 -15.692  1.00  0.00     0.000 C 
BRANCH  10  11
ATOM     11  C   UNL     1      11.625   0.736 -15.518  1.00  0.00    -0.000 C 
BRANCH  11  12
ATOM     12  C   UNL     1      11.978   1.784 -16.588  1.00  0.00    -0.000 C 
BRANCH  12  13
ATOM     13  C   UNL     1      13.484   1.848 -16.916  1.00  0.00    -0.000 C 
BRANCH  13  14
ATOM     14  C   UNL     1      13.795   1.306 -18.324  1.00  0.00    -0.000 C 
BRANCH  14  15
ATOM     15  C   UNL     1      14.912   0.252 -18.316  1.00  0.00    -0.003 C 
ATOM     16  C   UNL     1      16.032   0.573 -19.306  1.00  0.00     0.004 C 
ENDBRANCH  14  15
ENDBRANCH  13  14
ENDBRANCH  12  13
ENDBRANCH  11  12
ENDBRANCH  10  11
ENDBRANCH   1  10
TORSDOF 12
ENDMDL
MODEL 3
REMARK VINA RESULT:     4.553      2.882      7.282
REMARK INTER + INTRA:           6.976
REMARK INTER:                   7.437
REMARK INTRA:                  -0.460
REMARK UNBOUND:                -0.771
REMARK SMILES CCCCCCCCCCCCCC(=O)[O-]
REMARK SMILES IDX 8 1 9 2 10 3 11 4 12 5 13 6 14 7 15 8 16 9 7 10 6 11 5 12
REMARK SMILES IDX 4 13 3 14 2 15 1 16
REMARK H PARENT
REMARK Flexibility Score: inf
ROOT
ATOM      1  C   UNL     1      11.411  -2.174 -16.134  1.00  0.00     0.000 C 
ENDROOT
BRANCH   1   2
ATOM      2  C   UNL     1      11.866  -0.922 -16.904  1.00  0.00     0.000 C 
BRANCH   2   3
ATOM      3  C   UNL     1      12.322   0.210 -15.969  1.00  0.00     0.000 C 
BRANCH   3   4
ATOM      4  C   UNL     1      12.154   1.602 -16.601  1.00  0.00     0.000 C 
BRANCH   4   5
ATOM      5  C   UNL     1      13.450   2.118 -17.247  1.00  0.00     0.006 C 
BRANCH   5   6
ATOM      6  C   UNL     1      13.776   1.412 -18.570  1.00  0.00     0.053 C 
BRANCH   6   7
ATOM      7  C   UNL     1      15.021   0.595 -18.432  1.00  0.00     0.041 C 
ATOM      8  O   UNL     1      15.724   0.336 -19.444  1.00  0.00    -0.550 OA
ATOM      9  O   UNL     1      15.434   0.163 -17.178  1.00  0.00    -0.550 OA
ENDBRANCH   6   7
ENDBRANCH   5   6
ENDBRANCH   4   5
ENDBRANCH   3   4
ENDBRANCH   2   3
ENDBRANCH   1   2
BRANCH   1  10
ATOM     10  C   UNL     1      10.726  -3.208 -17.043  1.00  0.00     0.000 C 
BRANCH  10  11
ATOM     11  C   UNL     1      11.348  -4.609 -16.923  1.00  0.00    -0.000 C 
BRANCH  11  12
ATOM     12  C   UNL     1      11.751  -5.202 -18.284  1.00  0.00    -0.000 C 
BRANCH  12  13
ATOM     13  C   UNL     1      12.816  -6.314 -18.181  1.00  0.00    -0.000 C 
BRANCH  13  14
ATOM     14  C   UNL     1      14.030  -6.042 -19.089  1.00  0.00    -0.000 C 
BRANCH  14  15
ATOM     15  C   UNL     1      15.266  -6.856 -18.677  1.00  0.00    -0.003 C 
ATOM     16  C   UNL     1      14.911  -8.084 -17.838  1.00  0.00     0.004 C 
ENDBRANCH  14  15
ENDBRANCH  13  14
ENDBRANCH  12  13
ENDBRANCH  11  12
ENDBRANCH  10  11
ENDBRANCH   1  10
TORSDOF 12
ENDMDL
MODEL 4
REMARK VINA RESULT:     4.775      3.942      8.002
REMARK INTER + INTRA:           7.354
REMARK INTER:                   7.893
REMARK INTRA:                  -0.539
REMARK UNBOUND:                -0.771
REMARK SMILES CCCCCCCCCCCCCC(=O)[O-]
REMARK SMILES IDX 8 1 9 2 10 3 11 4 12 5 13 6 14 7 15 8 16 9 7 10 6 11 5 12
REMARK SMILES IDX 4 13 3 14 2 15 1 16
REMARK H PARENT
REMARK Flexibility Score: inf
ROOT
ATOM      1  C   UNL     1      11.866  -1.662 -17.248  1.00  0.00     0.000 C 
ENDROOT
BRANCH   1   2
ATOM      2  C   UNL     1      12.638  -0.532 -16.544  1.00  0.00     0.000 C 
BRANCH   2   3
ATOM      3  C   UNL     1      13.170   0.521 -17.531  1.00  0.00     0.000 C 
BRANCH   3   4
ATOM      4  C   UNL     1      12.712   1.946 -17.177  1.00  0.00     0.000 C 
BRANCH   4   5
ATOM      5  C   UNL     1      12.321   2.091 -15.697  1.00  0.00     0.006 C 
BRANCH   5   6
ATOM      6  C   UNL     1      10.803   2.187 -15.491  1.00  0.00     0.053 C 
BRANCH   6   7
ATOM      7  C   UNL     1      10.455   1.940 -14.058  1.00  0.00     0.041 C 
ATOM      8  O   UNL     1      10.500   2.881 -13.223  1.00  0.00    -0.550 OA
ATOM      9  O   UNL     1      10.030   0.681 -13.654  1.00  0.00    -0.550 OA
ENDBRANCH   6   7
ENDBRANCH   5   6
ENDBRANCH   4   5
ENDBRANCH   3   4
ENDBRANCH   2   3
ENDBRANCH   1   2
BRANCH   1  10
ATOM     10  C   UNL     1      10.899  -2.392 -16.302  1.00  0.00     0.000 C 
BRANCH  10  11
ATOM     11  C   UNL     1      11.047  -3.921 -16.366  1.00  0.00    -0.000 C 
BRANCH  11  12
ATOM     12  C   UNL     1      11.447  -4.424 -17.765  1.00  0.00    -0.000 C 
BRANCH  12  13
ATOM     13  C   UNL     1      12.165  -5.790 -17.747  1.00  0.00    -0.000 C 
BRANCH  13  14
ATOM     14  C   UNL     1      12.893  -6.080 -19.073  1.00  0.00    -0.000 C 
BRANCH  14  15
ATOM     15  C   UNL     1      14.403  -6.286 -18.882  1.00  0.00    -0.003 C 
ATOM     16  C   UNL     1      14.725  -7.380 -17.863  1.00  0.00     0.004 C 
ENDBRANCH  14  15
ENDBRANCH  13  14
ENDBRANCH  12  13
ENDBRANCH  11  12
ENDBRANCH  10  11
ENDBRANCH   1  10
TORSDOF 12
ENDMDL
