MODEL 1
REMARK VINA RESULT:    -2.486      0.000      0.000
REMARK INTER + INTRA:          -6.439
REMARK INTER:                  -5.392
REMARK INTRA:                  -1.047
REMARK UNBOUND:                -1.047
REMARK SMILES CCCCCCCCCCCCCCCCCCCCCC(=O)[O-]
REMARK SMILES IDX 12 1 11 2 10 3 9 4 8 5 7 6 6 7 5 8 4 9 3 10 2 11 1 12 13 13
REMARK SMILES IDX 14 14 15 15 16 16 17 17 18 18 19 19 20 20 21 21 22 22 23 23
REMARK SMILES IDX 24 24
REMARK H PARENT
REMARK Flexibility Score: inf
ROOT
ATOM      1  C   UNL     1      -4.889   7.659  -2.268  1.00  0.00     0.000 C 
ENDROOT
BRANCH   1   2
ATOM      2  C   UNL     1      -4.721   8.781  -1.222  1.00  0.00     0.000 C 
BRANCH   2   3
ATOM      3  C   UNL     1      -3.330   9.436  -1.233  1.00  0.00     0.000 C 
BRANCH   3   4
ATOM      4  C   UNL     1      -2.348   8.760  -0.261  1.00  0.00    -0.000 C 
BRANCH   4   5
ATOM      5  C   UNL     1      -0.983   9.466  -0.190  1.00  0.00    -0.000 C 
BRANCH   5   6
ATOM      6  C   UNL     1      -0.985  10.849   0.496  1.00  0.00    -0.000 C 
BRANCH   6   7
ATOM      7  C   UNL     1      -2.188  11.124   1.416  1.00  0.00    -0.000 C 
BRANCH   7   8
ATOM      8  C   UNL     1      -1.953  10.656   2.863  1.00  0.00    -0.000 C 
BRANCH   8   9
ATOM      9  C   UNL     1      -3.127  11.030   3.796  1.00  0.00    -0.000 C 
BRANCH   9  10
ATOM     10  C   UNL     1      -4.510  10.676   3.223  1.00  0.00    -0.000 C 
BRANCH  10  11
ATOM     11  C   UNL     1      -5.665  11.125   4.129  1.00  0.00    -0.003 C 
ATOM     12  C   UNL     1      -6.595   9.959   4.454  1.00  0.00     0.004 C 
ENDBRANCH  10  11
ENDBRANCH   9  10
ENDBRANCH   8   9
ENDBRANCH   7   8
ENDBRANCH   6   7
ENDBRANCH   5   6
ENDBRANCH   4   5
ENDBRANCH   3   4
ENDBRANCH   2   3
ENDBRANCH   1   2
BRANCH   1  13
ATOM     13  C   UNL     1      -5.187   8.212  -3.674  1.00  0.00     0.000 C 
BRANCH  13  14
ATOM     14  C   UNL     1      -3.940   8.190  -4.584  1.00  0.00     0.000 C 
BRANCH  14  15
ATOM     15  C   UNL     1      -3.375   9.588  -4.890  1.00  0.00     0.000 C 
BRANCH  15  16
ATOM     16  C   UNL     1      -1.856   9.577  -5.130  1.00  0.00     0.000 C 
BRANCH  16  17
ATOM     17  C   UNL     1      -1.281   8.152  -5.195  1.00  0.00     0.000 C 
BRANCH  17  18
ATOM     18  C   UNL     1      -1.396   7.410  -3.851  1.00  0.00     0.000 C 
BRANCH  18  19
ATOM     19  C   UNL     1      -0.907   5.956  -3.937  1.00  0.00     0.000 C 
BRANCH  19  20
ATOM     20  C   UNL     1      -1.168   5.320  -5.314  1.00  0.00     0.006 C 
BRANCH  20  21
ATOM     21  C   UNL     1      -2.122   4.121  -5.227  1.00  0.00     0.053 C 
BRANCH  21  22
ATOM     22  C   UNL     1      -1.434   2.837  -5.578  1.00  0.00     0.041 C 
ATOM     23  O   UNL     1      -0.986   2.655  -6.740  1.00  0.00    -0.550 OA
ATOM     24  O   UNL     1      -1.270   1.849  -4.615  1.00  0.00    -0.550 OA
ENDBRANCH  21  22
ENDBRANCH  20  21
ENDBRANCH  19  20
ENDBRANCH  18  19
ENDBRANCH  17  18
ENDBRANCH  16  17
ENDBRANCH  15  16
ENDBRANCH  14  15
ENDBRANCH  13  14
ENDBRANCH   1  13
TORSDOF 20
ENDMDL
MODEL 2
REMARK VINA RESULT:    -2.180      4.076      9.248
REMARK INTER + INTRA:          -5.775
REMARK INTER:                  -4.911
REMARK INTRA:                  -0.864
REMARK UNBOUND:                -1.047
REMARK SMILES CCCCCCCCCCCCCCCCCCCCCC(=O)[O-]
REMARK SMILES IDX 12 1 11 2 10 3 9 4 8 5 7 6 6 7 5 8 4 9 3 10 2 11 1 12 13 13
REMARK SMILES IDX 14 14 15 15 16 16 17 17 18 18 19 19 20 20 21 21 22 22 23 23
REMARK SMILES IDX 24 24
REMARK H PARENT
REMARK Flexibility Score: inf
ROOT
ATOM      1  C   UNL     1      -3.643   7.240  -4.873  1.00  0.00     0.000 C 
ENDROOT
BRANCH   1   2
ATOM      2  C   UNL     1      -2.169   7.263  -4.421  1.00  0.00     0.000 C 
BRANCH   2   3
ATOM      3  C   UNL     1      -1.241   8.040  -5.369  1.00  0.00     0.000 C 
BRANCH   3   4
ATOM      4  C   UNL     1      -1.854   9.369  -5.841  1.00  0.00    -0.000 C 
BRANCH   4   5
ATOM      5  C   UNL     1      -0.889  10.212  -6.695  1.00  0.00    -0.000 C 
BRANCH   5   6
ATOM      6  C   UNL     1      -1.446  10.688  -8.053  1.00  0.00    -0.000 C 
BRANCH   6   7
ATOM      7  C   UNL     1      -0.875   9.965  -9.287  1.00  0.00    -0.000 C 
BRANCH   7   8
ATOM      8  C   UNL     1      -1.637  10.300 -10.581  1.00  0.00    -0.000 C 
BRANCH   8   9
ATOM      9  C   UNL     1      -0.883   9.823 -11.842  1.00  0.00    -0.000 C 
BRANCH   9  10
ATOM     10  C   UNL     1      -1.529   8.608 -12.529  1.00  0.00    -0.000 C 
BRANCH  10  11
ATOM     11  C   UNL     1      -2.841   8.171 -11.860  1.00  0.00    -0.003 C 
ATOM     12  C   UNL     1      -3.536   7.081 -12.672  1.00  0.00     0.004 C 
ENDBRANCH  10  11
ENDBRANCH   9  10
ENDBRANCH   8   9
ENDBRANCH   7   8
ENDBRANCH   6   7
ENDBRANCH   5   6
ENDBRANCH   4   5
ENDBRANCH   3   4
ENDBRANCH   2   3
ENDBRANCH   1   2
BRANCH   1  13
ATOM     13  C   UNL     1      -4.559   8.025  -3.915  1.00  0.00     0.000 C 
BRANCH  13  14
ATOM     14  C   UNL     1      -4.187   9.523  -3.850  1.00  0.00     0.000 C 
BRANCH  14  15
ATOM     15  C   UNL     1      -3.693   9.975  -2.466  1.00  0.00     0.000 C 
BRANCH  15  16
ATOM     16  C   UNL     1      -4.782   9.878  -1.385  1.00  0.00     0.000 C 
BRANCH  16  17
ATOM     17  C   UNL     1      -4.241   9.341  -0.049  1.00  0.00     0.000 C 
BRANCH  17  18
ATOM     18  C   UNL     1      -3.819  10.468   0.909  1.00  0.00     0.000 C 
BRANCH  18  19
ATOM     19  C   UNL     1      -2.759  10.013   1.924  1.00  0.00     0.000 C 
BRANCH  19  20
ATOM     20  C   UNL     1      -1.345   9.946   1.319  1.00  0.00     0.006 C 
BRANCH  20  21
ATOM     21  C   UNL     1      -0.934   8.510   0.967  1.00  0.00     0.053 C 
BRANCH  21  22
ATOM     22  C   UNL     1      -1.049   8.243  -0.503  1.00  0.00     0.041 C 
ATOM     23  O   UNL     1      -1.289   7.080  -0.919  1.00  0.00    -0.550 OA
ATOM     24  O   UNL     1      -0.909   9.285  -1.413  1.00  0.00    -0.550 OA
ENDBRANCH  21  22
ENDBRANCH  20  21
ENDBRANCH  19  20
ENDBRANCH  18  19
ENDBRANCH  17  18
ENDBRANCH  16  17
ENDBRANCH  15  16
ENDBRANCH  14  15
ENDBRANCH  13  14
ENDBRANCH   1  13
TORSDOF 20
ENDMDL
MODEL 3
REMARK VINA RESULT:    -2.080      3.484      4.422
REMARK INTER + INTRA:          -5.559
REMARK INTER:                  -4.826
REMARK INTRA:                  -0.734
REMARK UNBOUND:                -1.047
REMARK SMILES CCCCCCCCCCCCCCCCCCCCCC(=O)[O-]
REMARK SMILES IDX 12 1 11 2 10 3 9 4 8 5 7 6 6 7 5 8 4 9 3 10 2 11 1 12 13 13
REMARK SMILES IDX 14 14 15 15 16 16 17 17 18 18 19 19 20 20 21 21 22 22 23 23
REMARK SMILES IDX 24 24
REMARK H PARENT
REMARK Flexibility Score: inf
ROOT
ATOM      1  C   UNL     1      -4.541   7.467  -2.926  1.00  0.00     0.000 C 
ENDROOT
BRANCH   1   2
ATOM      2  C   UNL     1      -4.710   8.999  -2.855  1.00  0.00     0.000 C 
BRANCH   2   3
ATOM      3  C   UNL     1      -3.481   9.734  -2.296  1.00  0.00     0.000 C 
BRANCH   3   4
ATOM      4  C   UNL     1      -3.280   9.495  -0.790  1.00  0.00    -0.000 C 
BRANCH   4   5
ATOM      5  C   UNL     1      -2.071   8.598  -0.474  1.00  0.00    -0.000 C 
BRANCH   5   6
ATOM      6  C   UNL     1      -1.636   8.565   1.007  1.00  0.00    -0.000 C 
BRANCH   6   7
ATOM      7  C   UNL     1      -0.995   9.863   1.532  1.00  0.00    -0.000 C 
BRANCH   7   8
ATOM      8  C   UNL     1      -1.993  11.031   1.618  1.00  0.00    -0.000 C 
BRANCH   8   9
ATOM      9  C   UNL     1      -2.703  11.094   2.989  1.00  0.00    -0.000 C 
BRANCH   9  10
ATOM     10  C   UNL     1      -4.226  10.899   2.908  1.00  0.00    -0.000 C 
BRANCH  10  11
ATOM     11  C   UNL     1      -4.906  10.920   4.284  1.00  0.00    -0.003 C 
ATOM     12  C   UNL     1      -6.329  10.374   4.204  1.00  0.00     0.004 C 
ENDBRANCH  10  11
ENDBRANCH   9  10
ENDBRANCH   8   9
ENDBRANCH   7   8
ENDBRANCH   6   7
ENDBRANCH   5   6
ENDBRANCH   4   5
ENDBRANCH   3   4
ENDBRANCH   2   3
ENDBRANCH   1   2
BRANCH   1  13
ATOM     13  C   UNL     1      -3.758   7.025  -4.177  1.00  0.00     0.000 C 
BRANCH  13  14
ATOM     14  C   UNL     1      -3.342   8.225  -5.057  1.00  0.00     0.000 C 
BRANCH  14  15
ATOM     15  C   UNL     1      -1.840   8.551  -4.984  1.00  0.00     0.000 C 
BRANCH  15  16
ATOM     16  C   UNL     1      -1.518   9.978  -5.457  1.00  0.00     0.000 C 
BRANCH  16  17
ATOM     17  C   UNL     1      -1.021  10.018  -6.912  1.00  0.00     0.000 C 
BRANCH  17  18
ATOM     18  C   UNL     1      -0.883   8.612  -7.524  1.00  0.00     0.000 C 
BRANCH  18  19
ATOM     19  C   UNL     1      -0.883   8.635  -9.060  1.00  0.00     0.000 C 
BRANCH  19  20
ATOM     20  C   UNL     1      -0.966  10.061  -9.634  1.00  0.00     0.006 C 
BRANCH  20  21
ATOM     21  C   UNL     1      -2.129  10.220 -10.623  1.00  0.00     0.053 C 
BRANCH  21  22
ATOM     22  C   UNL     1      -1.852   9.528 -11.923  1.00  0.00     0.041 C 
ATOM     23  O   UNL     1      -0.876   9.882 -12.634  1.00  0.00    -0.550 OA
ATOM     24  O   UNL     1      -2.663   8.479 -12.339  1.00  0.00    -0.550 OA
ENDBRANCH  21  22
ENDBRANCH  20  21
ENDBRANCH  19  20
ENDBRANCH  18  19
ENDBRANCH  17  18
ENDBRANCH  16  17
ENDBRANCH  15  16
ENDBRANCH  14  15
ENDBRANCH  13  14
ENDBRANCH   1  13
TORSDOF 20
ENDMDL
MODEL 4
REMARK VINA RESULT:    -1.437      4.054      8.958
REMARK INTER + INTRA:          -4.164
REMARK INTER:                  -3.626
REMARK INTRA:                  -0.538
REMARK UNBOUND:                -1.047
REMARK SMILES CCCCCCCCCCCCCCCCCCCCCC(=O)[O-]
REMARK SMILES IDX 12 1 11 2 10 3 9 4 8 5 7 6 6 7 5 8 4 9 3 10 2 11 1 12 13 13
REMARK SMILES IDX 14 14 15 15 16 16 17 17 18 18 19 19 20 20 21 21 22 22 23 23
REMARK SMILES IDX 24 24
REMARK H PARENT
REMARK Flexibility Score: inf
ROOT
ATOM      1  C   UNL     1      -4.748   8.033  -1.320  1.00  0.00     0.000 C 
ENDROOT
BRANCH   1   2
ATOM      2  C   UNL     1      -3.210   7.932  -1.264  1.00  0.00     0.000 C 
BRANCH   2   3
ATOM      3  C   UNL     1      -2.558   7.646  -2.627  1.00  0.00     0.000 C 
BRANCH   3   4
ATOM      4  C   UNL     1      -2.389   8.913  -3.482  1.00  0.00    -0.000 C 
BRANCH   4   5
ATOM      5  C   UNL     1      -2.980   8.773  -4.896  1.00  0.00    -0.000 C 
BRANCH   5   6
ATOM      6  C   UNL     1      -2.015   9.097  -6.056  1.00  0.00    -0.000 C 
BRANCH   6   7
ATOM      7  C   UNL     1      -0.876   8.083  -6.266  1.00  0.00    -0.000 C 
BRANCH   7   8
ATOM      8  C   UNL     1      -1.332   6.817  -7.011  1.00  0.00    -0.000 C 
BRANCH   8   9
ATOM      9  C   UNL     1      -1.174   5.544  -6.151  1.00  0.00    -0.000 C 
BRANCH   9  10
ATOM     10  C   UNL     1      -1.896   4.313  -6.727  1.00  0.00    -0.000 C 
BRANCH  10  11
ATOM     11  C   UNL     1      -1.798   3.082  -5.815  1.00  0.00    -0.003 C 
ATOM     12  C   UNL     1      -1.022   3.401  -4.540  1.00  0.00     0.004 C 
ENDBRANCH  10  11
ENDBRANCH   9  10
ENDBRANCH   8   9
ENDBRANCH   7   8
ENDBRANCH   6   7
ENDBRANCH   5   6
ENDBRANCH   4   5
ENDBRANCH   3   4
ENDBRANCH   2   3
ENDBRANCH   1   2
BRANCH   1  13
ATOM     13  C   UNL     1      -5.225   9.419  -1.793  1.00  0.00     0.000 C 
BRANCH  13  14
ATOM     14  C   UNL     1      -4.124  10.493  -1.650  1.00  0.00     0.000 C 
BRANCH  14  15
ATOM     15  C   UNL     1      -3.933  10.992  -0.208  1.00  0.00     0.000 C 
BRANCH  15  16
ATOM     16  C   UNL     1      -2.454  11.071   0.204  1.00  0.00     0.000 C 
BRANCH  16  17
ATOM     17  C   UNL     1      -1.935   9.748   0.793  1.00  0.00     0.000 C 
BRANCH  17  18
ATOM     18  C   UNL     1      -1.900   9.765   2.332  1.00  0.00     0.000 C 
BRANCH  18  19
ATOM     19  C   UNL     1      -2.440  11.078   2.919  1.00  0.00     0.000 C 
BRANCH  19  20
ATOM     20  C   UNL     1      -3.609  10.857   3.896  1.00  0.00     0.006 C 
BRANCH  20  21
ATOM     21  C   UNL     1      -4.934  10.604   3.165  1.00  0.00     0.053 C 
BRANCH  21  22
ATOM     22  C   UNL     1      -6.016  10.174   4.109  1.00  0.00     0.041 C 
ATOM     23  O   UNL     1      -6.268   8.952   4.269  1.00  0.00    -0.550 OA
ATOM     24  O   UNL     1      -6.733  11.124   4.825  1.00  0.00    -0.550 OA
ENDBRANCH  21  22
ENDBRANCH  20  21
ENDBRANCH  19  20
ENDBRANCH  18  19
ENDBRANCH  17  18
ENDBRANCH  16  17
ENDBRANCH  15  16
ENDBRANCH  14  15
ENDBRANCH  13  14
ENDBRANCH   1  13
TORSDOF 20
ENDMDL
MODEL 5
REMARK VINA RESULT:    -1.414      2.771      8.077
REMARK INTER + INTRA:          -4.114
REMARK INTER:                  -3.631
REMARK INTRA:                  -0.483
REMARK UNBOUND:                -1.047
REMARK SMILES CCCCCCCCCCCCCCCCCCCCCC(=O)[O-]
REMARK SMILES IDX 12 1 11 2 10 3 9 4 8 5 7 6 6 7 5 8 4 9 3 10 2 11 1 12 13 13
REMARK SMILES IDX 14 14 15 15 16 16 17 17 18 18 19 19 20 20 21 21 22 22 23 23
REMARK SMILES IDX 24 24
REMARK H PARENT
REMARK Flexibility Score: inf
ROOT
ATOM      1  C   UNL     1      -4.885   8.029  -3.456  1.00  0.00     0.000 C 
ENDROOT
BRANCH   1   2
ATOM      2  C   UNL     1      -3.580   7.209  -3.395  1.00  0.00     0.000 C 
BRANCH   2   3
ATOM      3  C   UNL     1      -2.671   7.400  -4.621  1.00  0.00     0.000 C 
BRANCH   3   4
ATOM      4  C   UNL     1      -2.197   8.853  -4.789  1.00  0.00    -0.000 C 
BRANCH   4   5
ATOM      5  C   UNL     1      -0.981   8.990  -5.722  1.00  0.00    -0.000 C 
BRANCH   5   6
ATOM      6  C   UNL     1      -1.261   8.745  -7.220  1.00  0.00    -0.000 C 
BRANCH   6   7
ATOM      7  C   UNL     1      -0.875   7.348  -7.740  1.00  0.00    -0.000 C 
BRANCH   7   8
ATOM      8  C   UNL     1      -1.065   6.243  -6.686  1.00  0.00    -0.000 C 
BRANCH   8   9
ATOM      9  C   UNL     1      -1.410   4.880  -7.324  1.00  0.00    -0.000 C 
BRANCH   9  10
ATOM     10  C   UNL     1      -0.906   3.672  -6.515  1.00  0.00    -0.000 C 
BRANCH  10  11
ATOM     11  C   UNL     1      -2.004   3.027  -5.658  1.00  0.00    -0.003 C 
ATOM     12  C   UNL     1      -1.430   2.466  -4.360  1.00  0.00     0.004 C 
ENDBRANCH  10  11
ENDBRANCH   9  10
ENDBRANCH   8   9
ENDBRANCH   7   8
ENDBRANCH   6   7
ENDBRANCH   5   6
ENDBRANCH   4   5
ENDBRANCH   3   4
ENDBRANCH   2   3
ENDBRANCH   1   2
BRANCH   1  13
ATOM     13  C   UNL     1      -5.069   8.924  -2.215  1.00  0.00     0.000 C 
BRANCH  13  14
ATOM     14  C   UNL     1      -4.430  10.317  -2.402  1.00  0.00     0.000 C 
BRANCH  14  15
ATOM     15  C   UNL     1      -4.048  11.002  -1.079  1.00  0.00     0.000 C 
BRANCH  15  16
ATOM     16  C   UNL     1      -5.023  10.673   0.064  1.00  0.00     0.000 C 
BRANCH  16  17
ATOM     17  C   UNL     1      -4.301  10.188   1.333  1.00  0.00     0.000 C 
BRANCH  17  18
ATOM     18  C   UNL     1      -3.075  11.052   1.677  1.00  0.00     0.000 C 
BRANCH  18  19
ATOM     19  C   UNL     1      -2.078  10.324   2.591  1.00  0.00     0.000 C 
BRANCH  19  20
ATOM     20  C   UNL     1      -1.007   9.547   1.805  1.00  0.00     0.006 C 
BRANCH  20  21
ATOM     21  C   UNL     1      -0.890  10.030   0.353  1.00  0.00     0.053 C 
BRANCH  21  22
ATOM     22  C   UNL     1      -1.458   9.034  -0.611  1.00  0.00     0.041 C 
ATOM     23  O   UNL     1      -1.455   9.275  -1.846  1.00  0.00    -0.550 OA
ATOM     24  O   UNL     1      -1.973   7.830  -0.146  1.00  0.00    -0.550 OA
ENDBRANCH  21  22
ENDBRANCH  20  21
ENDBRANCH  19  20
ENDBRANCH  18  19
ENDBRANCH  17  18
ENDBRANCH  16  17
ENDBRANCH  15  16
ENDBRANCH  14  15
ENDBRANCH  13  14
ENDBRANCH   1  13
TORSDOF 20
ENDMDL
MODEL 6
REMARK VINA RESULT:    -1.221      3.965      4.894
REMARK INTER + INTRA:          -3.695
REMARK INTER:                  -2.685
REMARK INTRA:                  -1.009
REMARK UNBOUND:                -1.047
REMARK SMILES CCCCCCCCCCCCCCCCCCCCCC(=O)[O-]
REMARK SMILES IDX 12 1 11 2 10 3 9 4 8 5 7 6 6 7 5 8 4 9 3 10 2 11 1 12 13 13
REMARK SMILES IDX 14 14 15 15 16 16 17 17 18 18 19 19 20 20 21 21 22 22 23 23
REMARK SMILES IDX 24 24
REMARK H PARENT
REMARK Flexibility Score: inf
ROOT
ATOM      1  C   UNL     1      -3.268   8.057  -3.632  1.00  0.00     0.000 C 
ENDROOT
BRANCH   1   2
ATOM      2  C   UNL     1      -2.566   9.367  -4.044  1.00  0.00     0.000 C 
BRANCH   2   3
ATOM      3  C   UNL     1      -1.272   9.650  -3.262  1.00  0.00     0.000 C 
BRANCH   3   4
ATOM      4  C   UNL     1      -1.173   8.833  -1.963  1.00  0.00    -0.000 C 
BRANCH   4   5
ATOM      5  C   UNL     1      -1.332   9.689  -0.694  1.00  0.00    -0.000 C 
BRANCH   5   6
ATOM      6  C   UNL     1      -2.515   9.307   0.220  1.00  0.00    -0.000 C 
BRANCH   6   7
ATOM      7  C   UNL     1      -2.185   9.225   1.722  1.00  0.00    -0.000 C 
BRANCH   7   8
ATOM      8  C   UNL     1      -1.729  10.573   2.308  1.00  0.00    -0.000 C 
BRANCH   8   9
ATOM      9  C   UNL     1      -2.726  11.124   3.351  1.00  0.00    -0.000 C 
BRANCH   9  10
ATOM     10  C   UNL     1      -4.176  10.664   3.125  1.00  0.00    -0.000 C 
BRANCH  10  11
ATOM     11  C   UNL     1      -5.087  10.948   4.327  1.00  0.00    -0.003 C 
ATOM     12  C   UNL     1      -6.395  10.167   4.224  1.00  0.00     0.004 C 
ENDBRANCH  10  11
ENDBRANCH   9  10
ENDBRANCH   8   9
ENDBRANCH   7   8
ENDBRANCH   6   7
ENDBRANCH   5   6
ENDBRANCH   4   5
ENDBRANCH   3   4
ENDBRANCH   2   3
ENDBRANCH   1   2
BRANCH   1  13
ATOM     13  C   UNL     1      -3.314   7.033  -4.782  1.00  0.00     0.000 C 
BRANCH  13  14
ATOM     14  C   UNL     1      -1.903   6.557  -5.194  1.00  0.00     0.000 C 
BRANCH  14  15
ATOM     15  C   UNL     1      -1.896   5.664  -6.446  1.00  0.00     0.000 C 
BRANCH  15  16
ATOM     16  C   UNL     1      -0.956   6.187  -7.545  1.00  0.00     0.000 C 
BRANCH  16  17
ATOM     17  C   UNL     1      -1.379   7.569  -8.073  1.00  0.00     0.000 C 
BRANCH  17  18
ATOM     18  C   UNL     1      -0.875   7.830  -9.503  1.00  0.00     0.000 C 
BRANCH  18  19
ATOM     19  C   UNL     1      -1.552   9.046 -10.154  1.00  0.00     0.000 C 
BRANCH  19  20
ATOM     20  C   UNL     1      -0.885   9.462 -11.477  1.00  0.00     0.006 C 
BRANCH  20  21
ATOM     21  C   UNL     1      -1.612   8.885 -12.699  1.00  0.00     0.053 C 
BRANCH  21  22
ATOM     22  C   UNL     1      -3.047   8.575 -12.397  1.00  0.00     0.041 C 
ATOM     23  O   UNL     1      -3.931   9.459 -12.543  1.00  0.00    -0.550 OA
ATOM     24  O   UNL     1      -3.409   7.303 -11.973  1.00  0.00    -0.550 OA
ENDBRANCH  21  22
ENDBRANCH  20  21
ENDBRANCH  19  20
ENDBRANCH  18  19
ENDBRANCH  17  18
ENDBRANCH  16  17
ENDBRANCH  15  16
ENDBRANCH  14  15
ENDBRANCH  13  14
ENDBRANCH   1  13
TORSDOF 20
ENDMDL
MODEL 7
REMARK VINA RESULT:    -1.174      5.062      9.935
REMARK INTER + INTRA:          -3.594
REMARK INTER:                  -3.617
REMARK INTRA:                   0.023
REMARK UNBOUND:                -1.047
REMARK SMILES CCCCCCCCCCCCCCCCCCCCCC(=O)[O-]
REMARK SMILES IDX 12 1 11 2 10 3 9 4 8 5 7 6 6 7 5 8 4 9 3 10 2 11 1 12 13 13
REMARK SMILES IDX 14 14 15 15 16 16 17 17 18 18 19 19 20 20 21 21 22 22 23 23
REMARK SMILES IDX 24 24
REMARK H PARENT
REMARK Flexibility Score: inf
ROOT
ATOM      1  C   UNL     1      -4.365   7.855  -3.581  1.00  0.00     0.000 C 
ENDROOT
BRANCH   1   2
ATOM      2  C   UNL     1      -3.162   8.334  -4.420  1.00  0.00     0.000 C 
BRANCH   2   3
ATOM      3  C   UNL     1      -2.431   7.200  -5.159  1.00  0.00     0.000 C 
BRANCH   3   4
ATOM      4  C   UNL     1      -1.423   7.722  -6.196  1.00  0.00    -0.000 C 
BRANCH   4   5
ATOM      5  C   UNL     1      -1.145   9.230  -6.068  1.00  0.00    -0.000 C 
BRANCH   5   6
ATOM      6  C   UNL     1      -1.823  10.123  -7.128  1.00  0.00    -0.000 C 
BRANCH   6   7
ATOM      7  C   UNL     1      -0.958  10.452  -8.360  1.00  0.00    -0.000 C 
BRANCH   7   8
ATOM      8  C   UNL     1      -0.880   9.288  -9.363  1.00  0.00    -0.000 C 
BRANCH   8   9
ATOM      9  C   UNL     1      -1.009   9.769 -10.825  1.00  0.00    -0.000 C 
BRANCH   9  10
ATOM     10  C   UNL     1      -2.419   9.594 -11.413  1.00  0.00    -0.000 C 
BRANCH  10  11
ATOM     11  C   UNL     1      -2.804   8.121 -11.617  1.00  0.00    -0.003 C 
ATOM     12  C   UNL     1      -3.605   7.934 -12.903  1.00  0.00     0.004 C 
ENDBRANCH  10  11
ENDBRANCH   9  10
ENDBRANCH   8   9
ENDBRANCH   7   8
ENDBRANCH   6   7
ENDBRANCH   5   6
ENDBRANCH   4   5
ENDBRANCH   3   4
ENDBRANCH   2   3
ENDBRANCH   1   2
BRANCH   1  13
ATOM     13  C   UNL     1      -5.057   9.015  -2.840  1.00  0.00     0.000 C 
BRANCH  13  14
ATOM     14  C   UNL     1      -4.120  10.230  -2.657  1.00  0.00     0.000 C 
BRANCH  14  15
ATOM     15  C   UNL     1      -2.629   9.856  -2.613  1.00  0.00     0.000 C 
BRANCH  15  16
ATOM     16  C   UNL     1      -1.969  10.197  -1.267  1.00  0.00     0.000 C 
BRANCH  16  17
ATOM     17  C   UNL     1      -1.906   8.987  -0.319  1.00  0.00     0.000 C 
BRANCH  17  18
ATOM     18  C   UNL     1      -2.293   9.352   1.125  1.00  0.00     0.000 C 
BRANCH  18  19
ATOM     19  C   UNL     1      -2.861  10.776   1.241  1.00  0.00     0.000 C 
BRANCH  19  20
ATOM     20  C   UNL     1      -3.460  11.066   2.629  1.00  0.00     0.006 C 
BRANCH  20  21
ATOM     21  C   UNL     1      -4.779  10.316   2.859  1.00  0.00     0.053 C 
BRANCH  21  22
ATOM     22  C   UNL     1      -5.372  10.632   4.198  1.00  0.00     0.041 C 
ATOM     23  O   UNL     1      -6.598  10.439   4.409  1.00  0.00    -0.550 OA
ATOM     24  O   UNL     1      -4.567  11.123   5.218  1.00  0.00    -0.550 OA
ENDBRANCH  21  22
ENDBRANCH  20  21
ENDBRANCH  19  20
ENDBRANCH  18  19
ENDBRANCH  17  18
ENDBRANCH  16  17
ENDBRANCH  15  16
ENDBRANCH  14  15
ENDBRANCH  13  14
ENDBRANCH   1  13
TORSDOF 20
ENDMDL
