MODEL 1
REMARK VINA RESULT:    -3.211      0.000      0.000
REMARK INTER + INTRA:          -5.488
REMARK INTER:                  -5.088
REMARK INTRA:                  -0.400
REMARK UNBOUND:                -0.400
REMARK SMILES CCCCCCCCCCCC(=O)[O-]
REMARK SMILES IDX 7 1 8 2 9 3 10 4 11 5 12 6 13 7 14 8 6 9 5 10 4 11 3 12 2 13
REMARK SMILES IDX 1 14
REMARK H PARENT
REMARK Flexibility Score: inf
ROOT
ATOM      1  C   UNL     1      32.917  36.524   1.568  1.00  0.00     0.000 C 
ENDROOT
BRANCH   1   2
ATOM      2  C   UNL     1      33.424  37.421   2.704  1.00  0.00     0.000 C 
BRANCH   2   3
ATOM      3  C   UNL     1      34.858  37.042   3.104  1.00  0.00     0.000 C 
BRANCH   3   4
ATOM      4  C   UNL     1      35.125  37.235   4.606  1.00  0.00     0.006 C 
BRANCH   4   5
ATOM      5  C   UNL     1      34.609  38.583   5.129  1.00  0.00     0.053 C 
BRANCH   5   6
ATOM      6  C   UNL     1      34.082  38.434   6.521  1.00  0.00     0.041 C 
ATOM      7  O   UNL     1      32.857  38.600   6.757  1.00  0.00    -0.550 OA
ATOM      8  O   UNL     1      34.953  38.160   7.568  1.00  0.00    -0.550 OA
ENDBRANCH   5   6
ENDBRANCH   4   5
ENDBRANCH   3   4
ENDBRANCH   2   3
ENDBRANCH   1   2
BRANCH   1   9
ATOM      9  C   UNL     1      33.664  36.821   0.258  1.00  0.00     0.000 C 
BRANCH   9  10
ATOM     10  C   UNL     1      33.624  38.309  -0.123  1.00  0.00    -0.000 C 
BRANCH  10  11
ATOM     11  C   UNL     1      34.260  38.588  -1.493  1.00  0.00    -0.000 C 
BRANCH  11  12
ATOM     12  C   UNL     1      33.216  38.497  -2.612  1.00  0.00    -0.000 C 
BRANCH  12  13
ATOM     13  C   UNL     1      33.799  38.969  -3.949  1.00  0.00    -0.003 C 
ATOM     14  C   UNL     1      33.041  38.362  -5.125  1.00  0.00     0.004 C 
ENDBRANCH  12  13
ENDBRANCH  11  12
ENDBRANCH  10  11
ENDBRANCH   9  10
ENDBRANCH   1   9
TORSDOF 10
ENDMDL
MODEL 2
REMARK VINA RESULT:    -3.154      4.252      8.305
REMARK INTER + INTRA:          -5.397
REMARK INTER:                  -5.032
REMARK INTRA:                  -0.365
REMARK UNBOUND:                -0.400
REMARK SMILES CCCCCCCCCCCC(=O)[O-]
REMARK SMILES IDX 7 1 8 2 9 3 10 4 11 5 12 6 13 7 14 8 6 9 5 10 4 11 3 12 2 13
REMARK SMILES IDX 1 14
REMARK H PARENT
REMARK Flexibility Score: inf
ROOT
ATOM      1  C   UNL     1      33.154  37.613   2.953  1.00  0.00     0.000 C 
ENDROOT
BRANCH   1   2
ATOM      2  C   UNL     1      33.163  36.919   1.585  1.00  0.00     0.000 C 
BRANCH   2   3
ATOM      3  C   UNL     1      33.380  37.936   0.455  1.00  0.00     0.000 C 
BRANCH   3   4
ATOM      4  C   UNL     1      34.038  37.312  -0.786  1.00  0.00     0.006 C 
BRANCH   4   5
ATOM      5  C   UNL     1      33.232  36.135  -1.352  1.00  0.00     0.053 C 
BRANCH   5   6
ATOM      6  C   UNL     1      32.617  36.509  -2.664  1.00  0.00     0.041 C 
ATOM      7  O   UNL     1      32.983  37.554  -3.262  1.00  0.00    -0.550 OA
ATOM      8  O   UNL     1      31.603  35.727  -3.203  1.00  0.00    -0.550 OA
ENDBRANCH   5   6
ENDBRANCH   4   5
ENDBRANCH   3   4
ENDBRANCH   2   3
ENDBRANCH   1   2
BRANCH   1   9
ATOM      9  C   UNL     1      34.538  38.194   3.285  1.00  0.00     0.000 C 
BRANCH   9  10
ATOM     10  C   UNL     1      35.058  37.737   4.657  1.00  0.00    -0.000 C 
BRANCH  10  11
ATOM     11  C   UNL     1      35.012  38.854   5.710  1.00  0.00    -0.000 C 
BRANCH  11  12
ATOM     12  C   UNL     1      34.240  38.402   6.956  1.00  0.00    -0.000 C 
BRANCH  12  13
ATOM     13  C   UNL     1      35.125  38.464   8.205  1.00  0.00    -0.003 C 
ATOM     14  C   UNL     1      34.307  38.814   9.444  1.00  0.00     0.004 C 
ENDBRANCH  12  13
ENDBRANCH  11  12
ENDBRANCH  10  11
ENDBRANCH   9  10
ENDBRANCH   1   9
TORSDOF 10
ENDMDL
MODEL 3
REMARK VINA RESULT:    -3.010      1.229      1.742
REMARK INTER + INTRA:          -5.169
REMARK INTER:                  -4.978
REMARK INTRA:                  -0.192
REMARK UNBOUND:                -0.400
REMARK SMILES CCCCCCCCCCCC(=O)[O-]
REMARK SMILES IDX 7 1 8 2 9 3 10 4 11 5 12 6 13 7 14 8 6 9 5 10 4 11 3 12 2 13
REMARK SMILES IDX 1 14
REMARK H PARENT
REMARK Flexibility Score: inf
ROOT
ATOM      1  C   UNL     1      33.495  36.770   1.878  1.00  0.00     0.000 C 
ENDROOT
BRANCH   1   2
ATOM      2  C   UNL     1      33.489  37.632   3.147  1.00  0.00     0.000 C 
BRANCH   2   3
ATOM      3  C   UNL     1      34.921  37.903   3.633  1.00  0.00     0.000 C 
BRANCH   3   4
ATOM      4  C   UNL     1      35.022  37.981   5.165  1.00  0.00     0.006 C 
BRANCH   4   5
ATOM      5  C   UNL     1      34.034  38.986   5.771  1.00  0.00     0.053 C 
BRANCH   5   6
ATOM      6  C   UNL     1      33.841  38.712   7.229  1.00  0.00     0.041 C 
ATOM      7  O   UNL     1      34.823  38.398   7.952  1.00  0.00    -0.550 OA
ATOM      8  O   UNL     1      32.566  38.753   7.781  1.00  0.00    -0.550 OA
ENDBRANCH   5   6
ENDBRANCH   4   5
ENDBRANCH   3   4
ENDBRANCH   2   3
ENDBRANCH   1   2
BRANCH   1   9
ATOM      9  C   UNL     1      34.363  37.408   0.783  1.00  0.00     0.000 C 
BRANCH   9  10
ATOM     10  C   UNL     1      33.620  38.505   0.003  1.00  0.00    -0.000 C 
BRANCH  10  11
ATOM     11  C   UNL     1      34.110  38.636  -1.447  1.00  0.00    -0.000 C 
BRANCH  11  12
ATOM     12  C   UNL     1      33.206  37.853  -2.405  1.00  0.00    -0.000 C 
BRANCH  12  13
ATOM     13  C   UNL     1      32.880  36.464  -1.844  1.00  0.00    -0.003 C 
ATOM     14  C   UNL     1      32.014  35.667  -2.814  1.00  0.00     0.004 C 
ENDBRANCH  12  13
ENDBRANCH  11  12
ENDBRANCH  10  11
ENDBRANCH   9  10
ENDBRANCH   1   9
TORSDOF 10
ENDMDL
MODEL 4
REMARK VINA RESULT:    -2.973      3.841      7.613
REMARK INTER + INTRA:          -5.111
REMARK INTER:                  -4.591
REMARK INTRA:                  -0.520
REMARK UNBOUND:                -0.400
REMARK SMILES CCCCCCCCCCCC(=O)[O-]
REMARK SMILES IDX 7 1 8 2 9 3 10 4 11 5 12 6 13 7 14 8 6 9 5 10 4 11 3 12 2 13
REMARK SMILES IDX 1 14
REMARK H PARENT
REMARK Flexibility Score: inf
ROOT
ATOM      1  C   UNL     1      33.550  36.548   1.910  1.00  0.00     0.000 C 
ENDROOT
BRANCH   1   2
ATOM      2  C   UNL     1      32.833  37.902   1.978  1.00  0.00     0.000 C 
BRANCH   2   3
ATOM      3  C   UNL     1      33.192  38.775   0.767  1.00  0.00     0.000 C 
BRANCH   3   4
ATOM      4  C   UNL     1      34.005  38.014  -0.293  1.00  0.00     0.006 C 
BRANCH   4   5
ATOM      5  C   UNL     1      34.028  38.733  -1.648  1.00  0.00     0.053 C 
BRANCH   5   6
ATOM      6  C   UNL     1      33.229  37.969  -2.657  1.00  0.00     0.041 C 
ATOM      7  O   UNL     1      33.184  38.355  -3.855  1.00  0.00    -0.550 OA
ATOM      8  O   UNL     1      32.493  36.858  -2.264  1.00  0.00    -0.550 OA
ENDBRANCH   5   6
ENDBRANCH   4   5
ENDBRANCH   3   4
ENDBRANCH   2   3
ENDBRANCH   1   2
BRANCH   1   9
ATOM      9  C   UNL     1      34.800  36.541   2.804  1.00  0.00     0.000 C 
BRANCH   9  10
ATOM     10  C   UNL     1      35.054  37.900   3.477  1.00  0.00    -0.000 C 
BRANCH  10  11
ATOM     11  C   UNL     1      35.048  37.811   5.010  1.00  0.00    -0.000 C 
BRANCH  11  12
ATOM     12  C   UNL     1      33.781  38.448   5.592  1.00  0.00    -0.000 C 
BRANCH  12  13
ATOM     13  C   UNL     1      33.984  38.837   7.061  1.00  0.00    -0.003 C 
ATOM     14  C   UNL     1      35.123  38.041   7.689  1.00  0.00     0.004 C 
ENDBRANCH  12  13
ENDBRANCH  11  12
ENDBRANCH  10  11
ENDBRANCH   9  10
ENDBRANCH   1   9
TORSDOF 10
ENDMDL
MODEL 5
REMARK VINA RESULT:    -2.613      3.272      4.195
REMARK INTER + INTRA:          -4.541
REMARK INTER:                  -3.610
REMARK INTRA:                  -0.931
REMARK UNBOUND:                -0.400
REMARK SMILES CCCCCCCCCCCC(=O)[O-]
REMARK SMILES IDX 7 1 8 2 9 3 10 4 11 5 12 6 13 7 14 8 6 9 5 10 4 11 3 12 2 13
REMARK SMILES IDX 1 14
REMARK H PARENT
REMARK Flexibility Score: inf
ROOT
ATOM      1  C   UNL     1      33.499  38.933   0.600  1.00  0.00     0.000 C 
ENDROOT
BRANCH   1   2
ATOM      2  C   UNL     1      33.695  39.125   2.109  1.00  0.00     0.000 C 
BRANCH   2   3
ATOM      3  C   UNL     1      33.423  37.818   2.868  1.00  0.00     0.000 C 
BRANCH   3   4
ATOM      4  C   UNL     1      32.853  36.714   1.964  1.00  0.00     0.006 C 
BRANCH   4   5
ATOM      5  C   UNL     1      33.822  35.538   1.786  1.00  0.00     0.053 C 
BRANCH   5   6
ATOM      6  C   UNL     1      33.067  34.249   1.701  1.00  0.00     0.041 C 
ATOM      7  O   UNL     1      33.656  33.154   1.901  1.00  0.00    -0.550 OA
ATOM      8  O   UNL     1      31.722  34.253   1.352  1.00  0.00    -0.550 OA
ENDBRANCH   5   6
ENDBRANCH   4   5
ENDBRANCH   3   4
ENDBRANCH   2   3
ENDBRANCH   1   2
BRANCH   1   9
ATOM      9  C   UNL     1      34.823  39.125  -0.156  1.00  0.00     0.000 C 
BRANCH   9  10
ATOM     10  C   UNL     1      34.642  39.110  -1.682  1.00  0.00    -0.000 C 
BRANCH  10  11
ATOM     11  C   UNL     1      33.185  38.864  -2.103  1.00  0.00    -0.000 C 
BRANCH  11  12
ATOM     12  C   UNL     1      33.113  37.898  -3.291  1.00  0.00    -0.000 C 
BRANCH  12  13
ATOM     13  C   UNL     1      32.361  36.617  -2.914  1.00  0.00    -0.003 C 
ATOM     14  C   UNL     1      32.928  36.000  -1.639  1.00  0.00     0.004 C 
ENDBRANCH  12  13
ENDBRANCH  11  12
ENDBRANCH  10  11
ENDBRANCH   9  10
ENDBRANCH   1   9
TORSDOF 10
ENDMDL
MODEL 6
REMARK VINA RESULT:    -0.822      2.867      3.746
REMARK INTER + INTRA:          -1.702
REMARK INTER:                  -3.421
REMARK INTRA:                   1.718
REMARK UNBOUND:                -0.400
REMARK SMILES CCCCCCCCCCCC(=O)[O-]
REMARK SMILES IDX 7 1 8 2 9 3 10 4 11 5 12 6 13 7 14 8 6 9 5 10 4 11 3 12 2 13
REMARK SMILES IDX 1 14
REMARK H PARENT
REMARK Flexibility Score: inf
ROOT
ATOM      1  C   UNL     1      33.664  38.404   0.161  1.00  0.00     0.000 C 
ENDROOT
BRANCH   1   2
ATOM      2  C   UNL     1      34.419  38.299   1.492  1.00  0.00     0.000 C 
BRANCH   2   3
ATOM      3  C   UNL     1      33.887  37.130   2.334  1.00  0.00     0.000 C 
BRANCH   3   4
ATOM      4  C   UNL     1      32.397  36.848   2.083  1.00  0.00     0.006 C 
BRANCH   4   5
ATOM      5  C   UNL     1      32.143  35.422   1.579  1.00  0.00     0.053 C 
BRANCH   5   6
ATOM      6  C   UNL     1      33.316  34.544   1.886  1.00  0.00     0.041 C 
ATOM      7  O   UNL     1      33.219  33.294   1.774  1.00  0.00    -0.550 OA
ATOM      8  O   UNL     1      34.501  35.104   2.344  1.00  0.00    -0.550 OA
ENDBRANCH   5   6
ENDBRANCH   4   5
ENDBRANCH   3   4
ENDBRANCH   2   3
ENDBRANCH   1   2
BRANCH   1   9
ATOM      9  C   UNL     1      34.019  37.232  -0.767  1.00  0.00     0.000 C 
BRANCH   9  10
ATOM     10  C   UNL     1      34.200  37.668  -2.230  1.00  0.00    -0.000 C 
BRANCH  10  11
ATOM     11  C   UNL     1      33.667  39.084  -2.495  1.00  0.00    -0.000 C 
BRANCH  11  12
ATOM     12  C   UNL     1      32.817  39.121  -3.771  1.00  0.00    -0.000 C 
BRANCH  12  13
ATOM     13  C   UNL     1      33.602  38.582  -4.972  1.00  0.00    -0.003 C 
ATOM     14  C   UNL     1      35.028  39.124  -4.987  1.00  0.00     0.004 C 
ENDBRANCH  12  13
ENDBRANCH  11  12
ENDBRANCH  10  11
ENDBRANCH   9  10
ENDBRANCH   1   9
TORSDOF 10
ENDMDL
MODEL 7
REMARK VINA RESULT:    -0.327      4.385      7.040
REMARK INTER + INTRA:          -0.918
REMARK INTER:                  -1.862
REMARK INTRA:                   0.945
REMARK UNBOUND:                -0.400
REMARK SMILES CCCCCCCCCCCC(=O)[O-]
REMARK SMILES IDX 7 1 8 2 9 3 10 4 11 5 12 6 13 7 14 8 6 9 5 10 4 11 3 12 2 13
REMARK SMILES IDX 1 14
REMARK H PARENT
REMARK Flexibility Score: inf
ROOT
ATOM      1  C   UNL     1      33.719  38.073  -0.396  1.00  0.00     0.000 C 
ENDROOT
BRANCH   1   2
ATOM      2  C   UNL     1      32.621  39.104  -0.689  1.00  0.00     0.000 C 
BRANCH   2   3
ATOM      3  C   UNL     1      32.272  39.125  -2.184  1.00  0.00     0.000 C 
BRANCH   3   4
ATOM      4  C   UNL     1      33.086  38.106  -2.997  1.00  0.00     0.006 C 
BRANCH   4   5
ATOM      5  C   UNL     1      33.148  36.728  -2.325  1.00  0.00     0.053 C 
BRANCH   5   6
ATOM      6  C   UNL     1      32.222  35.772  -3.010  1.00  0.00     0.041 C 
ATOM      7  O   UNL     1      31.418  36.185  -3.886  1.00  0.00    -0.550 OA
ATOM      8  O   UNL     1      32.213  34.432  -2.644  1.00  0.00    -0.550 OA
ENDBRANCH   5   6
ENDBRANCH   4   5
ENDBRANCH   3   4
ENDBRANCH   2   3
ENDBRANCH   1   2
BRANCH   1   9
ATOM      9  C   UNL     1      34.764  38.643   0.576  1.00  0.00     0.000 C 
BRANCH   9  10
ATOM     10  C   UNL     1      34.227  38.783   2.009  1.00  0.00    -0.000 C 
BRANCH  10  11
ATOM     11  C   UNL     1      34.774  37.703   2.954  1.00  0.00    -0.000 C 
BRANCH  11  12
ATOM     12  C   UNL     1      34.834  36.340   2.255  1.00  0.00    -0.000 C 
BRANCH  12  13
ATOM     13  C   UNL     1      33.512  35.581   2.414  1.00  0.00    -0.003 C 
ATOM     14  C   UNL     1      32.836  35.362   1.064  1.00  0.00     0.004 C 
ENDBRANCH  12  13
ENDBRANCH  11  12
ENDBRANCH  10  11
ENDBRANCH   9  10
ENDBRANCH   1   9
TORSDOF 10
ENDMDL
