MODEL 1
REMARK VINA RESULT:    -4.436      0.000      0.000
REMARK INTER + INTRA:         -10.154
REMARK INTER:                  -8.067
REMARK INTRA:                  -2.088
REMARK UNBOUND:                -2.088
REMARK SMILES CCCCCCCCCCCCCCCC(=O)[O-]
REMARK SMILES IDX 9 1 10 2 11 3 12 4 13 5 14 6 15 7 16 8 17 9 18 10 8 11 7 12
REMARK SMILES IDX 6 13 5 14 4 15 3 16 2 17 1 18
REMARK H PARENT
REMARK Flexibility Score: inf
ROOT
ATOM      1  C   UNL     1       5.510  -3.199  45.945  1.00  0.00     0.000 C 
ENDROOT
BRANCH   1   2
ATOM      2  C   UNL     1       5.194  -1.689  45.905  1.00  0.00     0.000 C 
BRANCH   2   3
ATOM      3  C   UNL     1       5.858  -0.889  47.039  1.00  0.00     0.000 C 
BRANCH   3   4
ATOM      4  C   UNL     1       7.376  -0.733  46.850  1.00  0.00     0.000 C 
BRANCH   4   5
ATOM      5  C   UNL     1       8.183  -1.431  47.958  1.00  0.00     0.000 C 
BRANCH   5   6
ATOM      6  C   UNL     1       8.873  -2.713  47.468  1.00  0.00     0.006 C 
BRANCH   6   7
ATOM      7  C   UNL     1       9.454  -3.503  48.644  1.00  0.00     0.053 C 
BRANCH   7   8
ATOM      8  C   UNL     1       8.898  -4.893  48.668  1.00  0.00     0.041 C 
ATOM      9  O   UNL     1       8.950  -5.577  49.722  1.00  0.00    -0.550 OA
ATOM     10  O   UNL     1       8.368  -5.448  47.511  1.00  0.00    -0.550 OA
ENDBRANCH   7   8
ENDBRANCH   6   7
ENDBRANCH   5   6
ENDBRANCH   4   5
ENDBRANCH   3   4
ENDBRANCH   2   3
ENDBRANCH   1   2
BRANCH   1  11
ATOM     11  C   UNL     1       5.172  -3.825  47.309  1.00  0.00     0.000 C 
BRANCH  11  12
ATOM     12  C   UNL     1       4.495  -5.198  47.177  1.00  0.00    -0.000 C 
BRANCH  12  13
ATOM     13  C   UNL     1       4.221  -5.848  48.545  1.00  0.00    -0.000 C 
BRANCH  13  14
ATOM     14  C   UNL     1       5.508  -6.099  49.349  1.00  0.00    -0.000 C 
BRANCH  14  15
ATOM     15  C   UNL     1       5.423  -5.556  50.787  1.00  0.00    -0.000 C 
BRANCH  15  16
ATOM     16  C   UNL     1       5.016  -4.074  50.834  1.00  0.00    -0.000 C 
BRANCH  16  17
ATOM     17  C   UNL     1       6.195  -3.127  50.566  1.00  0.00    -0.003 C 
ATOM     18  C   UNL     1       5.772  -1.669  50.716  1.00  0.00     0.004 C 
ENDBRANCH  16  17
ENDBRANCH  15  16
ENDBRANCH  14  15
ENDBRANCH  13  14
ENDBRANCH  12  13
ENDBRANCH  11  12
ENDBRANCH   1  11
TORSDOF 14
ENDMDL
MODEL 2
REMARK VINA RESULT:    -3.900     14.023     15.825
REMARK INTER + INTRA:          -9.180
REMARK INTER:                  -7.620
REMARK INTRA:                  -1.560
REMARK UNBOUND:                -2.088
REMARK SMILES CCCCCCCCCCCCCCCC(=O)[O-]
REMARK SMILES IDX 9 1 10 2 11 3 12 4 13 5 14 6 15 7 16 8 17 9 18 10 8 11 7 12
REMARK SMILES IDX 6 13 5 14 4 15 3 16 2 17 1 18
REMARK H PARENT
REMARK Flexibility Score: inf
ROOT
ATOM      1  C   UNL     1       1.064  10.839  46.583  1.00  0.00     0.000 C 
ENDROOT
BRANCH   1   2
ATOM      2  C   UNL     1       1.409   9.386  46.976  1.00  0.00     0.000 C 
BRANCH   2   3
ATOM      3  C   UNL     1       0.406   8.759  47.960  1.00  0.00     0.000 C 
BRANCH   3   4
ATOM      4  C   UNL     1      -0.980   9.424  47.905  1.00  0.00     0.000 C 
BRANCH   4   5
ATOM      5  C   UNL     1      -2.068   8.476  47.374  1.00  0.00     0.000 C 
BRANCH   5   6
ATOM      6  C   UNL     1      -2.549   8.857  45.967  1.00  0.00     0.006 C 
BRANCH   6   7
ATOM      7  C   UNL     1      -2.528   7.641  45.035  1.00  0.00     0.053 C 
BRANCH   7   8
ATOM      8  C   UNL     1      -1.293   7.649  44.189  1.00  0.00     0.041 C 
ATOM      9  O   UNL     1      -0.557   8.669  44.155  1.00  0.00    -0.550 OA
ATOM     10  O   UNL     1      -0.983   6.548  43.401  1.00  0.00    -0.550 OA
ENDBRANCH   7   8
ENDBRANCH   6   7
ENDBRANCH   5   6
ENDBRANCH   4   5
ENDBRANCH   3   4
ENDBRANCH   2   3
ENDBRANCH   1   2
BRANCH   1  11
ATOM     11  C   UNL     1       2.052  11.851  47.188  1.00  0.00     0.000 C 
BRANCH  11  12
ATOM     12  C   UNL     1       2.293  11.617  48.687  1.00  0.00    -0.000 C 
BRANCH  12  13
ATOM     13  C   UNL     1       3.013  12.803  49.355  1.00  0.00    -0.000 C 
BRANCH  13  14
ATOM     14  C   UNL     1       4.499  12.516  49.627  1.00  0.00    -0.000 C 
BRANCH  14  15
ATOM     15  C   UNL     1       5.431  13.217  48.622  1.00  0.00    -0.000 C 
BRANCH  15  16
ATOM     16  C   UNL     1       6.385  12.236  47.921  1.00  0.00    -0.000 C 
BRANCH  16  17
ATOM     17  C   UNL     1       5.772  10.839  47.739  1.00  0.00    -0.003 C 
ATOM     18  C   UNL     1       5.365  10.604  46.288  1.00  0.00     0.004 C 
ENDBRANCH  16  17
ENDBRANCH  15  16
ENDBRANCH  14  15
ENDBRANCH  13  14
ENDBRANCH  12  13
ENDBRANCH  11  12
ENDBRANCH   1  11
TORSDOF 14
ENDMDL
MODEL 3
REMARK VINA RESULT:    -3.877     14.029     16.153
REMARK INTER + INTRA:          -9.138
REMARK INTER:                  -6.906
REMARK INTRA:                  -2.232
REMARK UNBOUND:                -2.088
REMARK SMILES CCCCCCCCCCCCCCCC(=O)[O-]
REMARK SMILES IDX 9 1 10 2 11 3 12 4 13 5 14 6 15 7 16 8 17 9 18 10 8 11 7 12
REMARK SMILES IDX 6 13 5 14 4 15 3 16 2 17 1 18
REMARK H PARENT
REMARK Flexibility Score: inf
ROOT
ATOM      1  C   UNL     1       5.516  13.416  48.387  1.00  0.00     0.000 C 
ENDROOT
BRANCH   1   2
ATOM      2  C   UNL     1       4.230  13.889  47.676  1.00  0.00     0.000 C 
BRANCH   2   3
ATOM      3  C   UNL     1       3.020  12.970  47.914  1.00  0.00     0.000 C 
BRANCH   3   4
ATOM      4  C   UNL     1       2.708  12.069  46.707  1.00  0.00     0.000 C 
BRANCH   4   5
ATOM      5  C   UNL     1       2.666  10.578  47.081  1.00  0.00     0.000 C 
BRANCH   5   6
ATOM      6  C   UNL     1       1.820  10.305  48.333  1.00  0.00     0.006 C 
BRANCH   6   7
ATOM      7  C   UNL     1       0.977   9.038  48.158  1.00  0.00     0.053 C 
BRANCH   7   8
ATOM      8  C   UNL     1      -0.446   9.392  47.861  1.00  0.00     0.041 C 
ATOM      9  O   UNL     1      -1.291   8.487  47.638  1.00  0.00    -0.550 OA
ATOM     10  O   UNL     1      -0.828  10.725  47.781  1.00  0.00    -0.550 OA
ENDBRANCH   7   8
ENDBRANCH   6   7
ENDBRANCH   5   6
ENDBRANCH   4   5
ENDBRANCH   3   4
ENDBRANCH   2   3
ENDBRANCH   1   2
BRANCH   1  11
ATOM     11  C   UNL     1       5.244  12.261  49.366  1.00  0.00     0.000 C 
BRANCH  11  12
ATOM     12  C   UNL     1       5.992  10.974  48.983  1.00  0.00    -0.000 C 
BRANCH  12  13
ATOM     13  C   UNL     1       6.803  11.135  47.685  1.00  0.00    -0.000 C 
BRANCH  13  14
ATOM     14  C   UNL     1       6.362  10.155  46.585  1.00  0.00    -0.000 C 
BRANCH  14  15
ATOM     15  C   UNL     1       6.095  10.854  45.240  1.00  0.00    -0.000 C 
BRANCH  15  16
ATOM     16  C   UNL     1       6.758  12.239  45.155  1.00  0.00    -0.000 C 
BRANCH  16  17
ATOM     17  C   UNL     1       7.920  12.280  44.151  1.00  0.00    -0.003 C 
ATOM     18  C   UNL     1       9.226  11.838  44.805  1.00  0.00     0.004 C 
ENDBRANCH  16  17
ENDBRANCH  15  16
ENDBRANCH  14  15
ENDBRANCH  13  14
ENDBRANCH  12  13
ENDBRANCH  11  12
ENDBRANCH   1  11
TORSDOF 14
ENDMDL
MODEL 4
REMARK VINA RESULT:    -3.849     14.129     16.071
REMARK INTER + INTRA:          -9.087
REMARK INTER:                  -7.305
REMARK INTRA:                  -1.781
REMARK UNBOUND:                -2.088
REMARK SMILES CCCCCCCCCCCCCCCC(=O)[O-]
REMARK SMILES IDX 9 1 10 2 11 3 12 4 13 5 14 6 15 7 16 8 17 9 18 10 8 11 7 12
REMARK SMILES IDX 6 13 5 14 4 15 3 16 2 17 1 18
REMARK H PARENT
REMARK Flexibility Score: inf
ROOT
ATOM      1  C   UNL     1       3.302  12.794  47.240  1.00  0.00     0.000 C 
ENDROOT
BRANCH   1   2
ATOM      2  C   UNL     1       2.194  11.832  46.761  1.00  0.00     0.000 C 
BRANCH   2   3
ATOM      3  C   UNL     1       2.362  10.392  47.276  1.00  0.00     0.000 C 
BRANCH   3   4
ATOM      4  C   UNL     1       1.460  10.078  48.481  1.00  0.00     0.000 C 
BRANCH   4   5
ATOM      5  C   UNL     1       0.712   8.743  48.325  1.00  0.00     0.000 C 
BRANCH   5   6
ATOM      6  C   UNL     1      -0.731   8.928  47.832  1.00  0.00     0.006 C 
BRANCH   6   7
ATOM      7  C   UNL     1      -0.854   8.555  46.351  1.00  0.00     0.053 C 
BRANCH   7   8
ATOM      8  C   UNL     1      -0.959   9.786  45.507  1.00  0.00     0.041 C 
ATOM      9  O   UNL     1      -1.172  10.904  46.043  1.00  0.00    -0.550 OA
ATOM     10  O   UNL     1      -0.870   9.689  44.124  1.00  0.00    -0.550 OA
ENDBRANCH   7   8
ENDBRANCH   6   7
ENDBRANCH   5   6
ENDBRANCH   4   5
ENDBRANCH   3   4
ENDBRANCH   2   3
ENDBRANCH   1   2
BRANCH   1  11
ATOM     11  C   UNL     1       3.086  13.246  48.695  1.00  0.00     0.000 C 
BRANCH  11  12
ATOM     12  C   UNL     1       4.181  12.731  49.642  1.00  0.00    -0.000 C 
BRANCH  12  13
ATOM     13  C   UNL     1       5.486  12.397  48.897  1.00  0.00    -0.000 C 
BRANCH  13  14
ATOM     14  C   UNL     1       5.907  10.928  49.068  1.00  0.00    -0.000 C 
BRANCH  14  15
ATOM     15  C   UNL     1       6.663  10.382  47.844  1.00  0.00    -0.000 C 
BRANCH  15  16
ATOM     16  C   UNL     1       6.809  11.428  46.727  1.00  0.00    -0.000 C 
BRANCH  16  17
ATOM     17  C   UNL     1       6.254  10.940  45.381  1.00  0.00    -0.003 C 
ATOM     18  C   UNL     1       6.980  11.606  44.215  1.00  0.00     0.004 C 
ENDBRANCH  16  17
ENDBRANCH  15  16
ENDBRANCH  14  15
ENDBRANCH  13  14
ENDBRANCH  12  13
ENDBRANCH  11  12
ENDBRANCH   1  11
TORSDOF 14
ENDMDL
MODEL 5
REMARK VINA RESULT:    -3.841     12.326     14.356
REMARK INTER + INTRA:          -9.072
REMARK INTER:                  -7.876
REMARK INTRA:                  -1.196
REMARK UNBOUND:                -2.088
REMARK SMILES CCCCCCCCCCCCCCCC(=O)[O-]
REMARK SMILES IDX 9 1 10 2 11 3 12 4 13 5 14 6 15 7 16 8 17 9 18 10 8 11 7 12
REMARK SMILES IDX 6 13 5 14 4 15 3 16 2 17 1 18
REMARK H PARENT
REMARK Flexibility Score: inf
ROOT
ATOM      1  C   UNL     1       5.057  11.490  49.326  1.00  0.00     0.000 C 
ENDROOT
BRANCH   1   2
ATOM      2  C   UNL     1       6.089  11.702  48.199  1.00  0.00     0.000 C 
BRANCH   2   3
ATOM      3  C   UNL     1       5.511  11.500  46.787  1.00  0.00     0.000 C 
BRANCH   3   4
ATOM      4  C   UNL     1       6.217  10.377  46.008  1.00  0.00     0.000 C 
BRANCH   4   5
ATOM      5  C   UNL     1       7.721  10.299  46.320  1.00  0.00     0.000 C 
BRANCH   5   6
ATOM      6  C   UNL     1       8.148   8.916  46.830  1.00  0.00     0.006 C 
BRANCH   6   7
ATOM      7  C   UNL     1       8.526   7.996  45.664  1.00  0.00     0.053 C 
BRANCH   7   8
ATOM      8  C   UNL     1      10.011   7.829  45.589  1.00  0.00     0.041 C 
ATOM      9  O   UNL     1      10.608   7.089  46.413  1.00  0.00    -0.550 OA
ATOM     10  O   UNL     1      10.742   8.530  44.638  1.00  0.00    -0.550 OA
ENDBRANCH   7   8
ENDBRANCH   6   7
ENDBRANCH   5   6
ENDBRANCH   4   5
ENDBRANCH   3   4
ENDBRANCH   2   3
ENDBRANCH   1   2
BRANCH   1  11
ATOM     11  C   UNL     1       4.304  12.787  49.673  1.00  0.00     0.000 C 
BRANCH  11  12
ATOM     12  C   UNL     1       2.791  12.673  49.433  1.00  0.00    -0.000 C 
BRANCH  12  13
ATOM     13  C   UNL     1       2.366  11.242  49.055  1.00  0.00    -0.000 C 
BRANCH  13  14
ATOM     14  C   UNL     1       1.864  11.137  47.605  1.00  0.00    -0.000 C 
BRANCH  14  15
ATOM     15  C   UNL     1       1.730   9.679  47.130  1.00  0.00    -0.000 C 
BRANCH  15  16
ATOM     16  C   UNL     1       0.838   8.837  48.057  1.00  0.00    -0.000 C 
BRANCH  16  17
ATOM     17  C   UNL     1      -0.644   8.881  47.656  1.00  0.00    -0.003 C 
ATOM     18  C   UNL     1      -0.804   8.815  46.140  1.00  0.00     0.004 C 
ENDBRANCH  16  17
ENDBRANCH  15  16
ENDBRANCH  14  15
ENDBRANCH  13  14
ENDBRANCH  12  13
ENDBRANCH  11  12
ENDBRANCH   1  11
TORSDOF 14
ENDMDL
MODEL 6
REMARK VINA RESULT:    -3.840     11.903     14.285
REMARK INTER + INTRA:          -9.071
REMARK INTER:                  -7.330
REMARK INTRA:                  -1.741
REMARK UNBOUND:                -2.088
REMARK SMILES CCCCCCCCCCCCCCCC(=O)[O-]
REMARK SMILES IDX 9 1 10 2 11 3 12 4 13 5 14 6 15 7 16 8 17 9 18 10 8 11 7 12
REMARK SMILES IDX 6 13 5 14 4 15 3 16 2 17 1 18
REMARK H PARENT
REMARK Flexibility Score: inf
ROOT
ATOM      1  C   UNL     1       5.402  10.752  47.159  1.00  0.00     0.000 C 
ENDROOT
BRANCH   1   2
ATOM      2  C   UNL     1       5.873  11.702  46.037  1.00  0.00     0.000 C 
BRANCH   2   3
ATOM      3  C   UNL     1       6.617  10.986  44.896  1.00  0.00     0.000 C 
BRANCH   3   4
ATOM      4  C   UNL     1       8.125  11.288  44.883  1.00  0.00     0.000 C 
BRANCH   4   5
ATOM      5  C   UNL     1       8.917  10.371  45.829  1.00  0.00     0.000 C 
BRANCH   5   6
ATOM      6  C   UNL     1       8.621   8.883  45.595  1.00  0.00     0.006 C 
BRANCH   6   7
ATOM      7  C   UNL     1       8.230   8.191  46.905  1.00  0.00     0.053 C 
BRANCH   7   8
ATOM      8  C   UNL     1       9.179   7.075  47.212  1.00  0.00     0.041 C 
ATOM      9  O   UNL     1      10.303   7.027  46.650  1.00  0.00    -0.550 OA
ATOM     10  O   UNL     1       8.799   6.060  48.082  1.00  0.00    -0.550 OA
ENDBRANCH   7   8
ENDBRANCH   6   7
ENDBRANCH   5   6
ENDBRANCH   4   5
ENDBRANCH   3   4
ENDBRANCH   2   3
ENDBRANCH   1   2
BRANCH   1  11
ATOM     11  C   UNL     1       6.104  11.045  48.497  1.00  0.00     0.000 C 
BRANCH  11  12
ATOM     12  C   UNL     1       5.111  11.327  49.635  1.00  0.00    -0.000 C 
BRANCH  12  13
ATOM     13  C   UNL     1       4.243  12.568  49.358  1.00  0.00    -0.000 C 
BRANCH  13  14
ATOM     14  C   UNL     1       2.740  12.247  49.334  1.00  0.00    -0.000 C 
BRANCH  14  15
ATOM     15  C   UNL     1       2.454  10.740  49.470  1.00  0.00    -0.000 C 
BRANCH  15  16
ATOM     16  C   UNL     1       1.534  10.212  48.358  1.00  0.00    -0.000 C 
BRANCH  16  17
ATOM     17  C   UNL     1       1.827  10.850  46.992  1.00  0.00    -0.003 C 
ATOM     18  C   UNL     1       0.553  11.405  46.361  1.00  0.00     0.004 C 
ENDBRANCH  16  17
ENDBRANCH  15  16
ENDBRANCH  14  15
ENDBRANCH  13  14
ENDBRANCH  12  13
ENDBRANCH  11  12
ENDBRANCH   1  11
TORSDOF 14
ENDMDL
MODEL 7
REMARK VINA RESULT:    -3.840      5.191      7.377
REMARK INTER + INTRA:          -9.070
REMARK INTER:                  -7.986
REMARK INTRA:                  -1.083
REMARK UNBOUND:                -2.088
REMARK SMILES CCCCCCCCCCCCCCCC(=O)[O-]
REMARK SMILES IDX 9 1 10 2 11 3 12 4 13 5 14 6 15 7 16 8 17 9 18 10 8 11 7 12
REMARK SMILES IDX 6 13 5 14 4 15 3 16 2 17 1 18
REMARK H PARENT
REMARK Flexibility Score: inf
ROOT
ATOM      1  C   UNL     1       6.254  -1.265  51.834  1.00  0.00     0.000 C 
ENDROOT
BRANCH   1   2
ATOM      2  C   UNL     1       7.446  -1.092  52.799  1.00  0.00     0.000 C 
BRANCH   2   3
ATOM      3  C   UNL     1       7.489   0.284  53.486  1.00  0.00     0.000 C 
BRANCH   3   4
ATOM      4  C   UNL     1       8.673   0.432  54.456  1.00  0.00     0.000 C 
BRANCH   4   5
ATOM      5  C   UNL     1       8.592   1.719  55.293  1.00  0.00     0.000 C 
BRANCH   5   6
ATOM      6  C   UNL     1       7.748   2.811  54.620  1.00  0.00     0.006 C 
BRANCH   6   7
ATOM      7  C   UNL     1       8.637   3.783  53.837  1.00  0.00     0.053 C 
BRANCH   7   8
ATOM      8  C   UNL     1       7.806   4.651  52.945  1.00  0.00     0.041 C 
ATOM      9  O   UNL     1       8.181   4.895  51.769  1.00  0.00    -0.550 OA
ATOM     10  O   UNL     1       6.642   5.232  53.431  1.00  0.00    -0.550 OA
ENDBRANCH   7   8
ENDBRANCH   6   7
ENDBRANCH   5   6
ENDBRANCH   4   5
ENDBRANCH   3   4
ENDBRANCH   2   3
ENDBRANCH   1   2
BRANCH   1  11
ATOM     11  C   UNL     1       6.645  -2.044  50.567  1.00  0.00     0.000 C 
BRANCH  11  12
ATOM     12  C   UNL     1       5.423  -2.540  49.779  1.00  0.00    -0.000 C 
BRANCH  12  13
ATOM     13  C   UNL     1       5.609  -2.392  48.258  1.00  0.00    -0.000 C 
BRANCH  13  14
ATOM     14  C   UNL     1       6.040  -0.972  47.850  1.00  0.00    -0.000 C 
BRANCH  14  15
ATOM     15  C   UNL     1       7.397  -0.951  47.124  1.00  0.00    -0.000 C 
BRANCH  15  16
ATOM     16  C   UNL     1       8.053  -2.340  47.062  1.00  0.00    -0.000 C 
BRANCH  16  17
ATOM     17  C   UNL     1       9.297  -2.449  47.957  1.00  0.00    -0.003 C 
ATOM     18  C   UNL     1       9.321  -3.780  48.702  1.00  0.00     0.004 C 
ENDBRANCH  16  17
ENDBRANCH  15  16
ENDBRANCH  14  15
ENDBRANCH  13  14
ENDBRANCH  12  13
ENDBRANCH  11  12
ENDBRANCH   1  11
TORSDOF 14
ENDMDL
MODEL 8
REMARK VINA RESULT:    -3.800     13.969     16.058
REMARK INTER + INTRA:          -8.999
REMARK INTER:                  -6.736
REMARK INTRA:                  -2.263
REMARK UNBOUND:                -2.088
REMARK SMILES CCCCCCCCCCCCCCCC(=O)[O-]
REMARK SMILES IDX 9 1 10 2 11 3 12 4 13 5 14 6 15 7 16 8 17 9 18 10 8 11 7 12
REMARK SMILES IDX 6 13 5 14 4 15 3 16 2 17 1 18
REMARK H PARENT
REMARK Flexibility Score: inf
ROOT
ATOM      1  C   UNL     1       6.550  13.794  48.186  1.00  0.00     0.000 C 
ENDROOT
BRANCH   1   2
ATOM      2  C   UNL     1       5.054  13.422  48.119  1.00  0.00     0.000 C 
BRANCH   2   3
ATOM      3  C   UNL     1       4.561  12.627  49.339  1.00  0.00     0.000 C 
BRANCH   3   4
ATOM      4  C   UNL     1       3.708  11.406  48.953  1.00  0.00     0.000 C 
BRANCH   4   5
ATOM      5  C   UNL     1       3.825  11.055  47.460  1.00  0.00     0.000 C 
BRANCH   5   6
ATOM      6  C   UNL     1       2.566  10.367  46.914  1.00  0.00     0.006 C 
BRANCH   6   7
ATOM      7  C   UNL     1       1.668   9.884  48.057  1.00  0.00     0.053 C 
BRANCH   7   8
ATOM      8  C   UNL     1       0.227   9.956  47.658  1.00  0.00     0.041 C 
ATOM      9  O   UNL     1      -0.320   8.981  47.082  1.00  0.00    -0.550 OA
ATOM     10  O   UNL     1      -0.497  11.121  47.878  1.00  0.00    -0.550 OA
ENDBRANCH   7   8
ENDBRANCH   6   7
ENDBRANCH   5   6
ENDBRANCH   4   5
ENDBRANCH   3   4
ENDBRANCH   2   3
ENDBRANCH   1   2
BRANCH   1  11
ATOM     11  C   UNL     1       7.200  13.834  46.792  1.00  0.00     0.000 C 
BRANCH  11  12
ATOM     12  C   UNL     1       6.203  13.511  45.668  1.00  0.00    -0.000 C 
BRANCH  12  13
ATOM     13  C   UNL     1       6.795  12.549  44.621  1.00  0.00    -0.000 C 
BRANCH  13  14
ATOM     14  C   UNL     1       6.442  11.078  44.902  1.00  0.00    -0.000 C 
BRANCH  14  15
ATOM     15  C   UNL     1       7.609  10.300  45.537  1.00  0.00    -0.000 C 
BRANCH  15  16
ATOM     16  C   UNL     1       7.238   9.691  46.899  1.00  0.00    -0.000 C 
BRANCH  16  17
ATOM     17  C   UNL     1       8.105  10.231  48.046  1.00  0.00    -0.003 C 
ATOM     18  C   UNL     1       7.311  10.304  49.347  1.00  0.00     0.004 C 
ENDBRANCH  16  17
ENDBRANCH  15  16
ENDBRANCH  14  15
ENDBRANCH  13  14
ENDBRANCH  12  13
ENDBRANCH  11  12
ENDBRANCH   1  11
TORSDOF 14
ENDMDL
MODEL 9
REMARK VINA RESULT:    -3.759      8.436     10.277
REMARK INTER + INTRA:          -8.924
REMARK INTER:                  -7.020
REMARK INTRA:                  -1.904
REMARK UNBOUND:                -2.088
REMARK SMILES CCCCCCCCCCCCCCCC(=O)[O-]
REMARK SMILES IDX 9 1 10 2 11 3 12 4 13 5 14 6 15 7 16 8 17 9 18 10 8 11 7 12
REMARK SMILES IDX 6 13 5 14 4 15 3 16 2 17 1 18
REMARK H PARENT
REMARK Flexibility Score: inf
ROOT
ATOM      1  C   UNL     1      10.705   4.023  56.125  1.00  0.00     0.000 C 
ENDROOT
BRANCH   1   2
ATOM      2  C   UNL     1      11.370   5.346  55.687  1.00  0.00     0.000 C 
BRANCH   2   3
ATOM      3  C   UNL     1      10.873   5.866  54.327  1.00  0.00     0.000 C 
BRANCH   3   4
ATOM      4  C   UNL     1      11.825   5.519  53.170  1.00  0.00     0.000 C 
BRANCH   4   5
ATOM      5  C   UNL     1      11.247   4.445  52.233  1.00  0.00     0.000 C 
BRANCH   5   6
ATOM      6  C   UNL     1      10.262   5.024  51.207  1.00  0.00     0.006 C 
BRANCH   6   7
ATOM      7  C   UNL     1      10.992   5.455  49.931  1.00  0.00     0.053 C 
BRANCH   7   8
ATOM      8  C   UNL     1      11.020   4.333  48.940  1.00  0.00     0.041 C 
ATOM      9  O   UNL     1       9.988   4.045  48.281  1.00  0.00    -0.550 OA
ATOM     10  O   UNL     1      12.173   3.576  48.782  1.00  0.00    -0.550 OA
ENDBRANCH   7   8
ENDBRANCH   6   7
ENDBRANCH   5   6
ENDBRANCH   4   5
ENDBRANCH   3   4
ENDBRANCH   2   3
ENDBRANCH   1   2
BRANCH   1  11
ATOM     11  C   UNL     1      11.458   2.793  55.590  1.00  0.00     0.000 C 
BRANCH  11  12
ATOM     12  C   UNL     1      10.509   1.685  55.105  1.00  0.00    -0.000 C 
BRANCH  12  13
ATOM     13  C   UNL     1       9.037   1.992  55.435  1.00  0.00    -0.000 C 
BRANCH  13  14
ATOM     14  C   UNL     1       8.081   1.602  54.295  1.00  0.00    -0.000 C 
BRANCH  14  15
ATOM     15  C   UNL     1       7.128   2.746  53.904  1.00  0.00    -0.000 C 
BRANCH  15  16
ATOM     16  C   UNL     1       7.830   4.113  53.872  1.00  0.00    -0.000 C 
BRANCH  16  17
ATOM     17  C   UNL     1       7.045   5.165  53.076  1.00  0.00    -0.003 C 
ATOM     18  C   UNL     1       5.628   4.684  52.780  1.00  0.00     0.004 C 
ENDBRANCH  16  17
ENDBRANCH  15  16
ENDBRANCH  14  15
ENDBRANCH  13  14
ENDBRANCH  12  13
ENDBRANCH  11  12
ENDBRANCH   1  11
TORSDOF 14
ENDMDL
