MODEL 1
REMARK VINA RESULT:    -3.445      0.000      0.000
REMARK INTER + INTRA:          -9.947
REMARK INTER:                  -8.681
REMARK INTRA:                  -1.266
REMARK UNBOUND:                -1.266
REMARK SMILES CCCCCCCCCCCCCCCCCCCCCCCCCCCC(=O)[O-]
REMARK SMILES IDX 15 1 16 2 17 3 18 4 19 5 20 6 21 7 22 8 23 9 24 10 25 11
REMARK SMILES IDX 26 12 27 13 28 14 29 15 30 16 14 17 13 18 12 19 11 20 10 21
REMARK SMILES IDX 9 22 8 23 7 24 6 25 5 26 4 27 3 28 2 29 1 30
REMARK H PARENT
REMARK Flexibility Score: inf
ROOT
ATOM      1  C   UNL     1       7.526  -4.380  -4.103  1.00  0.00     0.000 C 
ENDROOT
BRANCH   1   2
ATOM      2  C   UNL     1       8.586  -5.480  -3.915  1.00  0.00     0.000 C 
BRANCH   2   3
ATOM      3  C   UNL     1       8.642  -5.990  -2.463  1.00  0.00     0.000 C 
BRANCH   3   4
ATOM      4  C   UNL     1       9.125  -7.445  -2.361  1.00  0.00     0.000 C 
BRANCH   4   5
ATOM      5  C   UNL     1       9.053  -7.994  -0.927  1.00  0.00     0.000 C 
BRANCH   5   6
ATOM      6  C   UNL     1       8.041  -9.148  -0.774  1.00  0.00     0.000 C 
BRANCH   6   7
ATOM      7  C   UNL     1       8.659 -10.539  -0.539  1.00  0.00     0.000 C 
BRANCH   7   8
ATOM      8  C   UNL     1       8.885 -10.854   0.951  1.00  0.00     0.000 C 
BRANCH   8   9
ATOM      9  C   UNL     1       7.569 -10.876   1.748  1.00  0.00     0.000 C 
BRANCH   9  10
ATOM     10  C   UNL     1       7.765 -11.125   3.260  1.00  0.00     0.000 C 
BRANCH  10  11
ATOM     11  C   UNL     1       6.454 -11.092   4.067  1.00  0.00     0.000 C 
BRANCH  11  12
ATOM     12  C   UNL     1       5.505  -9.936   3.708  1.00  0.00     0.006 C 
BRANCH  12  13
ATOM     13  C   UNL     1       4.853  -9.302   4.945  1.00  0.00     0.053 C 
BRANCH  13  14
ATOM     14  C   UNL     1       3.365  -9.238   4.786  1.00  0.00     0.041 C 
ATOM     15  O   UNL     1       2.774 -10.030   4.007  1.00  0.00    -0.550 OA
ATOM     16  O   UNL     1       2.628  -8.303   5.506  1.00  0.00    -0.550 OA
ENDBRANCH  13  14
ENDBRANCH  12  13
ENDBRANCH  11  12
ENDBRANCH  10  11
ENDBRANCH   9  10
ENDBRANCH   8   9
ENDBRANCH   7   8
ENDBRANCH   6   7
ENDBRANCH   5   6
ENDBRANCH   4   5
ENDBRANCH   3   4
ENDBRANCH   2   3
ENDBRANCH   1   2
BRANCH   1  17
ATOM     17  C   UNL     1       7.469  -3.865  -5.552  1.00  0.00     0.000 C 
BRANCH  17  18
ATOM     18  C   UNL     1       8.814  -4.006  -6.284  1.00  0.00     0.000 C 
BRANCH  18  19
ATOM     19  C   UNL     1       8.714  -4.887  -7.542  1.00  0.00     0.000 C 
BRANCH  19  20
ATOM     20  C   UNL     1       9.085  -6.352  -7.264  1.00  0.00     0.000 C 
BRANCH  20  21
ATOM     21  C   UNL     1       8.780  -7.273  -8.459  1.00  0.00     0.000 C 
BRANCH  21  22
ATOM     22  C   UNL     1       7.447  -8.033  -8.285  1.00  0.00    -0.000 C 
BRANCH  22  23
ATOM     23  C   UNL     1       7.411  -9.390  -9.006  1.00  0.00    -0.000 C 
BRANCH  23  24
ATOM     24  C   UNL     1       6.083 -10.136  -8.796  1.00  0.00    -0.000 C 
BRANCH  24  25
ATOM     25  C   UNL     1       5.726 -11.055  -9.974  1.00  0.00    -0.000 C 
BRANCH  25  26
ATOM     26  C   UNL     1       5.958 -10.392 -11.346  1.00  0.00    -0.000 C 
BRANCH  26  27
ATOM     27  C   UNL     1       4.634 -10.134 -12.095  1.00  0.00    -0.000 C 
BRANCH  27  28
ATOM     28  C   UNL     1       3.630  -9.288 -11.291  1.00  0.00    -0.000 C 
BRANCH  28  29
ATOM     29  C   UNL     1       2.169  -9.640 -11.599  1.00  0.00    -0.003 C 
ATOM     30  C   UNL     1       1.310  -8.381 -11.691  1.00  0.00     0.004 C 
ENDBRANCH  28  29
ENDBRANCH  27  28
ENDBRANCH  26  27
ENDBRANCH  25  26
ENDBRANCH  24  25
ENDBRANCH  23  24
ENDBRANCH  22  23
ENDBRANCH  21  22
ENDBRANCH  20  21
ENDBRANCH  19  20
ENDBRANCH  18  19
ENDBRANCH  17  18
ENDBRANCH   1  17
TORSDOF 26
ENDMDL
MODEL 2
REMARK VINA RESULT:    -3.172      6.219     11.720
REMARK INTER + INTRA:          -9.260
REMARK INTER:                  -7.937
REMARK INTRA:                  -1.323
REMARK UNBOUND:                -1.266
REMARK SMILES CCCCCCCCCCCCCCCCCCCCCCCCCCCC(=O)[O-]
REMARK SMILES IDX 15 1 16 2 17 3 18 4 19 5 20 6 21 7 22 8 23 9 24 10 25 11
REMARK SMILES IDX 26 12 27 13 28 14 29 15 30 16 14 17 13 18 12 19 11 20 10 21
REMARK SMILES IDX 9 22 8 23 7 24 6 25 5 26 4 27 3 28 2 29 1 30
REMARK H PARENT
REMARK Flexibility Score: inf
ROOT
ATOM      1  C   UNL     1       2.522  -8.524 -12.095  1.00  0.00     0.000 C 
ENDROOT
BRANCH   1   2
ATOM      2  C   UNL     1       3.035  -8.988 -10.720  1.00  0.00     0.000 C 
BRANCH   2   3
ATOM      3  C   UNL     1       3.836 -10.301 -10.813  1.00  0.00     0.000 C 
BRANCH   3   4
ATOM      4  C   UNL     1       4.187 -10.883  -9.435  1.00  0.00     0.000 C 
BRANCH   4   5
ATOM      5  C   UNL     1       5.702 -10.924  -9.179  1.00  0.00     0.000 C 
BRANCH   5   6
ATOM      6  C   UNL     1       6.473  -9.830  -9.945  1.00  0.00     0.000 C 
BRANCH   6   7
ATOM      7  C   UNL     1       7.500  -9.042  -9.111  1.00  0.00     0.000 C 
BRANCH   7   8
ATOM      8  C   UNL     1       8.613  -8.410  -9.968  1.00  0.00     0.000 C 
BRANCH   8   9
ATOM      9  C   UNL     1       9.034  -7.025  -9.448  1.00  0.00     0.000 C 
BRANCH   9  10
ATOM     10  C   UNL     1       8.004  -6.381  -8.495  1.00  0.00     0.000 C 
BRANCH  10  11
ATOM     11  C   UNL     1       8.568  -6.062  -7.098  1.00  0.00     0.000 C 
BRANCH  11  12
ATOM     12  C   UNL     1       9.086  -7.282  -6.318  1.00  0.00     0.006 C 
BRANCH  12  13
ATOM     13  C   UNL     1       8.361  -7.477  -4.978  1.00  0.00     0.053 C 
BRANCH  13  14
ATOM     14  C   UNL     1       8.328  -8.924  -4.598  1.00  0.00     0.041 C 
ATOM     15  O   UNL     1       8.856  -9.790  -5.344  1.00  0.00    -0.550 OA
ATOM     16  O   UNL     1       7.716  -9.319  -3.412  1.00  0.00    -0.550 OA
ENDBRANCH  13  14
ENDBRANCH  12  13
ENDBRANCH  11  12
ENDBRANCH  10  11
ENDBRANCH   9  10
ENDBRANCH   8   9
ENDBRANCH   7   8
ENDBRANCH   6   7
ENDBRANCH   5   6
ENDBRANCH   4   5
ENDBRANCH   3   4
ENDBRANCH   2   3
ENDBRANCH   1   2
BRANCH   1  17
ATOM     17  C   UNL     1       1.131  -7.873 -12.009  1.00  0.00     0.000 C 
BRANCH  17  18
ATOM     18  C   UNL     1       0.079  -8.803 -11.383  1.00  0.00     0.000 C 
BRANCH  18  19
ATOM     19  C   UNL     1      -1.361  -8.397 -11.745  1.00  0.00     0.000 C 
BRANCH  19  20
ATOM     20  C   UNL     1      -2.400  -9.417 -11.252  1.00  0.00     0.000 C 
BRANCH  20  21
ATOM     21  C   UNL     1      -3.795  -9.172 -11.855  1.00  0.00     0.000 C 
BRANCH  21  22
ATOM     22  C   UNL     1      -4.062  -7.674 -12.118  1.00  0.00    -0.000 C 
BRANCH  22  23
ATOM     23  C   UNL     1      -4.289  -6.852 -10.839  1.00  0.00    -0.000 C 
BRANCH  23  24
ATOM     24  C   UNL     1      -5.748  -6.900 -10.356  1.00  0.00    -0.000 C 
BRANCH  24  25
ATOM     25  C   UNL     1      -6.696  -6.088 -11.250  1.00  0.00    -0.000 C 
BRANCH  25  26
ATOM     26  C   UNL     1      -7.524  -5.053 -10.465  1.00  0.00    -0.000 C 
BRANCH  26  27
ATOM     27  C   UNL     1      -8.067  -3.933 -11.377  1.00  0.00    -0.000 C 
BRANCH  27  28
ATOM     28  C   UNL     1      -9.601  -3.811 -11.349  1.00  0.00    -0.000 C 
BRANCH  28  29
ATOM     29  C   UNL     1     -10.098  -2.744 -10.365  1.00  0.00    -0.003 C 
ATOM     30  C   UNL     1     -10.397  -1.431 -11.085  1.00  0.00     0.004 C 
ENDBRANCH  28  29
ENDBRANCH  27  28
ENDBRANCH  26  27
ENDBRANCH  25  26
ENDBRANCH  24  25
ENDBRANCH  23  24
ENDBRANCH  22  23
ENDBRANCH  21  22
ENDBRANCH  20  21
ENDBRANCH  19  20
ENDBRANCH  18  19
ENDBRANCH  17  18
ENDBRANCH   1  17
TORSDOF 26
ENDMDL
MODEL 3
REMARK VINA RESULT:    -2.881      6.579     11.928
REMARK INTER + INTRA:          -8.526
REMARK INTER:                  -7.520
REMARK INTRA:                  -1.007
REMARK UNBOUND:                -1.266
REMARK SMILES CCCCCCCCCCCCCCCCCCCCCCCCCCCC(=O)[O-]
REMARK SMILES IDX 15 1 16 2 17 3 18 4 19 5 20 6 21 7 22 8 23 9 24 10 25 11
REMARK SMILES IDX 26 12 27 13 28 14 29 15 30 16 14 17 13 18 12 19 11 20 10 21
REMARK SMILES IDX 9 22 8 23 7 24 6 25 5 26 4 27 3 28 2 29 1 30
REMARK H PARENT
REMARK Flexibility Score: inf
ROOT
ATOM      1  C   UNL     1       1.910  -7.984 -11.694  1.00  0.00     0.000 C 
ENDROOT
BRANCH   1   2
ATOM      2  C   UNL     1       2.908  -8.734 -10.794  1.00  0.00     0.000 C 
BRANCH   2   3
ATOM      3  C   UNL     1       3.891  -9.595 -11.610  1.00  0.00     0.000 C 
BRANCH   3   4
ATOM      4  C   UNL     1       4.165 -10.961 -10.962  1.00  0.00     0.000 C 
BRANCH   4   5
ATOM      5  C   UNL     1       4.859 -10.840  -9.596  1.00  0.00     0.000 C 
BRANCH   5   6
ATOM      6  C   UNL     1       6.369 -10.548  -9.710  1.00  0.00     0.000 C 
BRANCH   6   7
ATOM      7  C   UNL     1       6.791  -9.742 -10.953  1.00  0.00     0.000 C 
BRANCH   7   8
ATOM      8  C   UNL     1       7.798  -8.623 -10.631  1.00  0.00     0.000 C 
BRANCH   8   9
ATOM      9  C   UNL     1       8.975  -9.124  -9.777  1.00  0.00     0.000 C 
BRANCH   9  10
ATOM     10  C   UNL     1       9.124  -8.381  -8.431  1.00  0.00     0.000 C 
BRANCH  10  11
ATOM     11  C   UNL     1       8.216  -7.144  -8.303  1.00  0.00     0.000 C 
BRANCH  11  12
ATOM     12  C   UNL     1       8.923  -5.877  -7.792  1.00  0.00     0.006 C 
BRANCH  12  13
ATOM     13  C   UNL     1       7.945  -4.855  -7.196  1.00  0.00     0.053 C 
BRANCH  13  14
ATOM     14  C   UNL     1       7.936  -4.939  -5.701  1.00  0.00     0.041 C 
ATOM     15  O   UNL     1       7.676  -3.920  -5.009  1.00  0.00    -0.550 OA
ATOM     16  O   UNL     1       8.210  -6.147  -5.069  1.00  0.00    -0.550 OA
ENDBRANCH  13  14
ENDBRANCH  12  13
ENDBRANCH  11  12
ENDBRANCH  10  11
ENDBRANCH   9  10
ENDBRANCH   8   9
ENDBRANCH   7   8
ENDBRANCH   6   7
ENDBRANCH   5   6
ENDBRANCH   4   5
ENDBRANCH   3   4
ENDBRANCH   2   3
ENDBRANCH   1   2
BRANCH   1  17
ATOM     17  C   UNL     1       0.535  -7.814 -11.026  1.00  0.00     0.000 C 
BRANCH  17  18
ATOM     18  C   UNL     1      -0.617  -8.337 -11.899  1.00  0.00     0.000 C 
BRANCH  18  19
ATOM     19  C   UNL     1      -1.721  -9.023 -11.074  1.00  0.00     0.000 C 
BRANCH  19  20
ATOM     20  C   UNL     1      -2.491 -10.077 -11.886  1.00  0.00     0.000 C 
BRANCH  20  21
ATOM     21  C   UNL     1      -3.577 -10.782 -11.053  1.00  0.00     0.000 C 
BRANCH  21  22
ATOM     22  C   UNL     1      -4.994 -10.528 -11.608  1.00  0.00    -0.000 C 
BRANCH  22  23
ATOM     23  C   UNL     1      -5.209  -9.096 -12.123  1.00  0.00    -0.000 C 
BRANCH  23  24
ATOM     24  C   UNL     1      -5.608  -8.119 -11.005  1.00  0.00    -0.000 C 
BRANCH  24  25
ATOM     25  C   UNL     1      -6.646  -7.083 -11.463  1.00  0.00    -0.000 C 
BRANCH  25  26
ATOM     26  C   UNL     1      -6.759  -5.881 -10.506  1.00  0.00    -0.000 C 
BRANCH  26  27
ATOM     27  C   UNL     1      -6.507  -4.541 -11.228  1.00  0.00    -0.000 C 
BRANCH  27  28
ATOM     28  C   UNL     1      -7.571  -3.472 -10.921  1.00  0.00    -0.000 C 
BRANCH  28  29
ATOM     29  C   UNL     1      -8.870  -4.064 -10.359  1.00  0.00    -0.003 C 
ATOM     30  C   UNL     1      -9.581  -3.062  -9.454  1.00  0.00     0.004 C 
ENDBRANCH  28  29
ENDBRANCH  27  28
ENDBRANCH  26  27
ENDBRANCH  25  26
ENDBRANCH  24  25
ENDBRANCH  23  24
ENDBRANCH  22  23
ENDBRANCH  21  22
ENDBRANCH  20  21
ENDBRANCH  19  20
ENDBRANCH  18  19
ENDBRANCH  17  18
ENDBRANCH   1  17
TORSDOF 26
ENDMDL
MODEL 4
REMARK VINA RESULT:    -2.446      7.021     12.446
REMARK INTER + INTRA:          -7.431
REMARK INTER:                  -5.746
REMARK INTRA:                  -1.685
REMARK UNBOUND:                -1.266
REMARK SMILES CCCCCCCCCCCCCCCCCCCCCCCCCCCC(=O)[O-]
REMARK SMILES IDX 15 1 16 2 17 3 18 4 19 5 20 6 21 7 22 8 23 9 24 10 25 11
REMARK SMILES IDX 26 12 27 13 28 14 29 15 30 16 14 17 13 18 12 19 11 20 10 21
REMARK SMILES IDX 9 22 8 23 7 24 6 25 5 26 4 27 3 28 2 29 1 30
REMARK H PARENT
REMARK Flexibility Score: inf
ROOT
ATOM      1  C   UNL     1       0.986  -8.203 -10.995  1.00  0.00     0.000 C 
ENDROOT
BRANCH   1   2
ATOM      2  C   UNL     1       2.398  -7.911 -11.533  1.00  0.00     0.000 C 
BRANCH   2   3
ATOM      3  C   UNL     1       3.286  -9.170 -11.547  1.00  0.00     0.000 C 
BRANCH   3   4
ATOM      4  C   UNL     1       3.460  -9.791 -10.152  1.00  0.00     0.000 C 
BRANCH   4   5
ATOM      5  C   UNL     1       4.924  -9.793  -9.684  1.00  0.00     0.000 C 
BRANCH   5   6
ATOM      6  C   UNL     1       5.621  -8.433  -9.881  1.00  0.00     0.000 C 
BRANCH   6   7
ATOM      7  C   UNL     1       7.028  -8.498 -10.505  1.00  0.00     0.000 C 
BRANCH   7   8
ATOM      8  C   UNL     1       7.668  -9.895 -10.403  1.00  0.00     0.000 C 
BRANCH   8   9
ATOM      9  C   UNL     1       9.039  -9.859  -9.708  1.00  0.00     0.000 C 
BRANCH   9  10
ATOM     10  C   UNL     1       9.016  -9.166  -8.328  1.00  0.00     0.000 C 
BRANCH  10  11
ATOM     11  C   UNL     1       8.299  -9.982  -7.237  1.00  0.00     0.000 C 
BRANCH  11  12
ATOM     12  C   UNL     1       8.412  -9.398  -5.818  1.00  0.00     0.006 C 
BRANCH  12  13
ATOM     13  C   UNL     1       8.815  -7.917  -5.820  1.00  0.00     0.053 C 
BRANCH  13  14
ATOM     14  C   UNL     1       8.526  -7.286  -4.493  1.00  0.00     0.041 C 
ATOM     15  O   UNL     1       8.384  -8.001  -3.467  1.00  0.00    -0.550 OA
ATOM     16  O   UNL     1       8.420  -5.903  -4.388  1.00  0.00    -0.550 OA
ENDBRANCH  13  14
ENDBRANCH  12  13
ENDBRANCH  11  12
ENDBRANCH  10  11
ENDBRANCH   9  10
ENDBRANCH   8   9
ENDBRANCH   7   8
ENDBRANCH   6   7
ENDBRANCH   5   6
ENDBRANCH   4   5
ENDBRANCH   3   4
ENDBRANCH   2   3
ENDBRANCH   1   2
BRANCH   1  17
ATOM     17  C   UNL     1      -0.031  -8.441 -12.125  1.00  0.00     0.000 C 
BRANCH  17  18
ATOM     18  C   UNL     1      -1.363  -9.013 -11.613  1.00  0.00     0.000 C 
BRANCH  18  19
ATOM     19  C   UNL     1      -2.212  -7.965 -10.872  1.00  0.00     0.000 C 
BRANCH  19  20
ATOM     20  C   UNL     1      -3.721  -8.219 -11.022  1.00  0.00     0.000 C 
BRANCH  20  21
ATOM     21  C   UNL     1      -4.543  -6.919 -10.972  1.00  0.00     0.000 C 
BRANCH  21  22
ATOM     22  C   UNL     1      -5.585  -6.844 -12.108  1.00  0.00    -0.000 C 
BRANCH  22  23
ATOM     23  C   UNL     1      -6.769  -5.912 -11.801  1.00  0.00    -0.000 C 
BRANCH  23  24
ATOM     24  C   UNL     1      -6.415  -4.427 -11.980  1.00  0.00    -0.000 C 
BRANCH  24  25
ATOM     25  C   UNL     1      -7.473  -3.488 -11.381  1.00  0.00    -0.000 C 
BRANCH  25  26
ATOM     26  C   UNL     1      -8.599  -4.243 -10.647  1.00  0.00    -0.000 C 
BRANCH  26  27
ATOM     27  C   UNL     1      -9.985  -3.953 -11.260  1.00  0.00    -0.000 C 
BRANCH  27  28
ATOM     28  C   UNL     1     -10.097  -2.550 -11.882  1.00  0.00    -0.000 C 
BRANCH  28  29
ATOM     29  C   UNL     1     -10.829  -1.550 -10.977  1.00  0.00    -0.003 C 
ATOM     30  C   UNL     1     -10.996  -0.202 -11.672  1.00  0.00     0.004 C 
ENDBRANCH  28  29
ENDBRANCH  27  28
ENDBRANCH  26  27
ENDBRANCH  25  26
ENDBRANCH  24  25
ENDBRANCH  23  24
ENDBRANCH  22  23
ENDBRANCH  21  22
ENDBRANCH  20  21
ENDBRANCH  19  20
ENDBRANCH  18  19
ENDBRANCH  17  18
ENDBRANCH   1  17
TORSDOF 26
ENDMDL
MODEL 5
REMARK VINA RESULT:    -2.175      5.047      9.880
REMARK INTER + INTRA:          -6.748
REMARK INTER:                  -5.581
REMARK INTRA:                  -1.166
REMARK UNBOUND:                -1.266
REMARK SMILES CCCCCCCCCCCCCCCCCCCCCCCCCCCC(=O)[O-]
REMARK SMILES IDX 15 1 16 2 17 3 18 4 19 5 20 6 21 7 22 8 23 9 24 10 25 11
REMARK SMILES IDX 26 12 27 13 28 14 29 15 30 16 14 17 13 18 12 19 11 20 10 21
REMARK SMILES IDX 9 22 8 23 7 24 6 25 5 26 4 27 3 28 2 29 1 30
REMARK H PARENT
REMARK Flexibility Score: inf
ROOT
ATOM      1  C   UNL     1       7.653  -5.009  -5.766  1.00  0.00     0.000 C 
ENDROOT
BRANCH   1   2
ATOM      2  C   UNL     1       8.464  -4.804  -7.058  1.00  0.00     0.000 C 
BRANCH   2   3
ATOM      3  C   UNL     1       8.078  -5.818  -8.152  1.00  0.00     0.000 C 
BRANCH   3   4
ATOM      4  C   UNL     1       9.010  -7.039  -8.189  1.00  0.00     0.000 C 
BRANCH   4   5
ATOM      5  C   UNL     1       8.384  -8.241  -8.913  1.00  0.00     0.000 C 
BRANCH   5   6
ATOM      6  C   UNL     1       8.269  -8.033 -10.436  1.00  0.00     0.000 C 
BRANCH   6   7
ATOM      7  C   UNL     1       8.310  -9.320 -11.282  1.00  0.00     0.000 C 
BRANCH   7   8
ATOM      8  C   UNL     1       6.990  -9.592 -12.027  1.00  0.00     0.000 C 
BRANCH   8   9
ATOM      9  C   UNL     1       5.971  -8.454 -11.846  1.00  0.00     0.000 C 
BRANCH   9  10
ATOM     10  C   UNL     1       4.835  -8.792 -10.857  1.00  0.00     0.000 C 
BRANCH  10  11
ATOM     11  C   UNL     1       4.123 -10.123 -11.163  1.00  0.00     0.000 C 
BRANCH  11  12
ATOM     12  C   UNL     1       2.738  -9.977 -11.817  1.00  0.00     0.006 C 
BRANCH  12  13
ATOM     13  C   UNL     1       2.382  -8.515 -12.124  1.00  0.00     0.053 C 
BRANCH  13  14
ATOM     14  C   UNL     1       1.304  -8.027 -11.207  1.00  0.00     0.041 C 
ATOM     15  O   UNL     1       0.092  -8.175 -11.515  1.00  0.00    -0.550 OA
ATOM     16  O   UNL     1       1.638  -7.414 -10.004  1.00  0.00    -0.550 OA
ENDBRANCH  13  14
ENDBRANCH  12  13
ENDBRANCH  11  12
ENDBRANCH  10  11
ENDBRANCH   9  10
ENDBRANCH   8   9
ENDBRANCH   7   8
ENDBRANCH   6   7
ENDBRANCH   5   6
ENDBRANCH   4   5
ENDBRANCH   3   4
ENDBRANCH   2   3
ENDBRANCH   1   2
BRANCH   1  17
ATOM     17  C   UNL     1       7.930  -3.912  -4.723  1.00  0.00     0.000 C 
BRANCH  17  18
ATOM     18  C   UNL     1       7.929  -4.450  -3.283  1.00  0.00     0.000 C 
BRANCH  18  19
ATOM     19  C   UNL     1       8.563  -5.848  -3.172  1.00  0.00     0.000 C 
BRANCH  19  20
ATOM     20  C   UNL     1       8.961  -6.199  -1.729  1.00  0.00     0.000 C 
BRANCH  20  21
ATOM     21  C   UNL     1       8.896  -7.712  -1.454  1.00  0.00     0.000 C 
BRANCH  21  22
ATOM     22  C   UNL     1       9.019  -8.546  -2.747  1.00  0.00    -0.000 C 
BRANCH  22  23
ATOM     23  C   UNL     1       9.103 -10.061  -2.500  1.00  0.00    -0.000 C 
BRANCH  23  24
ATOM     24  C   UNL     1       8.397 -10.879  -3.594  1.00  0.00    -0.000 C 
BRANCH  24  25
ATOM     25  C   UNL     1       7.412 -10.038  -4.421  1.00  0.00    -0.000 C 
BRANCH  25  26
ATOM     26  C   UNL     1       8.092  -9.283  -5.579  1.00  0.00    -0.000 C 
BRANCH  26  27
ATOM     27  C   UNL     1       8.802 -10.242  -6.557  1.00  0.00    -0.000 C 
BRANCH  27  28
ATOM     28  C   UNL     1       7.831 -11.110  -7.377  1.00  0.00    -0.000 C 
BRANCH  28  29
ATOM     29  C   UNL     1       6.506 -10.399  -7.683  1.00  0.00    -0.003 C 
ATOM     30  C   UNL     1       5.740 -11.123  -8.787  1.00  0.00     0.004 C 
ENDBRANCH  28  29
ENDBRANCH  27  28
ENDBRANCH  26  27
ENDBRANCH  25  26
ENDBRANCH  24  25
ENDBRANCH  23  24
ENDBRANCH  22  23
ENDBRANCH  21  22
ENDBRANCH  20  21
ENDBRANCH  19  20
ENDBRANCH  18  19
ENDBRANCH  17  18
ENDBRANCH   1  17
TORSDOF 26
ENDMDL
MODEL 6
REMARK VINA RESULT:    -1.899      4.660     12.044
REMARK INTER + INTRA:          -6.052
REMARK INTER:                  -5.729
REMARK INTRA:                  -0.323
REMARK UNBOUND:                -1.266
REMARK SMILES CCCCCCCCCCCCCCCCCCCCCCCCCCCC(=O)[O-]
REMARK SMILES IDX 15 1 16 2 17 3 18 4 19 5 20 6 21 7 22 8 23 9 24 10 25 11
REMARK SMILES IDX 26 12 27 13 28 14 29 15 30 16 14 17 13 18 12 19 11 20 10 21
REMARK SMILES IDX 9 22 8 23 7 24 6 25 5 26 4 27 3 28 2 29 1 30
REMARK H PARENT
REMARK Flexibility Score: inf
ROOT
ATOM      1  C   UNL     1       8.368  -9.481  -5.511  1.00  0.00     0.000 C 
ENDROOT
BRANCH   1   2
ATOM      2  C   UNL     1       7.556 -10.631  -6.133  1.00  0.00     0.000 C 
BRANCH   2   3
ATOM      3  C   UNL     1       7.963 -10.905  -7.593  1.00  0.00     0.000 C 
BRANCH   3   4
ATOM      4  C   UNL     1       9.085  -9.976  -8.083  1.00  0.00     0.000 C 
BRANCH   4   5
ATOM      5  C   UNL     1       8.691  -8.491  -8.027  1.00  0.00     0.000 C 
BRANCH   5   6
ATOM      6  C   UNL     1       8.980  -7.741  -9.343  1.00  0.00     0.000 C 
BRANCH   6   7
ATOM      7  C   UNL     1       8.225  -8.265 -10.579  1.00  0.00     0.000 C 
BRANCH   7   8
ATOM      8  C   UNL     1       6.732  -7.888 -10.577  1.00  0.00     0.000 C 
BRANCH   8   9
ATOM      9  C   UNL     1       5.865  -8.933 -11.301  1.00  0.00     0.000 C 
BRANCH   9  10
ATOM     10  C   UNL     1       5.401 -10.091 -10.390  1.00  0.00     0.000 C 
BRANCH  10  11
ATOM     11  C   UNL     1       3.898 -10.406 -10.506  1.00  0.00     0.000 C 
BRANCH  11  12
ATOM     12  C   UNL     1       3.305 -10.205 -11.912  1.00  0.00     0.006 C 
BRANCH  12  13
ATOM     13  C   UNL     1       1.775 -10.080 -11.894  1.00  0.00     0.053 C 
BRANCH  13  14
ATOM     14  C   UNL     1       1.360  -8.711 -11.451  1.00  0.00     0.041 C 
ATOM     15  O   UNL     1       2.222  -7.808 -11.284  1.00  0.00    -0.550 OA
ATOM     16  O   UNL     1       0.016  -8.428 -11.228  1.00  0.00    -0.550 OA
ENDBRANCH  13  14
ENDBRANCH  12  13
ENDBRANCH  11  12
ENDBRANCH  10  11
ENDBRANCH   9  10
ENDBRANCH   8   9
ENDBRANCH   7   8
ENDBRANCH   6   7
ENDBRANCH   5   6
ENDBRANCH   4   5
ENDBRANCH   3   4
ENDBRANCH   2   3
ENDBRANCH   1   2
BRANCH   1  17
ATOM     17  C   UNL     1       7.467  -8.417  -4.860  1.00  0.00     0.000 C 
BRANCH  17  18
ATOM     18  C   UNL     1       7.455  -8.508  -3.326  1.00  0.00     0.000 C 
BRANCH  18  19
ATOM     19  C   UNL     1       8.320  -9.666  -2.794  1.00  0.00     0.000 C 
BRANCH  19  20
ATOM     20  C   UNL     1       9.063  -9.297  -1.500  1.00  0.00     0.000 C 
BRANCH  20  21
ATOM     21  C   UNL     1       8.879 -10.355  -0.397  1.00  0.00     0.000 C 
BRANCH  21  22
ATOM     22  C   UNL     1       9.124  -9.776   1.013  1.00  0.00    -0.000 C 
BRANCH  22  23
ATOM     23  C   UNL     1       8.819 -10.765   2.150  1.00  0.00    -0.000 C 
BRANCH  23  24
ATOM     24  C   UNL     1       7.327 -11.125   2.236  1.00  0.00    -0.000 C 
BRANCH  24  25
ATOM     25  C   UNL     1       6.429 -10.112   1.510  1.00  0.00    -0.000 C 
BRANCH  25  26
ATOM     26  C   UNL     1       4.940 -10.255   1.881  1.00  0.00    -0.000 C 
BRANCH  26  27
ATOM     27  C   UNL     1       4.742 -10.522   3.387  1.00  0.00    -0.000 C 
BRANCH  27  28
ATOM     28  C   UNL     1       3.416  -9.966   3.938  1.00  0.00    -0.000 C 
BRANCH  28  29
ATOM     29  C   UNL     1       3.617  -8.941   5.062  1.00  0.00    -0.003 C 
ATOM     30  C   UNL     1       2.819  -7.668   4.791  1.00  0.00     0.004 C 
ENDBRANCH  28  29
ENDBRANCH  27  28
ENDBRANCH  26  27
ENDBRANCH  25  26
ENDBRANCH  24  25
ENDBRANCH  23  24
ENDBRANCH  22  23
ENDBRANCH  21  22
ENDBRANCH  20  21
ENDBRANCH  19  20
ENDBRANCH  18  19
ENDBRANCH  17  18
ENDBRANCH   1  17
TORSDOF 26
ENDMDL
MODEL 7
REMARK VINA RESULT:    -1.387     12.239     17.928
REMARK INTER + INTRA:          -4.760
REMARK INTER:                  -3.826
REMARK INTRA:                  -0.934
REMARK UNBOUND:                -1.266
REMARK SMILES CCCCCCCCCCCCCCCCCCCCCCCCCCCC(=O)[O-]
REMARK SMILES IDX 15 1 16 2 17 3 18 4 19 5 20 6 21 7 22 8 23 9 24 10 25 11
REMARK SMILES IDX 26 12 27 13 28 14 29 15 30 16 14 17 13 18 12 19 11 20 10 21
REMARK SMILES IDX 9 22 8 23 7 24 6 25 5 26 4 27 3 28 2 29 1 30
REMARK H PARENT
REMARK Flexibility Score: inf
ROOT
ATOM      1  C   UNL     1      -3.033  -2.675 -11.223  1.00  0.00     0.000 C 
ENDROOT
BRANCH   1   2
ATOM      2  C   UNL     1      -3.183  -1.433 -12.119  1.00  0.00     0.000 C 
BRANCH   2   3
ATOM      3  C   UNL     1      -2.638  -0.160 -11.443  1.00  0.00     0.000 C 
BRANCH   3   4
ATOM      4  C   UNL     1      -3.123   1.130 -12.122  1.00  0.00     0.000 C 
BRANCH   4   5
ATOM      5  C   UNL     1      -4.268   1.809 -11.353  1.00  0.00     0.000 C 
BRANCH   5   6
ATOM      6  C   UNL     1      -4.896   2.986 -12.125  1.00  0.00     0.000 C 
BRANCH   6   7
ATOM      7  C   UNL     1      -5.877   3.856 -11.316  1.00  0.00     0.000 C 
BRANCH   7   8
ATOM      8  C   UNL     1      -5.691   5.364 -11.564  1.00  0.00     0.000 C 
BRANCH   8   9
ATOM      9  C   UNL     1      -7.021   6.075 -11.862  1.00  0.00     0.000 C 
BRANCH   9  10
ATOM     10  C   UNL     1      -6.942   7.613 -11.744  1.00  0.00     0.000 C 
BRANCH  10  11
ATOM     11  C   UNL     1      -7.475   8.159 -10.406  1.00  0.00     0.000 C 
BRANCH  11  12
ATOM     12  C   UNL     1      -9.005   8.106 -10.253  1.00  0.00     0.006 C 
BRANCH  12  13
ATOM     13  C   UNL     1      -9.447   8.000  -8.786  1.00  0.00     0.053 C 
BRANCH  13  14
ATOM     14  C   UNL     1      -9.014   6.695  -8.194  1.00  0.00     0.041 C 
ATOM     15  O   UNL     1      -7.993   6.637  -7.461  1.00  0.00    -0.550 OA
ATOM     16  O   UNL     1      -9.745   5.539  -8.447  1.00  0.00    -0.550 OA
ENDBRANCH  13  14
ENDBRANCH  12  13
ENDBRANCH  11  12
ENDBRANCH  10  11
ENDBRANCH   9  10
ENDBRANCH   8   9
ENDBRANCH   7   8
ENDBRANCH   6   7
ENDBRANCH   5   6
ENDBRANCH   4   5
ENDBRANCH   3   4
ENDBRANCH   2   3
ENDBRANCH   1   2
BRANCH   1  17
ATOM     17  C   UNL     1      -4.203  -2.828 -10.236  1.00  0.00     0.000 C 
BRANCH  17  18
ATOM     18  C   UNL     1      -4.093  -4.099  -9.379  1.00  0.00     0.000 C 
BRANCH  18  19
ATOM     19  C   UNL     1      -5.005  -5.233  -9.880  1.00  0.00     0.000 C 
BRANCH  19  20
ATOM     20  C   UNL     1      -4.740  -5.593 -11.351  1.00  0.00     0.000 C 
BRANCH  20  21
ATOM     21  C   UNL     1      -5.039  -7.072 -11.657  1.00  0.00     0.000 C 
BRANCH  21  22
ATOM     22  C   UNL     1      -4.020  -8.021 -10.991  1.00  0.00    -0.000 C 
BRANCH  22  23
ATOM     23  C   UNL     1      -3.075  -8.712 -11.988  1.00  0.00    -0.000 C 
BRANCH  23  24
ATOM     24  C   UNL     1      -1.726  -7.988 -12.124  1.00  0.00    -0.000 C 
BRANCH  24  25
ATOM     25  C   UNL     1      -0.527  -8.911 -11.859  1.00  0.00    -0.000 C 
BRANCH  25  26
ATOM     26  C   UNL     1       0.770  -8.139 -11.552  1.00  0.00    -0.000 C 
BRANCH  26  27
ATOM     27  C   UNL     1       2.028  -8.941 -11.945  1.00  0.00    -0.000 C 
BRANCH  27  28
ATOM     28  C   UNL     1       2.924  -9.300 -10.746  1.00  0.00    -0.000 C 
BRANCH  28  29
ATOM     29  C   UNL     1       4.406  -8.989 -10.992  1.00  0.00    -0.003 C 
ATOM     30  C   UNL     1       5.160 -10.237 -11.444  1.00  0.00     0.004 C 
ENDBRANCH  28  29
ENDBRANCH  27  28
ENDBRANCH  26  27
ENDBRANCH  25  26
ENDBRANCH  24  25
ENDBRANCH  23  24
ENDBRANCH  22  23
ENDBRANCH  21  22
ENDBRANCH  20  21
ENDBRANCH  19  20
ENDBRANCH  18  19
ENDBRANCH  17  18
ENDBRANCH   1  17
TORSDOF 26
ENDMDL
