MODEL 1
REMARK VINA RESULT:    -4.620      0.000      0.000
REMARK INTER + INTRA:         -16.678
REMARK INTER:                 -12.183
REMARK INTRA:                  -4.495
REMARK UNBOUND:                -4.495
REMARK SMILES CCCCCCCCCCCCCCCCCCCCCCCCCCCCCC(=O)[O-]
REMARK SMILES IDX 16 1 17 2 18 3 19 4 20 5 21 6 22 7 23 8 24 9 25 10 26 11
REMARK SMILES IDX 27 12 28 13 29 14 30 15 31 16 32 17 15 18 14 19 13 20 12 21
REMARK SMILES IDX 11 22 10 23 9 24 8 25 7 26 6 27 5 28 4 29 3 30 2 31 1 32
REMARK H PARENT
REMARK Flexibility Score: inf
ROOT
ATOM      1  C   UNL     1      -0.057  48.026  22.770  1.00  0.00     0.000 C 
ENDROOT
BRANCH   1   2
ATOM      2  C   UNL     1      -0.532  46.600  23.123  1.00  0.00     0.000 C 
BRANCH   2   3
ATOM      3  C   UNL     1      -0.617  46.323  24.637  1.00  0.00     0.000 C 
BRANCH   3   4
ATOM      4  C   UNL     1      -1.001  47.537  25.500  1.00  0.00     0.000 C 
BRANCH   4   5
ATOM      5  C   UNL     1      -2.511  47.817  25.491  1.00  0.00     0.000 C 
BRANCH   5   6
ATOM      6  C   UNL     1      -3.229  46.998  26.573  1.00  0.00     0.000 C 
BRANCH   6   7
ATOM      7  C   UNL     1      -4.593  46.456  26.108  1.00  0.00     0.000 C 
BRANCH   7   8
ATOM      8  C   UNL     1      -4.670  46.085  24.612  1.00  0.00     0.000 C 
BRANCH   8   9
ATOM      9  C   UNL     1      -4.016  44.741  24.233  1.00  0.00     0.000 C 
BRANCH   9  10
ATOM     10  C   UNL     1      -4.970  43.704  23.612  1.00  0.00     0.000 C 
BRANCH  10  11
ATOM     11  C   UNL     1      -6.323  44.310  23.198  1.00  0.00     0.000 C 
BRANCH  11  12
ATOM     12  C   UNL     1      -7.509  43.577  23.847  1.00  0.00     0.000 C 
BRANCH  12  13
ATOM     13  C   UNL     1      -8.214  44.432  24.910  1.00  0.00     0.006 C 
BRANCH  13  14
ATOM     14  C   UNL     1      -7.607  44.192  26.296  1.00  0.00     0.053 C 
BRANCH  14  15
ATOM     15  C   UNL     1      -8.048  45.252  27.257  1.00  0.00     0.041 C 
ATOM     16  O   UNL     1      -7.577  45.282  28.425  1.00  0.00    -0.550 OA
ATOM     17  O   UNL     1      -9.002  46.186  26.874  1.00  0.00    -0.550 OA
ENDBRANCH  14  15
ENDBRANCH  13  14
ENDBRANCH  12  13
ENDBRANCH  11  12
ENDBRANCH  10  11
ENDBRANCH   9  10
ENDBRANCH   8   9
ENDBRANCH   7   8
ENDBRANCH   6   7
ENDBRANCH   5   6
ENDBRANCH   4   5
ENDBRANCH   3   4
ENDBRANCH   2   3
ENDBRANCH   1   2
BRANCH   1  18
ATOM     18  C   UNL     1       1.029  48.036  21.679  1.00  0.00     0.000 C 
BRANCH  18  19
ATOM     19  C   UNL     1       2.119  49.087  21.933  1.00  0.00     0.000 C 
BRANCH  19  20
ATOM     20  C   UNL     1       1.607  50.528  21.786  1.00  0.00     0.000 C 
BRANCH  20  21
ATOM     21  C   UNL     1       2.485  51.504  22.583  1.00  0.00     0.000 C 
BRANCH  21  22
ATOM     22  C   UNL     1       2.070  52.976  22.401  1.00  0.00     0.000 C 
BRANCH  22  23
ATOM     23  C   UNL     1       0.805  53.198  21.551  1.00  0.00     0.000 C 
BRANCH  23  24
ATOM     24  C   UNL     1      -0.377  53.743  22.368  1.00  0.00    -0.000 C 
BRANCH  24  25
ATOM     25  C   UNL     1      -1.608  52.829  22.241  1.00  0.00    -0.000 C 
BRANCH  25  26
ATOM     26  C   UNL     1      -1.587  51.656  23.238  1.00  0.00    -0.000 C 
BRANCH  26  27
ATOM     27  C   UNL     1      -1.082  52.008  24.649  1.00  0.00    -0.000 C 
BRANCH  27  28
ATOM     28  C   UNL     1       0.041  51.078  25.131  1.00  0.00    -0.000 C 
BRANCH  28  29
ATOM     29  C   UNL     1       0.068  51.006  26.665  1.00  0.00    -0.000 C 
BRANCH  29  30
ATOM     30  C   UNL     1       1.152  50.052  27.201  1.00  0.00    -0.000 C 
BRANCH  30  31
ATOM     31  C   UNL     1       2.062  49.442  26.118  1.00  0.00    -0.003 C 
ATOM     32  C   UNL     1       3.262  48.694  26.699  1.00  0.00     0.004 C 
ENDBRANCH  30  31
ENDBRANCH  29  30
ENDBRANCH  28  29
ENDBRANCH  27  28
ENDBRANCH  26  27
ENDBRANCH  25  26
ENDBRANCH  24  25
ENDBRANCH  23  24
ENDBRANCH  22  23
ENDBRANCH  21  22
ENDBRANCH  20  21
ENDBRANCH  19  20
ENDBRANCH  18  19
ENDBRANCH   1  18
TORSDOF 28
ENDMDL
MODEL 2
REMARK VINA RESULT:    -4.534      3.094      9.080
REMARK INTER + INTRA:         -16.450
REMARK INTER:                 -11.863
REMARK INTRA:                  -4.587
REMARK UNBOUND:                -4.495
REMARK SMILES CCCCCCCCCCCCCCCCCCCCCCCCCCCCCC(=O)[O-]
REMARK SMILES IDX 16 1 17 2 18 3 19 4 20 5 21 6 22 7 23 8 24 9 25 10 26 11
REMARK SMILES IDX 27 12 28 13 29 14 30 15 31 16 32 17 15 18 14 19 13 20 12 21
REMARK SMILES IDX 11 22 10 23 9 24 8 25 7 26 6 27 5 28 4 29 3 30 2 31 1 32
REMARK H PARENT
REMARK Flexibility Score: inf
ROOT
ATOM      1  C   UNL     1      -0.678  46.219  24.638  1.00  0.00     0.000 C 
ENDROOT
BRANCH   1   2
ATOM      2  C   UNL     1      -0.635  46.663  23.160  1.00  0.00     0.000 C 
BRANCH   2   3
ATOM      3  C   UNL     1       0.016  48.042  22.937  1.00  0.00     0.000 C 
BRANCH   3   4
ATOM      4  C   UNL     1       1.045  48.101  21.795  1.00  0.00     0.000 C 
BRANCH   4   5
ATOM      5  C   UNL     1       2.108  49.189  22.010  1.00  0.00     0.000 C 
BRANCH   5   6
ATOM      6  C   UNL     1       1.848  50.399  21.100  1.00  0.00     0.000 C 
BRANCH   6   7
ATOM      7  C   UNL     1       1.522  51.682  21.887  1.00  0.00     0.000 C 
BRANCH   7   8
ATOM      8  C   UNL     1       0.047  51.824  22.315  1.00  0.00     0.000 C 
BRANCH   8   9
ATOM      9  C   UNL     1      -0.183  52.037  23.825  1.00  0.00     0.000 C 
BRANCH   9  10
ATOM     10  C   UNL     1       1.094  52.289  24.648  1.00  0.00     0.000 C 
BRANCH  10  11
ATOM     11  C   UNL     1       1.070  51.586  26.017  1.00  0.00     0.000 C 
BRANCH  11  12
ATOM     12  C   UNL     1       0.844  50.071  25.886  1.00  0.00     0.000 C 
BRANCH  12  13
ATOM     13  C   UNL     1       2.154  49.301  25.664  1.00  0.00     0.006 C 
BRANCH  13  14
ATOM     14  C   UNL     1       2.367  48.255  26.763  1.00  0.00     0.053 C 
BRANCH  14  15
ATOM     15  C   UNL     1       2.615  48.918  28.083  1.00  0.00     0.041 C 
ATOM     16  O   UNL     1       3.745  49.411  28.340  1.00  0.00    -0.550 OA
ATOM     17  O   UNL     1       1.609  48.962  29.040  1.00  0.00    -0.550 OA
ENDBRANCH  14  15
ENDBRANCH  13  14
ENDBRANCH  12  13
ENDBRANCH  11  12
ENDBRANCH  10  11
ENDBRANCH   9  10
ENDBRANCH   8   9
ENDBRANCH   7   8
ENDBRANCH   6   7
ENDBRANCH   5   6
ENDBRANCH   4   5
ENDBRANCH   3   4
ENDBRANCH   2   3
ENDBRANCH   1   2
BRANCH   1  18
ATOM     18  C   UNL     1      -2.100  46.263  25.229  1.00  0.00     0.000 C 
BRANCH  18  19
ATOM     19  C   UNL     1      -3.162  45.724  24.260  1.00  0.00     0.000 C 
BRANCH  19  20
ATOM     20  C   UNL     1      -3.161  44.190  24.163  1.00  0.00     0.000 C 
BRANCH  20  21
ATOM     21  C   UNL     1      -4.465  43.682  23.529  1.00  0.00     0.000 C 
BRANCH  21  22
ATOM     22  C   UNL     1      -5.384  42.962  24.533  1.00  0.00     0.000 C 
BRANCH  22  23
ATOM     23  C   UNL     1      -6.888  43.027  24.204  1.00  0.00     0.000 C 
BRANCH  23  24
ATOM     24  C   UNL     1      -7.776  43.023  25.458  1.00  0.00    -0.000 C 
BRANCH  24  25
ATOM     25  C   UNL     1      -8.166  44.453  25.867  1.00  0.00    -0.000 C 
BRANCH  25  26
ATOM     26  C   UNL     1      -7.164  45.090  26.847  1.00  0.00    -0.000 C 
BRANCH  26  27
ATOM     27  C   UNL     1      -6.330  46.246  26.267  1.00  0.00    -0.000 C 
BRANCH  27  28
ATOM     28  C   UNL     1      -6.767  46.646  24.850  1.00  0.00    -0.000 C 
BRANCH  28  29
ATOM     29  C   UNL     1      -6.659  48.166  24.655  1.00  0.00    -0.000 C 
BRANCH  29  30
ATOM     30  C   UNL     1      -5.351  48.590  23.962  1.00  0.00    -0.000 C 
BRANCH  30  31
ATOM     31  C   UNL     1      -4.313  49.243  24.894  1.00  0.00    -0.003 C 
ATOM     32  C   UNL     1      -3.071  49.738  24.153  1.00  0.00     0.004 C 
ENDBRANCH  30  31
ENDBRANCH  29  30
ENDBRANCH  28  29
ENDBRANCH  27  28
ENDBRANCH  26  27
ENDBRANCH  25  26
ENDBRANCH  24  25
ENDBRANCH  23  24
ENDBRANCH  22  23
ENDBRANCH  21  22
ENDBRANCH  20  21
ENDBRANCH  19  20
ENDBRANCH  18  19
ENDBRANCH   1  18
TORSDOF 28
ENDMDL
MODEL 3
REMARK VINA RESULT:    -4.527      1.863      4.364
REMARK INTER + INTRA:         -16.431
REMARK INTER:                 -12.191
REMARK INTRA:                  -4.240
REMARK UNBOUND:                -4.495
REMARK SMILES CCCCCCCCCCCCCCCCCCCCCCCCCCCCCC(=O)[O-]
REMARK SMILES IDX 16 1 17 2 18 3 19 4 20 5 21 6 22 7 23 8 24 9 25 10 26 11
REMARK SMILES IDX 27 12 28 13 29 14 30 15 31 16 32 17 15 18 14 19 13 20 12 21
REMARK SMILES IDX 11 22 10 23 9 24 8 25 7 26 6 27 5 28 4 29 3 30 2 31 1 32
REMARK H PARENT
REMARK Flexibility Score: inf
ROOT
ATOM      1  C   UNL     1      -3.820  48.147  25.817  1.00  0.00     0.000 C 
ENDROOT
BRANCH   1   2
ATOM      2  C   UNL     1      -4.848  47.775  24.727  1.00  0.00     0.000 C 
BRANCH   2   3
ATOM      3  C   UNL     1      -6.021  48.767  24.607  1.00  0.00     0.000 C 
BRANCH   3   4
ATOM      4  C   UNL     1      -7.139  48.342  23.639  1.00  0.00     0.000 C 
BRANCH   4   5
ATOM      5  C   UNL     1      -6.738  47.150  22.757  1.00  0.00     0.000 C 
BRANCH   5   6
ATOM      6  C   UNL     1      -7.922  46.194  22.552  1.00  0.00     0.000 C 
BRANCH   6   7
ATOM      7  C   UNL     1      -7.529  44.712  22.699  1.00  0.00     0.000 C 
BRANCH   7   8
ATOM      8  C   UNL     1      -6.098  44.468  23.222  1.00  0.00     0.000 C 
BRANCH   8   9
ATOM      9  C   UNL     1      -6.008  43.729  24.572  1.00  0.00     0.000 C 
BRANCH   9  10
ATOM     10  C   UNL     1      -7.008  44.204  25.643  1.00  0.00     0.000 C 
BRANCH  10  11
ATOM     11  C   UNL     1      -6.474  45.381  26.477  1.00  0.00     0.000 C 
BRANCH  11  12
ATOM     12  C   UNL     1      -7.598  46.326  26.933  1.00  0.00     0.000 C 
BRANCH  12  13
ATOM     13  C   UNL     1      -8.980  45.870  26.443  1.00  0.00     0.006 C 
BRANCH  13  14
ATOM     14  C   UNL     1      -9.783  47.053  25.893  1.00  0.00     0.053 C 
BRANCH  14  15
ATOM     15  C   UNL     1     -10.874  47.439  26.843  1.00  0.00     0.041 C 
ATOM     16  O   UNL     1     -12.079  47.233  26.539  1.00  0.00    -0.550 OA
ATOM     17  O   UNL     1     -10.563  48.054  28.048  1.00  0.00    -0.550 OA
ENDBRANCH  14  15
ENDBRANCH  13  14
ENDBRANCH  12  13
ENDBRANCH  11  12
ENDBRANCH  10  11
ENDBRANCH   9  10
ENDBRANCH   8   9
ENDBRANCH   7   8
ENDBRANCH   6   7
ENDBRANCH   5   6
ENDBRANCH   4   5
ENDBRANCH   3   4
ENDBRANCH   2   3
ENDBRANCH   1   2
BRANCH   1  18
ATOM     18  C   UNL     1      -2.788  47.031  26.064  1.00  0.00     0.000 C 
BRANCH  18  19
ATOM     19  C   UNL     1      -2.422  46.266  24.784  1.00  0.00     0.000 C 
BRANCH  19  20
ATOM     20  C   UNL     1      -0.906  46.202  24.539  1.00  0.00     0.000 C 
BRANCH  20  21
ATOM     21  C   UNL     1      -0.576  46.523  23.074  1.00  0.00     0.000 C 
BRANCH  21  22
ATOM     22  C   UNL     1       0.128  47.881  22.896  1.00  0.00     0.000 C 
BRANCH  22  23
ATOM     23  C   UNL     1       0.964  48.021  21.611  1.00  0.00     0.000 C 
BRANCH  23  24
ATOM     24  C   UNL     1       2.126  49.016  21.757  1.00  0.00    -0.000 C 
BRANCH  24  25
ATOM     25  C   UNL     1       1.673  50.450  21.438  1.00  0.00    -0.000 C 
BRANCH  25  26
ATOM     26  C   UNL     1       2.057  51.458  22.537  1.00  0.00    -0.000 C 
BRANCH  26  27
ATOM     27  C   UNL     1       1.289  51.302  23.862  1.00  0.00    -0.000 C 
BRANCH  27  28
ATOM     28  C   UNL     1       2.215  51.116  25.073  1.00  0.00    -0.000 C 
BRANCH  28  29
ATOM     29  C   UNL     1       2.545  49.631  25.284  1.00  0.00    -0.000 C 
BRANCH  29  30
ATOM     30  C   UNL     1       1.638  48.959  26.331  1.00  0.00    -0.000 C 
BRANCH  30  31
ATOM     31  C   UNL     1       2.284  48.781  27.719  1.00  0.00    -0.003 C 
ATOM     32  C   UNL     1       3.801  48.967  27.700  1.00  0.00     0.004 C 
ENDBRANCH  30  31
ENDBRANCH  29  30
ENDBRANCH  28  29
ENDBRANCH  27  28
ENDBRANCH  26  27
ENDBRANCH  25  26
ENDBRANCH  24  25
ENDBRANCH  23  24
ENDBRANCH  22  23
ENDBRANCH  21  22
ENDBRANCH  20  21
ENDBRANCH  19  20
ENDBRANCH  18  19
ENDBRANCH   1  18
TORSDOF 28
ENDMDL
MODEL 4
REMARK VINA RESULT:    -4.504      1.566      3.713
REMARK INTER + INTRA:         -16.371
REMARK INTER:                 -11.707
REMARK INTRA:                  -4.663
REMARK UNBOUND:                -4.495
REMARK SMILES CCCCCCCCCCCCCCCCCCCCCCCCCCCCCC(=O)[O-]
REMARK SMILES IDX 16 1 17 2 18 3 19 4 20 5 21 6 22 7 23 8 24 9 25 10 26 11
REMARK SMILES IDX 27 12 28 13 29 14 30 15 31 16 32 17 15 18 14 19 13 20 12 21
REMARK SMILES IDX 11 22 10 23 9 24 8 25 7 26 6 27 5 28 4 29 3 30 2 31 1 32
REMARK H PARENT
REMARK Flexibility Score: inf
ROOT
ATOM      1  C   UNL     1      -2.810  48.116  25.825  1.00  0.00     0.000 C 
ENDROOT
BRANCH   1   2
ATOM      2  C   UNL     1      -3.165  46.614  25.886  1.00  0.00     0.000 C 
BRANCH   2   3
ATOM      3  C   UNL     1      -3.904  46.093  24.638  1.00  0.00     0.000 C 
BRANCH   3   4
ATOM      4  C   UNL     1      -3.428  44.724  24.124  1.00  0.00     0.000 C 
BRANCH   4   5
ATOM      5  C   UNL     1      -4.586  43.741  23.894  1.00  0.00     0.000 C 
BRANCH   5   6
ATOM      6  C   UNL     1      -5.849  44.196  24.639  1.00  0.00     0.000 C 
BRANCH   6   7
ATOM      7  C   UNL     1      -7.148  43.796  23.915  1.00  0.00     0.000 C 
BRANCH   7   8
ATOM      8  C   UNL     1      -7.310  44.382  22.498  1.00  0.00     0.000 C 
BRANCH   8   9
ATOM      9  C   UNL     1      -7.125  45.908  22.391  1.00  0.00     0.000 C 
BRANCH   9  10
ATOM     10  C   UNL     1      -8.081  46.743  23.264  1.00  0.00     0.000 C 
BRANCH  10  11
ATOM     11  C   UNL     1      -7.346  47.563  24.339  1.00  0.00     0.000 C 
BRANCH  11  12
ATOM     12  C   UNL     1      -7.829  47.223  25.759  1.00  0.00     0.000 C 
BRANCH  12  13
ATOM     13  C   UNL     1      -6.788  47.575  26.831  1.00  0.00     0.006 C 
BRANCH  13  14
ATOM     14  C   UNL     1      -6.404  46.338  27.648  1.00  0.00     0.053 C 
BRANCH  14  15
ATOM     15  C   UNL     1      -7.618  45.527  27.980  1.00  0.00     0.041 C 
ATOM     16  O   UNL     1      -7.789  44.398  27.448  1.00  0.00    -0.550 OA
ATOM     17  O   UNL     1      -8.575  46.029  28.853  1.00  0.00    -0.550 OA
ENDBRANCH  14  15
ENDBRANCH  13  14
ENDBRANCH  12  13
ENDBRANCH  11  12
ENDBRANCH  10  11
ENDBRANCH   9  10
ENDBRANCH   8   9
ENDBRANCH   7   8
ENDBRANCH   6   7
ENDBRANCH   5   6
ENDBRANCH   4   5
ENDBRANCH   3   4
ENDBRANCH   2   3
ENDBRANCH   1   2
BRANCH   1  18
ATOM     18  C   UNL     1      -1.416  48.371  25.222  1.00  0.00     0.000 C 
BRANCH  18  19
ATOM     19  C   UNL     1      -0.586  47.088  25.079  1.00  0.00     0.000 C 
BRANCH  19  20
ATOM     20  C   UNL     1      -0.177  46.799  23.625  1.00  0.00     0.000 C 
BRANCH  20  21
ATOM     21  C   UNL     1      -0.044  48.103  22.826  1.00  0.00     0.000 C 
BRANCH  21  22
ATOM     22  C   UNL     1       1.012  48.022  21.708  1.00  0.00     0.000 C 
BRANCH  22  23
ATOM     23  C   UNL     1       2.158  49.046  21.816  1.00  0.00     0.000 C 
BRANCH  23  24
ATOM     24  C   UNL     1       1.773  50.434  21.281  1.00  0.00    -0.000 C 
BRANCH  24  25
ATOM     25  C   UNL     1       1.388  51.384  22.426  1.00  0.00    -0.000 C 
BRANCH  25  26
ATOM     26  C   UNL     1       2.610  51.912  23.202  1.00  0.00    -0.000 C 
BRANCH  26  27
ATOM     27  C   UNL     1       2.553  51.703  24.726  1.00  0.00    -0.000 C 
BRANCH  27  28
ATOM     28  C   UNL     1       1.660  50.522  25.135  1.00  0.00    -0.000 C 
BRANCH  28  29
ATOM     29  C   UNL     1       2.511  49.307  25.534  1.00  0.00    -0.000 C 
BRANCH  29  30
ATOM     30  C   UNL     1       2.108  48.716  26.897  1.00  0.00    -0.000 C 
BRANCH  30  31
ATOM     31  C   UNL     1       1.701  49.760  27.954  1.00  0.00    -0.003 C 
ATOM     32  C   UNL     1       0.225  49.673  28.341  1.00  0.00     0.004 C 
ENDBRANCH  30  31
ENDBRANCH  29  30
ENDBRANCH  28  29
ENDBRANCH  27  28
ENDBRANCH  26  27
ENDBRANCH  25  26
ENDBRANCH  24  25
ENDBRANCH  23  24
ENDBRANCH  22  23
ENDBRANCH  21  22
ENDBRANCH  20  21
ENDBRANCH  19  20
ENDBRANCH  18  19
ENDBRANCH   1  18
TORSDOF 28
ENDMDL
MODEL 5
REMARK VINA RESULT:    -4.462      1.936      3.365
REMARK INTER + INTRA:         -16.260
REMARK INTER:                 -12.604
REMARK INTRA:                  -3.656
REMARK UNBOUND:                -4.495
REMARK SMILES CCCCCCCCCCCCCCCCCCCCCCCCCCCCCC(=O)[O-]
REMARK SMILES IDX 16 1 17 2 18 3 19 4 20 5 21 6 22 7 23 8 24 9 25 10 26 11
REMARK SMILES IDX 27 12 28 13 29 14 30 15 31 16 32 17 15 18 14 19 13 20 12 21
REMARK SMILES IDX 11 22 10 23 9 24 8 25 7 26 6 27 5 28 4 29 3 30 2 31 1 32
REMARK H PARENT
REMARK Flexibility Score: inf
ROOT
ATOM      1  C   UNL     1      -0.892  46.141  24.526  1.00  0.00     0.000 C 
ENDROOT
BRANCH   1   2
ATOM      2  C   UNL     1      -2.355  45.653  24.590  1.00  0.00     0.000 C 
BRANCH   2   3
ATOM      3  C   UNL     1      -3.284  46.563  25.418  1.00  0.00     0.000 C 
BRANCH   3   4
ATOM      4  C   UNL     1      -2.616  47.822  25.996  1.00  0.00     0.000 C 
BRANCH   4   5
ATOM      5  C   UNL     1      -2.846  47.975  27.508  1.00  0.00     0.000 C 
BRANCH   5   6
ATOM      6  C   UNL     1      -3.873  46.953  28.014  1.00  0.00     0.000 C 
BRANCH   6   7
ATOM      7  C   UNL     1      -4.957  47.584  28.907  1.00  0.00     0.000 C 
BRANCH   7   8
ATOM      8  C   UNL     1      -6.397  47.464  28.365  1.00  0.00     0.000 C 
BRANCH   8   9
ATOM      9  C   UNL     1      -7.370  46.668  29.257  1.00  0.00     0.000 C 
BRANCH   9  10
ATOM     10  C   UNL     1      -8.345  45.748  28.499  1.00  0.00     0.000 C 
BRANCH  10  11
ATOM     11  C   UNL     1      -8.973  46.428  27.269  1.00  0.00     0.000 C 
BRANCH  11  12
ATOM     12  C   UNL     1      -8.611  45.706  25.960  1.00  0.00     0.000 C 
BRANCH  12  13
ATOM     13  C   UNL     1      -7.747  44.460  26.199  1.00  0.00     0.006 C 
BRANCH  13  14
ATOM     14  C   UNL     1      -6.456  44.523  25.376  1.00  0.00     0.053 C 
BRANCH  14  15
ATOM     15  C   UNL     1      -6.193  43.212  24.703  1.00  0.00     0.041 C 
ATOM     16  O   UNL     1      -7.124  42.374  24.565  1.00  0.00    -0.550 OA
ATOM     17  O   UNL     1      -4.915  42.900  24.259  1.00  0.00    -0.550 OA
ENDBRANCH  14  15
ENDBRANCH  13  14
ENDBRANCH  12  13
ENDBRANCH  11  12
ENDBRANCH  10  11
ENDBRANCH   9  10
ENDBRANCH   8   9
ENDBRANCH   7   8
ENDBRANCH   6   7
ENDBRANCH   5   6
ENDBRANCH   4   5
ENDBRANCH   3   4
ENDBRANCH   2   3
ENDBRANCH   1   2
BRANCH   1  18
ATOM     18  C   UNL     1      -0.466  46.553  23.104  1.00  0.00     0.000 C 
BRANCH  18  19
ATOM     19  C   UNL     1      -0.068  48.033  23.007  1.00  0.00     0.000 C 
BRANCH  19  20
ATOM     20  C   UNL     1       1.227  48.253  22.210  1.00  0.00     0.000 C 
BRANCH  20  21
ATOM     21  C   UNL     1       1.085  49.448  21.255  1.00  0.00     0.000 C 
BRANCH  21  22
ATOM     22  C   UNL     1       1.965  50.647  21.653  1.00  0.00     0.000 C 
BRANCH  22  23
ATOM     23  C   UNL     1       1.300  52.027  21.493  1.00  0.00     0.000 C 
BRANCH  23  24
ATOM     24  C   UNL     1       2.080  53.153  22.189  1.00  0.00    -0.000 C 
BRANCH  24  25
ATOM     25  C   UNL     1       3.133  52.584  23.155  1.00  0.00    -0.000 C 
BRANCH  25  26
ATOM     26  C   UNL     1       2.667  52.597  24.622  1.00  0.00    -0.000 C 
BRANCH  26  27
ATOM     27  C   UNL     1       2.374  51.211  25.225  1.00  0.00    -0.000 C 
BRANCH  27  28
ATOM     28  C   UNL     1       0.877  50.867  25.234  1.00  0.00    -0.000 C 
BRANCH  28  29
ATOM     29  C   UNL     1       0.596  49.677  26.164  1.00  0.00    -0.000 C 
BRANCH  29  30
ATOM     30  C   UNL     1       1.784  48.703  26.265  1.00  0.00    -0.000 C 
BRANCH  30  31
ATOM     31  C   UNL     1       2.434  48.626  27.660  1.00  0.00    -0.003 C 
ATOM     32  C   UNL     1       3.917  48.995  27.649  1.00  0.00     0.004 C 
ENDBRANCH  30  31
ENDBRANCH  29  30
ENDBRANCH  28  29
ENDBRANCH  27  28
ENDBRANCH  26  27
ENDBRANCH  25  26
ENDBRANCH  24  25
ENDBRANCH  23  24
ENDBRANCH  22  23
ENDBRANCH  21  22
ENDBRANCH  20  21
ENDBRANCH  19  20
ENDBRANCH  18  19
ENDBRANCH   1  18
TORSDOF 28
ENDMDL
MODEL 6
REMARK VINA RESULT:    -4.454      1.594      2.839
REMARK INTER + INTRA:         -16.240
REMARK INTER:                 -12.795
REMARK INTRA:                  -3.445
REMARK UNBOUND:                -4.495
REMARK SMILES CCCCCCCCCCCCCCCCCCCCCCCCCCCCCC(=O)[O-]
REMARK SMILES IDX 16 1 17 2 18 3 19 4 20 5 21 6 22 7 23 8 24 9 25 10 26 11
REMARK SMILES IDX 27 12 28 13 29 14 30 15 31 16 32 17 15 18 14 19 13 20 12 21
REMARK SMILES IDX 11 22 10 23 9 24 8 25 7 26 6 27 5 28 4 29 3 30 2 31 1 32
REMARK H PARENT
REMARK Flexibility Score: inf
ROOT
ATOM      1  C   UNL     1       0.016  48.031  22.874  1.00  0.00     0.000 C 
ENDROOT
BRANCH   1   2
ATOM      2  C   UNL     1      -0.540  46.614  23.135  1.00  0.00     0.000 C 
BRANCH   2   3
ATOM      3  C   UNL     1      -0.664  46.254  24.629  1.00  0.00     0.000 C 
BRANCH   3   4
ATOM      4  C   UNL     1      -2.022  46.590  25.270  1.00  0.00     0.000 C 
BRANCH   4   5
ATOM      5  C   UNL     1      -3.180  45.785  24.663  1.00  0.00     0.000 C 
BRANCH   5   6
ATOM      6  C   UNL     1      -4.535  46.411  25.024  1.00  0.00     0.000 C 
BRANCH   6   7
ATOM      7  C   UNL     1      -5.620  46.147  23.964  1.00  0.00     0.000 C 
BRANCH   7   8
ATOM      8  C   UNL     1      -5.865  44.659  23.641  1.00  0.00     0.000 C 
BRANCH   8   9
ATOM      9  C   UNL     1      -7.210  44.347  22.956  1.00  0.00     0.000 C 
BRANCH   9  10
ATOM     10  C   UNL     1      -8.354  43.960  23.912  1.00  0.00     0.000 C 
BRANCH  10  11
ATOM     11  C   UNL     1      -7.859  43.221  25.167  1.00  0.00     0.000 C 
BRANCH  11  12
ATOM     12  C   UNL     1      -7.888  44.117  26.416  1.00  0.00     0.000 C 
BRANCH  12  13
ATOM     13  C   UNL     1      -8.672  45.416  26.187  1.00  0.00     0.006 C 
BRANCH  13  14
ATOM     14  C   UNL     1      -7.953  46.610  26.824  1.00  0.00     0.053 C 
BRANCH  14  15
ATOM     15  C   UNL     1      -7.844  46.431  28.306  1.00  0.00     0.041 C 
ATOM     16  O   UNL     1      -6.716  46.464  28.866  1.00  0.00    -0.550 OA
ATOM     17  O   UNL     1      -8.983  46.197  29.066  1.00  0.00    -0.550 OA
ENDBRANCH  14  15
ENDBRANCH  13  14
ENDBRANCH  12  13
ENDBRANCH  11  12
ENDBRANCH  10  11
ENDBRANCH   9  10
ENDBRANCH   8   9
ENDBRANCH   7   8
ENDBRANCH   6   7
ENDBRANCH   5   6
ENDBRANCH   4   5
ENDBRANCH   3   4
ENDBRANCH   2   3
ENDBRANCH   1   2
BRANCH   1  18
ATOM     18  C   UNL     1       1.013  48.069  21.702  1.00  0.00     0.000 C 
BRANCH  18  19
ATOM     19  C   UNL     1       2.162  49.061  21.930  1.00  0.00     0.000 C 
BRANCH  19  20
ATOM     20  C   UNL     1       1.832  50.482  21.447  1.00  0.00     0.000 C 
BRANCH  20  21
ATOM     21  C   UNL     1       2.219  51.524  22.506  1.00  0.00     0.000 C 
BRANCH  21  22
ATOM     22  C   UNL     1       1.103  52.548  22.783  1.00  0.00     0.000 C 
BRANCH  22  23
ATOM     23  C   UNL     1       0.270  52.280  24.051  1.00  0.00     0.000 C 
BRANCH  23  24
ATOM     24  C   UNL     1       1.018  51.430  25.090  1.00  0.00    -0.000 C 
BRANCH  24  25
ATOM     25  C   UNL     1       0.109  50.333  25.669  1.00  0.00    -0.000 C 
BRANCH  25  26
ATOM     26  C   UNL     1       0.897  49.207  26.363  1.00  0.00    -0.000 C 
BRANCH  26  27
ATOM     27  C   UNL     1       2.291  48.929  25.774  1.00  0.00    -0.000 C 
BRANCH  27  28
ATOM     28  C   UNL     1       3.396  48.895  26.841  1.00  0.00    -0.000 C 
BRANCH  28  29
ATOM     29  C   UNL     1       2.800  49.056  28.248  1.00  0.00    -0.000 C 
BRANCH  29  30
ATOM     30  C   UNL     1       3.409  50.238  29.024  1.00  0.00    -0.000 C 
BRANCH  30  31
ATOM     31  C   UNL     1       3.167  50.199  30.545  1.00  0.00    -0.003 C 
ATOM     32  C   UNL     1       4.067  51.164  31.318  1.00  0.00     0.004 C 
ENDBRANCH  30  31
ENDBRANCH  29  30
ENDBRANCH  28  29
ENDBRANCH  27  28
ENDBRANCH  26  27
ENDBRANCH  25  26
ENDBRANCH  24  25
ENDBRANCH  23  24
ENDBRANCH  22  23
ENDBRANCH  21  22
ENDBRANCH  20  21
ENDBRANCH  19  20
ENDBRANCH  18  19
ENDBRANCH   1  18
TORSDOF 28
ENDMDL
MODEL 7
REMARK VINA RESULT:    -4.446      3.285      9.729
REMARK INTER + INTRA:         -16.218
REMARK INTER:                 -12.500
REMARK INTRA:                  -3.718
REMARK UNBOUND:                -4.495
REMARK SMILES CCCCCCCCCCCCCCCCCCCCCCCCCCCCCC(=O)[O-]
REMARK SMILES IDX 16 1 17 2 18 3 19 4 20 5 21 6 22 7 23 8 24 9 25 10 26 11
REMARK SMILES IDX 27 12 28 13 29 14 30 15 31 16 32 17 15 18 14 19 13 20 12 21
REMARK SMILES IDX 11 22 10 23 9 24 8 25 7 26 6 27 5 28 4 29 3 30 2 31 1 32
REMARK H PARENT
REMARK Flexibility Score: inf
ROOT
ATOM      1  C   UNL     1       0.282  47.440  22.514  1.00  0.00     0.000 C 
ENDROOT
BRANCH   1   2
ATOM      2  C   UNL     1       1.093  48.192  21.436  1.00  0.00     0.000 C 
BRANCH   2   3
ATOM      3  C   UNL     1       1.948  49.349  21.987  1.00  0.00     0.000 C 
BRANCH   3   4
ATOM      4  C   UNL     1       1.619  50.736  21.411  1.00  0.00     0.000 C 
BRANCH   4   5
ATOM      5  C   UNL     1       0.345  51.344  22.018  1.00  0.00     0.000 C 
BRANCH   5   6
ATOM      6  C   UNL     1       0.361  52.875  21.910  1.00  0.00     0.000 C 
BRANCH   6   7
ATOM      7  C   UNL     1       1.765  53.441  21.625  1.00  0.00     0.000 C 
BRANCH   7   8
ATOM      8  C   UNL     1       2.387  54.250  22.782  1.00  0.00     0.000 C 
BRANCH   8   9
ATOM      9  C   UNL     1       3.573  53.571  23.496  1.00  0.00     0.000 C 
BRANCH   9  10
ATOM     10  C   UNL     1       3.233  52.251  24.212  1.00  0.00     0.000 C 
BRANCH  10  11
ATOM     11  C   UNL     1       2.070  52.395  25.209  1.00  0.00     0.000 C 
BRANCH  11  12
ATOM     12  C   UNL     1       1.531  51.030  25.672  1.00  0.00     0.000 C 
BRANCH  12  13
ATOM     13  C   UNL     1       2.530  49.892  25.424  1.00  0.00     0.006 C 
BRANCH  13  14
ATOM     14  C   UNL     1       2.244  48.702  26.345  1.00  0.00     0.053 C 
BRANCH  14  15
ATOM     15  C   UNL     1       2.712  48.988  27.739  1.00  0.00     0.041 C 
ATOM     16  O   UNL     1       3.940  49.142  27.974  1.00  0.00    -0.550 OA
ATOM     17  O   UNL     1       1.797  49.052  28.781  1.00  0.00    -0.550 OA
ENDBRANCH  14  15
ENDBRANCH  13  14
ENDBRANCH  12  13
ENDBRANCH  11  12
ENDBRANCH  10  11
ENDBRANCH   9  10
ENDBRANCH   8   9
ENDBRANCH   7   8
ENDBRANCH   6   7
ENDBRANCH   5   6
ENDBRANCH   4   5
ENDBRANCH   3   4
ENDBRANCH   2   3
ENDBRANCH   1   2
BRANCH   1  18
ATOM     18  C   UNL     1      -0.321  48.387  23.568  1.00  0.00     0.000 C 
BRANCH  18  19
ATOM     19  C   UNL     1      -0.941  47.636  24.756  1.00  0.00     0.000 C 
BRANCH  19  20
ATOM     20  C   UNL     1      -0.850  46.109  24.612  1.00  0.00     0.000 C 
BRANCH  20  21
ATOM     21  C   UNL     1      -2.246  45.490  24.453  1.00  0.00     0.000 C 
BRANCH  21  22
ATOM     22  C   UNL     1      -3.385  46.495  24.709  1.00  0.00     0.000 C 
BRANCH  22  23
ATOM     23  C   UNL     1      -4.652  45.897  25.349  1.00  0.00     0.000 C 
BRANCH  23  24
ATOM     24  C   UNL     1      -5.703  45.473  24.312  1.00  0.00    -0.000 C 
BRANCH  24  25
ATOM     25  C   UNL     1      -7.125  45.579  24.886  1.00  0.00    -0.000 C 
BRANCH  25  26
ATOM     26  C   UNL     1      -7.337  44.695  26.128  1.00  0.00    -0.000 C 
BRANCH  26  27
ATOM     27  C   UNL     1      -7.954  45.413  27.342  1.00  0.00    -0.000 C 
BRANCH  27  28
ATOM     28  C   UNL     1      -7.595  46.905  27.399  1.00  0.00    -0.000 C 
BRANCH  28  29
ATOM     29  C   UNL     1      -8.864  47.772  27.388  1.00  0.00    -0.000 C 
BRANCH  29  30
ATOM     30  C   UNL     1     -10.135  46.969  27.058  1.00  0.00    -0.000 C 
BRANCH  30  31
ATOM     31  C   UNL     1     -10.989  47.558  25.919  1.00  0.00    -0.003 C 
ATOM     32  C   UNL     1     -12.486  47.312  26.106  1.00  0.00     0.004 C 
ENDBRANCH  30  31
ENDBRANCH  29  30
ENDBRANCH  28  29
ENDBRANCH  27  28
ENDBRANCH  26  27
ENDBRANCH  25  26
ENDBRANCH  24  25
ENDBRANCH  23  24
ENDBRANCH  22  23
ENDBRANCH  21  22
ENDBRANCH  20  21
ENDBRANCH  19  20
ENDBRANCH  18  19
ENDBRANCH   1  18
TORSDOF 28
ENDMDL
MODEL 8
REMARK VINA RESULT:    -4.423      3.439      9.405
REMARK INTER + INTRA:         -16.158
REMARK INTER:                 -11.725
REMARK INTRA:                  -4.433
REMARK UNBOUND:                -4.495
REMARK SMILES CCCCCCCCCCCCCCCCCCCCCCCCCCCCCC(=O)[O-]
REMARK SMILES IDX 16 1 17 2 18 3 19 4 20 5 21 6 22 7 23 8 24 9 25 10 26 11
REMARK SMILES IDX 27 12 28 13 29 14 30 15 31 16 32 17 15 18 14 19 13 20 12 21
REMARK SMILES IDX 11 22 10 23 9 24 8 25 7 26 6 27 5 28 4 29 3 30 2 31 1 32
REMARK H PARENT
REMARK Flexibility Score: inf
ROOT
ATOM      1  C   UNL     1      -3.986  47.538  24.889  1.00  0.00     0.000 C 
ENDROOT
BRANCH   1   2
ATOM      2  C   UNL     1      -2.915  46.906  25.805  1.00  0.00     0.000 C 
BRANCH   2   3
ATOM      3  C   UNL     1      -1.470  47.308  25.449  1.00  0.00     0.000 C 
BRANCH   3   4
ATOM      4  C   UNL     1      -0.671  46.248  24.672  1.00  0.00     0.000 C 
BRANCH   4   5
ATOM      5  C   UNL     1      -0.532  46.586  23.180  1.00  0.00     0.000 C 
BRANCH   5   6
ATOM      6  C   UNL     1       0.018  48.007  22.987  1.00  0.00     0.000 C 
BRANCH   6   7
ATOM      7  C   UNL     1       0.930  48.134  21.753  1.00  0.00     0.000 C 
BRANCH   7   8
ATOM      8  C   UNL     1       1.174  49.579  21.271  1.00  0.00     0.000 C 
BRANCH   8   9
ATOM      9  C   UNL     1       2.176  50.393  22.115  1.00  0.00     0.000 C 
BRANCH   9  10
ATOM     10  C   UNL     1       1.540  51.407  23.083  1.00  0.00     0.000 C 
BRANCH  10  11
ATOM     11  C   UNL     1       2.216  51.417  24.465  1.00  0.00     0.000 C 
BRANCH  11  12
ATOM     12  C   UNL     1       1.568  50.415  25.435  1.00  0.00     0.000 C 
BRANCH  12  13
ATOM     13  C   UNL     1       2.306  49.069  25.465  1.00  0.00     0.006 C 
BRANCH  13  14
ATOM     14  C   UNL     1       2.356  48.503  26.888  1.00  0.00     0.053 C 
BRANCH  14  15
ATOM     15  C   UNL     1       3.406  49.199  27.696  1.00  0.00     0.041 C 
ATOM     16  O   UNL     1       4.626  48.959  27.488  1.00  0.00    -0.550 OA
ATOM     17  O   UNL     1       3.040  50.086  28.700  1.00  0.00    -0.550 OA
ENDBRANCH  14  15
ENDBRANCH  13  14
ENDBRANCH  12  13
ENDBRANCH  11  12
ENDBRANCH  10  11
ENDBRANCH   9  10
ENDBRANCH   8   9
ENDBRANCH   7   8
ENDBRANCH   6   7
ENDBRANCH   5   6
ENDBRANCH   4   5
ENDBRANCH   3   4
ENDBRANCH   2   3
ENDBRANCH   1   2
BRANCH   1  18
ATOM     18  C   UNL     1      -5.009  46.509  24.375  1.00  0.00     0.000 C 
BRANCH  18  19
ATOM     19  C   UNL     1      -4.556  45.058  24.597  1.00  0.00     0.000 C 
BRANCH  19  20
ATOM     20  C   UNL     1      -5.576  44.029  24.086  1.00  0.00     0.000 C 
BRANCH  20  21
ATOM     21  C   UNL     1      -6.330  44.567  22.861  1.00  0.00     0.000 C 
BRANCH  21  22
ATOM     22  C   UNL     1      -7.789  44.080  22.786  1.00  0.00     0.000 C 
BRANCH  22  23
ATOM     23  C   UNL     1      -8.842  45.194  22.641  1.00  0.00     0.000 C 
BRANCH  23  24
ATOM     24  C   UNL     1      -8.477  46.469  23.417  1.00  0.00    -0.000 C 
BRANCH  24  25
ATOM     25  C   UNL     1      -9.535  46.791  24.485  1.00  0.00    -0.000 C 
BRANCH  25  26
ATOM     26  C   UNL     1      -9.032  46.544  25.920  1.00  0.00    -0.000 C 
BRANCH  26  27
ATOM     27  C   UNL     1      -8.469  45.135  26.179  1.00  0.00    -0.000 C 
BRANCH  27  28
ATOM     28  C   UNL     1      -7.359  45.120  27.241  1.00  0.00    -0.000 C 
BRANCH  28  29
ATOM     29  C   UNL     1      -7.294  46.465  27.981  1.00  0.00    -0.000 C 
BRANCH  29  30
ATOM     30  C   UNL     1      -5.853  46.960  28.198  1.00  0.00    -0.000 C 
BRANCH  30  31
ATOM     31  C   UNL     1      -5.645  48.464  27.938  1.00  0.00    -0.003 C 
ATOM     32  C   UNL     1      -6.924  49.178  27.503  1.00  0.00     0.004 C 
ENDBRANCH  30  31
ENDBRANCH  29  30
ENDBRANCH  28  29
ENDBRANCH  27  28
ENDBRANCH  26  27
ENDBRANCH  25  26
ENDBRANCH  24  25
ENDBRANCH  23  24
ENDBRANCH  22  23
ENDBRANCH  21  22
ENDBRANCH  20  21
ENDBRANCH  19  20
ENDBRANCH  18  19
ENDBRANCH   1  18
TORSDOF 28
ENDMDL
MODEL 9
REMARK VINA RESULT:    -4.406      1.839      3.117
REMARK INTER + INTRA:         -16.113
REMARK INTER:                 -12.328
REMARK INTRA:                  -3.785
REMARK UNBOUND:                -4.495
REMARK SMILES CCCCCCCCCCCCCCCCCCCCCCCCCCCCCC(=O)[O-]
REMARK SMILES IDX 16 1 17 2 18 3 19 4 20 5 21 6 22 7 23 8 24 9 25 10 26 11
REMARK SMILES IDX 27 12 28 13 29 14 30 15 31 16 32 17 15 18 14 19 13 20 12 21
REMARK SMILES IDX 11 22 10 23 9 24 8 25 7 26 6 27 5 28 4 29 3 30 2 31 1 32
REMARK H PARENT
REMARK Flexibility Score: inf
ROOT
ATOM      1  C   UNL     1      -0.703  48.531  23.947  1.00  0.00     0.000 C 
ENDROOT
BRANCH   1   2
ATOM      2  C   UNL     1      -0.446  47.069  23.520  1.00  0.00     0.000 C 
BRANCH   2   3
ATOM      3  C   UNL     1      -1.505  46.072  24.029  1.00  0.00     0.000 C 
BRANCH   3   4
ATOM      4  C   UNL     1      -2.791  46.712  24.579  1.00  0.00     0.000 C 
BRANCH   4   5
ATOM      5  C   UNL     1      -3.952  45.711  24.688  1.00  0.00     0.000 C 
BRANCH   5   6
ATOM      6  C   UNL     1      -3.548  44.337  24.136  1.00  0.00     0.000 C 
BRANCH   6   7
ATOM      7  C   UNL     1      -4.756  43.481  23.715  1.00  0.00     0.000 C 
BRANCH   7   8
ATOM      8  C   UNL     1      -6.058  43.768  24.490  1.00  0.00     0.000 C 
BRANCH   8   9
ATOM      9  C   UNL     1      -7.343  43.773  23.638  1.00  0.00     0.000 C 
BRANCH   9  10
ATOM     10  C   UNL     1      -7.225  44.497  22.284  1.00  0.00     0.000 C 
BRANCH  10  11
ATOM     11  C   UNL     1      -7.846  45.905  22.304  1.00  0.00     0.000 C 
BRANCH  11  12
ATOM     12  C   UNL     1      -6.860  46.966  22.821  1.00  0.00     0.000 C 
BRANCH  12  13
ATOM     13  C   UNL     1      -7.351  47.642  24.109  1.00  0.00     0.006 C 
BRANCH  13  14
ATOM     14  C   UNL     1      -8.726  47.105  24.519  1.00  0.00     0.053 C 
BRANCH  14  15
ATOM     15  C   UNL     1      -8.759  46.801  25.985  1.00  0.00     0.041 C 
ATOM     16  O   UNL     1      -8.766  47.738  26.826  1.00  0.00    -0.550 OA
ATOM     17  O   UNL     1      -8.748  45.483  26.423  1.00  0.00    -0.550 OA
ENDBRANCH  14  15
ENDBRANCH  13  14
ENDBRANCH  12  13
ENDBRANCH  11  12
ENDBRANCH  10  11
ENDBRANCH   9  10
ENDBRANCH   8   9
ENDBRANCH   7   8
ENDBRANCH   6   7
ENDBRANCH   5   6
ENDBRANCH   4   5
ENDBRANCH   3   4
ENDBRANCH   2   3
ENDBRANCH   1   2
BRANCH   1  18
ATOM     18  C   UNL     1      -0.038  49.549  23.002  1.00  0.00     0.000 C 
BRANCH  18  19
ATOM     19  C   UNL     1       1.129  48.949  22.205  1.00  0.00     0.000 C 
BRANCH  19  20
ATOM     20  C   UNL     1       2.126  50.009  21.713  1.00  0.00     0.000 C 
BRANCH  20  21
ATOM     21  C   UNL     1       1.404  51.323  21.376  1.00  0.00     0.000 C 
BRANCH  21  22
ATOM     22  C   UNL     1       2.045  52.553  22.045  1.00  0.00     0.000 C 
BRANCH  22  23
ATOM     23  C   UNL     1       2.795  52.266  23.359  1.00  0.00     0.000 C 
BRANCH  23  24
ATOM     24  C   UNL     1       2.122  52.903  24.584  1.00  0.00    -0.000 C 
BRANCH  24  25
ATOM     25  C   UNL     1       1.957  51.882  25.722  1.00  0.00    -0.000 C 
BRANCH  25  26
ATOM     26  C   UNL     1       2.509  50.490  25.361  1.00  0.00    -0.000 C 
BRANCH  26  27
ATOM     27  C   UNL     1       2.071  49.352  26.301  1.00  0.00    -0.000 C 
BRANCH  27  28
ATOM     28  C   UNL     1       3.246  48.487  26.781  1.00  0.00    -0.000 C 
BRANCH  28  29
ATOM     29  C   UNL     1       3.917  49.113  28.012  1.00  0.00    -0.000 C 
BRANCH  29  30
ATOM     30  C   UNL     1       2.904  49.695  29.015  1.00  0.00    -0.000 C 
BRANCH  30  31
ATOM     31  C   UNL     1       3.186  51.148  29.442  1.00  0.00    -0.003 C 
ATOM     32  C   UNL     1       4.175  51.249  30.603  1.00  0.00     0.004 C 
ENDBRANCH  30  31
ENDBRANCH  29  30
ENDBRANCH  28  29
ENDBRANCH  27  28
ENDBRANCH  26  27
ENDBRANCH  25  26
ENDBRANCH  24  25
ENDBRANCH  23  24
ENDBRANCH  22  23
ENDBRANCH  21  22
ENDBRANCH  20  21
ENDBRANCH  19  20
ENDBRANCH  18  19
ENDBRANCH   1  18
TORSDOF 28
ENDMDL
