MODEL 1
REMARK VINA RESULT:    -3.517      0.000      0.000
REMARK INTER + INTRA:          -6.072
REMARK INTER:                  -5.573
REMARK INTRA:                  -0.499
REMARK UNBOUND:                -0.499
REMARK SMILES CCCCCCCCCCCC(=O)[O-]
REMARK SMILES IDX 7 1 8 2 9 3 10 4 11 5 12 6 13 7 14 8 6 9 5 10 4 11 3 12 2 13
REMARK SMILES IDX 1 14
REMARK H PARENT
REMARK Flexibility Score: inf
ROOT
ATOM      1  C   UNL     1       1.514  -3.012   8.781  1.00  0.00     0.000 C 
ENDROOT
BRANCH   1   2
ATOM      2  C   UNL     1       0.294  -3.098   7.849  1.00  0.00     0.000 C 
BRANCH   2   3
ATOM      3  C   UNL     1       0.031  -1.786   7.095  1.00  0.00     0.000 C 
BRANCH   3   4
ATOM      4  C   UNL     1       0.077  -0.585   8.052  1.00  0.00     0.006 C 
BRANCH   4   5
ATOM      5  C   UNL     1       0.955   0.553   7.513  1.00  0.00     0.053 C 
BRANCH   5   6
ATOM      6  C   UNL     1       0.250   1.348   6.456  1.00  0.00     0.041 C 
ATOM      7  O   UNL     1       0.545   1.189   5.243  1.00  0.00    -0.550 OA
ATOM      8  O   UNL     1      -0.707   2.289   6.816  1.00  0.00    -0.550 OA
ENDBRANCH   5   6
ENDBRANCH   4   5
ENDBRANCH   3   4
ENDBRANCH   2   3
ENDBRANCH   1   2
BRANCH   1   9
ATOM      9  C   UNL     1       2.402  -4.264   8.712  1.00  0.00     0.000 C 
BRANCH   9  10
ATOM     10  C   UNL     1       2.022  -5.141   7.510  1.00  0.00    -0.000 C 
BRANCH  10  11
ATOM     11  C   UNL     1       3.185  -6.021   7.027  1.00  0.00    -0.000 C 
BRANCH  11  12
ATOM     12  C   UNL     1       2.756  -7.033   5.954  1.00  0.00    -0.000 C 
BRANCH  12  13
ATOM     13  C   UNL     1       3.542  -6.820   4.654  1.00  0.00    -0.003 C 
ATOM     14  C   UNL     1       5.028  -7.105   4.855  1.00  0.00     0.004 C 
ENDBRANCH  12  13
ENDBRANCH  11  12
ENDBRANCH  10  11
ENDBRANCH   9  10
ENDBRANCH   1   9
TORSDOF 10
ENDMDL
MODEL 2
REMARK VINA RESULT:    -3.502      2.855      4.630
REMARK INTER + INTRA:          -6.048
REMARK INTER:                  -4.744
REMARK INTRA:                  -1.304
REMARK UNBOUND:                -0.499
REMARK SMILES CCCCCCCCCCCC(=O)[O-]
REMARK SMILES IDX 7 1 8 2 9 3 10 4 11 5 12 6 13 7 14 8 6 9 5 10 4 11 3 12 2 13
REMARK SMILES IDX 1 14
REMARK H PARENT
REMARK Flexibility Score: inf
ROOT
ATOM      1  C   UNL     1       0.573  -3.577   7.475  1.00  0.00     0.000 C 
ENDROOT
BRANCH   1   2
ATOM      2  C   UNL     1       1.037  -2.684   8.636  1.00  0.00     0.000 C 
BRANCH   2   3
ATOM      3  C   UNL     1       0.717  -1.199   8.405  1.00  0.00     0.000 C 
BRANCH   3   4
ATOM      4  C   UNL     1       0.149  -0.973   6.995  1.00  0.00     0.006 C 
BRANCH   4   5
ATOM      5  C   UNL     1      -0.982   0.065   6.985  1.00  0.00     0.053 C 
BRANCH   5   6
ATOM      6  C   UNL     1      -0.605   1.292   6.212  1.00  0.00     0.041 C 
ATOM      7  O   UNL     1       0.487   1.336   5.587  1.00  0.00    -0.550 OA
ATOM      8  O   UNL     1      -1.445   2.399   6.211  1.00  0.00    -0.550 OA
ENDBRANCH   5   6
ENDBRANCH   4   5
ENDBRANCH   3   4
ENDBRANCH   2   3
ENDBRANCH   1   2
BRANCH   1   9
ATOM      9  C   UNL     1      -0.277  -4.767   7.946  1.00  0.00     0.000 C 
BRANCH   9  10
ATOM     10  C   UNL     1      -1.731  -4.624   7.470  1.00  0.00    -0.000 C 
BRANCH  10  11
ATOM     11  C   UNL     1      -2.522  -3.588   8.283  1.00  0.00    -0.000 C 
BRANCH  11  12
ATOM     12  C   UNL     1      -3.519  -2.796   7.423  1.00  0.00    -0.000 C 
BRANCH  12  13
ATOM     13  C   UNL     1      -3.102  -2.813   5.947  1.00  0.00    -0.003 C 
ATOM     14  C   UNL     1      -4.281  -3.167   5.045  1.00  0.00     0.004 C 
ENDBRANCH  12  13
ENDBRANCH  11  12
ENDBRANCH  10  11
ENDBRANCH   9  10
ENDBRANCH   1   9
TORSDOF 10
ENDMDL
MODEL 3
REMARK VINA RESULT:    -3.416      2.916      5.024
REMARK INTER + INTRA:          -5.912
REMARK INTER:                  -4.568
REMARK INTRA:                  -1.344
REMARK UNBOUND:                -0.499
REMARK SMILES CCCCCCCCCCCC(=O)[O-]
REMARK SMILES IDX 7 1 8 2 9 3 10 4 11 5 12 6 13 7 14 8 6 9 5 10 4 11 3 12 2 13
REMARK SMILES IDX 1 14
REMARK H PARENT
REMARK Flexibility Score: inf
ROOT
ATOM      1  C   UNL     1       0.351  -3.451   7.487  1.00  0.00     0.000 C 
ENDROOT
BRANCH   1   2
ATOM      2  C   UNL     1       0.771  -2.908   8.862  1.00  0.00     0.000 C 
BRANCH   2   3
ATOM      3  C   UNL     1       0.635  -1.380   8.962  1.00  0.00     0.000 C 
BRANCH   3   4
ATOM      4  C   UNL     1       0.676  -0.734   7.569  1.00  0.00     0.006 C 
BRANCH   4   5
ATOM      5  C   UNL     1       1.014   0.763   7.633  1.00  0.00     0.053 C 
BRANCH   5   6
ATOM      6  C   UNL     1       0.242   1.552   6.620  1.00  0.00     0.041 C 
ATOM      7  O   UNL     1      -0.616   2.393   6.994  1.00  0.00    -0.550 OA
ATOM      8  O   UNL     1       0.447   1.332   5.263  1.00  0.00    -0.550 OA
ENDBRANCH   5   6
ENDBRANCH   4   5
ENDBRANCH   3   4
ENDBRANCH   2   3
ENDBRANCH   1   2
BRANCH   1   9
ATOM      9  C   UNL     1      -0.536  -4.701   7.589  1.00  0.00     0.000 C 
BRANCH   9  10
ATOM     10  C   UNL     1      -2.019  -4.337   7.421  1.00  0.00    -0.000 C 
BRANCH  10  11
ATOM     11  C   UNL     1      -2.233  -3.146   6.474  1.00  0.00    -0.000 C 
BRANCH  11  12
ATOM     12  C   UNL     1      -3.310  -2.175   6.978  1.00  0.00    -0.000 C 
BRANCH  12  13
ATOM     13  C   UNL     1      -2.802  -0.728   6.946  1.00  0.00    -0.003 C 
ATOM     14  C   UNL     1      -2.913  -0.073   8.320  1.00  0.00     0.004 C 
ENDBRANCH  12  13
ENDBRANCH  11  12
ENDBRANCH  10  11
ENDBRANCH   9  10
ENDBRANCH   1   9
TORSDOF 10
ENDMDL
MODEL 4
REMARK VINA RESULT:    -3.413      1.987      3.124
REMARK INTER + INTRA:          -5.908
REMARK INTER:                  -4.825
REMARK INTRA:                  -1.083
REMARK UNBOUND:                -0.499
REMARK SMILES CCCCCCCCCCCC(=O)[O-]
REMARK SMILES IDX 7 1 8 2 9 3 10 4 11 5 12 6 13 7 14 8 6 9 5 10 4 11 3 12 2 13
REMARK SMILES IDX 1 14
REMARK H PARENT
REMARK Flexibility Score: inf
ROOT
ATOM      1  C   UNL     1      -1.463  -1.895   8.353  1.00  0.00     0.000 C 
ENDROOT
BRANCH   1   2
ATOM      2  C   UNL     1      -0.364  -1.046   9.011  1.00  0.00     0.000 C 
BRANCH   2   3
ATOM      3  C   UNL     1       0.814  -0.766   8.065  1.00  0.00     0.000 C 
BRANCH   3   4
ATOM      4  C   UNL     1       1.222   0.714   8.121  1.00  0.00     0.006 C 
BRANCH   4   5
ATOM      5  C   UNL     1       0.024   1.655   7.929  1.00  0.00     0.053 C 
BRANCH   5   6
ATOM      6  C   UNL     1      -0.369   1.768   6.488  1.00  0.00     0.041 C 
ATOM      7  O   UNL     1      -1.520   2.172   6.175  1.00  0.00    -0.550 OA
ATOM      8  O   UNL     1       0.525   1.395   5.491  1.00  0.00    -0.550 OA
ENDBRANCH   5   6
ENDBRANCH   4   5
ENDBRANCH   3   4
ENDBRANCH   2   3
ENDBRANCH   1   2
BRANCH   1   9
ATOM      9  C   UNL     1      -0.983  -2.602   7.076  1.00  0.00     0.000 C 
BRANCH   9  10
ATOM     10  C   UNL     1      -1.243  -4.114   7.156  1.00  0.00    -0.000 C 
BRANCH  10  11
ATOM     11  C   UNL     1      -0.392  -4.805   8.232  1.00  0.00    -0.000 C 
BRANCH  11  12
ATOM     12  C   UNL     1       0.721  -5.679   7.635  1.00  0.00    -0.000 C 
BRANCH  12  13
ATOM     13  C   UNL     1       2.067  -4.944   7.659  1.00  0.00    -0.003 C 
ATOM     14  C   UNL     1       2.180  -4.041   8.885  1.00  0.00     0.004 C 
ENDBRANCH  12  13
ENDBRANCH  11  12
ENDBRANCH  10  11
ENDBRANCH   9  10
ENDBRANCH   1   9
TORSDOF 10
ENDMDL
MODEL 5
REMARK VINA RESULT:    -3.372      4.332      6.845
REMARK INTER + INTRA:          -5.843
REMARK INTER:                  -4.472
REMARK INTRA:                  -1.371
REMARK UNBOUND:                -0.499
REMARK SMILES CCCCCCCCCCCC(=O)[O-]
REMARK SMILES IDX 7 1 8 2 9 3 10 4 11 5 12 6 13 7 14 8 6 9 5 10 4 11 3 12 2 13
REMARK SMILES IDX 1 14
REMARK H PARENT
REMARK Flexibility Score: inf
ROOT
ATOM      1  C   UNL     1       0.374  -1.395   8.368  1.00  0.00     0.000 C 
ENDROOT
BRANCH   1   2
ATOM      2  C   UNL     1       0.065  -2.213   7.104  1.00  0.00     0.000 C 
BRANCH   2   3
ATOM      3  C   UNL     1      -1.379  -2.738   7.076  1.00  0.00     0.000 C 
BRANCH   3   4
ATOM      4  C   UNL     1      -2.377  -1.615   7.400  1.00  0.00     0.006 C 
BRANCH   4   5
ATOM      5  C   UNL     1      -3.326  -1.326   6.229  1.00  0.00     0.053 C 
BRANCH   5   6
ATOM      6  C   UNL     1      -4.052  -2.558   5.783  1.00  0.00     0.041 C 
ATOM      7  O   UNL     1      -4.842  -3.146   6.567  1.00  0.00    -0.550 OA
ATOM      8  O   UNL     1      -3.828  -3.077   4.513  1.00  0.00    -0.550 OA
ENDBRANCH   5   6
ENDBRANCH   4   5
ENDBRANCH   3   4
ENDBRANCH   2   3
ENDBRANCH   1   2
BRANCH   1   9
ATOM      9  C   UNL     1       1.002  -0.029   8.052  1.00  0.00     0.000 C 
BRANCH   9  10
ATOM     10  C   UNL     1       0.940   0.267   6.546  1.00  0.00    -0.000 C 
BRANCH  10  11
ATOM     11  C   UNL     1      -0.069   1.375   6.201  1.00  0.00    -0.000 C 
BRANCH  11  12
ATOM     12  C   UNL     1      -0.455   2.223   7.422  1.00  0.00    -0.000 C 
BRANCH  12  13
ATOM     13  C   UNL     1      -1.980   2.326   7.556  1.00  0.00    -0.003 C 
ATOM     14  C   UNL     1      -2.652   2.375   6.187  1.00  0.00     0.004 C 
ENDBRANCH  12  13
ENDBRANCH  11  12
ENDBRANCH  10  11
ENDBRANCH   9  10
ENDBRANCH   1   9
TORSDOF 10
ENDMDL
MODEL 6
REMARK VINA RESULT:    -3.357      3.342      5.219
REMARK INTER + INTRA:          -5.819
REMARK INTER:                  -4.597
REMARK INTRA:                  -1.222
REMARK UNBOUND:                -0.499
REMARK SMILES CCCCCCCCCCCC(=O)[O-]
REMARK SMILES IDX 7 1 8 2 9 3 10 4 11 5 12 6 13 7 14 8 6 9 5 10 4 11 3 12 2 13
REMARK SMILES IDX 1 14
REMARK H PARENT
REMARK Flexibility Score: inf
ROOT
ATOM      1  C   UNL     1       0.855  -2.502   8.315  1.00  0.00     0.000 C 
ENDROOT
BRANCH   1   2
ATOM      2  C   UNL     1       1.063  -1.280   9.223  1.00  0.00     0.000 C 
BRANCH   2   3
ATOM      3  C   UNL     1       0.153  -0.100   8.847  1.00  0.00     0.000 C 
BRANCH   3   4
ATOM      4  C   UNL     1       0.984   1.127   8.442  1.00  0.00     0.006 C 
BRANCH   4   5
ATOM      5  C   UNL     1       0.124   2.222   7.795  1.00  0.00     0.053 C 
BRANCH   5   6
ATOM      6  C   UNL     1      -0.360   1.819   6.436  1.00  0.00     0.041 C 
ATOM      7  O   UNL     1      -1.573   1.958   6.129  1.00  0.00    -0.550 OA
ATOM      8  O   UNL     1       0.522   1.256   5.520  1.00  0.00    -0.550 OA
ENDBRANCH   5   6
ENDBRANCH   4   5
ENDBRANCH   3   4
ENDBRANCH   2   3
ENDBRANCH   1   2
BRANCH   1   9
ATOM      9  C   UNL     1       0.022  -2.178   7.066  1.00  0.00     0.000 C 
BRANCH   9  10
ATOM     10  C   UNL     1      -0.974  -3.308   6.763  1.00  0.00    -0.000 C 
BRANCH  10  11
ATOM     11  C   UNL     1      -2.431  -2.902   7.036  1.00  0.00    -0.000 C 
BRANCH  11  12
ATOM     12  C   UNL     1      -2.722  -1.445   6.644  1.00  0.00    -0.000 C 
BRANCH  12  13
ATOM     13  C   UNL     1      -3.277  -0.658   7.837  1.00  0.00    -0.003 C 
ATOM     14  C   UNL     1      -3.970  -1.582   8.834  1.00  0.00     0.004 C 
ENDBRANCH  12  13
ENDBRANCH  11  12
ENDBRANCH  10  11
ENDBRANCH   9  10
ENDBRANCH   1   9
TORSDOF 10
ENDMDL
MODEL 7
REMARK VINA RESULT:    -3.339      3.797      4.924
REMARK INTER + INTRA:          -5.790
REMARK INTER:                  -4.243
REMARK INTRA:                  -1.547
REMARK UNBOUND:                -0.499
REMARK SMILES CCCCCCCCCCCC(=O)[O-]
REMARK SMILES IDX 7 1 8 2 9 3 10 4 11 5 12 6 13 7 14 8 6 9 5 10 4 11 3 12 2 13
REMARK SMILES IDX 1 14
REMARK H PARENT
REMARK Flexibility Score: inf
ROOT
ATOM      1  C   UNL     1       1.212   0.682   8.176  1.00  0.00     0.000 C 
ENDROOT
BRANCH   1   2
ATOM      2  C   UNL     1       1.127   0.321   6.685  1.00  0.00     0.000 C 
BRANCH   2   3
ATOM      3  C   UNL     1       0.038   1.112   5.944  1.00  0.00     0.000 C 
BRANCH   3   4
ATOM      4  C   UNL     1      -0.927   1.779   6.938  1.00  0.00     0.006 C 
BRANCH   4   5
ATOM      5  C   UNL     1      -2.383   1.349   6.709  1.00  0.00     0.053 C 
BRANCH   5   6
ATOM      6  C   UNL     1      -3.157   2.387   5.955  1.00  0.00     0.041 C 
ATOM      7  O   UNL     1      -2.803   3.595   5.995  1.00  0.00    -0.550 OA
ATOM      8  O   UNL     1      -4.292   2.025   5.238  1.00  0.00    -0.550 OA
ENDBRANCH   5   6
ENDBRANCH   4   5
ENDBRANCH   3   4
ENDBRANCH   2   3
ENDBRANCH   1   2
BRANCH   1   9
ATOM      9  C   UNL     1       1.110  -0.547   9.091  1.00  0.00     0.000 C 
BRANCH   9  10
ATOM     10  C   UNL     1      -0.289  -0.651   9.717  1.00  0.00    -0.000 C 
BRANCH  10  11
ATOM     11  C   UNL     1      -1.139  -1.765   9.085  1.00  0.00    -0.000 C 
BRANCH  11  12
ATOM     12  C   UNL     1      -0.291  -2.806   8.339  1.00  0.00    -0.000 C 
BRANCH  12  13
ATOM     13  C   UNL     1      -0.761  -2.955   6.887  1.00  0.00    -0.003 C 
ATOM     14  C   UNL     1      -2.176  -2.411   6.706  1.00  0.00     0.004 C 
ENDBRANCH  12  13
ENDBRANCH  11  12
ENDBRANCH  10  11
ENDBRANCH   9  10
ENDBRANCH   1   9
TORSDOF 10
ENDMDL
MODEL 8
REMARK VINA RESULT:    -3.250      3.791      5.429
REMARK INTER + INTRA:          -5.648
REMARK INTER:                  -4.518
REMARK INTRA:                  -1.130
REMARK UNBOUND:                -0.499
REMARK SMILES CCCCCCCCCCCC(=O)[O-]
REMARK SMILES IDX 7 1 8 2 9 3 10 4 11 5 12 6 13 7 14 8 6 9 5 10 4 11 3 12 2 13
REMARK SMILES IDX 1 14
REMARK H PARENT
REMARK Flexibility Score: inf
ROOT
ATOM      1  C   UNL     1       0.161  -1.248   8.362  1.00  0.00     0.000 C 
ENDROOT
BRANCH   1   2
ATOM      2  C   UNL     1       0.967  -0.002   7.963  1.00  0.00     0.000 C 
BRANCH   2   3
ATOM      3  C   UNL     1       0.992   0.226   6.443  1.00  0.00     0.000 C 
BRANCH   3   4
ATOM      4  C   UNL     1      -0.071   1.254   6.026  1.00  0.00     0.006 C 
BRANCH   4   5
ATOM      5  C   UNL     1      -0.453   2.195   7.178  1.00  0.00     0.053 C 
BRANCH   5   6
ATOM      6  C   UNL     1      -1.911   2.536   7.159  1.00  0.00     0.041 C 
ATOM      7  O   UNL     1      -2.658   2.176   8.106  1.00  0.00    -0.550 OA
ATOM      8  O   UNL     1      -2.452   3.221   6.077  1.00  0.00    -0.550 OA
ENDBRANCH   5   6
ENDBRANCH   4   5
ENDBRANCH   3   4
ENDBRANCH   2   3
ENDBRANCH   1   2
BRANCH   1   9
ATOM      9  C   UNL     1       0.009  -2.251   7.208  1.00  0.00     0.000 C 
BRANCH   9  10
ATOM     10  C   UNL     1      -1.467  -2.622   6.995  1.00  0.00    -0.000 C 
BRANCH  10  11
ATOM     11  C   UNL     1      -2.428  -1.514   7.452  1.00  0.00    -0.000 C 
BRANCH  11  12
ATOM     12  C   UNL     1      -3.493  -1.182   6.396  1.00  0.00    -0.000 C 
BRANCH  12  13
ATOM     13  C   UNL     1      -4.382  -2.399   6.114  1.00  0.00    -0.003 C 
ATOM     14  C   UNL     1      -4.418  -2.723   4.622  1.00  0.00     0.004 C 
ENDBRANCH  12  13
ENDBRANCH  11  12
ENDBRANCH  10  11
ENDBRANCH   9  10
ENDBRANCH   1   9
TORSDOF 10
ENDMDL
MODEL 9
REMARK VINA RESULT:    -3.203      2.051      3.615
REMARK INTER + INTRA:          -5.574
REMARK INTER:                  -4.623
REMARK INTRA:                  -0.951
REMARK UNBOUND:                -0.499
REMARK SMILES CCCCCCCCCCCC(=O)[O-]
REMARK SMILES IDX 7 1 8 2 9 3 10 4 11 5 12 6 13 7 14 8 6 9 5 10 4 11 3 12 2 13
REMARK SMILES IDX 1 14
REMARK H PARENT
REMARK Flexibility Score: inf
ROOT
ATOM      1  C   UNL     1       1.027   0.047   8.014  1.00  0.00     0.000 C 
ENDROOT
BRANCH   1   2
ATOM      2  C   UNL     1       1.022   0.382   6.515  1.00  0.00     0.000 C 
BRANCH   2   3
ATOM      3  C   UNL     1       0.069   1.537   6.169  1.00  0.00     0.000 C 
BRANCH   3   4
ATOM      4  C   UNL     1      -0.359   2.293   7.436  1.00  0.00     0.006 C 
BRANCH   4   5
ATOM      5  C   UNL     1      -1.883   2.453   7.529  1.00  0.00     0.053 C 
BRANCH   5   6
ATOM      6  C   UNL     1      -2.578   1.130   7.624  1.00  0.00     0.041 C 
ATOM      7  O   UNL     1      -3.303   0.726   6.677  1.00  0.00    -0.550 OA
ATOM      8  O   UNL     1      -2.451   0.358   8.773  1.00  0.00    -0.550 OA
ENDBRANCH   5   6
ENDBRANCH   4   5
ENDBRANCH   3   4
ENDBRANCH   2   3
ENDBRANCH   1   2
BRANCH   1   9
ATOM      9  C   UNL     1       0.624  -1.408   8.299  1.00  0.00     0.000 C 
BRANCH   9  10
ATOM     10  C   UNL     1      -0.270  -1.959   7.177  1.00  0.00    -0.000 C 
BRANCH  10  11
ATOM     11  C   UNL     1      -0.232  -3.492   7.088  1.00  0.00    -0.000 C 
BRANCH  11  12
ATOM     12  C   UNL     1       0.895  -4.107   7.932  1.00  0.00    -0.000 C 
BRANCH  12  13
ATOM     13  C   UNL     1       1.177  -5.551   7.501  1.00  0.00    -0.003 C 
ATOM     14  C   UNL     1       2.625  -5.721   7.052  1.00  0.00     0.004 C 
ENDBRANCH  12  13
ENDBRANCH  11  12
ENDBRANCH  10  11
ENDBRANCH   9  10
ENDBRANCH   1   9
TORSDOF 10
ENDMDL
