MODEL 1
REMARK VINA RESULT:    -4.326      0.000      0.000
REMARK INTER + INTRA:          -5.092
REMARK INTER:                  -4.959
REMARK INTRA:                  -0.133
REMARK UNBOUND:                -0.133
REMARK SMILES O=C([O-])C=Cc1ccc(O)cc1
REMARK SMILES IDX 6 1 7 2 12 3 8 4 11 5 9 6 5 7 4 8 2 9 1 10 3 11 10 12
REMARK H PARENT 10 13
REMARK Flexibility Score: inf
ROOT
ATOM      1  C   UNL     1      70.686  38.210  20.457  1.00  0.00    -0.025 A 
ATOM      2  C   UNL     1      71.898  37.498  20.467  1.00  0.00     0.012 A 
ATOM      3  C   UNL     1      70.560  39.348  21.280  1.00  0.00     0.012 A 
ATOM      4  C   UNL     1      72.950  37.894  21.298  1.00  0.00     0.047 A 
ATOM      5  C   UNL     1      71.615  39.741  22.110  1.00  0.00     0.047 A 
ATOM      6  C   UNL     1      72.812  39.013  22.122  1.00  0.00     0.115 A 
ENDROOT
BRANCH   1   7
ATOM      7  C   UNL     1      69.603  37.756  19.549  1.00  0.00     0.010 C 
ATOM      8  C   UNL     1      68.577  36.987  19.941  1.00  0.00     0.025 C 
BRANCH   8   9
ATOM      9  C   UNL     1      67.526  36.545  19.010  1.00  0.00     0.064 C 
ATOM     10  O   UNL     1      67.756  35.668  18.134  1.00  0.00    -0.545 OA
ATOM     11  O   UNL     1      66.258  37.106  19.096  1.00  0.00    -0.545 OA
ENDBRANCH   8   9
ENDBRANCH   1   7
BRANCH   6  12
ATOM     12  O   UNL     1      73.868  39.396  22.946  1.00  0.00    -0.508 OA
ATOM     13  H   UNL     1      73.960  39.037  23.889  1.00  0.00     0.293 HD
ENDBRANCH   6  12
TORSDOF 3
ENDMDL
MODEL 2
REMARK VINA RESULT:    -4.302      0.273      1.424
REMARK INTER + INTRA:          -5.063
REMARK INTER:                  -4.923
REMARK INTRA:                  -0.141
REMARK UNBOUND:                -0.133
REMARK SMILES O=C([O-])C=Cc1ccc(O)cc1
REMARK SMILES IDX 6 1 7 2 12 3 8 4 11 5 9 6 5 7 4 8 2 9 1 10 3 11 10 12
REMARK H PARENT 10 13
REMARK Flexibility Score: inf
ROOT
ATOM      1  C   UNL     1      70.885  37.993  20.402  1.00  0.00    -0.025 A 
ATOM      2  C   UNL     1      70.706  39.141  21.194  1.00  0.00     0.012 A 
ATOM      3  C   UNL     1      72.129  37.329  20.441  1.00  0.00     0.012 A 
ATOM      4  C   UNL     1      71.750  39.631  21.985  1.00  0.00     0.047 A 
ATOM      5  C   UNL     1      73.171  37.821  21.233  1.00  0.00     0.047 A 
ATOM      6  C   UNL     1      72.984  38.975  22.005  1.00  0.00     0.115 A 
ENDROOT
BRANCH   1   7
ATOM      7  C   UNL     1      69.744  37.507  19.588  1.00  0.00     0.010 C 
ATOM      8  C   UNL     1      68.556  37.159  20.104  1.00  0.00     0.025 C 
BRANCH   8   9
ATOM      9  C   UNL     1      67.449  36.670  19.267  1.00  0.00     0.064 C 
ATOM     10  O   UNL     1      67.626  35.752  18.421  1.00  0.00    -0.545 OA
ATOM     11  O   UNL     1      66.186  37.230  19.409  1.00  0.00    -0.545 OA
ENDBRANCH   8   9
ENDBRANCH   1   7
BRANCH   6  12
ATOM     12  O   UNL     1      74.016  39.475  22.797  1.00  0.00    -0.508 OA
ATOM     13  H   UNL     1      73.996  40.422  23.157  1.00  0.00     0.293 HD
ENDBRANCH   6  12
TORSDOF 3
ENDMDL
MODEL 3
REMARK VINA RESULT:    -4.072      1.260      5.989
REMARK INTER + INTRA:          -4.800
REMARK INTER:                  -4.664
REMARK INTRA:                  -0.135
REMARK UNBOUND:                -0.133
REMARK SMILES O=C([O-])C=Cc1ccc(O)cc1
REMARK SMILES IDX 6 1 7 2 12 3 8 4 11 5 9 6 5 7 4 8 2 9 1 10 3 11 10 12
REMARK H PARENT 10 13
REMARK Flexibility Score: inf
ROOT
ATOM      1  C   UNL     1      70.084  37.335  19.734  1.00  0.00    -0.025 A 
ATOM      2  C   UNL     1      68.764  37.464  20.200  1.00  0.00     0.012 A 
ATOM      3  C   UNL     1      70.331  36.515  18.614  1.00  0.00     0.012 A 
ATOM      4  C   UNL     1      67.719  36.770  19.582  1.00  0.00     0.047 A 
ATOM      5  C   UNL     1      69.283  35.823  17.998  1.00  0.00     0.047 A 
ATOM      6  C   UNL     1      67.975  35.948  18.482  1.00  0.00     0.115 A 
ENDROOT
BRANCH   1   7
ATOM      7  C   UNL     1      71.156  38.099  20.418  1.00  0.00     0.010 C 
ATOM      8  C   UNL     1      72.379  37.608  20.666  1.00  0.00     0.025 C 
BRANCH   8   9
ATOM      9  C   UNL     1      73.415  38.392  21.358  1.00  0.00     0.064 C 
ATOM     10  O   UNL     1      73.125  39.149  22.324  1.00  0.00    -0.545 OA
ATOM     11  O   UNL     1      74.736  38.298  20.940  1.00  0.00    -0.545 OA
ENDBRANCH   8   9
ENDBRANCH   1   7
BRANCH   6  12
ATOM     12  O   UNL     1      66.925  35.262  17.876  1.00  0.00    -0.508 OA
ATOM     13  H   UNL     1      65.994  35.258  18.277  1.00  0.00     0.293 HD
ENDBRANCH   6  12
TORSDOF 3
ENDMDL
MODEL 4
REMARK VINA RESULT:    -4.000      1.964      5.609
REMARK INTER + INTRA:          -4.717
REMARK INTER:                  -4.570
REMARK INTRA:                  -0.148
REMARK UNBOUND:                -0.133
REMARK SMILES O=C([O-])C=Cc1ccc(O)cc1
REMARK SMILES IDX 6 1 7 2 12 3 8 4 11 5 9 6 5 7 4 8 2 9 1 10 3 11 10 12
REMARK H PARENT 10 13
REMARK Flexibility Score: inf
ROOT
ATOM      1  C   UNL     1      69.650  37.432  19.809  1.00  0.00    -0.025 A 
ATOM      2  C   UNL     1      69.124  38.498  20.559  1.00  0.00     0.012 A 
ATOM      3  C   UNL     1      68.761  36.587  19.113  1.00  0.00     0.012 A 
ATOM      4  C   UNL     1      67.742  38.701  20.636  1.00  0.00     0.047 A 
ATOM      5  C   UNL     1      67.380  36.793  19.192  1.00  0.00     0.047 A 
ATOM      6  C   UNL     1      66.868  37.850  19.956  1.00  0.00     0.115 A 
ENDROOT
BRANCH   1   7
ATOM      7  C   UNL     1      71.123  37.265  19.750  1.00  0.00     0.010 C 
ATOM      8  C   UNL     1      71.993  38.281  19.854  1.00  0.00     0.025 C 
BRANCH   8   9
ATOM      9  C   UNL     1      73.449  38.080  19.779  1.00  0.00     0.064 C 
ATOM     10  O   UNL     1      74.037  37.969  18.669  1.00  0.00    -0.545 OA
ATOM     11  O   UNL     1      74.189  38.007  20.952  1.00  0.00    -0.545 OA
ENDBRANCH   8   9
ENDBRANCH   1   7
BRANCH   6  12
ATOM     12  O   UNL     1      65.494  38.062  20.043  1.00  0.00    -0.508 OA
ATOM     13  H   UNL     1      64.925  38.196  19.214  1.00  0.00     0.293 HD
ENDBRANCH   6  12
TORSDOF 3
ENDMDL
MODEL 5
REMARK VINA RESULT:    -3.934      1.921      5.491
REMARK INTER + INTRA:          -4.641
REMARK INTER:                  -4.507
REMARK INTRA:                  -0.134
REMARK UNBOUND:                -0.133
REMARK SMILES O=C([O-])C=Cc1ccc(O)cc1
REMARK SMILES IDX 6 1 7 2 12 3 8 4 11 5 9 6 5 7 4 8 2 9 1 10 3 11 10 12
REMARK H PARENT 10 13
REMARK Flexibility Score: inf
ROOT
ATOM      1  C   UNL     1      69.946  37.744  20.057  1.00  0.00    -0.025 A 
ATOM      2  C   UNL     1      69.123  36.804  19.411  1.00  0.00     0.012 A 
ATOM      3  C   UNL     1      69.341  38.830  20.724  1.00  0.00     0.012 A 
ATOM      4  C   UNL     1      67.733  36.957  19.406  1.00  0.00     0.047 A 
ATOM      5  C   UNL     1      67.951  38.979  20.717  1.00  0.00     0.047 A 
ATOM      6  C   UNL     1      67.144  38.044  20.056  1.00  0.00     0.115 A 
ENDROOT
BRANCH   1   7
ATOM      7  C   UNL     1      71.414  37.531  20.042  1.00  0.00     0.010 C 
ATOM      8  C   UNL     1      72.309  38.523  19.927  1.00  0.00     0.025 C 
BRANCH   8   9
ATOM      9  C   UNL     1      73.759  38.273  19.904  1.00  0.00     0.064 C 
ATOM     10  O   UNL     1      74.415  38.135  20.972  1.00  0.00    -0.545 OA
ATOM     11  O   UNL     1      74.418  38.190  18.684  1.00  0.00    -0.545 OA
ENDBRANCH   8   9
ENDBRANCH   1   7
BRANCH   6  12
ATOM     12  O   UNL     1      65.758  38.186  20.043  1.00  0.00    -0.508 OA
ATOM     13  H   UNL     1      65.301  38.965  20.503  1.00  0.00     0.293 HD
ENDBRANCH   6  12
TORSDOF 3
ENDMDL
MODEL 6
REMARK VINA RESULT:    -3.838      3.042      6.628
REMARK INTER + INTRA:          -4.531
REMARK INTER:                  -4.392
REMARK INTRA:                  -0.139
REMARK UNBOUND:                -0.133
REMARK SMILES O=C([O-])C=Cc1ccc(O)cc1
REMARK SMILES IDX 6 1 7 2 12 3 8 4 11 5 9 6 5 7 4 8 2 9 1 10 3 11 10 12
REMARK H PARENT 10 13
REMARK Flexibility Score: inf
ROOT
ATOM      1  C   UNL     1      73.780  38.482  20.119  1.00  0.00    -0.025 A 
ATOM      2  C   UNL     1      74.031  38.213  18.762  1.00  0.00     0.012 A 
ATOM      3  C   UNL     1      72.739  37.785  20.768  1.00  0.00     0.012 A 
ATOM      4  C   UNL     1      73.247  37.291  18.061  1.00  0.00     0.047 A 
ATOM      5  C   UNL     1      71.957  36.864  20.063  1.00  0.00     0.047 A 
ATOM      6  C   UNL     1      72.209  36.617  18.708  1.00  0.00     0.115 A 
ENDROOT
BRANCH   1   7
ATOM      7  C   UNL     1      74.646  39.461  20.821  1.00  0.00     0.010 C 
ATOM      8  C   UNL     1      74.543  39.745  22.127  1.00  0.00     0.025 C 
BRANCH   8   9
ATOM      9  C   UNL     1      75.413  40.731  22.788  1.00  0.00     0.064 C 
ATOM     10  O   UNL     1      75.942  40.489  23.906  1.00  0.00    -0.545 OA
ATOM     11  O   UNL     1      75.654  41.951  22.170  1.00  0.00    -0.545 OA
ENDBRANCH   8   9
ENDBRANCH   1   7
BRANCH   6  12
ATOM     12  O   UNL     1      71.434  35.702  17.997  1.00  0.00    -0.508 OA
ATOM     13  H   UNL     1      71.826  34.835  17.648  1.00  0.00     0.293 HD
ENDBRANCH   6  12
TORSDOF 3
ENDMDL
MODEL 7
REMARK VINA RESULT:    -3.771      2.039      2.708
REMARK INTER + INTRA:          -4.455
REMARK INTER:                  -4.316
REMARK INTRA:                  -0.138
REMARK UNBOUND:                -0.133
REMARK SMILES O=C([O-])C=Cc1ccc(O)cc1
REMARK SMILES IDX 6 1 7 2 12 3 8 4 11 5 9 6 5 7 4 8 2 9 1 10 3 11 10 12
REMARK H PARENT 10 13
REMARK Flexibility Score: inf
ROOT
ATOM      1  C   UNL     1      72.866  38.250  20.251  1.00  0.00    -0.025 A 
ATOM      2  C   UNL     1      74.221  38.608  20.146  1.00  0.00     0.012 A 
ATOM      3  C   UNL     1      72.079  38.856  21.253  1.00  0.00     0.012 A 
ATOM      4  C   UNL     1      74.787  39.526  21.036  1.00  0.00     0.047 A 
ATOM      5  C   UNL     1      72.648  39.775  22.141  1.00  0.00     0.047 A 
ATOM      6  C   UNL     1      74.004  40.110  22.035  1.00  0.00     0.115 A 
ENDROOT
BRANCH   1   7
ATOM      7  C   UNL     1      72.311  37.279  19.277  1.00  0.00     0.010 C 
ATOM      8  C   UNL     1      71.103  36.709  19.399  1.00  0.00     0.025 C 
BRANCH   8   9
ATOM      9  C   UNL     1      70.589  35.739  18.418  1.00  0.00     0.064 C 
ATOM     10  O   UNL     1      69.462  35.894  17.875  1.00  0.00    -0.545 OA
ATOM     11  O   UNL     1      71.359  34.632  18.085  1.00  0.00    -0.545 OA
ENDBRANCH   8   9
ENDBRANCH   1   7
BRANCH   6  12
ATOM     12  O   UNL     1      74.581  41.023  22.916  1.00  0.00    -0.508 OA
ATOM     13  H   UNL     1      75.373  41.594  22.643  1.00  0.00     0.293 HD
ENDBRANCH   6  12
TORSDOF 3
ENDMDL
MODEL 8
REMARK VINA RESULT:    -3.703      1.670      2.240
REMARK INTER + INTRA:          -4.377
REMARK INTER:                  -4.240
REMARK INTRA:                  -0.137
REMARK UNBOUND:                -0.133
REMARK SMILES O=C([O-])C=Cc1ccc(O)cc1
REMARK SMILES IDX 6 1 7 2 12 3 8 4 11 5 9 6 5 7 4 8 2 9 1 10 3 11 10 12
REMARK H PARENT 10 13
REMARK Flexibility Score: inf
ROOT
ATOM      1  C   UNL     1      71.123  37.286  19.504  1.00  0.00    -0.025 A 
ATOM      2  C   UNL     1      71.907  37.375  18.340  1.00  0.00     0.012 A 
ATOM      3  C   UNL     1      71.690  37.676  20.735  1.00  0.00     0.012 A 
ATOM      4  C   UNL     1      73.232  37.818  18.405  1.00  0.00     0.047 A 
ATOM      5  C   UNL     1      73.015  38.118  20.796  1.00  0.00     0.047 A 
ATOM      6  C   UNL     1      73.790  38.188  19.631  1.00  0.00     0.115 A 
ENDROOT
BRANCH   1   7
ATOM      7  C   UNL     1      69.720  36.820  19.380  1.00  0.00     0.010 C 
ATOM      8  C   UNL     1      68.654  37.592  19.638  1.00  0.00     0.025 C 
BRANCH   8   9
ATOM      9  C   UNL     1      67.275  37.092  19.516  1.00  0.00     0.064 C 
ATOM     10  O   UNL     1      66.288  37.820  19.809  1.00  0.00    -0.545 OA
ATOM     11  O   UNL     1      67.056  35.795  19.072  1.00  0.00    -0.545 OA
ENDBRANCH   8   9
ENDBRANCH   1   7
BRANCH   6  12
ATOM     12  O   UNL     1      75.111  38.626  19.682  1.00  0.00    -0.508 OA
ATOM     13  H   UNL     1      75.877  37.981  19.843  1.00  0.00     0.293 HD
ENDBRANCH   6  12
TORSDOF 3
ENDMDL
MODEL 9
REMARK VINA RESULT:    -3.595      2.765      3.151
REMARK INTER + INTRA:          -4.253
REMARK INTER:                  -4.117
REMARK INTRA:                  -0.136
REMARK UNBOUND:                -0.133
REMARK SMILES O=C([O-])C=Cc1ccc(O)cc1
REMARK SMILES IDX 6 1 7 2 12 3 8 4 11 5 9 6 5 7 4 8 2 9 1 10 3 11 10 12
REMARK H PARENT 10 13
REMARK Flexibility Score: inf
ROOT
ATOM      1  C   UNL     1      72.344  38.449  19.537  1.00  0.00    -0.025 A 
ATOM      2  C   UNL     1      73.555  38.206  20.209  1.00  0.00     0.012 A 
ATOM      3  C   UNL     1      72.365  39.216  18.354  1.00  0.00     0.012 A 
ATOM      4  C   UNL     1      74.755  38.737  19.727  1.00  0.00     0.047 A 
ATOM      5  C   UNL     1      73.568  39.745  17.876  1.00  0.00     0.047 A 
ATOM      6  C   UNL     1      74.766  39.508  18.563  1.00  0.00     0.115 A 
ENDROOT
BRANCH   1   7
ATOM      7  C   UNL     1      71.098  37.854  20.083  1.00  0.00     0.010 C 
ATOM      8  C   UNL     1      69.885  38.409  19.944  1.00  0.00     0.025 C 
BRANCH   8   9
ATOM      9  C   UNL     1      68.672  37.796  20.510  1.00  0.00     0.064 C 
ATOM     10  O   UNL     1      68.275  36.662  20.128  1.00  0.00    -0.545 OA
ATOM     11  O   UNL     1      67.951  38.479  21.480  1.00  0.00    -0.545 OA
ENDBRANCH   8   9
ENDBRANCH   1   7
BRANCH   6  12
ATOM     12  O   UNL     1      75.968  40.033  18.095  1.00  0.00    -0.508 OA
ATOM     13  H   UNL     1      76.548  39.524  17.437  1.00  0.00     0.293 HD
ENDBRANCH   6  12
TORSDOF 3
ENDMDL
