MODEL 1
REMARK VINA RESULT:    -4.474      0.000      0.000
REMARK INTER + INTRA:          -5.720
REMARK INTER:                  -5.390
REMARK INTRA:                  -0.330
REMARK UNBOUND:                -0.330
REMARK SMILES O=c1c(O)c(-c2ccc(O)c(O)c2)oc2cc(O)cc(O)c12
REMARK SMILES IDX 5 1 3 2 2 3 1 4 22 5 20 6 19 7 17 8 16 9 15 10 14 11 6 12
REMARK SMILES IDX 7 13 8 14 9 15 13 16 11 17 10 18 12 20 4 22 21 24 18 26
REMARK H PARENT 10 19 12 21 4 23 21 25 18 27
REMARK Flexibility Score: inf
ROOT
ATOM      1  C   UNL     1     -31.388 -20.709 -33.851  1.00  0.00     0.180 A 
ATOM      2  C   UNL     1     -32.484 -19.969 -34.325  1.00  0.00     0.208 A 
ATOM      3  C   UNL     1     -33.111 -20.367 -35.517  1.00  0.00     0.238 A 
ATOM      4  O   UNL     1     -34.125 -19.733 -35.907  1.00  0.00    -0.285 OA
ATOM      5  C   UNL     1     -32.622 -21.490 -36.227  1.00  0.00     0.111 A 
ATOM      6  C   UNL     1     -33.155 -21.959 -37.465  1.00  0.00     0.134 A 
ATOM      7  C   UNL     1     -32.678 -23.156 -38.013  1.00  0.00     0.093 A 
ATOM      8  C   UNL     1     -31.644 -23.867 -37.400  1.00  0.00     0.123 A 
ATOM      9  C   UNL     1     -31.077 -23.386 -36.223  1.00  0.00     0.094 A 
ATOM     10  C   UNL     1     -31.556 -22.213 -35.633  1.00  0.00     0.146 A 
ATOM     11  O   UNL     1     -30.994 -21.795 -34.505  1.00  0.00    -0.452 OA
ENDROOT
BRANCH   1  12
ATOM     12  C   UNL     1     -30.660 -20.336 -32.616  1.00  0.00     0.025 A 
ATOM     13  C   UNL     1     -29.546 -19.478 -32.653  1.00  0.00     0.016 A 
ATOM     14  C   UNL     1     -28.860 -19.158 -31.478  1.00  0.00     0.051 A 
ATOM     15  C   UNL     1     -29.267 -19.703 -30.253  1.00  0.00     0.157 A 
ATOM     16  C   UNL     1     -31.050 -20.895 -31.387  1.00  0.00     0.062 A 
ATOM     17  C   UNL     1     -30.362 -20.575 -30.208  1.00  0.00     0.158 A 
BRANCH  15  18
ATOM     18  O   UNL     1     -28.587 -19.386 -29.079  1.00  0.00    -0.504 OA
ATOM     19  H   UNL     1     -27.636 -19.034 -29.095  1.00  0.00     0.293 HD
ENDBRANCH  15  18
BRANCH  17  20
ATOM     20  O   UNL     1     -30.760 -21.120 -28.989  1.00  0.00    -0.504 OA
ATOM     21  H   UNL     1     -30.229 -21.856 -28.538  1.00  0.00     0.293 HD
ENDBRANCH  17  20
ENDBRANCH   1  12
BRANCH   2  22
ATOM     22  O   UNL     1     -32.963 -18.876 -33.597  1.00  0.00    -0.502 OA
ATOM     23  H   UNL     1     -32.435 -18.447 -32.847  1.00  0.00     0.293 HD
ENDBRANCH   2  22
BRANCH   6  24
ATOM     24  O   UNL     1     -34.125 -21.277 -38.206  1.00  0.00    -0.507 OA
ATOM     25  H   UNL     1     -33.980 -20.392 -38.666  1.00  0.00     0.293 HD
ENDBRANCH   6  24
BRANCH   8  26
ATOM     26  O   UNL     1     -31.165 -25.050 -37.960  1.00  0.00    -0.508 OA
ATOM     27  H   UNL     1     -30.599 -25.698 -37.424  1.00  0.00     0.293 HD
ENDBRANCH   8  26
TORSDOF 6
ENDMDL
MODEL 2
REMARK VINA RESULT:    -1.515      1.079      1.319
REMARK INTER + INTRA:          -2.154
REMARK INTER:                  -1.866
REMARK INTRA:                  -0.289
REMARK UNBOUND:                -0.330
REMARK SMILES O=c1c(O)c(-c2ccc(O)c(O)c2)oc2cc(O)cc(O)c12
REMARK SMILES IDX 5 1 3 2 2 3 1 4 22 5 20 6 19 7 17 8 16 9 15 10 14 11 6 12
REMARK SMILES IDX 7 13 8 14 9 15 13 16 11 17 10 18 12 20 4 22 21 24 18 26
REMARK H PARENT 10 19 12 21 4 23 21 25 18 27
REMARK Flexibility Score: inf
ROOT
ATOM      1  C   UNL     1     -31.182 -20.526 -32.714  1.00  0.00     0.180 A 
ATOM      2  C   UNL     1     -32.335 -19.766 -32.974  1.00  0.00     0.208 A 
ATOM      3  C   UNL     1     -33.007 -19.944 -34.194  1.00  0.00     0.238 A 
ATOM      4  O   UNL     1     -34.069 -19.300 -34.398  1.00  0.00    -0.285 OA
ATOM      5  C   UNL     1     -32.508 -20.867 -35.144  1.00  0.00     0.111 A 
ATOM      6  C   UNL     1     -33.086 -21.099 -36.429  1.00  0.00     0.134 A 
ATOM      7  C   UNL     1     -32.586 -22.129 -37.235  1.00  0.00     0.093 A 
ATOM      8  C   UNL     1     -31.489 -22.892 -36.830  1.00  0.00     0.123 A 
ATOM      9  C   UNL     1     -30.881 -22.634 -35.604  1.00  0.00     0.094 A 
ATOM     10  C   UNL     1     -31.380 -21.636 -34.762  1.00  0.00     0.146 A 
ATOM     11  O   UNL     1     -30.776 -21.430 -33.597  1.00  0.00    -0.452 OA
ENDROOT
BRANCH   1  12
ATOM     12  C   UNL     1     -30.406 -20.376 -31.461  1.00  0.00     0.025 A 
ATOM     13  C   UNL     1     -29.549 -19.280 -31.258  1.00  0.00     0.016 A 
ATOM     14  C   UNL     1     -28.807 -19.171 -30.078  1.00  0.00     0.051 A 
ATOM     15  C   UNL     1     -28.900 -20.163 -29.092  1.00  0.00     0.157 A 
ATOM     16  C   UNL     1     -30.478 -21.377 -30.478  1.00  0.00     0.062 A 
ATOM     17  C   UNL     1     -29.735 -21.269 -29.294  1.00  0.00     0.158 A 
BRANCH  15  18
ATOM     18  O   UNL     1     -28.163 -20.058 -27.914  1.00  0.00    -0.504 OA
ATOM     19  H   UNL     1     -28.596 -20.180 -27.006  1.00  0.00     0.293 HD
ENDBRANCH  15  18
BRANCH  17  20
ATOM     20  O   UNL     1     -29.820 -22.257 -28.315  1.00  0.00    -0.504 OA
ATOM     21  H   UNL     1     -30.468 -23.032 -28.399  1.00  0.00     0.293 HD
ENDBRANCH  17  20
ENDBRANCH   1  12
BRANCH   2  22
ATOM     22  O   UNL     1     -32.823 -18.875 -32.013  1.00  0.00    -0.502 OA
ATOM     23  H   UNL     1     -33.785 -18.886 -31.699  1.00  0.00     0.293 HD
ENDBRANCH   2  22
BRANCH   6  24
ATOM     24  O   UNL     1     -34.125 -20.333 -36.967  1.00  0.00    -0.507 OA
ATOM     25  H   UNL     1     -34.953 -20.053 -36.464  1.00  0.00     0.293 HD
ENDBRANCH   6  24
BRANCH   8  26
ATOM     26  O   UNL     1     -30.988 -23.905 -37.645  1.00  0.00    -0.508 OA
ATOM     27  H   UNL     1     -31.238 -24.877 -37.497  1.00  0.00     0.293 HD
ENDBRANCH   8  26
TORSDOF 6
ENDMDL
