MODEL 1
REMARK VINA RESULT:    -3.488      0.000      0.000
REMARK INTER + INTRA:          -9.181
REMARK INTER:                  -6.751
REMARK INTRA:                  -2.431
REMARK UNBOUND:                -2.431
REMARK SMILES CCCCCCCCCCCCCCCCCC(=O)[O-]
REMARK SMILES IDX 10 1 11 2 12 3 13 4 14 5 15 6 16 7 17 8 18 9 19 10 20 11
REMARK SMILES IDX 9 12 8 13 7 14 6 15 5 16 4 17 3 18 2 19 1 20
REMARK H PARENT
REMARK Flexibility Score: inf
ROOT
ATOM      1  C   UNL     1      57.362  27.522  50.906  1.00  0.00     0.000 C 
ENDROOT
BRANCH   1   2
ATOM      2  C   UNL     1      57.376  28.854  50.127  1.00  0.00     0.000 C 
BRANCH   2   3
ATOM      3  C   UNL     1      58.727  29.166  49.460  1.00  0.00     0.000 C 
BRANCH   3   4
ATOM      4  C   UNL     1      59.854  29.412  50.477  1.00  0.00     0.000 C 
BRANCH   4   5
ATOM      5  C   UNL     1      61.108  28.572  50.185  1.00  0.00     0.000 C 
BRANCH   5   6
ATOM      6  C   UNL     1      60.800  27.317  49.356  1.00  0.00     0.000 C 
BRANCH   6   7
ATOM      7  C   UNL     1      61.353  26.058  50.041  1.00  0.00     0.006 C 
BRANCH   7   8
ATOM      8  C   UNL     1      60.535  25.662  51.278  1.00  0.00     0.053 C 
BRANCH   8   9
ATOM      9  C   UNL     1      59.795  24.377  51.063  1.00  0.00     0.041 C 
ATOM     10  O   UNL     1      60.130  23.597  50.133  1.00  0.00    -0.550 OA
ATOM     11  O   UNL     1      58.711  24.058  51.871  1.00  0.00    -0.550 OA
ENDBRANCH   8   9
ENDBRANCH   7   8
ENDBRANCH   6   7
ENDBRANCH   5   6
ENDBRANCH   4   5
ENDBRANCH   3   4
ENDBRANCH   2   3
ENDBRANCH   1   2
BRANCH   1  12
ATOM     12  C   UNL     1      56.789  26.366  50.066  1.00  0.00     0.000 C 
BRANCH  12  13
ATOM     13  C   UNL     1      55.353  25.996  50.469  1.00  0.00    -0.000 C 
BRANCH  13  14
ATOM     14  C   UNL     1      54.512  25.526  49.268  1.00  0.00    -0.000 C 
BRANCH  14  15
ATOM     15  C   UNL     1      53.193  26.303  49.129  1.00  0.00    -0.000 C 
BRANCH  15  16
ATOM     16  C   UNL     1      52.980  27.316  50.265  1.00  0.00    -0.000 C 
BRANCH  16  17
ATOM     17  C   UNL     1      52.952  28.752  49.720  1.00  0.00    -0.000 C 
BRANCH  17  18
ATOM     18  C   UNL     1      53.830  29.713  50.538  1.00  0.00    -0.000 C 
BRANCH  18  19
ATOM     19  C   UNL     1      54.094  29.207  51.964  1.00  0.00    -0.003 C 
ATOM     20  C   UNL     1      55.104  30.096  52.685  1.00  0.00     0.004 C 
ENDBRANCH  18  19
ENDBRANCH  17  18
ENDBRANCH  16  17
ENDBRANCH  15  16
ENDBRANCH  14  15
ENDBRANCH  13  14
ENDBRANCH  12  13
ENDBRANCH   1  12
TORSDOF 16
ENDMDL
MODEL 2
REMARK VINA RESULT:    -3.391     11.641     13.268
REMARK INTER + INTRA:          -8.994
REMARK INTER:                  -6.318
REMARK INTRA:                  -2.677
REMARK UNBOUND:                -2.431
REMARK SMILES CCCCCCCCCCCCCCCCCC(=O)[O-]
REMARK SMILES IDX 10 1 11 2 12 3 13 4 14 5 15 6 16 7 17 8 18 9 19 10 20 11
REMARK SMILES IDX 9 12 8 13 7 14 6 15 5 16 4 17 3 18 2 19 1 20
REMARK H PARENT
REMARK Flexibility Score: inf
ROOT
ATOM      1  C   UNL     1      62.596  32.556  59.337  1.00  0.00     0.000 C 
ENDROOT
BRANCH   1   2
ATOM      2  C   UNL     1      61.676  32.551  60.576  1.00  0.00     0.000 C 
BRANCH   2   3
ATOM      3  C   UNL     1      60.896  31.237  60.761  1.00  0.00     0.000 C 
BRANCH   3   4
ATOM      4  C   UNL     1      61.405  30.400  61.946  1.00  0.00     0.000 C 
BRANCH   4   5
ATOM      5  C   UNL     1      62.307  29.236  61.503  1.00  0.00     0.000 C 
BRANCH   5   6
ATOM      6  C   UNL     1      63.786  29.637  61.408  1.00  0.00     0.000 C 
BRANCH   6   7
ATOM      7  C   UNL     1      64.335  29.375  59.997  1.00  0.00     0.006 C 
BRANCH   7   8
ATOM      8  C   UNL     1      65.575  30.226  59.688  1.00  0.00     0.053 C 
BRANCH   8   9
ATOM      9  C   UNL     1      66.668  29.407  59.073  1.00  0.00     0.041 C 
ATOM     10  O   UNL     1      67.866  29.581  59.422  1.00  0.00    -0.550 OA
ATOM     11  O   UNL     1      66.367  28.474  58.088  1.00  0.00    -0.550 OA
ENDBRANCH   8   9
ENDBRANCH   7   8
ENDBRANCH   6   7
ENDBRANCH   5   6
ENDBRANCH   4   5
ENDBRANCH   3   4
ENDBRANCH   2   3
ENDBRANCH   1   2
BRANCH   1  12
ATOM     12  C   UNL     1      63.765  33.546  59.489  1.00  0.00     0.000 C 
BRANCH  12  13
ATOM     13  C   UNL     1      64.273  33.645  60.936  1.00  0.00    -0.000 C 
BRANCH  13  14
ATOM     14  C   UNL     1      64.259  35.092  61.463  1.00  0.00    -0.000 C 
BRANCH  14  15
ATOM     15  C   UNL     1      63.653  36.082  60.455  1.00  0.00    -0.000 C 
BRANCH  15  16
ATOM     16  C   UNL     1      62.423  36.815  61.012  1.00  0.00    -0.000 C 
BRANCH  16  17
ATOM     17  C   UNL     1      61.144  35.998  60.773  1.00  0.00    -0.000 C 
BRANCH  17  18
ATOM     18  C   UNL     1      60.343  36.496  59.558  1.00  0.00    -0.000 C 
BRANCH  18  19
ATOM     19  C   UNL     1      60.250  35.448  58.439  1.00  0.00    -0.003 C 
ATOM     20  C   UNL     1      61.399  35.602  57.445  1.00  0.00     0.004 C 
ENDBRANCH  18  19
ENDBRANCH  17  18
ENDBRANCH  16  17
ENDBRANCH  15  16
ENDBRANCH  14  15
ENDBRANCH  13  14
ENDBRANCH  12  13
ENDBRANCH   1  12
TORSDOF 16
ENDMDL
MODEL 3
REMARK VINA RESULT:    -3.344     11.401     13.627
REMARK INTER + INTRA:          -8.903
REMARK INTER:                  -6.313
REMARK INTRA:                  -2.590
REMARK UNBOUND:                -2.431
REMARK SMILES CCCCCCCCCCCCCCCCCC(=O)[O-]
REMARK SMILES IDX 10 1 11 2 12 3 13 4 14 5 15 6 16 7 17 8 18 9 19 10 20 11
REMARK SMILES IDX 9 12 8 13 7 14 6 15 5 16 4 17 3 18 2 19 1 20
REMARK H PARENT
REMARK Flexibility Score: inf
ROOT
ATOM      1  C   UNL     1      63.357  32.833  59.435  1.00  0.00     0.000 C 
ENDROOT
BRANCH   1   2
ATOM      2  C   UNL     1      63.999  32.973  60.832  1.00  0.00     0.000 C 
BRANCH   2   3
ATOM      3  C   UNL     1      64.282  34.430  61.239  1.00  0.00     0.000 C 
BRANCH   3   4
ATOM      4  C   UNL     1      63.528  35.451  60.371  1.00  0.00     0.000 C 
BRANCH   4   5
ATOM      5  C   UNL     1      62.392  36.150  61.136  1.00  0.00     0.000 C 
BRANCH   5   6
ATOM      6  C   UNL     1      61.004  35.814  60.572  1.00  0.00     0.000 C 
BRANCH   6   7
ATOM      7  C   UNL     1      61.000  35.902  59.038  1.00  0.00     0.006 C 
BRANCH   7   8
ATOM      8  C   UNL     1      59.893  35.046  58.408  1.00  0.00     0.053 C 
BRANCH   8   9
ATOM      9  C   UNL     1      58.968  35.870  57.566  1.00  0.00     0.041 C 
ATOM     10  O   UNL     1      58.609  35.463  56.430  1.00  0.00    -0.550 OA
ATOM     11  O   UNL     1      58.528  37.106  58.025  1.00  0.00    -0.550 OA
ENDBRANCH   8   9
ENDBRANCH   7   8
ENDBRANCH   6   7
ENDBRANCH   5   6
ENDBRANCH   4   5
ENDBRANCH   3   4
ENDBRANCH   2   3
ENDBRANCH   1   2
BRANCH   1  12
ATOM     12  C   UNL     1      61.972  32.164  59.499  1.00  0.00     0.000 C 
BRANCH  12  13
ATOM     13  C   UNL     1      61.371  32.182  60.913  1.00  0.00    -0.000 C 
BRANCH  13  14
ATOM     14  C   UNL     1      60.909  30.786  61.369  1.00  0.00    -0.000 C 
BRANCH  14  15
ATOM     15  C   UNL     1      62.080  29.886  61.796  1.00  0.00    -0.000 C 
BRANCH  15  16
ATOM     16  C   UNL     1      62.149  28.581  60.988  1.00  0.00    -0.000 C 
BRANCH  16  17
ATOM     17  C   UNL     1      63.540  27.938  61.104  1.00  0.00    -0.000 C 
BRANCH  17  18
ATOM     18  C   UNL     1      64.678  28.937  60.830  1.00  0.00    -0.000 C 
BRANCH  18  19
ATOM     19  C   UNL     1      64.890  29.197  59.331  1.00  0.00    -0.003 C 
ATOM     20  C   UNL     1      65.910  30.310  59.105  1.00  0.00     0.004 C 
ENDBRANCH  18  19
ENDBRANCH  17  18
ENDBRANCH  16  17
ENDBRANCH  15  16
ENDBRANCH  14  15
ENDBRANCH  13  14
ENDBRANCH  12  13
ENDBRANCH   1  12
TORSDOF 16
ENDMDL
MODEL 4
REMARK VINA RESULT:    -3.224     10.613     12.830
REMARK INTER + INTRA:          -8.671
REMARK INTER:                  -6.138
REMARK INTRA:                  -2.533
REMARK UNBOUND:                -2.431
REMARK SMILES CCCCCCCCCCCCCCCCCC(=O)[O-]
REMARK SMILES IDX 10 1 11 2 12 3 13 4 14 5 15 6 16 7 17 8 18 9 19 10 20 11
REMARK SMILES IDX 9 12 8 13 7 14 6 15 5 16 4 17 3 18 2 19 1 20
REMARK H PARENT
REMARK Flexibility Score: inf
ROOT
ATOM      1  C   UNL     1      63.920  33.482  58.442  1.00  0.00     0.000 C 
ENDROOT
BRANCH   1   2
ATOM      2  C   UNL     1      62.409  33.230  58.251  1.00  0.00     0.000 C 
BRANCH   2   3
ATOM      3  C   UNL     1      61.987  31.775  58.518  1.00  0.00     0.000 C 
BRANCH   3   4
ATOM      4  C   UNL     1      60.708  31.669  59.366  1.00  0.00     0.000 C 
BRANCH   4   5
ATOM      5  C   UNL     1      60.969  31.922  60.861  1.00  0.00     0.000 C 
BRANCH   5   6
ATOM      6  C   UNL     1      61.013  30.625  61.681  1.00  0.00     0.000 C 
BRANCH   6   7
ATOM      7  C   UNL     1      62.431  30.036  61.699  1.00  0.00     0.006 C 
BRANCH   7   8
ATOM      8  C   UNL     1      62.443  28.536  61.375  1.00  0.00     0.053 C 
BRANCH   8   9
ATOM      9  C   UNL     1      62.234  28.284  59.913  1.00  0.00     0.041 C 
ATOM     10  O   UNL     1      63.200  28.364  59.110  1.00  0.00    -0.550 OA
ATOM     11  O   UNL     1      60.963  27.994  59.434  1.00  0.00    -0.550 OA
ENDBRANCH   8   9
ENDBRANCH   7   8
ENDBRANCH   6   7
ENDBRANCH   5   6
ENDBRANCH   4   5
ENDBRANCH   3   4
ENDBRANCH   2   3
ENDBRANCH   1   2
BRANCH   1  12
ATOM     12  C   UNL     1      64.462  32.809  59.715  1.00  0.00     0.000 C 
BRANCH  12  13
ATOM     13  C   UNL     1      64.049  33.548  60.998  1.00  0.00    -0.000 C 
BRANCH  13  14
ATOM     14  C   UNL     1      64.710  34.934  61.112  1.00  0.00    -0.000 C 
BRANCH  14  15
ATOM     15  C   UNL     1      63.688  36.059  61.341  1.00  0.00    -0.000 C 
BRANCH  15  16
ATOM     16  C   UNL     1      62.255  35.640  60.980  1.00  0.00    -0.000 C 
BRANCH  16  17
ATOM     17  C   UNL     1      61.408  36.863  60.592  1.00  0.00    -0.000 C 
BRANCH  17  18
ATOM     18  C   UNL     1      60.801  36.741  59.185  1.00  0.00    -0.000 C 
BRANCH  18  19
ATOM     19  C   UNL     1      59.663  35.711  59.117  1.00  0.00    -0.003 C 
ATOM     20  C   UNL     1      59.378  35.302  57.674  1.00  0.00     0.004 C 
ENDBRANCH  18  19
ENDBRANCH  17  18
ENDBRANCH  16  17
ENDBRANCH  15  16
ENDBRANCH  14  15
ENDBRANCH  13  14
ENDBRANCH  12  13
ENDBRANCH   1  12
TORSDOF 16
ENDMDL
MODEL 5
REMARK VINA RESULT:    -3.209      1.355      2.966
REMARK INTER + INTRA:          -8.641
REMARK INTER:                  -6.262
REMARK INTRA:                  -2.379
REMARK UNBOUND:                -2.431
REMARK SMILES CCCCCCCCCCCCCCCCCC(=O)[O-]
REMARK SMILES IDX 10 1 11 2 12 3 13 4 14 5 15 6 16 7 17 8 18 9 19 10 20 11
REMARK SMILES IDX 9 12 8 13 7 14 6 15 5 16 4 17 3 18 2 19 1 20
REMARK H PARENT
REMARK Flexibility Score: inf
ROOT
ATOM      1  C   UNL     1      58.625  28.621  52.221  1.00  0.00     0.000 C 
ENDROOT
BRANCH   1   2
ATOM      2  C   UNL     1      58.796  29.684  51.116  1.00  0.00     0.000 C 
BRANCH   2   3
ATOM      3  C   UNL     1      59.000  29.089  49.712  1.00  0.00     0.000 C 
BRANCH   3   4
ATOM      4  C   UNL     1      59.378  27.598  49.743  1.00  0.00     0.000 C 
BRANCH   4   5
ATOM      5  C   UNL     1      60.893  27.371  49.613  1.00  0.00     0.000 C 
BRANCH   5   6
ATOM      6  C   UNL     1      61.292  25.904  49.832  1.00  0.00     0.000 C 
BRANCH   6   7
ATOM      7  C   UNL     1      60.477  25.280  50.975  1.00  0.00     0.006 C 
BRANCH   7   8
ATOM      8  C   UNL     1      59.879  23.921  50.589  1.00  0.00     0.053 C 
BRANCH   8   9
ATOM      9  C   UNL     1      60.944  22.921  50.256  1.00  0.00     0.041 C 
ATOM     10  O   UNL     1      61.840  22.643  51.097  1.00  0.00    -0.550 OA
ATOM     11  O   UNL     1      60.966  22.321  49.003  1.00  0.00    -0.550 OA
ENDBRANCH   8   9
ENDBRANCH   7   8
ENDBRANCH   6   7
ENDBRANCH   5   6
ENDBRANCH   4   5
ENDBRANCH   3   4
ENDBRANCH   2   3
ENDBRANCH   1   2
BRANCH   1  12
ATOM     12  C   UNL     1      57.255  28.722  52.914  1.00  0.00     0.000 C 
BRANCH  12  13
ATOM     13  C   UNL     1      56.283  29.652  52.171  1.00  0.00    -0.000 C 
BRANCH  13  14
ATOM     14  C   UNL     1      54.956  28.952  51.822  1.00  0.00    -0.000 C 
BRANCH  14  15
ATOM     15  C   UNL     1      54.440  29.328  50.424  1.00  0.00    -0.000 C 
BRANCH  15  16
ATOM     16  C   UNL     1      53.640  28.194  49.763  1.00  0.00    -0.000 C 
BRANCH  16  17
ATOM     17  C   UNL     1      53.993  26.837  50.393  1.00  0.00    -0.000 C 
BRANCH  17  18
ATOM     18  C   UNL     1      54.925  25.997  49.504  1.00  0.00    -0.000 C 
BRANCH  18  19
ATOM     19  C   UNL     1      56.389  26.049  49.965  1.00  0.00    -0.003 C 
ATOM     20  C   UNL     1      56.527  25.582  51.412  1.00  0.00     0.004 C 
ENDBRANCH  18  19
ENDBRANCH  17  18
ENDBRANCH  16  17
ENDBRANCH  15  16
ENDBRANCH  14  15
ENDBRANCH  13  14
ENDBRANCH  12  13
ENDBRANCH   1  12
TORSDOF 16
ENDMDL
MODEL 6
REMARK VINA RESULT:    -3.198     13.034     14.854
REMARK INTER + INTRA:          -8.620
REMARK INTER:                  -7.431
REMARK INTRA:                  -1.189
REMARK UNBOUND:                -2.431
REMARK SMILES CCCCCCCCCCCCCCCCCC(=O)[O-]
REMARK SMILES IDX 10 1 11 2 12 3 13 4 14 5 15 6 16 7 17 8 18 9 19 10 20 11
REMARK SMILES IDX 9 12 8 13 7 14 6 15 5 16 4 17 3 18 2 19 1 20
REMARK H PARENT
REMARK Flexibility Score: inf
ROOT
ATOM      1  C   UNL     1      66.706  28.144  60.805  1.00  0.00     0.000 C 
ENDROOT
BRANCH   1   2
ATOM      2  C   UNL     1      67.980  28.545  61.577  1.00  0.00     0.000 C 
BRANCH   2   3
ATOM      3  C   UNL     1      69.179  28.865  60.668  1.00  0.00     0.000 C 
BRANCH   3   4
ATOM      4  C   UNL     1      70.356  29.498  61.430  1.00  0.00     0.000 C 
BRANCH   4   5
ATOM      5  C   UNL     1      71.720  28.983  60.943  1.00  0.00     0.000 C 
BRANCH   5   6
ATOM      6  C   UNL     1      71.924  29.185  59.434  1.00  0.00     0.000 C 
BRANCH   6   7
ATOM      7  C   UNL     1      72.433  30.603  59.135  1.00  0.00     0.006 C 
BRANCH   7   8
ATOM      8  C   UNL     1      71.336  31.505  58.552  1.00  0.00     0.053 C 
BRANCH   8   9
ATOM      9  C   UNL     1      71.193  32.777  59.331  1.00  0.00     0.041 C 
ATOM     10  O   UNL     1      70.767  33.821  58.771  1.00  0.00    -0.550 OA
ATOM     11  O   UNL     1      71.565  32.817  60.669  1.00  0.00    -0.550 OA
ENDBRANCH   8   9
ENDBRANCH   7   8
ENDBRANCH   6   7
ENDBRANCH   5   6
ENDBRANCH   4   5
ENDBRANCH   3   4
ENDBRANCH   2   3
ENDBRANCH   1   2
BRANCH   1  12
ATOM     12  C   UNL     1      65.746  29.333  60.617  1.00  0.00     0.000 C 
BRANCH  12  13
ATOM     13  C   UNL     1      64.293  28.984  60.980  1.00  0.00    -0.000 C 
BRANCH  13  14
ATOM     14  C   UNL     1      63.547  30.174  61.611  1.00  0.00    -0.000 C 
BRANCH  14  15
ATOM     15  C   UNL     1      62.039  29.915  61.758  1.00  0.00    -0.000 C 
BRANCH  15  16
ATOM     16  C   UNL     1      61.194  31.171  61.493  1.00  0.00    -0.000 C 
BRANCH  16  17
ATOM     17  C   UNL     1      61.138  31.485  59.989  1.00  0.00    -0.000 C 
BRANCH  17  18
ATOM     18  C   UNL     1      61.354  32.978  59.689  1.00  0.00    -0.000 C 
BRANCH  18  19
ATOM     19  C   UNL     1      62.372  33.632  60.635  1.00  0.00    -0.003 C 
ATOM     20  C   UNL     1      63.789  33.523  60.079  1.00  0.00     0.004 C 
ENDBRANCH  18  19
ENDBRANCH  17  18
ENDBRANCH  16  17
ENDBRANCH  15  16
ENDBRANCH  14  15
ENDBRANCH  13  14
ENDBRANCH  12  13
ENDBRANCH   1  12
TORSDOF 16
ENDMDL
MODEL 7
REMARK VINA RESULT:    -3.169     11.379     13.720
REMARK INTER + INTRA:          -8.564
REMARK INTER:                  -5.994
REMARK INTRA:                  -2.571
REMARK UNBOUND:                -2.431
REMARK SMILES CCCCCCCCCCCCCCCCCC(=O)[O-]
REMARK SMILES IDX 10 1 11 2 12 3 13 4 14 5 15 6 16 7 17 8 18 9 19 10 20 11
REMARK SMILES IDX 9 12 8 13 7 14 6 15 5 16 4 17 3 18 2 19 1 20
REMARK H PARENT
REMARK Flexibility Score: inf
ROOT
ATOM      1  C   UNL     1      60.842  31.050  59.279  1.00  0.00     0.000 C 
ENDROOT
BRANCH   1   2
ATOM      2  C   UNL     1      60.975  31.987  58.060  1.00  0.00     0.000 C 
BRANCH   2   3
ATOM      3  C   UNL     1      59.966  33.148  58.060  1.00  0.00     0.000 C 
BRANCH   3   4
ATOM      4  C   UNL     1      60.620  34.510  57.773  1.00  0.00     0.000 C 
BRANCH   4   5
ATOM      5  C   UNL     1      60.871  35.326  59.051  1.00  0.00     0.000 C 
BRANCH   5   6
ATOM      6  C   UNL     1      62.359  35.401  59.423  1.00  0.00     0.000 C 
BRANCH   6   7
ATOM      7  C   UNL     1      62.545  35.366  60.947  1.00  0.00     0.006 C 
BRANCH   7   8
ATOM      8  C   UNL     1      63.929  34.841  61.353  1.00  0.00     0.053 C 
BRANCH   8   9
ATOM      9  C   UNL     1      64.912  35.956  61.536  1.00  0.00     0.041 C 
ATOM     10  O   UNL     1      64.610  36.963  62.230  1.00  0.00    -0.550 OA
ATOM     11  O   UNL     1      66.152  35.898  60.912  1.00  0.00    -0.550 OA
ENDBRANCH   8   9
ENDBRANCH   7   8
ENDBRANCH   6   7
ENDBRANCH   5   6
ENDBRANCH   4   5
ENDBRANCH   3   4
ENDBRANCH   2   3
ENDBRANCH   1   2
BRANCH   1  12
ATOM     12  C   UNL     1      61.144  31.775  60.602  1.00  0.00     0.000 C 
BRANCH  12  13
ATOM     13  C   UNL     1      61.082  30.838  61.819  1.00  0.00    -0.000 C 
BRANCH  13  14
ATOM     14  C   UNL     1      62.178  29.757  61.780  1.00  0.00    -0.000 C 
BRANCH  14  15
ATOM     15  C   UNL     1      63.571  30.338  61.490  1.00  0.00    -0.000 C 
BRANCH  15  16
ATOM     16  C   UNL     1      64.280  29.626  60.327  1.00  0.00    -0.000 C 
BRANCH  16  17
ATOM     17  C   UNL     1      65.114  30.619  59.504  1.00  0.00    -0.000 C 
BRANCH  17  18
ATOM     18  C   UNL     1      64.513  32.034  59.497  1.00  0.00    -0.000 C 
BRANCH  18  19
ATOM     19  C   UNL     1      65.107  32.926  58.396  1.00  0.00    -0.003 C 
ATOM     20  C   UNL     1      64.253  32.881  57.132  1.00  0.00     0.004 C 
ENDBRANCH  18  19
ENDBRANCH  17  18
ENDBRANCH  16  17
ENDBRANCH  15  16
ENDBRANCH  14  15
ENDBRANCH  13  14
ENDBRANCH  12  13
ENDBRANCH   1  12
TORSDOF 16
ENDMDL
MODEL 8
REMARK VINA RESULT:    -3.133     10.842     13.076
REMARK INTER + INTRA:          -8.494
REMARK INTER:                  -6.196
REMARK INTRA:                  -2.298
REMARK UNBOUND:                -2.431
REMARK SMILES CCCCCCCCCCCCCCCCCC(=O)[O-]
REMARK SMILES IDX 10 1 11 2 12 3 13 4 14 5 15 6 16 7 17 8 18 9 19 10 20 11
REMARK SMILES IDX 9 12 8 13 7 14 6 15 5 16 4 17 3 18 2 19 1 20
REMARK H PARENT
REMARK Flexibility Score: inf
ROOT
ATOM      1  C   UNL     1      60.360  32.789  58.242  1.00  0.00     0.000 C 
ENDROOT
BRANCH   1   2
ATOM      2  C   UNL     1      61.282  31.805  58.993  1.00  0.00     0.000 C 
BRANCH   2   3
ATOM      3  C   UNL     1      61.167  31.898  60.525  1.00  0.00     0.000 C 
BRANCH   3   4
ATOM      4  C   UNL     1      60.782  30.560  61.178  1.00  0.00     0.000 C 
BRANCH   4   5
ATOM      5  C   UNL     1      61.914  29.976  62.039  1.00  0.00     0.000 C 
BRANCH   5   6
ATOM      6  C   UNL     1      62.945  29.196  61.211  1.00  0.00     0.000 C 
BRANCH   6   7
ATOM      7  C   UNL     1      64.246  29.998  61.059  1.00  0.00     0.006 C 
BRANCH   7   8
ATOM      8  C   UNL     1      65.203  29.368  60.038  1.00  0.00     0.053 C 
BRANCH   8   9
ATOM      9  C   UNL     1      65.977  28.231  60.633  1.00  0.00     0.041 C 
ATOM     10  O   UNL     1      65.673  27.041  60.354  1.00  0.00    -0.550 OA
ATOM     11  O   UNL     1      67.012  28.487  61.523  1.00  0.00    -0.550 OA
ENDBRANCH   8   9
ENDBRANCH   7   8
ENDBRANCH   6   7
ENDBRANCH   5   6
ENDBRANCH   4   5
ENDBRANCH   3   4
ENDBRANCH   2   3
ENDBRANCH   1   2
BRANCH   1  12
ATOM     12  C   UNL     1      60.997  34.182  58.094  1.00  0.00     0.000 C 
BRANCH  12  13
ATOM     13  C   UNL     1      59.996  35.321  58.345  1.00  0.00    -0.000 C 
BRANCH  13  14
ATOM     14  C   UNL     1      60.483  36.297  59.432  1.00  0.00    -0.000 C 
BRANCH  14  15
ATOM     15  C   UNL     1      61.094  35.575  60.644  1.00  0.00    -0.000 C 
BRANCH  15  16
ATOM     16  C   UNL     1      62.489  36.107  61.008  1.00  0.00    -0.000 C 
BRANCH  16  17
ATOM     17  C   UNL     1      63.509  34.960  61.087  1.00  0.00    -0.000 C 
BRANCH  17  18
ATOM     18  C   UNL     1      64.273  34.755  59.768  1.00  0.00    -0.000 C 
BRANCH  18  19
ATOM     19  C   UNL     1      64.466  33.272  59.419  1.00  0.00    -0.003 C 
ATOM     20  C   UNL     1      65.188  33.111  58.084  1.00  0.00     0.004 C 
ENDBRANCH  18  19
ENDBRANCH  17  18
ENDBRANCH  16  17
ENDBRANCH  15  16
ENDBRANCH  14  15
ENDBRANCH  13  14
ENDBRANCH  12  13
ENDBRANCH   1  12
TORSDOF 16
ENDMDL
MODEL 9
REMARK VINA RESULT:    -3.121      3.268      6.373
REMARK INTER + INTRA:          -8.472
REMARK INTER:                  -5.753
REMARK INTRA:                  -2.719
REMARK UNBOUND:                -2.431
REMARK SMILES CCCCCCCCCCCCCCCCCC(=O)[O-]
REMARK SMILES IDX 10 1 11 2 12 3 13 4 14 5 15 6 16 7 17 8 18 9 19 10 20 11
REMARK SMILES IDX 9 12 8 13 7 14 6 15 5 16 4 17 3 18 2 19 1 20
REMARK H PARENT
REMARK Flexibility Score: inf
ROOT
ATOM      1  C   UNL     1      59.520  25.278  51.633  1.00  0.00     0.000 C 
ENDROOT
BRANCH   1   2
ATOM      2  C   UNL     1      57.981  25.223  51.521  1.00  0.00     0.000 C 
BRANCH   2   3
ATOM      3  C   UNL     1      57.434  25.843  50.223  1.00  0.00     0.000 C 
BRANCH   3   4
ATOM      4  C   UNL     1      55.946  26.217  50.321  1.00  0.00     0.000 C 
BRANCH   4   5
ATOM      5  C   UNL     1      55.694  27.712  50.062  1.00  0.00     0.000 C 
BRANCH   5   6
ATOM      6  C   UNL     1      54.199  28.062  50.025  1.00  0.00     0.000 C 
BRANCH   6   7
ATOM      7  C   UNL     1      53.942  29.433  50.667  1.00  0.00     0.006 C 
BRANCH   7   8
ATOM      8  C   UNL     1      54.383  29.481  52.137  1.00  0.00     0.053 C 
BRANCH   8   9
ATOM      9  C   UNL     1      53.834  30.683  52.841  1.00  0.00     0.041 C 
ATOM     10  O   UNL     1      53.801  31.801  52.261  1.00  0.00    -0.550 OA
ATOM     11  O   UNL     1      53.389  30.576  54.153  1.00  0.00    -0.550 OA
ENDBRANCH   8   9
ENDBRANCH   7   8
ENDBRANCH   6   7
ENDBRANCH   5   6
ENDBRANCH   4   5
ENDBRANCH   3   4
ENDBRANCH   2   3
ENDBRANCH   1   2
BRANCH   1  12
ATOM     12  C   UNL     1      60.210  24.939  50.300  1.00  0.00     0.000 C 
BRANCH  12  13
ATOM     13  C   UNL     1      61.334  25.926  49.948  1.00  0.00    -0.000 C 
BRANCH  13  14
ATOM     14  C   UNL     1      60.901  27.393  50.131  1.00  0.00    -0.000 C 
BRANCH  14  15
ATOM     15  C   UNL     1      60.000  27.890  48.989  1.00  0.00    -0.000 C 
BRANCH  15  16
ATOM     16  C   UNL     1      59.160  29.113  49.388  1.00  0.00    -0.000 C 
BRANCH  16  17
ATOM     17  C   UNL     1      59.411  29.495  50.855  1.00  0.00    -0.000 C 
BRANCH  17  18
ATOM     18  C   UNL     1      58.107  29.675  51.651  1.00  0.00    -0.000 C 
BRANCH  18  19
ATOM     19  C   UNL     1      58.006  28.718  52.849  1.00  0.00    -0.003 C 
ATOM     20  C   UNL     1      59.384  28.435  53.443  1.00  0.00     0.004 C 
ENDBRANCH  18  19
ENDBRANCH  17  18
ENDBRANCH  16  17
ENDBRANCH  15  16
ENDBRANCH  14  15
ENDBRANCH  13  14
ENDBRANCH  12  13
ENDBRANCH   1  12
TORSDOF 16
ENDMDL
