MODEL 1
REMARK VINA RESULT:    39.585      0.000      0.000
REMARK INTER + INTRA:          47.778
REMARK INTER:                  47.684
REMARK INTRA:                   0.094
REMARK UNBOUND:                 0.094
REMARK SMILES O=c1c(O)c(-c2ccc(O)c(O)c2)oc2cc(O)cc(O)c12
REMARK SMILES IDX 5 1 3 2 2 3 1 4 22 5 20 6 19 7 17 8 16 9 15 10 14 11 6 12
REMARK SMILES IDX 7 13 8 14 9 15 13 16 11 17 10 18 12 20 4 22 21 24 18 26
REMARK H PARENT 10 19 12 21 4 23 21 25 18 27
REMARK Flexibility Score: inf
ROOT
ATOM      1  C   UNL     1      18.061  24.540   7.241  1.00  0.00     0.180 A 
ATOM      2  C   UNL     1      18.182  25.897   6.893  1.00  0.00     0.208 A 
ATOM      3  C   UNL     1      19.038  26.256   5.838  1.00  0.00     0.238 A 
ATOM      4  O   UNL     1      19.184  27.476   5.567  1.00  0.00    -0.285 OA
ATOM      5  C   UNL     1      19.749  25.252   5.136  1.00  0.00     0.111 A 
ATOM      6  C   UNL     1      20.612  25.498   4.026  1.00  0.00     0.134 A 
ATOM      7  C   UNL     1      21.365  24.446   3.491  1.00  0.00     0.093 A 
ATOM      8  C   UNL     1      21.239  23.147   3.981  1.00  0.00     0.123 A 
ATOM      9  C   UNL     1      20.353  22.885   5.027  1.00  0.00     0.094 A 
ATOM     10  C   UNL     1      19.615  23.920   5.606  1.00  0.00     0.146 A 
ATOM     11  O   UNL     1      18.792  23.630   6.606  1.00  0.00    -0.452 OA
ENDROOT
BRANCH   1  12
ATOM     12  C   UNL     1      17.161  24.082   8.323  1.00  0.00     0.025 A 
ATOM     13  C   UNL     1      17.574  23.044   9.174  1.00  0.00     0.016 A 
ATOM     14  C   UNL     1      16.733  22.582  10.188  1.00  0.00     0.051 A 
ATOM     15  C   UNL     1      15.461  23.138  10.360  1.00  0.00     0.157 A 
ATOM     16  C   UNL     1      15.874  24.626   8.484  1.00  0.00     0.062 A 
ATOM     17  C   UNL     1      15.026  24.162   9.501  1.00  0.00     0.158 A 
BRANCH  15  18
ATOM     18  O   UNL     1      14.643  22.658  11.382  1.00  0.00    -0.504 OA
ATOM     19  H   UNL     1      13.634  22.736  11.346  1.00  0.00     0.293 HD
ENDBRANCH  15  18
BRANCH  17  20
ATOM     20  O   UNL     1      13.753  24.710   9.657  1.00  0.00    -0.504 OA
ATOM     21  H   UNL     1      13.581  25.699   9.520  1.00  0.00     0.293 HD
ENDBRANCH  17  20
ENDBRANCH   1  12
BRANCH   2  22
ATOM     22  O   UNL     1      17.488  26.872   7.613  1.00  0.00    -0.502 OA
ATOM     23  H   UNL     1      17.004  27.640   7.163  1.00  0.00     0.293 HD
ENDBRANCH   2  22
BRANCH   6  24
ATOM     24  O   UNL     1      20.744  26.741   3.400  1.00  0.00    -0.507 OA
ATOM     25  H   UNL     1      21.442  27.430   3.631  1.00  0.00     0.293 HD
ENDBRANCH   6  24
BRANCH   8  26
ATOM     26  O   UNL     1      21.992  22.122   3.415  1.00  0.00    -0.508 OA
ATOM     27  H   UNL     1      22.035  21.987   2.411  1.00  0.00     0.293 HD
ENDBRANCH   8  26
TORSDOF 6
ENDMDL
MODEL 2
REMARK VINA RESULT:    40.524      0.676      1.444
REMARK INTER + INTRA:          48.909
REMARK INTER:                  48.407
REMARK INTRA:                   0.501
REMARK UNBOUND:                 0.094
REMARK SMILES O=c1c(O)c(-c2ccc(O)c(O)c2)oc2cc(O)cc(O)c12
REMARK SMILES IDX 5 1 3 2 2 3 1 4 22 5 20 6 19 7 17 8 16 9 15 10 14 11 6 12
REMARK SMILES IDX 7 13 8 14 9 15 13 16 11 17 10 18 12 20 4 22 21 24 18 26
REMARK H PARENT 10 19 12 21 4 23 21 25 18 27
REMARK Flexibility Score: inf
ROOT
ATOM      1  C   UNL     1      18.169  24.504   7.164  1.00  0.00     0.180 A 
ATOM      2  C   UNL     1      18.256  25.866   6.830  1.00  0.00     0.208 A 
ATOM      3  C   UNL     1      19.095  26.257   5.773  1.00  0.00     0.238 A 
ATOM      4  O   UNL     1      19.210  27.483   5.514  1.00  0.00    -0.285 OA
ATOM      5  C   UNL     1      19.823  25.278   5.054  1.00  0.00     0.111 A 
ATOM      6  C   UNL     1      20.671  25.556   3.940  1.00  0.00     0.134 A 
ATOM      7  C   UNL     1      21.443  24.528   3.387  1.00  0.00     0.093 A 
ATOM      8  C   UNL     1      21.351  23.220   3.864  1.00  0.00     0.123 A 
ATOM      9  C   UNL     1      20.480  22.926   4.914  1.00  0.00     0.094 A 
ATOM     10  C   UNL     1      19.723  23.938   5.510  1.00  0.00     0.146 A 
ATOM     11  O   UNL     1      18.915  23.618   6.513  1.00  0.00    -0.452 OA
ENDROOT
BRANCH   1  12
ATOM     12  C   UNL     1      17.288  24.013   8.248  1.00  0.00     0.025 A 
ATOM     13  C   UNL     1      16.339  24.878   8.814  1.00  0.00     0.016 A 
ATOM     14  C   UNL     1      15.512  24.442   9.851  1.00  0.00     0.051 A 
ATOM     15  C   UNL     1      15.630  23.141  10.350  1.00  0.00     0.157 A 
ATOM     16  C   UNL     1      17.419  22.711   8.764  1.00  0.00     0.062 A 
ATOM     17  C   UNL     1      16.591  22.271   9.808  1.00  0.00     0.158 A 
BRANCH  15  18
ATOM     18  O   UNL     1      14.790  22.732  11.385  1.00  0.00    -0.504 OA
ATOM     19  H   UNL     1      13.929  23.220  11.605  1.00  0.00     0.293 HD
ENDBRANCH  15  18
BRANCH  17  20
ATOM     20  O   UNL     1      16.724  20.977  10.310  1.00  0.00    -0.504 OA
ATOM     21  H   UNL     1      17.224  20.791  11.172  1.00  0.00     0.293 HD
ENDBRANCH  17  20
ENDBRANCH   1  12
BRANCH   2  22
ATOM     22  O   UNL     1      17.545  26.818   7.567  1.00  0.00    -0.502 OA
ATOM     23  H   UNL     1      17.371  26.718   8.560  1.00  0.00     0.293 HD
ENDBRANCH   2  22
BRANCH   6  24
ATOM     24  O   UNL     1      20.768  26.809   3.327  1.00  0.00    -0.507 OA
ATOM     25  H   UNL     1      20.419  27.026   2.406  1.00  0.00     0.293 HD
ENDBRANCH   6  24
BRANCH   8  26
ATOM     26  O   UNL     1      22.123  22.219   3.280  1.00  0.00    -0.508 OA
ATOM     27  H   UNL     1      22.907  22.439   2.676  1.00  0.00     0.293 HD
ENDBRANCH   8  26
TORSDOF 6
ENDMDL
MODEL 3
REMARK VINA RESULT:    40.961      2.216      6.901
REMARK INTER + INTRA:          49.436
REMARK INTER:                  49.603
REMARK INTRA:                  -0.167
REMARK UNBOUND:                 0.094
REMARK SMILES O=c1c(O)c(-c2ccc(O)c(O)c2)oc2cc(O)cc(O)c12
REMARK SMILES IDX 5 1 3 2 2 3 1 4 22 5 20 6 19 7 17 8 16 9 15 10 14 11 6 12
REMARK SMILES IDX 7 13 8 14 9 15 13 16 11 17 10 18 12 20 4 22 21 24 18 26
REMARK H PARENT 10 19 12 21 4 23 21 25 18 27
REMARK Flexibility Score: inf
ROOT
ATOM      1  C   UNL     1      16.836  24.177   8.599  1.00  0.00     0.180 A 
ATOM      2  C   UNL     1      15.465  24.384   8.831  1.00  0.00     0.208 A 
ATOM      3  C   UNL     1      14.733  23.398   9.514  1.00  0.00     0.238 A 
ATOM      4  O   UNL     1      13.496  23.564   9.671  1.00  0.00    -0.285 OA
ATOM      5  C   UNL     1      15.385  22.226   9.969  1.00  0.00     0.111 A 
ATOM      6  C   UNL     1      14.751  21.181  10.705  1.00  0.00     0.134 A 
ATOM      7  C   UNL     1      15.461  20.009  10.992  1.00  0.00     0.093 A 
ATOM      8  C   UNL     1      16.799  19.869  10.625  1.00  0.00     0.123 A 
ATOM      9  C   UNL     1      17.446  20.910   9.957  1.00  0.00     0.094 A 
ATOM     10  C   UNL     1      16.754  22.077   9.626  1.00  0.00     0.146 A 
ATOM     11  O   UNL     1      17.404  23.038   8.981  1.00  0.00    -0.452 OA
ENDROOT
BRANCH   1  12
ATOM     12  C   UNL     1      17.679  25.180   7.910  1.00  0.00     0.025 A 
ATOM     13  C   UNL     1      17.883  26.437   8.502  1.00  0.00     0.016 A 
ATOM     14  C   UNL     1      18.657  27.405   7.859  1.00  0.00     0.051 A 
ATOM     15  C   UNL     1      19.227  27.140   6.610  1.00  0.00     0.157 A 
ATOM     16  C   UNL     1      18.235  24.923   6.645  1.00  0.00     0.062 A 
ATOM     17  C   UNL     1      19.012  25.895   5.996  1.00  0.00     0.158 A 
BRANCH  15  18
ATOM     18  O   UNL     1      19.997  28.125   5.993  1.00  0.00    -0.504 OA
ATOM     19  H   UNL     1      20.997  28.197   6.139  1.00  0.00     0.293 HD
ENDBRANCH  15  18
BRANCH  17  20
ATOM     20  O   UNL     1      19.565  25.629   4.744  1.00  0.00    -0.504 OA
ATOM     21  H   UNL     1      19.386  24.758   4.258  1.00  0.00     0.293 HD
ENDBRANCH  17  20
ENDBRANCH   1  12
BRANCH   2  22
ATOM     22  O   UNL     1      14.837  25.538   8.355  1.00  0.00    -0.502 OA
ATOM     23  H   UNL     1      15.323  26.421   8.257  1.00  0.00     0.293 HD
ENDBRANCH   2  22
BRANCH   6  24
ATOM     24  O   UNL     1      13.445  21.256  11.200  1.00  0.00    -0.507 OA
ATOM     25  H   UNL     1      12.711  20.599  10.986  1.00  0.00     0.293 HD
ENDBRANCH   6  24
BRANCH   8  26
ATOM     26  O   UNL     1      17.479  18.695  10.939  1.00  0.00    -0.508 OA
ATOM     27  H   UNL     1      17.666  17.987  10.239  1.00  0.00     0.293 HD
ENDBRANCH   8  26
TORSDOF 6
ENDMDL
MODEL 4
REMARK VINA RESULT:    41.477      1.640      6.651
REMARK INTER + INTRA:          50.057
REMARK INTER:                  49.665
REMARK INTRA:                   0.392
REMARK UNBOUND:                 0.094
REMARK SMILES O=c1c(O)c(-c2ccc(O)c(O)c2)oc2cc(O)cc(O)c12
REMARK SMILES IDX 5 1 3 2 2 3 1 4 22 5 20 6 19 7 17 8 16 9 15 10 14 11 6 12
REMARK SMILES IDX 7 13 8 14 9 15 13 16 11 17 10 18 12 20 4 22 21 24 18 26
REMARK H PARENT 10 19 12 21 4 23 21 25 18 27
REMARK Flexibility Score: inf
ROOT
ATOM      1  C   UNL     1      20.056  24.171   5.117  1.00  0.00     0.180 A 
ATOM      2  C   UNL     1      19.947  25.524   4.753  1.00  0.00     0.208 A 
ATOM      3  C   UNL     1      19.246  26.403   5.597  1.00  0.00     0.238 A 
ATOM      4  O   UNL     1      19.106  27.601   5.238  1.00  0.00    -0.285 OA
ATOM      5  C   UNL     1      18.678  25.919   6.800  1.00  0.00     0.111 A 
ATOM      6  C   UNL     1      17.981  26.728   7.748  1.00  0.00     0.134 A 
ATOM      7  C   UNL     1      17.348  26.121   8.839  1.00  0.00     0.093 A 
ATOM      8  C   UNL     1      17.439  24.746   9.052  1.00  0.00     0.123 A 
ATOM      9  C   UNL     1      18.168  23.954   8.163  1.00  0.00     0.094 A 
ATOM     10  C   UNL     1      18.781  24.526   7.046  1.00  0.00     0.146 A 
ATOM     11  O   UNL     1      19.455  23.736   6.219  1.00  0.00    -0.452 OA
ENDROOT
BRANCH   1  12
ATOM     12  C   UNL     1      20.799  23.191   4.293  1.00  0.00     0.025 A 
ATOM     13  C   UNL     1      21.793  23.641   3.410  1.00  0.00     0.016 A 
ATOM     14  C   UNL     1      22.492  22.736   2.609  1.00  0.00     0.051 A 
ATOM     15  C   UNL     1      22.200  21.370   2.666  1.00  0.00     0.157 A 
ATOM     16  C   UNL     1      20.493  21.819   4.335  1.00  0.00     0.062 A 
ATOM     17  C   UNL     1      21.192  20.907   3.530  1.00  0.00     0.158 A 
BRANCH  15  18
ATOM     18  O   UNL     1      22.916  20.488   1.856  1.00  0.00    -0.504 OA
ATOM     19  H   UNL     1      23.510  20.812   1.102  1.00  0.00     0.293 HD
ENDBRANCH  15  18
BRANCH  17  20
ATOM     20  O   UNL     1      20.887  19.548   3.581  1.00  0.00    -0.504 OA
ATOM     21  H   UNL     1      20.484  19.064   2.786  1.00  0.00     0.293 HD
ENDBRANCH  17  20
ENDBRANCH   1  12
BRANCH   2  22
ATOM     22  O   UNL     1      20.497  25.975   3.550  1.00  0.00    -0.502 OA
ATOM     23  H   UNL     1      21.262  25.498   3.089  1.00  0.00     0.293 HD
ENDBRANCH   2  22
BRANCH   6  24
ATOM     24  O   UNL     1      17.908  28.122   7.680  1.00  0.00    -0.507 OA
ATOM     25  H   UNL     1      18.692  28.731   7.505  1.00  0.00     0.293 HD
ENDBRANCH   6  24
BRANCH   8  26
ATOM     26  O   UNL     1      16.809  24.178  10.157  1.00  0.00    -0.508 OA
ATOM     27  H   UNL     1      15.801  24.088  10.204  1.00  0.00     0.293 HD
ENDBRANCH   8  26
TORSDOF 6
ENDMDL
