MODEL 1
REMARK VINA RESULT:    24.819      0.000      0.000
REMARK INTER + INTRA:          34.820
REMARK INTER:                  36.426
REMARK INTRA:                  -1.605
REMARK UNBOUND:                -1.605
REMARK SMILES O=c1c(O[C@@H]2O[C@H](CO)[C@H](O)[C@@H](O)[C@@H]2O)c(-c2ccc(O)c(O)c2)oc2cc(O)cc(O)c12
REMARK SMILES IDX 4 1 3 2 16 3 25 4 2 5 26 6 1 7 33 8 27 9 31 10 28 11 30 12
REMARK SMILES IDX 17 13 18 14 19 15 20 16 24 17 22 18 21 19 23 21 32 23 29 25
REMARK SMILES IDX 5 27 14 28 6 29 12 30 7 31 10 32 15 33 13 35 8 37 9 38 11 40
REMARK H PARENT 21 20 23 22 32 24 29 26 15 34 13 36 9 39 11 41
REMARK Flexibility Score: inf
ROOT
ATOM      1  O   UNL     1     153.275 141.575 148.791  1.00  0.00    -0.454 OA
ENDROOT
BRANCH   1   2
ATOM      2  C   UNL     1     154.245 141.942 147.853  1.00  0.00     0.214 A 
ATOM      3  C   UNL     1     155.554 142.299 148.252  1.00  0.00     0.180 A 
ATOM      4  O   UNL     1     156.475 142.598 147.324  1.00  0.00    -0.452 OA
ATOM      5  C   UNL     1     153.971 141.862 146.476  1.00  0.00     0.239 A 
ATOM      6  C   UNL     1     156.224 142.605 146.027  1.00  0.00     0.146 A 
ATOM      7  O   UNL     1     152.908 141.306 146.095  1.00  0.00    -0.285 OA
ATOM      8  C   UNL     1     154.934 142.288 145.539  1.00  0.00     0.111 A 
ATOM      9  C   UNL     1     157.278 142.847 145.138  1.00  0.00     0.094 A 
ATOM     10  C   UNL     1     154.699 142.340 144.129  1.00  0.00     0.134 A 
ATOM     11  C   UNL     1     157.062 142.815 143.752  1.00  0.00     0.123 A 
ATOM     12  C   UNL     1     155.780 142.552 143.258  1.00  0.00     0.093 A 
BRANCH   3  13
ATOM     13  C   UNL     1     156.012 142.279 149.658  1.00  0.00     0.025 A 
ATOM     14  C   UNL     1     155.803 143.423 150.447  1.00  0.00     0.016 A 
ATOM     15  C   UNL     1     156.385 143.528 151.705  1.00  0.00     0.051 A 
ATOM     16  C   UNL     1     157.172 142.497 152.220  1.00  0.00     0.157 A 
ATOM     17  C   UNL     1     156.810 141.233 150.169  1.00  0.00     0.062 A 
ATOM     18  C   UNL     1     157.369 141.317 151.458  1.00  0.00     0.158 A 
BRANCH  16  19
ATOM     19  O   UNL     1     157.741 142.688 153.484  1.00  0.00    -0.504 OA
ATOM     20  H   UNL     1     158.067 141.944 154.089  1.00  0.00     0.293 HD
ENDBRANCH  16  19
BRANCH  18  21
ATOM     21  O   UNL     1     158.125 140.245 151.963  1.00  0.00    -0.504 OA
ATOM     22  H   UNL     1     159.089 140.074 151.698  1.00  0.00     0.293 HD
ENDBRANCH  18  21
ENDBRANCH   3  13
BRANCH  10  23
ATOM     23  O   UNL     1     153.419 142.254 143.567  1.00  0.00    -0.507 OA
ATOM     24  H   UNL     1     152.567 142.453 144.085  1.00  0.00     0.293 HD
ENDBRANCH  10  23
BRANCH  11  25
ATOM     25  O   UNL     1     158.125 143.054 142.875  1.00  0.00    -0.508 OA
ATOM     26  H   UNL     1     158.254 143.952 142.415  1.00  0.00     0.293 HD
ENDBRANCH  11  25
ENDBRANCH   1   2
BRANCH   1  27
ATOM     27  C   UNL     1     152.174 142.396 149.201  1.00  0.00     0.339 C 
ATOM     28  C   UNL     1     150.778 141.843 148.823  1.00  0.00     0.214 C 
ATOM     29  O   UNL     1     152.245 142.582 150.609  1.00  0.00    -0.332 OA
ATOM     30  C   UNL     1     150.531 140.447 149.444  1.00  0.00     0.180 C 
ATOM     31  C   UNL     1     151.821 141.445 151.391  1.00  0.00     0.179 C 
ATOM     32  C   UNL     1     151.508 140.136 150.598  1.00  0.00     0.177 C 
BRANCH  28  33
ATOM     33  O   UNL     1     150.579 141.798 147.430  1.00  0.00    -0.384 OA
ATOM     34  H   UNL     1     150.779 140.878 147.129  1.00  0.00     0.211 HD
ENDBRANCH  28  33
BRANCH  30  35
ATOM     35  O   UNL     1     149.206 140.381 149.911  1.00  0.00    -0.387 OA
ATOM     36  H   UNL     1     149.229 140.529 150.893  1.00  0.00     0.211 HD
ENDBRANCH  30  35
BRANCH  31  37
ATOM     37  C   UNL     1     152.844 141.200 152.510  1.00  0.00     0.191 C 
BRANCH  37  38
ATOM     38  O   UNL     1     153.034 142.402 153.199  1.00  0.00    -0.394 OA
ATOM     39  H   UNL     1     153.200 143.116 152.541  1.00  0.00     0.210 HD
ENDBRANCH  37  38
ENDBRANCH  31  37
BRANCH  32  40
ATOM     40  O   UNL     1     152.664 139.515 150.102  1.00  0.00    -0.387 OA
ATOM     41  H   UNL     1     152.538 138.528 150.225  1.00  0.00     0.211 HD
ENDBRANCH  32  40
ENDBRANCH   1  27
TORSDOF 12
ENDMDL
MODEL 2
REMARK VINA RESULT:    24.849      8.510     10.635
REMARK INTER + INTRA:          34.865
REMARK INTER:                  33.625
REMARK INTRA:                   1.239
REMARK UNBOUND:                -1.605
REMARK SMILES O=c1c(O[C@@H]2O[C@H](CO)[C@H](O)[C@@H](O)[C@@H]2O)c(-c2ccc(O)c(O)c2)oc2cc(O)cc(O)c12
REMARK SMILES IDX 4 1 3 2 16 3 25 4 2 5 26 6 1 7 33 8 27 9 31 10 28 11 30 12
REMARK SMILES IDX 17 13 18 14 19 15 20 16 24 17 22 18 21 19 23 21 32 23 29 25
REMARK SMILES IDX 5 27 14 28 6 29 12 30 7 31 10 32 15 33 13 35 8 37 9 38 11 40
REMARK H PARENT 21 20 23 22 32 24 29 26 15 34 13 36 9 39 11 41
REMARK Flexibility Score: inf
ROOT
ATOM      1  O   UNL     1     145.708 148.646 147.161  1.00  0.00    -0.454 OA
ENDROOT
BRANCH   1   2
ATOM      2  C   UNL     1     146.598 147.842 146.442  1.00  0.00     0.214 A 
ATOM      3  C   UNL     1     147.964 147.760 146.797  1.00  0.00     0.180 A 
ATOM      4  O   UNL     1     148.781 146.942 146.117  1.00  0.00    -0.452 OA
ATOM      5  C   UNL     1     146.131 147.011 145.408  1.00  0.00     0.239 A 
ATOM      6  C   UNL     1     148.386 146.206 145.093  1.00  0.00     0.146 A 
ATOM      7  O   UNL     1     144.890 146.875 145.245  1.00  0.00    -0.285 OA
ATOM      8  C   UNL     1     147.043 146.248 144.650  1.00  0.00     0.111 A 
ATOM      9  C   UNL     1     149.298 145.321 144.507  1.00  0.00     0.094 A 
ATOM     10  C   UNL     1     146.666 145.460 143.517  1.00  0.00     0.134 A 
ATOM     11  C   UNL     1     148.903 144.489 143.449  1.00  0.00     0.123 A 
ATOM     12  C   UNL     1     147.591 144.556 142.969  1.00  0.00     0.093 A 
BRANCH   3  13
ATOM     13  C   UNL     1     148.550 148.469 147.955  1.00  0.00     0.025 A 
ATOM     14  C   UNL     1     147.726 149.328 148.701  1.00  0.00     0.016 A 
ATOM     15  C   UNL     1     148.271 150.162 149.671  1.00  0.00     0.051 A 
ATOM     16  C   UNL     1     149.641 150.153 149.938  1.00  0.00     0.157 A 
ATOM     17  C   UNL     1     149.937 148.456 148.216  1.00  0.00     0.062 A 
ATOM     18  C   UNL     1     150.489 149.269 149.223  1.00  0.00     0.158 A 
BRANCH  16  19
ATOM     19  O   UNL     1     150.115 151.038 150.912  1.00  0.00    -0.504 OA
ATOM     20  H   UNL     1     149.774 151.084 151.865  1.00  0.00     0.293 HD
ENDBRANCH  16  19
BRANCH  18  21
ATOM     21  O   UNL     1     151.867 149.208 149.494  1.00  0.00    -0.504 OA
ATOM     22  H   UNL     1     152.409 148.353 149.418  1.00  0.00     0.293 HD
ENDBRANCH  18  21
ENDBRANCH   3  13
BRANCH  10  23
ATOM     23  O   UNL     1     145.428 145.592 142.876  1.00  0.00    -0.507 OA
ATOM     24  H   UNL     1     144.988 144.840 142.353  1.00  0.00     0.293 HD
ENDBRANCH  10  23
BRANCH  11  25
ATOM     25  O   UNL     1     149.824 143.606 142.875  1.00  0.00    -0.508 OA
ATOM     26  H   UNL     1     149.962 143.547 141.869  1.00  0.00     0.293 HD
ENDBRANCH  11  25
ENDBRANCH   1   2
BRANCH   1  27
ATOM     27  C   UNL     1     144.666 148.158 148.017  1.00  0.00     0.339 C 
ATOM     28  C   UNL     1     144.283 149.109 149.177  1.00  0.00     0.214 C 
ATOM     29  O   UNL     1     143.516 147.889 147.225  1.00  0.00    -0.332 OA
ATOM     30  C   UNL     1     143.803 150.484 148.653  1.00  0.00     0.180 C 
ATOM     31  C   UNL     1     142.775 149.059 146.819  1.00  0.00     0.179 C 
ATOM     32  C   UNL     1     143.420 150.442 147.158  1.00  0.00     0.177 C 
BRANCH  28  33
ATOM     33  O   UNL     1     145.334 149.280 150.099  1.00  0.00    -0.384 OA
ATOM     34  H   UNL     1     145.470 150.250 150.221  1.00  0.00     0.211 HD
ENDBRANCH  28  33
BRANCH  30  35
ATOM     35  O   UNL     1     142.700 150.906 149.416  1.00  0.00    -0.387 OA
ATOM     36  H   UNL     1     142.588 150.256 150.160  1.00  0.00     0.211 HD
ENDBRANCH  30  35
BRANCH  31  37
ATOM     37  C   UNL     1     142.438 148.942 145.325  1.00  0.00     0.191 C 
BRANCH  37  38
ATOM     38  O   UNL     1     143.541 149.388 144.591  1.00  0.00    -0.394 OA
ATOM     39  H   UNL     1     143.297 150.230 144.142  1.00  0.00     0.210 HD
ENDBRANCH  37  38
ENDBRANCH  31  37
BRANCH  32  40
ATOM     40  O   UNL     1     144.538 150.725 146.361  1.00  0.00    -0.387 OA
ATOM     41  H   UNL     1     144.204 150.831 145.421  1.00  0.00     0.211 HD
ENDBRANCH  32  40
ENDBRANCH   1  27
TORSDOF 12
ENDMDL
MODEL 3
REMARK VINA RESULT:    26.265      7.915     11.559
REMARK INTER + INTRA:          36.943
REMARK INTER:                  34.518
REMARK INTRA:                   2.425
REMARK UNBOUND:                -1.605
REMARK SMILES O=c1c(O[C@@H]2O[C@H](CO)[C@H](O)[C@@H](O)[C@@H]2O)c(-c2ccc(O)c(O)c2)oc2cc(O)cc(O)c12
REMARK SMILES IDX 4 1 3 2 16 3 25 4 2 5 26 6 1 7 33 8 27 9 31 10 28 11 30 12
REMARK SMILES IDX 17 13 18 14 19 15 20 16 24 17 22 18 21 19 23 21 32 23 29 25
REMARK SMILES IDX 5 27 14 28 6 29 12 30 7 31 10 32 15 33 13 35 8 37 9 38 11 40
REMARK H PARENT 21 20 23 22 32 24 29 26 15 34 13 36 9 39 11 41
REMARK Flexibility Score: inf
ROOT
ATOM      1  O   UNL     1     147.886 146.699 145.874  1.00  0.00    -0.454 OA
ENDROOT
BRANCH   1   2
ATOM      2  C   UNL     1     148.009 147.680 146.864  1.00  0.00     0.214 A 
ATOM      3  C   UNL     1     146.884 148.398 147.330  1.00  0.00     0.180 A 
ATOM      4  O   UNL     1     147.029 149.296 148.315  1.00  0.00    -0.452 OA
ATOM      5  C   UNL     1     149.246 147.902 147.496  1.00  0.00     0.239 A 
ATOM      6  C   UNL     1     148.191 149.579 148.876  1.00  0.00     0.146 A 
ATOM      7  O   UNL     1     150.195 147.104 147.280  1.00  0.00    -0.285 OA
ATOM      8  C   UNL     1     149.375 148.930 148.452  1.00  0.00     0.111 A 
ATOM      9  C   UNL     1     148.220 150.470 149.956  1.00  0.00     0.094 A 
ATOM     10  C   UNL     1     150.616 149.291 149.064  1.00  0.00     0.134 A 
ATOM     11  C   UNL     1     149.427 150.759 150.608  1.00  0.00     0.123 A 
ATOM     12  C   UNL     1     150.613 150.162 150.166  1.00  0.00     0.093 A 
BRANCH   3  13
ATOM     13  C   UNL     1     145.506 148.154 146.852  1.00  0.00     0.025 A 
ATOM     14  C   UNL     1     144.490 149.033 147.262  1.00  0.00     0.016 A 
ATOM     15  C   UNL     1     143.155 148.739 147.003  1.00  0.00     0.051 A 
ATOM     16  C   UNL     1     142.797 147.577 146.318  1.00  0.00     0.157 A 
ATOM     17  C   UNL     1     145.152 146.975 146.162  1.00  0.00     0.062 A 
ATOM     18  C   UNL     1     143.806 146.691 145.863  1.00  0.00     0.158 A 
BRANCH  16  19
ATOM     19  O   UNL     1     141.432 147.341 146.118  1.00  0.00    -0.504 OA
ATOM     20  H   UNL     1     140.925 146.543 146.481  1.00  0.00     0.293 HD
ENDBRANCH  16  19
BRANCH  18  21
ATOM     21  O   UNL     1     143.481 145.532 145.137  1.00  0.00    -0.504 OA
ATOM     22  H   UNL     1     143.979 145.245 144.300  1.00  0.00     0.293 HD
ENDBRANCH  18  21
ENDBRANCH   3  13
BRANCH  10  23
ATOM     23  O   UNL     1     151.858 148.867 148.574  1.00  0.00    -0.507 OA
ATOM     24  H   UNL     1     152.002 148.545 147.621  1.00  0.00     0.293 HD
ENDBRANCH  10  23
BRANCH  11  25
ATOM     25  O   UNL     1     149.441 151.647 151.688  1.00  0.00    -0.508 OA
ATOM     26  H   UNL     1     148.920 151.467 152.543  1.00  0.00     0.293 HD
ENDBRANCH  11  25
ENDBRANCH   1   2
BRANCH   1  27
ATOM     27  C   UNL     1     148.703 146.608 144.699  1.00  0.00     0.339 C 
ATOM     28  C   UNL     1     149.083 145.165 144.286  1.00  0.00     0.214 C 
ATOM     29  O   UNL     1     148.026 147.246 143.624  1.00  0.00    -0.332 OA
ATOM     30  C   UNL     1     147.829 144.302 144.008  1.00  0.00     0.180 C 
ATOM     31  C   UNL     1     146.942 146.481 143.054  1.00  0.00     0.179 C 
ATOM     32  C   UNL     1     146.563 145.158 143.792  1.00  0.00     0.177 C 
BRANCH  28  33
ATOM     33  O   UNL     1     149.907 144.535 145.239  1.00  0.00    -0.384 OA
ATOM     34  H   UNL     1     150.767 144.327 144.800  1.00  0.00     0.211 HD
ENDBRANCH  28  33
BRANCH  30  35
ATOM     35  O   UNL     1     148.064 143.504 142.875  1.00  0.00    -0.387 OA
ATOM     36  H   UNL     1     148.213 142.574 143.192  1.00  0.00     0.211 HD
ENDBRANCH  30  35
BRANCH  31  37
ATOM     37  C   UNL     1     145.724 147.401 142.875  1.00  0.00     0.191 C 
BRANCH  37  38
ATOM     38  O   UNL     1     146.157 148.725 142.989  1.00  0.00    -0.394 OA
ATOM     39  H   UNL     1     145.403 149.273 143.310  1.00  0.00     0.210 HD
ENDBRANCH  37  38
ENDBRANCH  31  37
BRANCH  32  40
ATOM     40  O   UNL     1     145.917 145.388 145.015  1.00  0.00    -0.387 OA
ATOM     41  H   UNL     1     145.272 146.141 144.864  1.00  0.00     0.211 HD
ENDBRANCH  32  40
ENDBRANCH   1  27
TORSDOF 12
ENDMDL
MODEL 4
REMARK VINA RESULT:    26.458      2.027      5.263
REMARK INTER + INTRA:          37.226
REMARK INTER:                  35.834
REMARK INTRA:                   1.392
REMARK UNBOUND:                -1.605
REMARK SMILES O=c1c(O[C@@H]2O[C@H](CO)[C@H](O)[C@@H](O)[C@@H]2O)c(-c2ccc(O)c(O)c2)oc2cc(O)cc(O)c12
REMARK SMILES IDX 4 1 3 2 16 3 25 4 2 5 26 6 1 7 33 8 27 9 31 10 28 11 30 12
REMARK SMILES IDX 17 13 18 14 19 15 20 16 24 17 22 18 21 19 23 21 32 23 29 25
REMARK SMILES IDX 5 27 14 28 6 29 12 30 7 31 10 32 15 33 13 35 8 37 9 38 11 40
REMARK H PARENT 21 20 23 22 32 24 29 26 15 34 13 36 9 39 11 41
REMARK Flexibility Score: inf
ROOT
ATOM      1  O   UNL     1     153.076 141.974 148.658  1.00  0.00    -0.454 OA
ENDROOT
BRANCH   1   2
ATOM      2  C   UNL     1     153.833 142.205 147.504  1.00  0.00     0.214 A 
ATOM      3  C   UNL     1     153.250 142.763 146.343  1.00  0.00     0.180 A 
ATOM      4  O   UNL     1     154.014 143.018 145.271  1.00  0.00    -0.452 OA
ATOM      5  C   UNL     1     155.223 141.986 147.508  1.00  0.00     0.239 A 
ATOM      6  C   UNL     1     155.307 142.753 145.220  1.00  0.00     0.146 A 
ATOM      7  O   UNL     1     155.800 141.738 148.599  1.00  0.00    -0.285 OA
ATOM      8  C   UNL     1     155.969 142.168 146.326  1.00  0.00     0.111 A 
ATOM      9  C   UNL     1     156.031 143.138 144.085  1.00  0.00     0.094 A 
ATOM     10  C   UNL     1     157.362 141.867 146.215  1.00  0.00     0.134 A 
ATOM     11  C   UNL     1     157.414 142.916 144.013  1.00  0.00     0.123 A 
ATOM     12  C   UNL     1     158.071 142.293 145.080  1.00  0.00     0.093 A 
BRANCH   3  13
ATOM     13  C   UNL     1     151.832 143.175 146.260  1.00  0.00     0.025 A 
ATOM     14  C   UNL     1     151.478 144.174 145.338  1.00  0.00     0.016 A 
ATOM     15  C   UNL     1     150.205 144.732 145.357  1.00  0.00     0.051 A 
ATOM     16  C   UNL     1     149.247 144.304 146.278  1.00  0.00     0.157 A 
ATOM     17  C   UNL     1     150.871 142.738 147.197  1.00  0.00     0.062 A 
ATOM     18  C   UNL     1     149.569 143.272 147.196  1.00  0.00     0.158 A 
BRANCH  16  19
ATOM     19  O   UNL     1     147.997 144.931 146.248  1.00  0.00    -0.504 OA
ATOM     20  H   UNL     1     147.132 144.511 146.567  1.00  0.00     0.293 HD
ENDBRANCH  16  19
BRANCH  18  21
ATOM     21  O   UNL     1     148.616 142.791 148.110  1.00  0.00    -0.504 OA
ATOM     22  H   UNL     1     147.879 142.143 147.853  1.00  0.00     0.293 HD
ENDBRANCH  18  21
ENDBRANCH   3  13
BRANCH  10  23
ATOM     23  O   UNL     1     158.054 141.101 147.163  1.00  0.00    -0.507 OA
ATOM     24  H   UNL     1     158.462 141.494 148.007  1.00  0.00     0.293 HD
ENDBRANCH  10  23
BRANCH  11  25
ATOM     25  O   UNL     1     158.125 143.310 142.875  1.00  0.00    -0.508 OA
ATOM     26  H   UNL     1     157.681 143.398 141.964  1.00  0.00     0.293 HD
ENDBRANCH  11  25
ENDBRANCH   1   2
BRANCH   1  27
ATOM     27  C   UNL     1     153.390 141.006 149.667  1.00  0.00     0.339 C 
ATOM     28  C   UNL     1     153.640 141.597 151.076  1.00  0.00     0.214 C 
ATOM     29  O   UNL     1     152.331 140.058 149.733  1.00  0.00    -0.332 OA
ATOM     30  C   UNL     1     152.408 142.378 151.594  1.00  0.00     0.180 C 
ATOM     31  C   UNL     1     151.143 140.525 150.405  1.00  0.00     0.179 C 
ATOM     32  C   UNL     1     151.123 142.034 150.812  1.00  0.00     0.177 C 
BRANCH  28  33
ATOM     33  O   UNL     1     154.787 142.414 151.118  1.00  0.00    -0.384 OA
ATOM     34  H   UNL     1     155.088 142.458 152.058  1.00  0.00     0.211 HD
ENDBRANCH  28  33
BRANCH  30  35
ATOM     35  O   UNL     1     152.227 142.094 152.959  1.00  0.00    -0.387 OA
ATOM     36  H   UNL     1     151.327 142.430 153.215  1.00  0.00     0.211 HD
ENDBRANCH  30  35
BRANCH  31  37
ATOM     37  C   UNL     1     149.914 140.148 149.563  1.00  0.00     0.191 C 
BRANCH  37  38
ATOM     38  O   UNL     1     150.163 140.516 148.238  1.00  0.00    -0.394 OA
ATOM     39  H   UNL     1     150.615 139.766 147.786  1.00  0.00     0.210 HD
ENDBRANCH  37  38
ENDBRANCH  31  37
BRANCH  32  40
ATOM     40  O   UNL     1     150.981 142.888 149.709  1.00  0.00    -0.387 OA
ATOM     41  H   UNL     1     150.239 143.526 149.930  1.00  0.00     0.211 HD
ENDBRANCH  32  40
ENDBRANCH   1  27
TORSDOF 12
ENDMDL
MODEL 5
REMARK VINA RESULT:    27.658      2.035      5.134
REMARK INTER + INTRA:          38.988
REMARK INTER:                  38.579
REMARK INTRA:                   0.409
REMARK UNBOUND:                -1.605
REMARK SMILES O=c1c(O[C@@H]2O[C@H](CO)[C@H](O)[C@@H](O)[C@@H]2O)c(-c2ccc(O)c(O)c2)oc2cc(O)cc(O)c12
REMARK SMILES IDX 4 1 3 2 16 3 25 4 2 5 26 6 1 7 33 8 27 9 31 10 28 11 30 12
REMARK SMILES IDX 17 13 18 14 19 15 20 16 24 17 22 18 21 19 23 21 32 23 29 25
REMARK SMILES IDX 5 27 14 28 6 29 12 30 7 31 10 32 15 33 13 35 8 37 9 38 11 40
REMARK H PARENT 21 20 23 22 32 24 29 26 15 34 13 36 9 39 11 41
REMARK Flexibility Score: inf
ROOT
ATOM      1  O   UNL     1     153.147 141.255 149.204  1.00  0.00    -0.454 OA
ENDROOT
BRANCH   1   2
ATOM      2  C   UNL     1     153.816 141.647 148.039  1.00  0.00     0.214 A 
ATOM      3  C   UNL     1     153.119 142.220 146.950  1.00  0.00     0.180 A 
ATOM      4  O   UNL     1     153.797 142.630 145.868  1.00  0.00    -0.452 OA
ATOM      5  C   UNL     1     155.219 141.578 147.966  1.00  0.00     0.239 A 
ATOM      6  C   UNL     1     155.106 142.509 145.741  1.00  0.00     0.146 A 
ATOM      7  O   UNL     1     155.874 141.316 149.008  1.00  0.00    -0.285 OA
ATOM      8  C   UNL     1     155.880 141.921 146.769  1.00  0.00     0.111 A 
ATOM      9  C   UNL     1     155.726 143.049 144.608  1.00  0.00     0.094 A 
ATOM     10  C   UNL     1     157.290 141.780 146.576  1.00  0.00     0.134 A 
ATOM     11  C   UNL     1     157.120 142.982 144.460  1.00  0.00     0.123 A 
ATOM     12  C   UNL     1     157.892 142.359 145.446  1.00  0.00     0.093 A 
BRANCH   3  13
ATOM     13  C   UNL     1     151.664 142.483 146.961  1.00  0.00     0.025 A 
ATOM     14  C   UNL     1     150.802 141.463 147.399  1.00  0.00     0.016 A 
ATOM     15  C   UNL     1     149.426 141.588 147.244  1.00  0.00     0.051 A 
ATOM     16  C   UNL     1     148.870 142.731 146.668  1.00  0.00     0.157 A 
ATOM     17  C   UNL     1     151.110 143.641 146.374  1.00  0.00     0.062 A 
ATOM     18  C   UNL     1     149.716 143.790 146.250  1.00  0.00     0.158 A 
BRANCH  16  19
ATOM     19  O   UNL     1     147.478 142.771 146.526  1.00  0.00    -0.504 OA
ATOM     20  H   UNL     1     146.929 142.081 146.029  1.00  0.00     0.293 HD
ENDBRANCH  16  19
BRANCH  18  21
ATOM     21  O   UNL     1     149.186 144.970 145.702  1.00  0.00    -0.504 OA
ATOM     22  H   UNL     1     149.590 145.437 144.896  1.00  0.00     0.293 HD
ENDBRANCH  18  21
ENDBRANCH   3  13
BRANCH  10  23
ATOM     23  O   UNL     1     158.105 141.028 147.432  1.00  0.00    -0.507 OA
ATOM     24  H   UNL     1     158.438 140.094 147.207  1.00  0.00     0.293 HD
ENDBRANCH  10  23
BRANCH  11  25
ATOM     25  O   UNL     1     157.727 143.530 143.325  1.00  0.00    -0.508 OA
ATOM     26  H   UNL     1     158.374 142.997 142.748  1.00  0.00     0.293 HD
ENDBRANCH  11  25
ENDBRANCH   1   2
BRANCH   1  27
ATOM     27  C   UNL     1     151.935 141.841 149.694  1.00  0.00     0.339 C 
ATOM     28  C   UNL     1     151.208 141.012 150.781  1.00  0.00     0.214 C 
ATOM     29  O   UNL     1     152.230 143.136 150.204  1.00  0.00    -0.332 OA
ATOM     30  C   UNL     1     152.108 140.781 152.019  1.00  0.00     0.180 C 
ATOM     31  C   UNL     1     152.876 143.144 151.494  1.00  0.00     0.179 C 
ATOM     32  C   UNL     1     153.305 141.754 152.064  1.00  0.00     0.177 C 
BRANCH  28  33
ATOM     33  O   UNL     1     150.733 139.782 150.287  1.00  0.00    -0.384 OA
ATOM     34  H   UNL     1     150.910 139.096 150.976  1.00  0.00     0.211 HD
ENDBRANCH  28  33
BRANCH  30  35
ATOM     35  O   UNL     1     151.331 140.925 153.182  1.00  0.00    -0.387 OA
ATOM     36  H   UNL     1     150.645 140.207 153.173  1.00  0.00     0.211 HD
ENDBRANCH  30  35
BRANCH  31  37
ATOM     37  C   UNL     1     154.055 144.130 151.455  1.00  0.00     0.191 C 
BRANCH  37  38
ATOM     38  O   UNL     1     154.862 143.801 150.361  1.00  0.00    -0.394 OA
ATOM     39  H   UNL     1     154.614 144.382 149.605  1.00  0.00     0.210 HD
ENDBRANCH  37  38
ENDBRANCH  31  37
BRANCH  32  40
ATOM     40  O   UNL     1     154.403 141.207 151.384  1.00  0.00    -0.387 OA
ATOM     41  H   UNL     1     154.050 140.452 150.826  1.00  0.00     0.211 HD
ENDBRANCH  32  40
ENDBRANCH   1  27
TORSDOF 12
ENDMDL
