MODEL 1
REMARK VINA RESULT:    -5.937      0.000      0.000
REMARK INTER + INTRA:          -7.273
REMARK INTER:                  -6.979
REMARK INTRA:                  -0.294
REMARK UNBOUND:                -0.294
REMARK SMILES O=c1cc(-c2ccc(O)c(O)c2)oc2cc(O)cc(O)c12
REMARK SMILES IDX 4 1 3 2 2 3 1 4 21 5 19 6 18 7 16 8 15 9 14 10 13 11 5 12
REMARK SMILES IDX 6 13 7 14 8 15 12 16 10 17 9 18 11 20 20 22 17 24
REMARK H PARENT 9 19 11 21 20 23 17 25
REMARK Flexibility Score: inf
ROOT
ATOM      1  C   UNL     1      12.007  48.416  14.704  1.00  0.00     0.138 A 
ATOM      2  C   UNL     1      12.977  49.138  13.994  1.00  0.00     0.100 A 
ATOM      3  C   UNL     1      13.967  48.453  13.287  1.00  0.00     0.197 A 
ATOM      4  O   UNL     1      14.786  49.127  12.610  1.00  0.00    -0.289 OA
ATOM      5  C   UNL     1      14.003  47.039  13.318  1.00  0.00     0.107 A 
ATOM      6  C   UNL     1      14.988  46.237  12.670  1.00  0.00     0.134 A 
ATOM      7  C   UNL     1      14.856  44.843  12.674  1.00  0.00     0.093 A 
ATOM      8  C   UNL     1      13.805  44.220  13.354  1.00  0.00     0.123 A 
ATOM      9  C   UNL     1      12.868  44.993  14.035  1.00  0.00     0.094 A 
ATOM     10  C   UNL     1      12.954  46.387  14.021  1.00  0.00     0.146 A 
ATOM     11  O   UNL     1      12.031  47.087  14.671  1.00  0.00    -0.456 OA
ENDROOT
BRANCH   1  12
ATOM     12  C   UNL     1      10.933  49.093  15.473  1.00  0.00     0.021 A 
ATOM     13  C   UNL     1       9.802  48.362  15.871  1.00  0.00     0.016 A 
ATOM     14  C   UNL     1       8.780  48.973  16.602  1.00  0.00     0.051 A 
ATOM     15  C   UNL     1       8.874  50.322  16.957  1.00  0.00     0.157 A 
ATOM     16  C   UNL     1      11.030  50.449  15.844  1.00  0.00     0.062 A 
ATOM     17  C   UNL     1      10.006  51.063  16.580  1.00  0.00     0.158 A 
BRANCH  15  18
ATOM     18  O   UNL     1       7.838  50.906  17.685  1.00  0.00    -0.504 OA
ATOM     19  H   UNL     1       7.098  50.355  18.103  1.00  0.00     0.293 HD
ENDBRANCH  15  18
BRANCH  17  20
ATOM     20  O   UNL     1      10.112  52.406  16.941  1.00  0.00    -0.504 OA
ATOM     21  H   UNL     1      10.470  53.102  16.298  1.00  0.00     0.293 HD
ENDBRANCH  17  20
ENDBRANCH   1  12
BRANCH   6  22
ATOM     22  O   UNL     1      16.122  46.754  12.034  1.00  0.00    -0.507 OA
ATOM     23  H   UNL     1      16.687  46.253  11.366  1.00  0.00     0.293 HD
ENDBRANCH   6  22
BRANCH   8  24
ATOM     24  O   UNL     1      13.689  42.833  13.364  1.00  0.00    -0.508 OA
ATOM     25  H   UNL     1      12.954  42.358  12.853  1.00  0.00     0.293 HD
ENDBRANCH   8  24
TORSDOF 5
ENDMDL
MODEL 2
REMARK VINA RESULT:    -5.304     10.508     12.209
REMARK INTER + INTRA:          -6.528
REMARK INTER:                  -6.210
REMARK INTRA:                  -0.318
REMARK UNBOUND:                -0.294
REMARK SMILES O=c1cc(-c2ccc(O)c(O)c2)oc2cc(O)cc(O)c12
REMARK SMILES IDX 4 1 3 2 2 3 1 4 21 5 19 6 18 7 16 8 15 9 14 10 13 11 5 12
REMARK SMILES IDX 6 13 7 14 8 15 12 16 10 17 9 18 11 20 20 22 17 24
REMARK H PARENT 9 19 11 21 20 23 17 25
REMARK Flexibility Score: inf
ROOT
ATOM      1  C   UNL     1       5.888  37.485  13.839  1.00  0.00     0.138 A 
ATOM      2  C   UNL     1       5.300  36.444  13.106  1.00  0.00     0.100 A 
ATOM      3  C   UNL     1       6.010  35.847  12.064  1.00  0.00     0.197 A 
ATOM      4  O   UNL     1       5.480  34.875  11.466  1.00  0.00    -0.289 OA
ATOM      5  C   UNL     1       7.303  36.316  11.733  1.00  0.00     0.107 A 
ATOM      6  C   UNL     1       8.103  35.811  10.665  1.00  0.00     0.134 A 
ATOM      7  C   UNL     1       9.415  36.275  10.506  1.00  0.00     0.093 A 
ATOM      8  C   UNL     1       9.934  37.269  11.340  1.00  0.00     0.123 A 
ATOM      9  C   UNL     1       9.143  37.807  12.352  1.00  0.00     0.094 A 
ATOM     10  C   UNL     1       7.842  37.340  12.557  1.00  0.00     0.146 A 
ATOM     11  O   UNL     1       7.126  37.870  13.543  1.00  0.00    -0.456 OA
ENDROOT
BRANCH   1  12
ATOM     12  C   UNL     1       5.178  38.156  14.956  1.00  0.00     0.021 A 
ATOM     13  C   UNL     1       3.851  37.798  15.246  1.00  0.00     0.016 A 
ATOM     14  C   UNL     1       3.163  38.409  16.298  1.00  0.00     0.051 A 
ATOM     15  C   UNL     1       3.790  39.380  17.083  1.00  0.00     0.157 A 
ATOM     16  C   UNL     1       5.811  39.126  15.759  1.00  0.00     0.062 A 
ATOM     17  C   UNL     1       5.121  39.738  16.816  1.00  0.00     0.158 A 
BRANCH  15  18
ATOM     18  O   UNL     1       3.077  39.974  18.125  1.00  0.00    -0.504 OA
ATOM     19  H   UNL     1       2.624  39.427  18.847  1.00  0.00     0.293 HD
ENDBRANCH  15  18
BRANCH  17  20
ATOM     20  O   UNL     1       5.757  40.698  17.603  1.00  0.00    -0.504 OA
ATOM     21  H   UNL     1       6.546  41.231  17.258  1.00  0.00     0.293 HD
ENDBRANCH  17  20
ENDBRANCH   1  12
BRANCH   6  22
ATOM     22  O   UNL     1       7.652  34.880   9.725  1.00  0.00    -0.507 OA
ATOM     23  H   UNL     1       8.145  34.626   8.882  1.00  0.00     0.293 HD
ENDBRANCH   6  22
BRANCH   8  24
ATOM     24  O   UNL     1      11.235  37.734  11.165  1.00  0.00    -0.508 OA
ATOM     25  H   UNL     1      11.883  37.274  10.535  1.00  0.00     0.293 HD
ENDBRANCH   8  24
TORSDOF 5
ENDMDL
MODEL 3
REMARK VINA RESULT:    -5.253     11.217     14.163
REMARK INTER + INTRA:          -6.469
REMARK INTER:                  -6.197
REMARK INTRA:                  -0.272
REMARK UNBOUND:                -0.294
REMARK SMILES O=c1cc(-c2ccc(O)c(O)c2)oc2cc(O)cc(O)c12
REMARK SMILES IDX 4 1 3 2 2 3 1 4 21 5 19 6 18 7 16 8 15 9 14 10 13 11 5 12
REMARK SMILES IDX 6 13 7 14 8 15 12 16 10 17 9 18 11 20 20 22 17 24
REMARK H PARENT 9 19 11 21 20 23 17 25
REMARK Flexibility Score: inf
ROOT
ATOM      1  C   UNL     1       6.527  36.718  14.065  1.00  0.00     0.138 A 
ATOM      2  C   UNL     1       5.718  35.659  14.501  1.00  0.00     0.100 A 
ATOM      3  C   UNL     1       4.878  35.839  15.600  1.00  0.00     0.197 A 
ATOM      4  O   UNL     1       4.120  34.890  15.929  1.00  0.00    -0.289 OA
ATOM      5  C   UNL     1       4.871  37.077  16.286  1.00  0.00     0.107 A 
ATOM      6  C   UNL     1       4.086  37.361  17.442  1.00  0.00     0.134 A 
ATOM      7  C   UNL     1       4.074  38.660  17.966  1.00  0.00     0.093 A 
ATOM      8  C   UNL     1       4.864  39.669  17.410  1.00  0.00     0.123 A 
ATOM      9  C   UNL     1       5.676  39.388  16.313  1.00  0.00     0.094 A 
ATOM     10  C   UNL     1       5.684  38.111  15.748  1.00  0.00     0.146 A 
ATOM     11  O   UNL     1       6.460  37.888  14.693  1.00  0.00    -0.456 OA
ENDROOT
BRANCH   1  12
ATOM     12  C   UNL     1       7.440  36.581  12.902  1.00  0.00     0.021 A 
ATOM     13  C   UNL     1       8.532  35.701  12.981  1.00  0.00     0.016 A 
ATOM     14  C   UNL     1       9.401  35.548  11.898  1.00  0.00     0.051 A 
ATOM     15  C   UNL     1       9.191  36.263  10.716  1.00  0.00     0.157 A 
ATOM     16  C   UNL     1       7.223  37.290  11.704  1.00  0.00     0.062 A 
ATOM     17  C   UNL     1       8.095  37.135  10.615  1.00  0.00     0.158 A 
BRANCH  15  18
ATOM     18  O   UNL     1      10.077  36.091   9.652  1.00  0.00    -0.504 OA
ATOM     19  H   UNL     1      10.242  36.819   8.967  1.00  0.00     0.293 HD
ENDBRANCH  15  18
BRANCH  17  20
ATOM     20  O   UNL     1       7.872  37.843   9.435  1.00  0.00    -0.504 OA
ATOM     21  H   UNL     1       6.972  38.259   9.226  1.00  0.00     0.293 HD
ENDBRANCH  17  20
ENDBRANCH   1  12
BRANCH   6  22
ATOM     22  O   UNL     1       3.327  36.406  18.125  1.00  0.00    -0.507 OA
ATOM     23  H   UNL     1       3.205  35.449  17.831  1.00  0.00     0.293 HD
ENDBRANCH   6  22
BRANCH   8  24
ATOM     24  O   UNL     1       4.857  40.954  17.947  1.00  0.00    -0.508 OA
ATOM     25  H   UNL     1       5.461  41.684  17.585  1.00  0.00     0.293 HD
ENDBRANCH   8  24
TORSDOF 5
ENDMDL
MODEL 4
REMARK VINA RESULT:    -5.248      1.922      2.914
REMARK INTER + INTRA:          -6.462
REMARK INTER:                  -6.175
REMARK INTRA:                  -0.288
REMARK UNBOUND:                -0.294
REMARK SMILES O=c1cc(-c2ccc(O)c(O)c2)oc2cc(O)cc(O)c12
REMARK SMILES IDX 4 1 3 2 2 3 1 4 21 5 19 6 18 7 16 8 15 9 14 10 13 11 5 12
REMARK SMILES IDX 6 13 7 14 8 15 12 16 10 17 9 18 11 20 20 22 17 24
REMARK H PARENT 9 19 11 21 20 23 17 25
REMARK Flexibility Score: inf
ROOT
ATOM      1  C   UNL     1      11.429  46.926  16.263  1.00  0.00     0.138 A 
ATOM      2  C   UNL     1      12.003  46.012  17.158  1.00  0.00     0.100 A 
ATOM      3  C   UNL     1      12.824  44.993  16.672  1.00  0.00     0.197 A 
ATOM      4  O   UNL     1      13.373  44.226  17.504  1.00  0.00    -0.289 OA
ATOM      5  C   UNL     1      13.045  44.871  15.280  1.00  0.00     0.107 A 
ATOM      6  C   UNL     1      13.830  43.849  14.668  1.00  0.00     0.134 A 
ATOM      7  C   UNL     1      14.073  43.898  13.290  1.00  0.00     0.093 A 
ATOM      8  C   UNL     1      13.511  44.899  12.493  1.00  0.00     0.123 A 
ATOM      9  C   UNL     1      12.700  45.871  13.073  1.00  0.00     0.094 A 
ATOM     10  C   UNL     1      12.466  45.868  14.450  1.00  0.00     0.146 A 
ATOM     11  O   UNL     1      11.698  46.823  14.965  1.00  0.00    -0.456 OA
ENDROOT
BRANCH   1  12
ATOM     12  C   UNL     1      10.548  48.028  16.726  1.00  0.00     0.021 A 
ATOM     13  C   UNL     1       9.481  47.742  17.593  1.00  0.00     0.016 A 
ATOM     14  C   UNL     1       8.642  48.761  18.049  1.00  0.00     0.051 A 
ATOM     15  C   UNL     1       8.859  50.085  17.655  1.00  0.00     0.157 A 
ATOM     16  C   UNL     1      10.771  49.365  16.341  1.00  0.00     0.062 A 
ATOM     17  C   UNL     1       9.930  50.390  16.800  1.00  0.00     0.158 A 
BRANCH  15  18
ATOM     18  O   UNL     1       8.003  51.081  18.124  1.00  0.00    -0.504 OA
ATOM     19  H   UNL     1       7.320  51.529  17.526  1.00  0.00     0.293 HD
ENDBRANCH  15  18
BRANCH  17  20
ATOM     20  O   UNL     1      10.159  51.709  16.411  1.00  0.00    -0.504 OA
ATOM     21  H   UNL     1      10.770  51.937  15.636  1.00  0.00     0.293 HD
ENDBRANCH  17  20
ENDBRANCH   1  12
BRANCH   6  22
ATOM     22  O   UNL     1      14.367  42.758  15.358  1.00  0.00    -0.507 OA
ATOM     23  H   UNL     1      15.247  42.316  15.142  1.00  0.00     0.293 HD
ENDBRANCH   6  22
BRANCH   8  24
ATOM     24  O   UNL     1      13.747  44.930  11.121  1.00  0.00    -0.508 OA
ATOM     25  H   UNL     1      14.059  44.107  10.617  1.00  0.00     0.293 HD
ENDBRANCH   8  24
TORSDOF 5
ENDMDL
MODEL 5
REMARK VINA RESULT:    -5.218     10.145     13.421
REMARK INTER + INTRA:          -6.427
REMARK INTER:                  -6.117
REMARK INTRA:                  -0.309
REMARK UNBOUND:                -0.294
REMARK SMILES O=c1cc(-c2ccc(O)c(O)c2)oc2cc(O)cc(O)c12
REMARK SMILES IDX 4 1 3 2 2 3 1 4 21 5 19 6 18 7 16 8 15 9 14 10 13 11 5 12
REMARK SMILES IDX 6 13 7 14 8 15 12 16 10 17 9 18 11 20 20 22 17 24
REMARK H PARENT 9 19 11 21 20 23 17 25
REMARK Flexibility Score: inf
ROOT
ATOM      1  C   UNL     1       6.835  37.477  13.198  1.00  0.00     0.138 A 
ATOM      2  C   UNL     1       5.457  37.219  13.163  1.00  0.00     0.100 A 
ATOM      3  C   UNL     1       4.635  37.722  14.172  1.00  0.00     0.197 A 
ATOM      4  O   UNL     1       3.395  37.525  14.080  1.00  0.00    -0.289 OA
ATOM      5  C   UNL     1       5.200  38.461  15.238  1.00  0.00     0.107 A 
ATOM      6  C   UNL     1       4.466  38.987  16.342  1.00  0.00     0.134 A 
ATOM      7  C   UNL     1       5.115  39.802  17.277  1.00  0.00     0.093 A 
ATOM      8  C   UNL     1       6.485  40.060  17.181  1.00  0.00     0.123 A 
ATOM      9  C   UNL     1       7.221  39.507  16.137  1.00  0.00     0.094 A 
ATOM     10  C   UNL     1       6.596  38.718  15.169  1.00  0.00     0.146 A 
ATOM     11  O   UNL     1       7.332  38.221  14.181  1.00  0.00    -0.456 OA
ENDROOT
BRANCH   1  12
ATOM     12  C   UNL     1       7.755  36.966  12.152  1.00  0.00     0.021 A 
ATOM     13  C   UNL     1       7.400  35.821  11.419  1.00  0.00     0.016 A 
ATOM     14  C   UNL     1       8.245  35.324  10.423  1.00  0.00     0.051 A 
ATOM     15  C   UNL     1       9.454  35.966  10.136  1.00  0.00     0.157 A 
ATOM     16  C   UNL     1       8.967  37.617  11.850  1.00  0.00     0.062 A 
ATOM     17  C   UNL     1       9.816  37.120  10.849  1.00  0.00     0.158 A 
BRANCH  15  18
ATOM     18  O   UNL     1      10.278  35.445   9.138  1.00  0.00    -0.504 OA
ATOM     19  H   UNL     1      11.149  34.975   9.351  1.00  0.00     0.293 HD
ENDBRANCH  15  18
BRANCH  17  20
ATOM     20  O   UNL     1      11.014  37.772  10.560  1.00  0.00    -0.504 OA
ATOM     21  H   UNL     1      11.773  37.810  11.229  1.00  0.00     0.293 HD
ENDBRANCH  17  20
ENDBRANCH   1  12
BRANCH   6  22
ATOM     22  O   UNL     1       3.113  38.721  16.578  1.00  0.00    -0.507 OA
ATOM     23  H   UNL     1       2.737  38.374  17.447  1.00  0.00     0.293 HD
ENDBRANCH   6  22
BRANCH   8  24
ATOM     24  O   UNL     1       7.125  40.860  18.125  1.00  0.00    -0.508 OA
ATOM     25  H   UNL     1       7.371  40.505  19.042  1.00  0.00     0.293 HD
ENDBRANCH   8  24
TORSDOF 5
ENDMDL
MODEL 6
REMARK VINA RESULT:    -5.169      9.849     12.878
REMARK INTER + INTRA:          -6.370
REMARK INTER:                  -6.104
REMARK INTRA:                  -0.266
REMARK UNBOUND:                -0.294
REMARK SMILES O=c1cc(-c2ccc(O)c(O)c2)oc2cc(O)cc(O)c12
REMARK SMILES IDX 4 1 3 2 2 3 1 4 21 5 19 6 18 7 16 8 15 9 14 10 13 11 5 12
REMARK SMILES IDX 6 13 7 14 8 15 12 16 10 17 9 18 11 20 20 22 17 24
REMARK H PARENT 9 19 11 21 20 23 17 25
REMARK Flexibility Score: inf
ROOT
ATOM      1  C   UNL     1       7.795  37.969  13.848  1.00  0.00     0.138 A 
ATOM      2  C   UNL     1       8.783  38.620  14.600  1.00  0.00     0.100 A 
ATOM      3  C   UNL     1       8.428  39.292  15.770  1.00  0.00     0.197 A 
ATOM      4  O   UNL     1       9.345  39.814  16.455  1.00  0.00    -0.289 OA
ATOM      5  C   UNL     1       7.072  39.339  16.172  1.00  0.00     0.107 A 
ATOM      6  C   UNL     1       6.589  40.029  17.323  1.00  0.00     0.134 A 
ATOM      7  C   UNL     1       5.241  39.908  17.685  1.00  0.00     0.093 A 
ATOM      8  C   UNL     1       4.348  39.171  16.903  1.00  0.00     0.123 A 
ATOM      9  C   UNL     1       4.800  38.538  15.747  1.00  0.00     0.094 A 
ATOM     10  C   UNL     1       6.145  38.612  15.379  1.00  0.00     0.146 A 
ATOM     11  O   UNL     1       6.536  37.981  14.277  1.00  0.00    -0.456 OA
ENDROOT
BRANCH   1  12
ATOM     12  C   UNL     1       8.116  37.239  12.595  1.00  0.00     0.021 A 
ATOM     13  C   UNL     1       8.629  35.934  12.668  1.00  0.00     0.016 A 
ATOM     14  C   UNL     1       8.932  35.223  11.504  1.00  0.00     0.051 A 
ATOM     15  C   UNL     1       8.720  35.798  10.248  1.00  0.00     0.157 A 
ATOM     16  C   UNL     1       7.891  37.811  11.328  1.00  0.00     0.062 A 
ATOM     17  C   UNL     1       8.193  37.097  10.158  1.00  0.00     0.158 A 
BRANCH  15  18
ATOM     18  O   UNL     1       9.034  35.065   9.104  1.00  0.00    -0.504 OA
ATOM     19  H   UNL     1       9.285  35.513   8.231  1.00  0.00     0.293 HD
ENDBRANCH  15  18
BRANCH  17  20
ATOM     20  O   UNL     1       7.968  37.674   8.908  1.00  0.00    -0.504 OA
ATOM     21  H   UNL     1       8.413  38.542   8.636  1.00  0.00     0.293 HD
ENDBRANCH  17  20
ENDBRANCH   1  12
BRANCH   6  22
ATOM     22  O   UNL     1       7.378  40.860  18.124  1.00  0.00    -0.507 OA
ATOM     23  H   UNL     1       7.078  41.279  18.991  1.00  0.00     0.293 HD
ENDBRANCH   6  22
BRANCH   8  24
ATOM     24  O   UNL     1       3.007  39.069  17.263  1.00  0.00    -0.508 OA
ATOM     25  H   UNL     1       2.269  39.433  16.671  1.00  0.00     0.293 HD
ENDBRANCH   8  24
TORSDOF 5
ENDMDL
MODEL 7
REMARK VINA RESULT:    -5.077      2.955      7.790
REMARK INTER + INTRA:          -6.261
REMARK INTER:                  -5.946
REMARK INTRA:                  -0.315
REMARK UNBOUND:                -0.294
REMARK SMILES O=c1cc(-c2ccc(O)c(O)c2)oc2cc(O)cc(O)c12
REMARK SMILES IDX 4 1 3 2 2 3 1 4 21 5 19 6 18 7 16 8 15 9 14 10 13 11 5 12
REMARK SMILES IDX 6 13 7 14 8 15 12 16 10 17 9 18 11 20 20 22 17 24
REMARK H PARENT 9 19 11 21 20 23 17 25
REMARK Flexibility Score: inf
ROOT
ATOM      1  C   UNL     1      13.509  44.699  13.016  1.00  0.00     0.138 A 
ATOM      2  C   UNL     1      13.894  44.284  14.299  1.00  0.00     0.100 A 
ATOM      3  C   UNL     1      13.228  44.787  15.417  1.00  0.00     0.197 A 
ATOM      4  O   UNL     1      13.556  44.349  16.550  1.00  0.00    -0.289 OA
ATOM      5  C   UNL     1      12.191  45.735  15.250  1.00  0.00     0.107 A 
ATOM      6  C   UNL     1      11.470  46.347  16.318  1.00  0.00     0.134 A 
ATOM      7  C   UNL     1      10.385  47.184  16.028  1.00  0.00     0.093 A 
ATOM      8  C   UNL     1      10.034  47.479  14.708  1.00  0.00     0.123 A 
ATOM      9  C   UNL     1      10.767  46.929  13.658  1.00  0.00     0.094 A 
ATOM     10  C   UNL     1      11.832  46.063  13.915  1.00  0.00     0.146 A 
ATOM     11  O   UNL     1      12.495  45.549  12.885  1.00  0.00    -0.456 OA
ENDROOT
BRANCH   1  12
ATOM     12  C   UNL     1      14.183  44.196  11.793  1.00  0.00     0.021 A 
ATOM     13  C   UNL     1      15.020  43.070  11.879  1.00  0.00     0.016 A 
ATOM     14  C   UNL     1      15.660  42.572  10.741  1.00  0.00     0.051 A 
ATOM     15  C   UNL     1      15.470  43.183   9.498  1.00  0.00     0.157 A 
ATOM     16  C   UNL     1      13.984  44.801  10.537  1.00  0.00     0.062 A 
ATOM     17  C   UNL     1      14.626  44.300   9.393  1.00  0.00     0.158 A 
BRANCH  15  18
ATOM     18  O   UNL     1      16.125  42.665   8.381  1.00  0.00    -0.504 OA
ATOM     19  H   UNL     1      16.932  42.059   8.463  1.00  0.00     0.293 HD
ENDBRANCH  15  18
BRANCH  17  20
ATOM     20  O   UNL     1      14.422  44.907   8.154  1.00  0.00    -0.504 OA
ATOM     21  H   UNL     1      13.562  44.779   7.635  1.00  0.00     0.293 HD
ENDBRANCH  17  20
ENDBRANCH   1  12
BRANCH   6  22
ATOM     22  O   UNL     1      11.791  46.187  17.670  1.00  0.00    -0.507 OA
ATOM     23  H   UNL     1      12.393  46.802  18.196  1.00  0.00     0.293 HD
ENDBRANCH   6  22
BRANCH   8  24
ATOM     24  O   UNL     1       8.963  48.324  14.430  1.00  0.00    -0.508 OA
ATOM     25  H   UNL     1       8.479  48.291  13.539  1.00  0.00     0.293 HD
ENDBRANCH   8  24
TORSDOF 5
ENDMDL
MODEL 8
REMARK VINA RESULT:    -4.875     11.526     13.722
REMARK INTER + INTRA:          -6.024
REMARK INTER:                  -5.712
REMARK INTRA:                  -0.312
REMARK UNBOUND:                -0.294
REMARK SMILES O=c1cc(-c2ccc(O)c(O)c2)oc2cc(O)cc(O)c12
REMARK SMILES IDX 4 1 3 2 2 3 1 4 21 5 19 6 18 7 16 8 15 9 14 10 13 11 5 12
REMARK SMILES IDX 6 13 7 14 8 15 12 16 10 17 9 18 11 20 20 22 17 24
REMARK H PARENT 9 19 11 21 20 23 17 25
REMARK Flexibility Score: inf
ROOT
ATOM      1  C   UNL     1       7.448  37.368  13.443  1.00  0.00     0.138 A 
ATOM      2  C   UNL     1       7.978  37.670  14.706  1.00  0.00     0.100 A 
ATOM      3  C   UNL     1       7.125  38.071  15.735  1.00  0.00     0.197 A 
ATOM      4  O   UNL     1       7.623  38.275  16.872  1.00  0.00    -0.289 OA
ATOM      5  C   UNL     1       5.738  38.200  15.489  1.00  0.00     0.107 A 
ATOM      6  C   UNL     1       4.780  38.639  16.450  1.00  0.00     0.134 A 
ATOM      7  C   UNL     1       3.417  38.617  16.126  1.00  0.00     0.093 A 
ATOM      8  C   UNL     1       2.984  38.227  14.856  1.00  0.00     0.123 A 
ATOM      9  C   UNL     1       3.916  37.847  13.893  1.00  0.00     0.094 A 
ATOM     10  C   UNL     1       5.280  37.827  14.197  1.00  0.00     0.146 A 
ATOM     11  O   UNL     1       6.134  37.444  13.254  1.00  0.00    -0.456 OA
ENDROOT
BRANCH   1  12
ATOM     12  C   UNL     1       8.309  36.938  12.313  1.00  0.00     0.021 A 
ATOM     13  C   UNL     1       9.580  36.401  12.578  1.00  0.00     0.016 A 
ATOM     14  C   UNL     1      10.407  35.981  11.533  1.00  0.00     0.051 A 
ATOM     15  C   UNL     1       9.977  36.082  10.207  1.00  0.00     0.157 A 
ATOM     16  C   UNL     1       7.874  37.025  10.976  1.00  0.00     0.062 A 
ATOM     17  C   UNL     1       8.703  36.602   9.926  1.00  0.00     0.158 A 
BRANCH  15  18
ATOM     18  O   UNL     1      10.825  35.657   9.184  1.00  0.00    -0.504 OA
ATOM     19  H   UNL     1      11.069  34.682   9.058  1.00  0.00     0.293 HD
ENDBRANCH  15  18
BRANCH  17  20
ATOM     20  O   UNL     1       8.263  36.695   8.606  1.00  0.00    -0.504 OA
ATOM     21  H   UNL     1       8.025  37.586   8.186  1.00  0.00     0.293 HD
ENDBRANCH  17  20
ENDBRANCH   1  12
BRANCH   6  22
ATOM     22  O   UNL     1       5.112  39.128  17.717  1.00  0.00    -0.507 OA
ATOM     23  H   UNL     1       4.445  39.407  18.421  1.00  0.00     0.293 HD
ENDBRANCH   6  22
BRANCH   8  24
ATOM     24  O   UNL     1       1.628  38.221  14.539  1.00  0.00    -0.508 OA
ATOM     25  H   UNL     1       0.946  37.765  15.135  1.00  0.00     0.293 HD
ENDBRANCH   8  24
TORSDOF 5
ENDMDL
