MODEL 1
REMARK VINA RESULT:    -2.870      0.000      0.000
REMARK INTER + INTRA:         -10.299
REMARK INTER:                  -6.227
REMARK INTRA:                  -4.072
REMARK UNBOUND:                -4.072
REMARK SMILES CCCCCCCCCCCCCCCCCCCCCC(=O)[O-]
REMARK SMILES IDX 12 1 11 2 10 3 9 4 8 5 7 6 6 7 5 8 4 9 3 10 2 11 1 12 13 13
REMARK SMILES IDX 14 14 15 15 16 16 17 17 18 18 19 19 20 20 21 21 22 22 23 23
REMARK SMILES IDX 24 24
REMARK H PARENT
REMARK Flexibility Score: inf
ROOT
ATOM      1  C   UNL     1     170.475 155.398 151.125  1.00  0.00     0.000 C 
ENDROOT
BRANCH   1   2
ATOM      2  C   UNL     1     169.183 154.740 150.608  1.00  0.00     0.000 C 
BRANCH   2   3
ATOM      3  C   UNL     1     169.451 153.671 149.538  1.00  0.00     0.000 C 
BRANCH   3   4
ATOM      4  C   UNL     1     170.932 153.270 149.460  1.00  0.00    -0.000 C 
BRANCH   4   5
ATOM      5  C   UNL     1     171.123 151.801 149.859  1.00  0.00    -0.000 C 
BRANCH   5   6
ATOM      6  C   UNL     1     171.374 151.666 151.369  1.00  0.00    -0.000 C 
BRANCH   6   7
ATOM      7  C   UNL     1     172.648 152.412 151.818  1.00  0.00    -0.000 C 
BRANCH   7   8
ATOM      8  C   UNL     1     172.748 152.599 153.341  1.00  0.00    -0.000 C 
BRANCH   8   9
ATOM      9  C   UNL     1     171.521 152.057 154.092  1.00  0.00    -0.000 C 
BRANCH   9  10
ATOM     10  C   UNL     1     170.665 153.174 154.709  1.00  0.00    -0.000 C 
BRANCH  10  11
ATOM     11  C   UNL     1     169.302 153.321 154.018  1.00  0.00    -0.003 C 
ATOM     12  C   UNL     1     168.648 154.654 154.372  1.00  0.00     0.004 C 
ENDBRANCH  10  11
ENDBRANCH   9  10
ENDBRANCH   8   9
ENDBRANCH   7   8
ENDBRANCH   6   7
ENDBRANCH   5   6
ENDBRANCH   4   5
ENDBRANCH   3   4
ENDBRANCH   2   3
ENDBRANCH   1   2
BRANCH   1  13
ATOM     13  C   UNL     1     170.219 156.766 151.776  1.00  0.00     0.000 C 
BRANCH  13  14
ATOM     14  C   UNL     1     171.393 157.229 152.656  1.00  0.00     0.000 C 
BRANCH  14  15
ATOM     15  C   UNL     1     172.364 156.087 152.997  1.00  0.00     0.000 C 
BRANCH  15  16
ATOM     16  C   UNL     1     172.836 156.133 154.462  1.00  0.00     0.000 C 
BRANCH  16  17
ATOM     17  C   UNL     1     172.021 157.118 155.315  1.00  0.00     0.000 C 
BRANCH  17  18
ATOM     18  C   UNL     1     171.122 156.413 156.341  1.00  0.00     0.000 C 
BRANCH  18  19
ATOM     19  C   UNL     1     169.903 157.280 156.688  1.00  0.00     0.000 C 
BRANCH  19  20
ATOM     20  C   UNL     1     169.721 158.468 155.726  1.00  0.00     0.006 C 
BRANCH  20  21
ATOM     21  C   UNL     1     168.365 158.497 155.001  1.00  0.00     0.053 C 
BRANCH  21  22
ATOM     22  C   UNL     1     168.273 159.633 154.030  1.00  0.00     0.041 C 
ATOM     23  O   UNL     1     168.335 159.415 152.792  1.00  0.00    -0.550 OA
ATOM     24  O   UNL     1     168.082 160.929 154.491  1.00  0.00    -0.550 OA
ENDBRANCH  21  22
ENDBRANCH  20  21
ENDBRANCH  19  20
ENDBRANCH  18  19
ENDBRANCH  17  18
ENDBRANCH  16  17
ENDBRANCH  15  16
ENDBRANCH  14  15
ENDBRANCH  13  14
ENDBRANCH   1  13
TORSDOF 20
ENDMDL
MODEL 2
REMARK VINA RESULT:    -2.835     10.954     13.261
REMARK INTER + INTRA:         -10.222
REMARK INTER:                  -6.310
REMARK INTRA:                  -3.912
REMARK UNBOUND:                -4.072
REMARK SMILES CCCCCCCCCCCCCCCCCCCCCC(=O)[O-]
REMARK SMILES IDX 12 1 11 2 10 3 9 4 8 5 7 6 6 7 5 8 4 9 3 10 2 11 1 12 13 13
REMARK SMILES IDX 14 14 15 15 16 16 17 17 18 18 19 19 20 20 21 21 22 22 23 23
REMARK SMILES IDX 24 24
REMARK H PARENT
REMARK Flexibility Score: inf
ROOT
ATOM      1  C   UNL     1     169.836 161.570 146.289  1.00  0.00     0.000 C 
ENDROOT
BRANCH   1   2
ATOM      2  C   UNL     1     171.006 160.754 146.866  1.00  0.00     0.000 C 
BRANCH   2   3
ATOM      3  C   UNL     1     172.003 160.305 145.787  1.00  0.00     0.000 C 
BRANCH   3   4
ATOM      4  C   UNL     1     171.932 161.170 144.519  1.00  0.00    -0.000 C 
BRANCH   4   5
ATOM      5  C   UNL     1     173.125 162.130 144.443  1.00  0.00    -0.000 C 
BRANCH   5   6
ATOM      6  C   UNL     1     172.889 163.223 143.388  1.00  0.00    -0.000 C 
BRANCH   6   7
ATOM      7  C   UNL     1     171.451 163.194 142.829  1.00  0.00    -0.000 C 
BRANCH   7   8
ATOM      8  C   UNL     1     170.821 164.589 142.678  1.00  0.00    -0.000 C 
BRANCH   8   9
ATOM      9  C   UNL     1     171.853 165.678 142.343  1.00  0.00    -0.000 C 
BRANCH   9  10
ATOM     10  C   UNL     1     171.490 166.465 141.073  1.00  0.00    -0.000 C 
BRANCH  10  11
ATOM     11  C   UNL     1     170.643 167.709 141.375  1.00  0.00    -0.003 C 
ATOM     12  C   UNL     1     169.175 167.471 141.028  1.00  0.00     0.004 C 
ENDBRANCH  10  11
ENDBRANCH   9  10
ENDBRANCH   8   9
ENDBRANCH   7   8
ENDBRANCH   6   7
ENDBRANCH   5   6
ENDBRANCH   4   5
ENDBRANCH   3   4
ENDBRANCH   2   3
ENDBRANCH   1   2
BRANCH   1  13
ATOM     13  C   UNL     1     169.643 162.913 147.010  1.00  0.00     0.000 C 
BRANCH  13  14
ATOM     14  C   UNL     1     170.241 164.094 146.227  1.00  0.00     0.000 C 
BRANCH  14  15
ATOM     15  C   UNL     1     171.665 164.448 146.685  1.00  0.00     0.000 C 
BRANCH  15  16
ATOM     16  C   UNL     1     172.171 165.766 146.072  1.00  0.00     0.000 C 
BRANCH  16  17
ATOM     17  C   UNL     1     171.995 166.965 147.018  1.00  0.00     0.000 C 
BRANCH  17  18
ATOM     18  C   UNL     1     170.837 167.885 146.603  1.00  0.00     0.000 C 
BRANCH  18  19
ATOM     19  C   UNL     1     170.588 167.803 145.089  1.00  0.00     0.000 C 
BRANCH  19  20
ATOM     20  C   UNL     1     169.133 167.435 144.743  1.00  0.00     0.006 C 
BRANCH  20  21
ATOM     21  C   UNL     1     168.197 167.335 145.958  1.00  0.00     0.053 C 
BRANCH  21  22
ATOM     22  C   UNL     1     167.024 166.443 145.691  1.00  0.00     0.041 C 
ATOM     23  O   UNL     1     166.732 165.520 146.495  1.00  0.00    -0.550 OA
ATOM     24  O   UNL     1     166.231 166.655 144.570  1.00  0.00    -0.550 OA
ENDBRANCH  21  22
ENDBRANCH  20  21
ENDBRANCH  19  20
ENDBRANCH  18  19
ENDBRANCH  17  18
ENDBRANCH  16  17
ENDBRANCH  15  16
ENDBRANCH  14  15
ENDBRANCH  13  14
ENDBRANCH   1  13
TORSDOF 20
ENDMDL
MODEL 3
REMARK VINA RESULT:    -2.827     11.536     13.931
REMARK INTER + INTRA:         -10.204
REMARK INTER:                  -6.392
REMARK INTRA:                  -3.812
REMARK UNBOUND:                -4.072
REMARK SMILES CCCCCCCCCCCCCCCCCCCCCC(=O)[O-]
REMARK SMILES IDX 12 1 11 2 10 3 9 4 8 5 7 6 6 7 5 8 4 9 3 10 2 11 1 12 13 13
REMARK SMILES IDX 14 14 15 15 16 16 17 17 18 18 19 19 20 20 21 21 22 22 23 23
REMARK SMILES IDX 24 24
REMARK H PARENT
REMARK Flexibility Score: inf
ROOT
ATOM      1  C   UNL     1     173.082 162.827 144.143  1.00  0.00     0.000 C 
ENDROOT
BRANCH   1   2
ATOM      2  C   UNL     1     172.002 162.779 143.048  1.00  0.00     0.000 C 
BRANCH   2   3
ATOM      3  C   UNL     1     171.763 164.148 142.392  1.00  0.00     0.000 C 
BRANCH   3   4
ATOM      4  C   UNL     1     172.868 165.162 142.722  1.00  0.00    -0.000 C 
BRANCH   4   5
ATOM      5  C   UNL     1     172.967 166.237 141.632  1.00  0.00    -0.000 C 
BRANCH   5   6
ATOM      6  C   UNL     1     171.595 166.871 141.355  1.00  0.00    -0.000 C 
BRANCH   6   7
ATOM      7  C   UNL     1     171.266 168.010 142.343  1.00  0.00    -0.000 C 
BRANCH   7   8
ATOM      8  C   UNL     1     169.773 168.107 142.697  1.00  0.00    -0.000 C 
BRANCH   8   9
ATOM      9  C   UNL     1     169.116 166.732 142.899  1.00  0.00    -0.000 C 
BRANCH   9  10
ATOM     10  C   UNL     1     167.748 166.623 142.207  1.00  0.00    -0.000 C 
BRANCH  10  11
ATOM     11  C   UNL     1     167.868 166.250 140.722  1.00  0.00    -0.003 C 
ATOM     12  C   UNL     1     168.534 164.888 140.551  1.00  0.00     0.004 C 
ENDBRANCH  10  11
ENDBRANCH   9  10
ENDBRANCH   8   9
ENDBRANCH   7   8
ENDBRANCH   6   7
ENDBRANCH   5   6
ENDBRANCH   4   5
ENDBRANCH   3   4
ENDBRANCH   2   3
ENDBRANCH   1   2
BRANCH   1  13
ATOM     13  C   UNL     1     172.976 161.652 145.127  1.00  0.00     0.000 C 
BRANCH  13  14
ATOM     14  C   UNL     1     172.082 160.517 144.598  1.00  0.00     0.000 C 
BRANCH  14  15
ATOM     15  C   UNL     1     170.970 160.129 145.586  1.00  0.00     0.000 C 
BRANCH  15  16
ATOM     16  C   UNL     1     170.690 161.233 146.622  1.00  0.00     0.000 C 
BRANCH  16  17
ATOM     17  C   UNL     1     169.629 162.237 146.144  1.00  0.00     0.000 C 
BRANCH  17  18
ATOM     18  C   UNL     1     169.779 163.618 146.799  1.00  0.00     0.000 C 
BRANCH  18  19
ATOM     19  C   UNL     1     170.287 164.654 145.784  1.00  0.00     0.000 C 
BRANCH  19  20
ATOM     20  C   UNL     1     171.529 165.417 146.280  1.00  0.00     0.006 C 
BRANCH  20  21
ATOM     21  C   UNL     1     171.603 166.880 145.813  1.00  0.00     0.053 C 
BRANCH  21  22
ATOM     22  C   UNL     1     170.813 167.793 146.699  1.00  0.00     0.041 C 
ATOM     23  O   UNL     1     171.165 167.979 147.893  1.00  0.00    -0.550 OA
ATOM     24  O   UNL     1     169.707 168.466 146.196  1.00  0.00    -0.550 OA
ENDBRANCH  21  22
ENDBRANCH  20  21
ENDBRANCH  19  20
ENDBRANCH  18  19
ENDBRANCH  17  18
ENDBRANCH  16  17
ENDBRANCH  15  16
ENDBRANCH  14  15
ENDBRANCH  13  14
ENDBRANCH   1  13
TORSDOF 20
ENDMDL
MODEL 4
REMARK VINA RESULT:    -2.823     13.250     15.482
REMARK INTER + INTRA:         -10.195
REMARK INTER:                  -6.818
REMARK INTRA:                  -3.377
REMARK UNBOUND:                -4.072
REMARK SMILES CCCCCCCCCCCCCCCCCCCCCC(=O)[O-]
REMARK SMILES IDX 12 1 11 2 10 3 9 4 8 5 7 6 6 7 5 8 4 9 3 10 2 11 1 12 13 13
REMARK SMILES IDX 14 14 15 15 16 16 17 17 18 18 19 19 20 20 21 21 22 22 23 23
REMARK SMILES IDX 24 24
REMARK H PARENT
REMARK Flexibility Score: inf
ROOT
ATOM      1  C   UNL     1     164.862 168.972 153.100  1.00  0.00     0.000 C 
ENDROOT
BRANCH   1   2
ATOM      2  C   UNL     1     165.437 169.771 154.282  1.00  0.00     0.000 C 
BRANCH   2   3
ATOM      3  C   UNL     1     166.967 169.664 154.379  1.00  0.00     0.000 C 
BRANCH   3   4
ATOM      4  C   UNL     1     167.678 170.964 153.977  1.00  0.00    -0.000 C 
BRANCH   4   5
ATOM      5  C   UNL     1     168.596 170.736 152.770  1.00  0.00    -0.000 C 
BRANCH   5   6
ATOM      6  C   UNL     1     168.242 169.426 152.047  1.00  0.00    -0.000 C 
BRANCH   6   7
ATOM      7  C   UNL     1     169.380 168.942 151.125  1.00  0.00    -0.000 C 
BRANCH   7   8
ATOM      8  C   UNL     1     169.915 170.032 150.180  1.00  0.00    -0.000 C 
BRANCH   8   9
ATOM      9  C   UNL     1     168.825 170.619 149.269  1.00  0.00    -0.000 C 
BRANCH   9  10
ATOM     10  C   UNL     1     169.187 170.523 147.778  1.00  0.00    -0.000 C 
BRANCH  10  11
ATOM     11  C   UNL     1     168.660 169.236 147.127  1.00  0.00    -0.003 C 
ATOM     12  C   UNL     1     169.782 168.218 146.939  1.00  0.00     0.004 C 
ENDBRANCH  10  11
ENDBRANCH   9  10
ENDBRANCH   8   9
ENDBRANCH   7   8
ENDBRANCH   6   7
ENDBRANCH   5   6
ENDBRANCH   4   5
ENDBRANCH   3   4
ENDBRANCH   2   3
ENDBRANCH   1   2
BRANCH   1  13
ATOM     13  C   UNL     1     163.846 169.782 152.280  1.00  0.00     0.000 C 
BRANCH  13  14
ATOM     14  C   UNL     1     164.417 171.125 151.793  1.00  0.00     0.000 C 
BRANCH  14  15
ATOM     15  C   UNL     1     165.471 170.955 150.687  1.00  0.00     0.000 C 
BRANCH  15  16
ATOM     16  C   UNL     1     164.951 170.123 149.501  1.00  0.00     0.000 C 
BRANCH  16  17
ATOM     17  C   UNL     1     165.711 168.798 149.330  1.00  0.00     0.000 C 
BRANCH  17  18
ATOM     18  C   UNL     1     165.220 167.982 148.125  1.00  0.00     0.000 C 
BRANCH  18  19
ATOM     19  C   UNL     1     164.433 166.746 148.584  1.00  0.00     0.000 C 
BRANCH  19  20
ATOM     20  C   UNL     1     164.378 166.609 150.117  1.00  0.00     0.006 C 
BRANCH  20  21
ATOM     21  C   UNL     1     162.958 166.650 150.707  1.00  0.00     0.053 C 
BRANCH  21  22
ATOM     22  C   UNL     1     162.874 165.927 152.016  1.00  0.00     0.041 C 
ATOM     23  O   UNL     1     163.323 164.757 152.125  1.00  0.00    -0.550 OA
ATOM     24  O   UNL     1     162.330 166.561 153.127  1.00  0.00    -0.550 OA
ENDBRANCH  21  22
ENDBRANCH  20  21
ENDBRANCH  19  20
ENDBRANCH  18  19
ENDBRANCH  17  18
ENDBRANCH  16  17
ENDBRANCH  15  16
ENDBRANCH  14  15
ENDBRANCH  13  14
ENDBRANCH   1  13
TORSDOF 20
ENDMDL
MODEL 5
REMARK VINA RESULT:    -2.786     12.346     14.891
REMARK INTER + INTRA:         -10.115
REMARK INTER:                  -6.652
REMARK INTRA:                  -3.463
REMARK UNBOUND:                -4.072
REMARK SMILES CCCCCCCCCCCCCCCCCCCCCC(=O)[O-]
REMARK SMILES IDX 12 1 11 2 10 3 9 4 8 5 7 6 6 7 5 8 4 9 3 10 2 11 1 12 13 13
REMARK SMILES IDX 14 14 15 15 16 16 17 17 18 18 19 19 20 20 21 21 22 22 23 23
REMARK SMILES IDX 24 24
REMARK H PARENT
REMARK Flexibility Score: inf
ROOT
ATOM      1  C   UNL     1     164.144 169.854 152.456  1.00  0.00     0.000 C 
ENDROOT
BRANCH   1   2
ATOM      2  C   UNL     1     164.413 171.124 151.630  1.00  0.00     0.000 C 
BRANCH   2   3
ATOM      3  C   UNL     1     165.555 170.941 150.618  1.00  0.00     0.000 C 
BRANCH   3   4
ATOM      4  C   UNL     1     165.127 170.134 149.383  1.00  0.00    -0.000 C 
BRANCH   4   5
ATOM      5  C   UNL     1     165.966 168.857 149.246  1.00  0.00    -0.000 C 
BRANCH   5   6
ATOM      6  C   UNL     1     165.167 167.742 148.554  1.00  0.00    -0.000 C 
BRANCH   6   7
ATOM      7  C   UNL     1     164.156 167.070 149.508  1.00  0.00    -0.000 C 
BRANCH   7   8
ATOM      8  C   UNL     1     164.739 166.745 150.894  1.00  0.00    -0.000 C 
BRANCH   8   9
ATOM      9  C   UNL     1     164.654 165.249 151.241  1.00  0.00    -0.000 C 
BRANCH   9  10
ATOM     10  C   UNL     1     163.497 164.931 152.201  1.00  0.00    -0.000 C 
BRANCH  10  11
ATOM     11  C   UNL     1     163.472 165.860 153.423  1.00  0.00    -0.003 C 
ATOM     12  C   UNL     1     162.053 166.022 153.961  1.00  0.00     0.004 C 
ENDBRANCH  10  11
ENDBRANCH   9  10
ENDBRANCH   8   9
ENDBRANCH   7   8
ENDBRANCH   6   7
ENDBRANCH   5   6
ENDBRANCH   4   5
ENDBRANCH   3   4
ENDBRANCH   2   3
ENDBRANCH   1   2
BRANCH   1  13
ATOM     13  C   UNL     1     164.778 169.916 153.855  1.00  0.00     0.000 C 
BRANCH  13  14
ATOM     14  C   UNL     1     165.612 168.665 154.181  1.00  0.00     0.000 C 
BRANCH  14  15
ATOM     15  C   UNL     1     166.985 168.671 153.489  1.00  0.00     0.000 C 
BRANCH  15  16
ATOM     16  C   UNL     1     167.723 170.011 153.656  1.00  0.00     0.000 C 
BRANCH  16  17
ATOM     17  C   UNL     1     168.610 170.352 152.448  1.00  0.00     0.000 C 
BRANCH  17  18
ATOM     18  C   UNL     1     168.794 169.165 151.491  1.00  0.00     0.000 C 
BRANCH  18  19
ATOM     19  C   UNL     1     169.958 169.418 150.522  1.00  0.00     0.000 C 
BRANCH  19  20
ATOM     20  C   UNL     1     169.974 170.856 149.970  1.00  0.00     0.006 C 
BRANCH  20  21
ATOM     21  C   UNL     1     169.068 171.077 148.748  1.00  0.00     0.053 C 
BRANCH  21  22
ATOM     22  C   UNL     1     169.448 170.194 147.600  1.00  0.00     0.041 C 
ATOM     23  O   UNL     1     170.648 170.121 147.226  1.00  0.00    -0.550 OA
ATOM     24  O   UNL     1     168.482 169.424 146.965  1.00  0.00    -0.550 OA
ENDBRANCH  21  22
ENDBRANCH  20  21
ENDBRANCH  19  20
ENDBRANCH  18  19
ENDBRANCH  17  18
ENDBRANCH  16  17
ENDBRANCH  15  16
ENDBRANCH  14  15
ENDBRANCH  13  14
ENDBRANCH   1  13
TORSDOF 20
ENDMDL
MODEL 6
REMARK VINA RESULT:    -2.746     11.999     14.350
REMARK INTER + INTRA:         -10.030
REMARK INTER:                  -6.192
REMARK INTRA:                  -3.837
REMARK UNBOUND:                -4.072
REMARK SMILES CCCCCCCCCCCCCCCCCCCCCC(=O)[O-]
REMARK SMILES IDX 12 1 11 2 10 3 9 4 8 5 7 6 6 7 5 8 4 9 3 10 2 11 1 12 13 13
REMARK SMILES IDX 14 14 15 15 16 16 17 17 18 18 19 19 20 20 21 21 22 22 23 23
REMARK SMILES IDX 24 24
REMARK H PARENT
REMARK Flexibility Score: inf
ROOT
ATOM      1  C   UNL     1     168.224 166.521 141.261  1.00  0.00     0.000 C 
ENDROOT
BRANCH   1   2
ATOM      2  C   UNL     1     168.944 167.841 141.591  1.00  0.00     0.000 C 
BRANCH   2   3
ATOM      3  C   UNL     1     170.455 167.774 141.319  1.00  0.00     0.000 C 
BRANCH   3   4
ATOM      4  C   UNL     1     171.292 168.308 142.491  1.00  0.00    -0.000 C 
BRANCH   4   5
ATOM      5  C   UNL     1     171.165 167.393 143.716  1.00  0.00    -0.000 C 
BRANCH   5   6
ATOM      6  C   UNL     1     172.510 166.729 144.050  1.00  0.00    -0.000 C 
BRANCH   6   7
ATOM      7  C   UNL     1     173.067 165.909 142.867  1.00  0.00    -0.000 C 
BRANCH   7   8
ATOM      8  C   UNL     1     172.874 164.391 143.024  1.00  0.00    -0.000 C 
BRANCH   8   9
ATOM      9  C   UNL     1     172.689 163.961 144.488  1.00  0.00    -0.000 C 
BRANCH   9  10
ATOM     10  C   UNL     1     171.819 162.701 144.628  1.00  0.00    -0.000 C 
BRANCH  10  11
ATOM     11  C   UNL     1     170.875 162.769 145.837  1.00  0.00    -0.003 C 
ATOM     12  C   UNL     1     170.942 164.137 146.509  1.00  0.00     0.004 C 
ENDBRANCH  10  11
ENDBRANCH   9  10
ENDBRANCH   8   9
ENDBRANCH   7   8
ENDBRANCH   6   7
ENDBRANCH   5   6
ENDBRANCH   4   5
ENDBRANCH   3   4
ENDBRANCH   2   3
ENDBRANCH   1   2
BRANCH   1  13
ATOM     13  C   UNL     1     169.158 165.304 141.339  1.00  0.00     0.000 C 
BRANCH  13  14
ATOM     14  C   UNL     1     169.115 164.615 142.714  1.00  0.00     0.000 C 
BRANCH  14  15
ATOM     15  C   UNL     1     167.818 164.908 143.484  1.00  0.00     0.000 C 
BRANCH  15  16
ATOM     16  C   UNL     1     168.077 165.605 144.832  1.00  0.00     0.000 C 
BRANCH  16  17
ATOM     17  C   UNL     1     167.433 166.998 144.911  1.00  0.00     0.000 C 
BRANCH  17  18
ATOM     18  C   UNL     1     167.592 167.649 146.293  1.00  0.00     0.000 C 
BRANCH  18  19
ATOM     19  C   UNL     1     168.876 168.489 146.358  1.00  0.00     0.000 C 
BRANCH  19  20
ATOM     20  C   UNL     1     169.969 167.843 147.229  1.00  0.00     0.006 C 
BRANCH  20  21
ATOM     21  C   UNL     1     171.073 168.812 147.685  1.00  0.00     0.053 C 
BRANCH  21  22
ATOM     22  C   UNL     1     172.270 168.088 148.216  1.00  0.00     0.041 C 
ATOM     23  O   UNL     1     172.843 168.491 149.262  1.00  0.00    -0.550 OA
ATOM     24  O   UNL     1     172.734 166.946 147.575  1.00  0.00    -0.550 OA
ENDBRANCH  21  22
ENDBRANCH  20  21
ENDBRANCH  19  20
ENDBRANCH  18  19
ENDBRANCH  17  18
ENDBRANCH  16  17
ENDBRANCH  15  16
ENDBRANCH  14  15
ENDBRANCH  13  14
ENDBRANCH   1  13
TORSDOF 20
ENDMDL
MODEL 7
REMARK VINA RESULT:    -2.740      2.476      4.255
REMARK INTER + INTRA:         -10.016
REMARK INTER:                  -6.356
REMARK INTRA:                  -3.660
REMARK UNBOUND:                -4.072
REMARK SMILES CCCCCCCCCCCCCCCCCCCCCC(=O)[O-]
REMARK SMILES IDX 12 1 11 2 10 3 9 4 8 5 7 6 6 7 5 8 4 9 3 10 2 11 1 12 13 13
REMARK SMILES IDX 14 14 15 15 16 16 17 17 18 18 19 19 20 20 21 21 22 22 23 23
REMARK SMILES IDX 24 24
REMARK H PARENT
REMARK Flexibility Score: inf
ROOT
ATOM      1  C   UNL     1     172.336 152.379 152.330  1.00  0.00     0.000 C 
ENDROOT
BRANCH   1   2
ATOM      2  C   UNL     1     171.126 151.443 152.167  1.00  0.00     0.000 C 
BRANCH   2   3
ATOM      3  C   UNL     1     169.900 152.158 151.579  1.00  0.00     0.000 C 
BRANCH   3   4
ATOM      4  C   UNL     1     169.535 153.437 152.348  1.00  0.00    -0.000 C 
BRANCH   4   5
ATOM      5  C   UNL     1     168.451 153.155 153.396  1.00  0.00    -0.000 C 
BRANCH   5   6
ATOM      6  C   UNL     1     167.484 152.064 152.910  1.00  0.00    -0.000 C 
BRANCH   6   7
ATOM      7  C   UNL     1     167.395 150.880 153.896  1.00  0.00    -0.000 C 
BRANCH   7   8
ATOM      8  C   UNL     1     168.506 150.879 154.960  1.00  0.00    -0.000 C 
BRANCH   8   9
ATOM      9  C   UNL     1     167.960 150.982 156.393  1.00  0.00    -0.000 C 
BRANCH   9  10
ATOM     10  C   UNL     1     166.442 151.217 156.432  1.00  0.00    -0.000 C 
BRANCH  10  11
ATOM     11  C   UNL     1     166.075 152.607 156.971  1.00  0.00    -0.003 C 
ATOM     12  C   UNL     1     164.902 153.204 156.197  1.00  0.00     0.004 C 
ENDBRANCH  10  11
ENDBRANCH   9  10
ENDBRANCH   8   9
ENDBRANCH   7   8
ENDBRANCH   6   7
ENDBRANCH   5   6
ENDBRANCH   4   5
ENDBRANCH   3   4
ENDBRANCH   2   3
ENDBRANCH   1   2
BRANCH   1  13
ATOM     13  C   UNL     1     172.787 152.510 153.793  1.00  0.00     0.000 C 
BRANCH  13  14
ATOM     14  C   UNL     1     171.756 151.938 154.782  1.00  0.00     0.000 C 
BRANCH  14  15
ATOM     15  C   UNL     1     172.351 151.681 156.176  1.00  0.00     0.000 C 
BRANCH  15  16
ATOM     16  C   UNL     1     172.176 152.882 157.123  1.00  0.00     0.000 C 
BRANCH  16  17
ATOM     17  C   UNL     1     170.791 153.537 156.997  1.00  0.00     0.000 C 
BRANCH  17  18
ATOM     18  C   UNL     1     170.868 155.058 156.798  1.00  0.00     0.000 C 
BRANCH  18  19
ATOM     19  C   UNL     1     172.324 155.514 156.623  1.00  0.00     0.000 C 
BRANCH  19  20
ATOM     20  C   UNL     1     172.613 156.062 155.213  1.00  0.00     0.006 C 
BRANCH  20  21
ATOM     21  C   UNL     1     171.455 155.891 154.216  1.00  0.00     0.053 C 
BRANCH  21  22
ATOM     22  C   UNL     1     170.958 157.207 153.702  1.00  0.00     0.041 C 
ATOM     23  O   UNL     1     171.266 157.594 152.545  1.00  0.00    -0.550 OA
ATOM     24  O   UNL     1     170.126 157.992 154.490  1.00  0.00    -0.550 OA
ENDBRANCH  21  22
ENDBRANCH  20  21
ENDBRANCH  19  20
ENDBRANCH  18  19
ENDBRANCH  17  18
ENDBRANCH  16  17
ENDBRANCH  15  16
ENDBRANCH  14  15
ENDBRANCH  13  14
ENDBRANCH   1  13
TORSDOF 20
ENDMDL
MODEL 8
REMARK VINA RESULT:    -2.688     11.152     12.942
REMARK INTER + INTRA:          -9.903
REMARK INTER:                  -6.243
REMARK INTRA:                  -3.660
REMARK UNBOUND:                -4.072
REMARK SMILES CCCCCCCCCCCCCCCCCCCCCC(=O)[O-]
REMARK SMILES IDX 12 1 11 2 10 3 9 4 8 5 7 6 6 7 5 8 4 9 3 10 2 11 1 12 13 13
REMARK SMILES IDX 14 14 15 15 16 16 17 17 18 18 19 19 20 20 21 21 22 22 23 23
REMARK SMILES IDX 24 24
REMARK H PARENT
REMARK Flexibility Score: inf
ROOT
ATOM      1  C   UNL     1     170.449 164.205 144.165  1.00  0.00     0.000 C 
ENDROOT
BRANCH   1   2
ATOM      2  C   UNL     1     171.811 163.489 144.175  1.00  0.00     0.000 C 
BRANCH   2   3
ATOM      3  C   UNL     1     172.163 162.868 142.814  1.00  0.00     0.000 C 
BRANCH   3   4
ATOM      4  C   UNL     1     170.928 162.347 142.065  1.00  0.00    -0.000 C 
BRANCH   4   5
ATOM      5  C   UNL     1     170.784 160.830 142.236  1.00  0.00    -0.000 C 
BRANCH   5   6
ATOM      6  C   UNL     1     172.127 160.187 142.620  1.00  0.00    -0.000 C 
BRANCH   6   7
ATOM      7  C   UNL     1     172.004 159.273 143.857  1.00  0.00    -0.000 C 
BRANCH   7   8
ATOM      8  C   UNL     1     170.793 159.599 144.747  1.00  0.00    -0.000 C 
BRANCH   8   9
ATOM      9  C   UNL     1     171.162 160.460 145.966  1.00  0.00    -0.000 C 
BRANCH   9  10
ATOM     10  C   UNL     1     169.966 161.259 146.508  1.00  0.00    -0.000 C 
BRANCH  10  11
ATOM     11  C   UNL     1     170.180 161.731 147.953  1.00  0.00    -0.003 C 
ATOM     12  C   UNL     1     169.141 161.120 148.890  1.00  0.00     0.004 C 
ENDBRANCH  10  11
ENDBRANCH   9  10
ENDBRANCH   8   9
ENDBRANCH   7   8
ENDBRANCH   6   7
ENDBRANCH   5   6
ENDBRANCH   4   5
ENDBRANCH   3   4
ENDBRANCH   2   3
ENDBRANCH   1   2
BRANCH   1  13
ATOM     13  C   UNL     1     170.303 165.210 145.318  1.00  0.00     0.000 C 
BRANCH  13  14
ATOM     14  C   UNL     1     171.351 164.997 146.423  1.00  0.00     0.000 C 
BRANCH  14  15
ATOM     15  C   UNL     1     172.198 166.253 146.686  1.00  0.00     0.000 C 
BRANCH  15  16
ATOM     16  C   UNL     1     173.120 166.600 145.504  1.00  0.00     0.000 C 
BRANCH  16  17
ATOM     17  C   UNL     1     172.810 167.978 144.897  1.00  0.00     0.000 C 
BRANCH  17  18
ATOM     18  C   UNL     1     172.163 167.883 143.507  1.00  0.00     0.000 C 
BRANCH  18  19
ATOM     19  C   UNL     1     172.810 166.764 142.676  1.00  0.00     0.000 C 
BRANCH  19  20
ATOM     20  C   UNL     1     171.959 166.354 141.460  1.00  0.00     0.006 C 
BRANCH  20  21
ATOM     21  C   UNL     1     170.793 167.307 141.151  1.00  0.00     0.053 C 
BRANCH  21  22
ATOM     22  C   UNL     1     169.478 166.592 141.118  1.00  0.00     0.041 C 
ATOM     23  O   UNL     1     169.428 165.370 140.823  1.00  0.00    -0.550 OA
ATOM     24  O   UNL     1     168.310 167.268 141.447  1.00  0.00    -0.550 OA
ENDBRANCH  21  22
ENDBRANCH  20  21
ENDBRANCH  19  20
ENDBRANCH  18  19
ENDBRANCH  17  18
ENDBRANCH  16  17
ENDBRANCH  15  16
ENDBRANCH  14  15
ENDBRANCH  13  14
ENDBRANCH   1  13
TORSDOF 20
ENDMDL
MODEL 9
REMARK VINA RESULT:    -2.679     11.550     13.588
REMARK INTER + INTRA:          -9.883
REMARK INTER:                  -6.286
REMARK INTRA:                  -3.597
REMARK UNBOUND:                -4.072
REMARK SMILES CCCCCCCCCCCCCCCCCCCCCC(=O)[O-]
REMARK SMILES IDX 12 1 11 2 10 3 9 4 8 5 7 6 6 7 5 8 4 9 3 10 2 11 1 12 13 13
REMARK SMILES IDX 14 14 15 15 16 16 17 17 18 18 19 19 20 20 21 21 22 22 23 23
REMARK SMILES IDX 24 24
REMARK H PARENT
REMARK Flexibility Score: inf
ROOT
ATOM      1  C   UNL     1     169.198 163.742 143.116  1.00  0.00     0.000 C 
ENDROOT
BRANCH   1   2
ATOM      2  C   UNL     1     170.385 164.132 142.217  1.00  0.00     0.000 C 
BRANCH   2   3
ATOM      3  C   UNL     1     171.712 164.208 142.990  1.00  0.00     0.000 C 
BRANCH   3   4
ATOM      4  C   UNL     1     171.535 163.954 144.494  1.00  0.00    -0.000 C 
BRANCH   4   5
ATOM      5  C   UNL     1     172.840 163.446 145.120  1.00  0.00    -0.000 C 
BRANCH   5   6
ATOM      6  C   UNL     1     173.125 161.995 144.701  1.00  0.00    -0.000 C 
BRANCH   6   7
ATOM      7  C   UNL     1     171.886 161.088 144.854  1.00  0.00    -0.000 C 
BRANCH   7   8
ATOM      8  C   UNL     1     171.701 160.531 146.276  1.00  0.00    -0.000 C 
BRANCH   8   9
ATOM      9  C   UNL     1     170.463 161.102 146.985  1.00  0.00    -0.000 C 
BRANCH   9  10
ATOM     10  C   UNL     1     169.320 161.426 146.009  1.00  0.00    -0.000 C 
BRANCH  10  11
ATOM     11  C   UNL     1     168.385 160.230 145.782  1.00  0.00    -0.003 C 
ATOM     12  C   UNL     1     168.354 159.830 144.309  1.00  0.00     0.004 C 
ENDBRANCH  10  11
ENDBRANCH   9  10
ENDBRANCH   8   9
ENDBRANCH   7   8
ENDBRANCH   6   7
ENDBRANCH   5   6
ENDBRANCH   4   5
ENDBRANCH   3   4
ENDBRANCH   2   3
ENDBRANCH   1   2
BRANCH   1  13
ATOM     13  C   UNL     1     167.849 164.201 142.542  1.00  0.00     0.000 C 
BRANCH  13  14
ATOM     14  C   UNL     1     167.913 164.474 141.030  1.00  0.00     0.000 C 
BRANCH  14  15
ATOM     15  C   UNL     1     167.301 165.832 140.647  1.00  0.00     0.000 C 
BRANCH  15  16
ATOM     16  C   UNL     1     167.861 166.990 141.493  1.00  0.00     0.000 C 
BRANCH  16  17
ATOM     17  C   UNL     1     169.244 167.458 141.013  1.00  0.00     0.000 C 
BRANCH  17  18
ATOM     18  C   UNL     1     170.183 167.825 142.172  1.00  0.00     0.000 C 
BRANCH  18  19
ATOM     19  C   UNL     1     169.448 167.746 143.518  1.00  0.00     0.000 C 
BRANCH  19  20
ATOM     20  C   UNL     1     170.396 167.472 144.701  1.00  0.00     0.006 C 
BRANCH  20  21
ATOM     21  C   UNL     1     171.883 167.707 144.390  1.00  0.00     0.053 C 
BRANCH  21  22
ATOM     22  C   UNL     1     172.570 168.474 145.477  1.00  0.00     0.041 C 
ATOM     23  O   UNL     1     172.794 169.705 145.341  1.00  0.00    -0.550 OA
ATOM     24  O   UNL     1     172.931 167.836 146.657  1.00  0.00    -0.550 OA
ENDBRANCH  21  22
ENDBRANCH  20  21
ENDBRANCH  19  20
ENDBRANCH  18  19
ENDBRANCH  17  18
ENDBRANCH  16  17
ENDBRANCH  15  16
ENDBRANCH  14  15
ENDBRANCH  13  14
ENDBRANCH   1  13
TORSDOF 20
ENDMDL
