MODEL 1
REMARK VINA RESULT:    -5.010      0.000      0.000
REMARK INTER + INTRA:          -8.304
REMARK INTER:                  -7.938
REMARK INTRA:                  -0.366
REMARK UNBOUND:                -0.366
REMARK SMILES CCCCCCCCCCCC(=O)[O-]
REMARK SMILES IDX 7 1 8 2 9 3 10 4 11 5 12 6 13 7 14 8 6 9 5 10 4 11 3 12 2 13
REMARK SMILES IDX 1 14
REMARK H PARENT
REMARK Flexibility Score: inf
ROOT
ATOM      1  C   UNL     1      -9.529  -2.754  -8.942  1.00  0.00     0.000 C 
ENDROOT
BRANCH   1   2
ATOM      2  C   UNL     1      -9.736  -1.759 -10.097  1.00  0.00     0.000 C 
BRANCH   2   3
ATOM      3  C   UNL     1     -11.005  -0.910  -9.923  1.00  0.00     0.000 C 
BRANCH   3   4
ATOM      4  C   UNL     1     -10.695   0.581  -9.704  1.00  0.00     0.006 C 
BRANCH   4   5
ATOM      5  C   UNL     1     -11.971   1.430  -9.622  1.00  0.00     0.053 C 
BRANCH   5   6
ATOM      6  C   UNL     1     -11.670   2.850  -9.250  1.00  0.00     0.041 C 
ATOM      7  O   UNL     1     -12.564   3.574  -8.738  1.00  0.00    -0.550 OA
ATOM      8  O   UNL     1     -10.411   3.383  -9.500  1.00  0.00    -0.550 OA
ENDBRANCH   5   6
ENDBRANCH   4   5
ENDBRANCH   3   4
ENDBRANCH   2   3
ENDBRANCH   1   2
BRANCH   1   9
ATOM      9  C   UNL     1      -8.521  -3.865  -9.285  1.00  0.00     0.000 C 
BRANCH   9  10
ATOM     10  C   UNL     1      -8.850  -5.244  -8.681  1.00  0.00    -0.000 C 
BRANCH  10  11
ATOM     11  C   UNL     1     -10.281  -5.344  -8.106  1.00  0.00    -0.000 C 
BRANCH  11  12
ATOM     12  C   UNL     1     -10.589  -6.713  -7.467  1.00  0.00    -0.000 C 
BRANCH  12  13
ATOM     13  C   UNL     1     -11.207  -6.616  -6.059  1.00  0.00    -0.003 C 
ATOM     14  C   UNL     1     -10.214  -6.116  -5.011  1.00  0.00     0.004 C 
ENDBRANCH  12  13
ENDBRANCH  11  12
ENDBRANCH  10  11
ENDBRANCH   9  10
ENDBRANCH   1   9
TORSDOF 10
ENDMDL
MODEL 2
REMARK VINA RESULT:    -4.822     15.904     17.299
REMARK INTER + INTRA:          -8.007
REMARK INTER:                  -7.149
REMARK INTRA:                  -0.858
REMARK UNBOUND:                -0.366
REMARK SMILES CCCCCCCCCCCC(=O)[O-]
REMARK SMILES IDX 7 1 8 2 9 3 10 4 11 5 12 6 13 7 14 8 6 9 5 10 4 11 3 12 2 13
REMARK SMILES IDX 1 14
REMARK H PARENT
REMARK Flexibility Score: inf
ROOT
ATOM      1  C   UNL     1      -9.902   5.578   6.721  1.00  0.00     0.000 C 
ENDROOT
BRANCH   1   2
ATOM      2  C   UNL     1     -10.461   6.483   5.609  1.00  0.00     0.000 C 
BRANCH   2   3
ATOM      3  C   UNL     1      -9.365   7.305   4.913  1.00  0.00     0.000 C 
BRANCH   3   4
ATOM      4  C   UNL     1      -9.225   8.721   5.497  1.00  0.00     0.006 C 
BRANCH   4   5
ATOM      5  C   UNL     1      -7.878   9.363   5.138  1.00  0.00     0.053 C 
BRANCH   5   6
ATOM      6  C   UNL     1      -7.287  10.101   6.301  1.00  0.00     0.041 C 
ATOM      7  O   UNL     1      -6.159  10.650   6.196  1.00  0.00    -0.550 OA
ATOM      8  O   UNL     1      -7.969  10.155   7.510  1.00  0.00    -0.550 OA
ENDBRANCH   5   6
ENDBRANCH   4   5
ENDBRANCH   3   4
ENDBRANCH   2   3
ENDBRANCH   1   2
BRANCH   1   9
ATOM      9  C   UNL     1     -11.001   5.010   7.637  1.00  0.00     0.000 C 
BRANCH   9  10
ATOM     10  C   UNL     1     -11.187   3.482   7.550  1.00  0.00    -0.000 C 
BRANCH  10  11
ATOM     11  C   UNL     1     -12.420   3.053   6.721  1.00  0.00    -0.000 C 
BRANCH  11  12
ATOM     12  C   UNL     1     -12.078   2.688   5.263  1.00  0.00    -0.000 C 
BRANCH  12  13
ATOM     13  C   UNL     1     -12.571   3.720   4.232  1.00  0.00    -0.003 C 
ATOM     14  C   UNL     1     -13.606   4.685   4.811  1.00  0.00     0.004 C 
ENDBRANCH  12  13
ENDBRANCH  11  12
ENDBRANCH  10  11
ENDBRANCH   9  10
ENDBRANCH   1   9
TORSDOF 10
ENDMDL
MODEL 3
REMARK VINA RESULT:    -4.760     15.513     17.756
REMARK INTER + INTRA:          -7.908
REMARK INTER:                  -7.244
REMARK INTRA:                  -0.664
REMARK UNBOUND:                -0.366
REMARK SMILES CCCCCCCCCCCC(=O)[O-]
REMARK SMILES IDX 7 1 8 2 9 3 10 4 11 5 12 6 13 7 14 8 6 9 5 10 4 11 3 12 2 13
REMARK SMILES IDX 1 14
REMARK H PARENT
REMARK Flexibility Score: inf
ROOT
ATOM      1  C   UNL     1      -9.813   5.256   6.271  1.00  0.00     0.000 C 
ENDROOT
BRANCH   1   2
ATOM      2  C   UNL     1     -10.860   5.166   7.395  1.00  0.00     0.000 C 
BRANCH   2   3
ATOM      3  C   UNL     1     -11.198   3.715   7.770  1.00  0.00     0.000 C 
BRANCH   3   4
ATOM      4  C   UNL     1     -11.792   2.921   6.594  1.00  0.00     0.006 C 
BRANCH   4   5
ATOM      5  C   UNL     1     -13.020   3.616   5.990  1.00  0.00     0.053 C 
BRANCH   5   6
ATOM      6  C   UNL     1     -12.846   3.878   4.525  1.00  0.00     0.041 C 
ATOM      7  O   UNL     1     -11.832   3.439   3.920  1.00  0.00    -0.550 OA
ATOM      8  O   UNL     1     -13.785   4.636   3.836  1.00  0.00    -0.550 OA
ENDBRANCH   5   6
ENDBRANCH   4   5
ENDBRANCH   3   4
ENDBRANCH   2   3
ENDBRANCH   1   2
BRANCH   1   9
ATOM      9  C   UNL     1     -10.077   6.423   5.302  1.00  0.00     0.000 C 
BRANCH   9  10
ATOM     10  C   UNL     1      -9.076   7.590   5.412  1.00  0.00    -0.000 C 
BRANCH  10  11
ATOM     11  C   UNL     1      -9.677   8.961   5.025  1.00  0.00    -0.000 C 
BRANCH  11  12
ATOM     12  C   UNL     1      -8.819  10.156   5.487  1.00  0.00    -0.000 C 
BRANCH  12  13
ATOM     13  C   UNL     1      -7.615   9.755   6.359  1.00  0.00    -0.003 C 
ATOM     14  C   UNL     1      -6.326  10.467   5.951  1.00  0.00     0.004 C 
ENDBRANCH  12  13
ENDBRANCH  11  12
ENDBRANCH  10  11
ENDBRANCH   9  10
ENDBRANCH   1   9
TORSDOF 10
ENDMDL
MODEL 4
REMARK VINA RESULT:    -4.729     15.525     17.660
REMARK INTER + INTRA:          -7.859
REMARK INTER:                  -7.233
REMARK INTRA:                  -0.626
REMARK UNBOUND:                -0.366
REMARK SMILES CCCCCCCCCCCC(=O)[O-]
REMARK SMILES IDX 7 1 8 2 9 3 10 4 11 5 12 6 13 7 14 8 6 9 5 10 4 11 3 12 2 13
REMARK SMILES IDX 1 14
REMARK H PARENT
REMARK Flexibility Score: inf
ROOT
ATOM      1  C   UNL     1      -9.826   5.594   6.711  1.00  0.00     0.000 C 
ENDROOT
BRANCH   1   2
ATOM      2  C   UNL     1     -11.147   5.166   7.373  1.00  0.00     0.000 C 
BRANCH   2   3
ATOM      3  C   UNL     1     -11.242   3.644   7.567  1.00  0.00     0.000 C 
BRANCH   3   4
ATOM      4  C   UNL     1     -12.135   2.967   6.513  1.00  0.00     0.006 C 
BRANCH   4   5
ATOM      5  C   UNL     1     -13.186   3.928   5.942  1.00  0.00     0.053 C 
BRANCH   5   6
ATOM      6  C   UNL     1     -13.089   4.034   4.450  1.00  0.00     0.041 C 
ATOM      7  O   UNL     1     -13.935   4.709   3.807  1.00  0.00    -0.550 OA
ATOM      8  O   UNL     1     -12.084   3.359   3.768  1.00  0.00    -0.550 OA
ENDBRANCH   5   6
ENDBRANCH   4   5
ENDBRANCH   3   4
ENDBRANCH   2   3
ENDBRANCH   1   2
BRANCH   1   9
ATOM      9  C   UNL     1      -9.973   5.855   5.201  1.00  0.00     0.000 C 
BRANCH   9  10
ATOM     10  C   UNL     1      -9.434   7.219   4.727  1.00  0.00    -0.000 C 
BRANCH  10  11
ATOM     11  C   UNL     1      -8.874   8.096   5.869  1.00  0.00    -0.000 C 
BRANCH  11  12
ATOM     12  C   UNL     1      -8.228   9.405   5.373  1.00  0.00    -0.000 C 
BRANCH  12  13
ATOM     13  C   UNL     1      -7.455  10.169   6.465  1.00  0.00    -0.003 C 
ATOM     14  C   UNL     1      -6.016  10.486   6.058  1.00  0.00     0.004 C 
ENDBRANCH  12  13
ENDBRANCH  11  12
ENDBRANCH  10  11
ENDBRANCH   9  10
ENDBRANCH   1   9
TORSDOF 10
ENDMDL
MODEL 5
REMARK VINA RESULT:    -4.638     16.209     17.535
REMARK INTER + INTRA:          -7.716
REMARK INTER:                  -7.009
REMARK INTRA:                  -0.706
REMARK UNBOUND:                -0.366
REMARK SMILES CCCCCCCCCCCC(=O)[O-]
REMARK SMILES IDX 7 1 8 2 9 3 10 4 11 5 12 6 13 7 14 8 6 9 5 10 4 11 3 12 2 13
REMARK SMILES IDX 1 14
REMARK H PARENT
REMARK Flexibility Score: inf
ROOT
ATOM      1  C   UNL     1      -9.945   5.429   5.746  1.00  0.00     0.000 C 
ENDROOT
BRANCH   1   2
ATOM      2  C   UNL     1     -10.304   6.922   5.642  1.00  0.00     0.000 C 
BRANCH   2   3
ATOM      3  C   UNL     1      -9.199   7.747   4.963  1.00  0.00     0.000 C 
BRANCH   3   4
ATOM      4  C   UNL     1      -8.598   8.813   5.896  1.00  0.00     0.006 C 
BRANCH   4   5
ATOM      5  C   UNL     1      -7.599   9.722   5.166  1.00  0.00     0.053 C 
BRANCH   5   6
ATOM      6  C   UNL     1      -6.709  10.451   6.126  1.00  0.00     0.041 C 
ATOM      7  O   UNL     1      -5.478  10.563   5.888  1.00  0.00    -0.550 OA
ATOM      8  O   UNL     1      -7.234  10.979   7.299  1.00  0.00    -0.550 OA
ENDBRANCH   5   6
ENDBRANCH   4   5
ENDBRANCH   3   4
ENDBRANCH   2   3
ENDBRANCH   1   2
BRANCH   1   9
ATOM      9  C   UNL     1     -10.864   4.534   4.898  1.00  0.00     0.000 C 
BRANCH   9  10
ATOM     10  C   UNL     1     -12.369   4.834   5.042  1.00  0.00    -0.000 C 
BRANCH  10  11
ATOM     11  C   UNL     1     -12.963   4.390   6.398  1.00  0.00    -0.000 C 
BRANCH  11  12
ATOM     12  C   UNL     1     -12.499   2.987   6.838  1.00  0.00    -0.000 C 
BRANCH  12  13
ATOM     13  C   UNL     1     -12.064   2.912   8.314  1.00  0.00    -0.003 C 
ATOM     14  C   UNL     1     -11.611   4.264   8.866  1.00  0.00     0.004 C 
ENDBRANCH  12  13
ENDBRANCH  11  12
ENDBRANCH  10  11
ENDBRANCH   9  10
ENDBRANCH   1   9
TORSDOF 10
ENDMDL
MODEL 6
REMARK VINA RESULT:    -4.530     15.607     17.049
REMARK INTER + INTRA:          -7.544
REMARK INTER:                  -6.596
REMARK INTRA:                  -0.948
REMARK UNBOUND:                -0.366
REMARK SMILES CCCCCCCCCCCC(=O)[O-]
REMARK SMILES IDX 7 1 8 2 9 3 10 4 11 5 12 6 13 7 14 8 6 9 5 10 4 11 3 12 2 13
REMARK SMILES IDX 1 14
REMARK H PARENT
REMARK Flexibility Score: inf
ROOT
ATOM      1  C   UNL     1     -10.737   5.203   7.284  1.00  0.00     0.000 C 
ENDROOT
BRANCH   1   2
ATOM      2  C   UNL     1      -9.542   5.579   6.389  1.00  0.00     0.000 C 
BRANCH   2   3
ATOM      3  C   UNL     1      -9.975   6.299   5.102  1.00  0.00     0.000 C 
BRANCH   3   4
ATOM      4  C   UNL     1     -10.000   7.830   5.259  1.00  0.00     0.006 C 
BRANCH   4   5
ATOM      5  C   UNL     1      -8.651   8.383   5.737  1.00  0.00     0.053 C 
BRANCH   5   6
ATOM      6  C   UNL     1      -8.459   9.811   5.324  1.00  0.00     0.041 C 
ATOM      7  O   UNL     1      -9.457  10.547   5.106  1.00  0.00    -0.550 OA
ATOM      8  O   UNL     1      -7.178  10.319   5.148  1.00  0.00    -0.550 OA
ENDBRANCH   5   6
ENDBRANCH   4   5
ENDBRANCH   3   4
ENDBRANCH   2   3
ENDBRANCH   1   2
BRANCH   1   9
ATOM      9  C   UNL     1     -11.078   3.704   7.222  1.00  0.00     0.000 C 
BRANCH   9  10
ATOM     10  C   UNL     1     -12.441   3.379   6.579  1.00  0.00    -0.000 C 
BRANCH  10  11
ATOM     11  C   UNL     1     -12.459   3.549   5.043  1.00  0.00    -0.000 C 
BRANCH  11  12
ATOM     12  C   UNL     1     -13.539   4.532   4.550  1.00  0.00    -0.000 C 
BRANCH  12  13
ATOM     13  C   UNL     1     -13.724   5.759   5.463  1.00  0.00    -0.003 C 
ATOM     14  C   UNL     1     -14.893   6.645   5.032  1.00  0.00     0.004 C 
ENDBRANCH  12  13
ENDBRANCH  11  12
ENDBRANCH  10  11
ENDBRANCH   9  10
ENDBRANCH   1   9
TORSDOF 10
ENDMDL
MODEL 7
REMARK VINA RESULT:    -4.520     15.959     17.334
REMARK INTER + INTRA:          -7.528
REMARK INTER:                  -6.497
REMARK INTRA:                  -1.031
REMARK UNBOUND:                -0.366
REMARK SMILES CCCCCCCCCCCC(=O)[O-]
REMARK SMILES IDX 7 1 8 2 9 3 10 4 11 5 12 6 13 7 14 8 6 9 5 10 4 11 3 12 2 13
REMARK SMILES IDX 1 14
REMARK H PARENT
REMARK Flexibility Score: inf
ROOT
ATOM      1  C   UNL     1     -12.669   5.421   5.933  1.00  0.00     0.000 C 
ENDROOT
BRANCH   1   2
ATOM      2  C   UNL     1     -11.753   6.650   5.807  1.00  0.00     0.000 C 
BRANCH   2   3
ATOM      3  C   UNL     1     -10.264   6.291   5.935  1.00  0.00     0.000 C 
BRANCH   3   4
ATOM      4  C   UNL     1      -9.374   7.098   4.974  1.00  0.00     0.006 C 
BRANCH   4   5
ATOM      5  C   UNL     1      -9.784   8.576   4.911  1.00  0.00     0.053 C 
BRANCH   5   6
ATOM      6  C   UNL     1      -8.887   9.436   5.747  1.00  0.00     0.041 C 
ATOM      7  O   UNL     1      -7.867   8.942   6.296  1.00  0.00    -0.550 OA
ATOM      8  O   UNL     1      -9.195  10.777   5.947  1.00  0.00    -0.550 OA
ENDBRANCH   5   6
ENDBRANCH   4   5
ENDBRANCH   3   4
ENDBRANCH   2   3
ENDBRANCH   1   2
BRANCH   1   9
ATOM      9  C   UNL     1     -12.200   4.236   5.069  1.00  0.00     0.000 C 
BRANCH   9  10
ATOM     10  C   UNL     1     -11.972   2.924   5.844  1.00  0.00    -0.000 C 
BRANCH  10  11
ATOM     11  C   UNL     1     -11.257   3.120   7.201  1.00  0.00    -0.000 C 
BRANCH  11  12
ATOM     12  C   UNL     1     -12.127   2.728   8.412  1.00  0.00    -0.000 C 
BRANCH  12  13
ATOM     13  C   UNL     1     -11.939   3.645   9.634  1.00  0.00    -0.003 C 
ATOM     14  C   UNL     1     -11.136   4.905   9.310  1.00  0.00     0.004 C 
ENDBRANCH  12  13
ENDBRANCH  11  12
ENDBRANCH  10  11
ENDBRANCH   9  10
ENDBRANCH   1   9
TORSDOF 10
ENDMDL
MODEL 8
REMARK VINA RESULT:    -4.488     16.183     17.593
REMARK INTER + INTRA:          -7.478
REMARK INTER:                  -6.687
REMARK INTRA:                  -0.791
REMARK UNBOUND:                -0.366
REMARK SMILES CCCCCCCCCCCC(=O)[O-]
REMARK SMILES IDX 7 1 8 2 9 3 10 4 11 5 12 6 13 7 14 8 6 9 5 10 4 11 3 12 2 13
REMARK SMILES IDX 1 14
REMARK H PARENT
REMARK Flexibility Score: inf
ROOT
ATOM      1  C   UNL     1      -9.975   5.941   5.027  1.00  0.00     0.000 C 
ENDROOT
BRANCH   1   2
ATOM      2  C   UNL     1      -9.387   7.352   4.845  1.00  0.00     0.000 C 
BRANCH   2   3
ATOM      3  C   UNL     1      -8.810   7.922   6.150  1.00  0.00     0.000 C 
BRANCH   3   4
ATOM      4  C   UNL     1      -7.957   9.182   5.920  1.00  0.00     0.006 C 
BRANCH   4   5
ATOM      5  C   UNL     1      -8.231  10.265   6.973  1.00  0.00     0.053 C 
BRANCH   5   6
ATOM      6  C   UNL     1      -9.432  11.088   6.621  1.00  0.00     0.041 C 
ATOM      7  O   UNL     1     -10.164  11.562   7.530  1.00  0.00    -0.550 OA
ATOM      8  O   UNL     1      -9.763  11.304   5.289  1.00  0.00    -0.550 OA
ENDBRANCH   5   6
ENDBRANCH   4   5
ENDBRANCH   3   4
ENDBRANCH   2   3
ENDBRANCH   1   2
BRANCH   1   9
ATOM      9  C   UNL     1      -9.688   5.352   6.419  1.00  0.00     0.000 C 
BRANCH   9  10
ATOM     10  C   UNL     1     -10.942   4.934   7.213  1.00  0.00    -0.000 C 
BRANCH  10  11
ATOM     11  C   UNL     1     -11.280   3.430   7.093  1.00  0.00    -0.000 C 
BRANCH  11  12
ATOM     12  C   UNL     1     -12.616   3.161   6.372  1.00  0.00    -0.000 C 
BRANCH  12  13
ATOM     13  C   UNL     1     -13.361   4.440   5.948  1.00  0.00    -0.003 C 
ATOM     14  C   UNL     1     -13.498   4.570   4.431  1.00  0.00     0.004 C 
ENDBRANCH  12  13
ENDBRANCH  11  12
ENDBRANCH  10  11
ENDBRANCH   9  10
ENDBRANCH   1   9
TORSDOF 10
ENDMDL
MODEL 9
REMARK VINA RESULT:    -4.467     16.563     18.475
REMARK INTER + INTRA:          -7.444
REMARK INTER:                  -6.638
REMARK INTRA:                  -0.806
REMARK UNBOUND:                -0.366
REMARK SMILES CCCCCCCCCCCC(=O)[O-]
REMARK SMILES IDX 7 1 8 2 9 3 10 4 11 5 12 6 13 7 14 8 6 9 5 10 4 11 3 12 2 13
REMARK SMILES IDX 1 14
REMARK H PARENT
REMARK Flexibility Score: inf
ROOT
ATOM      1  C   UNL     1     -12.058   6.616   5.949  1.00  0.00     0.000 C 
ENDROOT
BRANCH   1   2
ATOM      2  C   UNL     1     -13.238   5.670   5.665  1.00  0.00     0.000 C 
BRANCH   2   3
ATOM      3  C   UNL     1     -12.793   4.209   5.491  1.00  0.00     0.000 C 
BRANCH   3   4
ATOM      4  C   UNL     1     -13.045   3.359   6.749  1.00  0.00     0.006 C 
BRANCH   4   5
ATOM      5  C   UNL     1     -11.742   3.020   7.486  1.00  0.00     0.053 C 
BRANCH   5   6
ATOM      6  C   UNL     1     -11.647   3.734   8.801  1.00  0.00     0.041 C 
ATOM      7  O   UNL     1     -11.108   4.869   8.868  1.00  0.00    -0.550 OA
ATOM      8  O   UNL     1     -12.124   3.129   9.957  1.00  0.00    -0.550 OA
ENDBRANCH   5   6
ENDBRANCH   4   5
ENDBRANCH   3   4
ENDBRANCH   2   3
ENDBRANCH   1   2
BRANCH   1   9
ATOM      9  C   UNL     1     -10.698   6.004   5.568  1.00  0.00     0.000 C 
BRANCH   9  10
ATOM     10  C   UNL     1      -9.511   6.986   5.619  1.00  0.00    -0.000 C 
BRANCH  10  11
ATOM     11  C   UNL     1      -9.768   8.309   4.862  1.00  0.00    -0.000 C 
BRANCH  11  12
ATOM     12  C   UNL     1      -9.106   9.532   5.528  1.00  0.00    -0.000 C 
BRANCH  12  13
ATOM     13  C   UNL     1      -7.823   9.194   6.310  1.00  0.00    -0.003 C 
ATOM     14  C   UNL     1      -6.661  10.128   5.971  1.00  0.00     0.004 C 
ENDBRANCH  12  13
ENDBRANCH  11  12
ENDBRANCH  10  11
ENDBRANCH   9  10
ENDBRANCH   1   9
TORSDOF 10
ENDMDL
