MODEL 1
REMARK VINA RESULT:    -4.235      0.000      0.000
REMARK INTER + INTRA:          -9.432
REMARK INTER:                  -8.197
REMARK INTRA:                  -1.234
REMARK UNBOUND:                -1.234
REMARK SMILES CCCCCCCCCCCCCCCCCC(=O)[O-]
REMARK SMILES IDX 10 1 11 2 12 3 13 4 14 5 15 6 16 7 17 8 18 9 19 10 20 11
REMARK SMILES IDX 9 12 8 13 7 14 6 15 5 16 4 17 3 18 2 19 1 20
REMARK H PARENT
REMARK Flexibility Score: inf
ROOT
ATOM      1  C   UNL     1      13.762 -10.534  18.119  1.00  0.00     0.000 C 
ENDROOT
BRANCH   1   2
ATOM      2  C   UNL     1      12.598  -9.531  18.195  1.00  0.00     0.000 C 
BRANCH   2   3
ATOM      3  C   UNL     1      11.627  -9.561  16.996  1.00  0.00     0.000 C 
BRANCH   3   4
ATOM      4  C   UNL     1      10.938 -10.916  16.743  1.00  0.00     0.000 C 
BRANCH   4   5
ATOM      5  C   UNL     1      11.012 -11.427  15.292  1.00  0.00     0.000 C 
BRANCH   5   6
ATOM      6  C   UNL     1      11.362 -10.316  14.287  1.00  0.00     0.000 C 
BRANCH   6   7
ATOM      7  C   UNL     1      10.609 -10.465  12.950  1.00  0.00     0.006 C 
BRANCH   7   8
ATOM      8  C   UNL     1      10.519  -9.171  12.126  1.00  0.00     0.053 C 
BRANCH   8   9
ATOM      9  C   UNL     1       9.402  -9.215  11.128  1.00  0.00     0.041 C 
ATOM     10  O   UNL     1       8.367  -9.890  11.366  1.00  0.00    -0.550 OA
ATOM     11  O   UNL     1       9.492  -8.483   9.951  1.00  0.00    -0.550 OA
ENDBRANCH   8   9
ENDBRANCH   7   8
ENDBRANCH   6   7
ENDBRANCH   5   6
ENDBRANCH   4   5
ENDBRANCH   3   4
ENDBRANCH   2   3
ENDBRANCH   1   2
BRANCH   1  12
ATOM     12  C   UNL     1      14.045 -11.224  19.463  1.00  0.00     0.000 C 
BRANCH  12  13
ATOM     13  C   UNL     1      12.858 -12.066  19.965  1.00  0.00    -0.000 C 
BRANCH  13  14
ATOM     14  C   UNL     1      12.435 -13.222  19.037  1.00  0.00    -0.000 C 
BRANCH  14  15
ATOM     15  C   UNL     1      11.978 -14.508  19.756  1.00  0.00    -0.000 C 
BRANCH  15  16
ATOM     16  C   UNL     1      11.632 -14.331  21.245  1.00  0.00    -0.000 C 
BRANCH  16  17
ATOM     17  C   UNL     1      10.130 -14.122  21.486  1.00  0.00    -0.000 C 
BRANCH  17  18
ATOM     18  C   UNL     1       9.807 -12.637  21.689  1.00  0.00    -0.000 C 
BRANCH  18  19
ATOM     19  C   UNL     1       8.350 -12.335  21.323  1.00  0.00    -0.003 C 
ATOM     20  C   UNL     1       7.562 -11.858  22.539  1.00  0.00     0.004 C 
ENDBRANCH  18  19
ENDBRANCH  17  18
ENDBRANCH  16  17
ENDBRANCH  15  16
ENDBRANCH  14  15
ENDBRANCH  13  14
ENDBRANCH  12  13
ENDBRANCH   1  12
TORSDOF 16
ENDMDL
MODEL 2
REMARK VINA RESULT:    -4.214      3.502      6.533
REMARK INTER + INTRA:          -9.391
REMARK INTER:                  -6.378
REMARK INTRA:                  -3.013
REMARK UNBOUND:                -1.234
REMARK SMILES CCCCCCCCCCCCCCCCCC(=O)[O-]
REMARK SMILES IDX 10 1 11 2 12 3 13 4 14 5 15 6 16 7 17 8 18 9 19 10 20 11
REMARK SMILES IDX 9 12 8 13 7 14 6 15 5 16 4 17 3 18 2 19 1 20
REMARK H PARENT
REMARK Flexibility Score: inf
ROOT
ATOM      1  C   UNL     1       9.449 -11.218  20.364  1.00  0.00     0.000 C 
ENDROOT
BRANCH   1   2
ATOM      2  C   UNL     1       9.011 -12.491  21.109  1.00  0.00     0.000 C 
BRANCH   2   3
ATOM      3  C   UNL     1      10.121 -13.192  21.918  1.00  0.00     0.000 C 
BRANCH   3   4
ATOM      4  C   UNL     1      10.829 -14.355  21.194  1.00  0.00     0.000 C 
BRANCH   4   5
ATOM      5  C   UNL     1      12.186 -14.768  21.791  1.00  0.00     0.000 C 
BRANCH   5   6
ATOM      6  C   UNL     1      13.322 -14.755  20.754  1.00  0.00     0.000 C 
BRANCH   6   7
ATOM      7  C   UNL     1      12.873 -14.201  19.388  1.00  0.00     0.006 C 
BRANCH   7   8
ATOM      8  C   UNL     1      14.025 -13.725  18.487  1.00  0.00     0.053 C 
BRANCH   8   9
ATOM      9  C   UNL     1      13.719 -13.915  17.033  1.00  0.00     0.041 C 
ATOM     10  O   UNL     1      12.714 -14.585  16.680  1.00  0.00    -0.550 OA
ATOM     11  O   UNL     1      14.528 -13.325  16.070  1.00  0.00    -0.550 OA
ENDBRANCH   8   9
ENDBRANCH   7   8
ENDBRANCH   6   7
ENDBRANCH   5   6
ENDBRANCH   4   5
ENDBRANCH   3   4
ENDBRANCH   2   3
ENDBRANCH   1   2
BRANCH   1  12
ATOM     12  C   UNL     1       9.322 -11.345  18.837  1.00  0.00     0.000 C 
BRANCH  12  13
ATOM     13  C   UNL     1      10.587 -11.923  18.177  1.00  0.00    -0.000 C 
BRANCH  13  14
ATOM     14  C   UNL     1      10.733 -11.628  16.671  1.00  0.00    -0.000 C 
BRANCH  14  15
ATOM     15  C   UNL     1      11.769 -10.544  16.311  1.00  0.00    -0.000 C 
BRANCH  15  16
ATOM     16  C   UNL     1      12.396  -9.821  17.516  1.00  0.00    -0.000 C 
BRANCH  16  17
ATOM     17  C   UNL     1      13.879 -10.167  17.713  1.00  0.00    -0.000 C 
BRANCH  17  18
ATOM     18  C   UNL     1      14.266 -10.102  19.195  1.00  0.00    -0.000 C 
BRANCH  18  19
ATOM     19  C   UNL     1      13.024  -9.983  20.084  1.00  0.00    -0.003 C 
ATOM     20  C   UNL     1      13.068 -10.988  21.232  1.00  0.00     0.004 C 
ENDBRANCH  18  19
ENDBRANCH  17  18
ENDBRANCH  16  17
ENDBRANCH  15  16
ENDBRANCH  14  15
ENDBRANCH  13  14
ENDBRANCH  12  13
ENDBRANCH   1  12
TORSDOF 16
ENDMDL
MODEL 3
REMARK VINA RESULT:    -4.126      3.696      4.572
REMARK INTER + INTRA:          -9.219
REMARK INTER:                  -6.423
REMARK INTRA:                  -2.796
REMARK UNBOUND:                -1.234
REMARK SMILES CCCCCCCCCCCCCCCCCC(=O)[O-]
REMARK SMILES IDX 10 1 11 2 12 3 13 4 14 5 15 6 16 7 17 8 18 9 19 10 20 11
REMARK SMILES IDX 9 12 8 13 7 14 6 15 5 16 4 17 3 18 2 19 1 20
REMARK H PARENT
REMARK Flexibility Score: inf
ROOT
ATOM      1  C   UNL     1      13.808  -9.823  19.018  1.00  0.00     0.000 C 
ENDROOT
BRANCH   1   2
ATOM      2  C   UNL     1      12.377  -9.280  19.179  1.00  0.00     0.000 C 
BRANCH   2   3
ATOM      3  C   UNL     1      11.497  -9.367  17.915  1.00  0.00     0.000 C 
BRANCH   3   4
ATOM      4  C   UNL     1      12.063 -10.241  16.778  1.00  0.00     0.000 C 
BRANCH   4   5
ATOM      5  C   UNL     1      11.244 -11.504  16.455  1.00  0.00     0.000 C 
BRANCH   5   6
ATOM      6  C   UNL     1      12.064 -12.798  16.597  1.00  0.00     0.000 C 
BRANCH   6   7
ATOM      7  C   UNL     1      13.582 -12.538  16.642  1.00  0.00     0.006 C 
BRANCH   7   8
ATOM      8  C   UNL     1      14.412 -13.715  17.180  1.00  0.00     0.053 C 
BRANCH   8   9
ATOM      9  C   UNL     1      14.631 -14.772  16.142  1.00  0.00     0.041 C 
ATOM     10  O   UNL     1      15.233 -14.495  15.073  1.00  0.00    -0.550 OA
ATOM     11  O   UNL     1      14.197 -16.072  16.371  1.00  0.00    -0.550 OA
ENDBRANCH   8   9
ENDBRANCH   7   8
ENDBRANCH   6   7
ENDBRANCH   5   6
ENDBRANCH   4   5
ENDBRANCH   3   4
ENDBRANCH   2   3
ENDBRANCH   1   2
BRANCH   1  12
ATOM     12  C   UNL     1      14.105 -11.010  19.948  1.00  0.00     0.000 C 
BRANCH  12  13
ATOM     13  C   UNL     1      12.836 -11.605  20.583  1.00  0.00    -0.000 C 
BRANCH  13  14
ATOM     14  C   UNL     1      12.666 -13.127  20.406  1.00  0.00    -0.000 C 
BRANCH  14  15
ATOM     15  C   UNL     1      11.246 -13.589  20.018  1.00  0.00    -0.000 C 
BRANCH  15  16
ATOM     16  C   UNL     1      10.381 -14.081  21.191  1.00  0.00    -0.000 C 
BRANCH  16  17
ATOM     17  C   UNL     1       9.765 -12.931  22.001  1.00  0.00    -0.000 C 
BRANCH  17  18
ATOM     18  C   UNL     1       8.570 -12.317  21.263  1.00  0.00    -0.000 C 
BRANCH  18  19
ATOM     19  C   UNL     1       8.987 -11.066  20.483  1.00  0.00    -0.003 C 
ATOM     20  C   UNL     1       8.304 -11.011  19.120  1.00  0.00     0.004 C 
ENDBRANCH  18  19
ENDBRANCH  17  18
ENDBRANCH  16  17
ENDBRANCH  15  16
ENDBRANCH  14  15
ENDBRANCH  13  14
ENDBRANCH  12  13
ENDBRANCH   1  12
TORSDOF 16
ENDMDL
MODEL 4
REMARK VINA RESULT:    -4.120      3.750      6.653
REMARK INTER + INTRA:          -9.208
REMARK INTER:                  -5.973
REMARK INTRA:                  -3.235
REMARK UNBOUND:                -1.234
REMARK SMILES CCCCCCCCCCCCCCCCCC(=O)[O-]
REMARK SMILES IDX 10 1 11 2 12 3 13 4 14 5 15 6 16 7 17 8 18 9 19 10 20 11
REMARK SMILES IDX 9 12 8 13 7 14 6 15 5 16 4 17 3 18 2 19 1 20
REMARK H PARENT
REMARK Flexibility Score: inf
ROOT
ATOM      1  C   UNL     1      11.241 -13.506  23.219  1.00  0.00     0.000 C 
ENDROOT
BRANCH   1   2
ATOM      2  C   UNL     1      12.444 -12.557  23.358  1.00  0.00     0.000 C 
BRANCH   2   3
ATOM      3  C   UNL     1      12.637 -11.566  22.191  1.00  0.00     0.000 C 
BRANCH   3   4
ATOM      4  C   UNL     1      14.010 -11.632  21.493  1.00  0.00     0.000 C 
BRANCH   4   5
ATOM      5  C   UNL     1      14.845 -12.886  21.810  1.00  0.00     0.000 C 
BRANCH   5   6
ATOM      6  C   UNL     1      14.732 -13.967  20.722  1.00  0.00     0.000 C 
BRANCH   6   7
ATOM      7  C   UNL     1      14.226 -13.408  19.378  1.00  0.00     0.006 C 
BRANCH   7   8
ATOM      8  C   UNL     1      13.159 -14.276  18.690  1.00  0.00     0.053 C 
BRANCH   8   9
ATOM      9  C   UNL     1      13.376 -14.370  17.211  1.00  0.00     0.041 C 
ATOM     10  O   UNL     1      12.405 -14.252  16.420  1.00  0.00    -0.550 OA
ATOM     11  O   UNL     1      14.657 -14.556  16.707  1.00  0.00    -0.550 OA
ENDBRANCH   8   9
ENDBRANCH   7   8
ENDBRANCH   6   7
ENDBRANCH   5   6
ENDBRANCH   4   5
ENDBRANCH   3   4
ENDBRANCH   2   3
ENDBRANCH   1   2
BRANCH   1  12
ATOM     12  C   UNL     1      11.325 -14.398  21.970  1.00  0.00     0.000 C 
BRANCH  12  13
ATOM     13  C   UNL     1      10.207 -14.110  20.951  1.00  0.00    -0.000 C 
BRANCH  13  14
ATOM     14  C   UNL     1       9.336 -12.877  21.266  1.00  0.00    -0.000 C 
BRANCH  14  15
ATOM     15  C   UNL     1       9.424 -11.731  20.238  1.00  0.00    -0.000 C 
BRANCH  15  16
ATOM     16  C   UNL     1      10.279 -12.038  18.996  1.00  0.00    -0.000 C 
BRANCH  16  17
ATOM     17  C   UNL     1      11.435 -11.045  18.808  1.00  0.00    -0.000 C 
BRANCH  17  18
ATOM     18  C   UNL     1      11.700 -10.786  17.320  1.00  0.00    -0.000 C 
BRANCH  18  19
ATOM     19  C   UNL     1      13.202 -10.671  17.040  1.00  0.00    -0.003 C 
ATOM     20  C   UNL     1      13.921  -9.942  18.171  1.00  0.00     0.004 C 
ENDBRANCH  18  19
ENDBRANCH  17  18
ENDBRANCH  16  17
ENDBRANCH  15  16
ENDBRANCH  14  15
ENDBRANCH  13  14
ENDBRANCH  12  13
ENDBRANCH   1  12
TORSDOF 16
ENDMDL
MODEL 5
REMARK VINA RESULT:    -4.117      3.820      7.106
REMARK INTER + INTRA:          -9.203
REMARK INTER:                  -5.904
REMARK INTRA:                  -3.299
REMARK UNBOUND:                -1.234
REMARK SMILES CCCCCCCCCCCCCCCCCC(=O)[O-]
REMARK SMILES IDX 10 1 11 2 12 3 13 4 14 5 15 6 16 7 17 8 18 9 19 10 20 11
REMARK SMILES IDX 9 12 8 13 7 14 6 15 5 16 4 17 3 18 2 19 1 20
REMARK H PARENT
REMARK Flexibility Score: inf
ROOT
ATOM      1  C   UNL     1      10.218 -11.740  19.073  1.00  0.00     0.000 C 
ENDROOT
BRANCH   1   2
ATOM      2  C   UNL     1      11.051 -13.028  19.199  1.00  0.00     0.000 C 
BRANCH   2   3
ATOM      3  C   UNL     1      10.882 -13.790  20.529  1.00  0.00     0.000 C 
BRANCH   3   4
ATOM      4  C   UNL     1      12.160 -13.910  21.384  1.00  0.00     0.000 C 
BRANCH   4   5
ATOM      5  C   UNL     1      13.376 -13.129  20.856  1.00  0.00     0.000 C 
BRANCH   5   6
ATOM      6  C   UNL     1      14.644 -13.995  20.758  1.00  0.00     0.000 C 
BRANCH   6   7
ATOM      7  C   UNL     1      14.388 -15.348  20.066  1.00  0.00     0.006 C 
BRANCH   7   8
ATOM      8  C   UNL     1      14.320 -15.273  18.532  1.00  0.00     0.053 C 
BRANCH   8   9
ATOM      9  C   UNL     1      13.054 -15.866  17.995  1.00  0.00     0.041 C 
ATOM     10  O   UNL     1      12.736 -15.694  16.789  1.00  0.00    -0.550 OA
ATOM     11  O   UNL     1      12.242 -16.636  18.818  1.00  0.00    -0.550 OA
ENDBRANCH   8   9
ENDBRANCH   7   8
ENDBRANCH   6   7
ENDBRANCH   5   6
ENDBRANCH   4   5
ENDBRANCH   3   4
ENDBRANCH   2   3
ENDBRANCH   1   2
BRANCH   1  12
ATOM     12  C   UNL     1      10.797 -10.572  19.889  1.00  0.00     0.000 C 
BRANCH  12  13
ATOM     13  C   UNL     1      11.003  -9.299  19.048  1.00  0.00    -0.000 C 
BRANCH  13  14
ATOM     14  C   UNL     1      12.440  -8.739  19.049  1.00  0.00    -0.000 C 
BRANCH  14  15
ATOM     15  C   UNL     1      13.558  -9.798  19.122  1.00  0.00    -0.000 C 
BRANCH  15  16
ATOM     16  C   UNL     1      14.134 -10.228  17.761  1.00  0.00    -0.000 C 
BRANCH  16  17
ATOM     17  C   UNL     1      14.104 -11.749  17.555  1.00  0.00    -0.000 C 
BRANCH  17  18
ATOM     18  C   UNL     1      13.143 -12.131  16.423  1.00  0.00    -0.000 C 
BRANCH  18  19
ATOM     19  C   UNL     1      12.416 -10.896  15.878  1.00  0.00    -0.003 C 
ATOM     20  C   UNL     1      10.983 -11.233  15.476  1.00  0.00     0.004 C 
ENDBRANCH  18  19
ENDBRANCH  17  18
ENDBRANCH  16  17
ENDBRANCH  15  16
ENDBRANCH  14  15
ENDBRANCH  13  14
ENDBRANCH  12  13
ENDBRANCH   1  12
TORSDOF 16
ENDMDL
MODEL 6
REMARK VINA RESULT:    -4.106      3.742      5.801
REMARK INTER + INTRA:          -9.181
REMARK INTER:                  -5.927
REMARK INTRA:                  -3.253
REMARK UNBOUND:                -1.234
REMARK SMILES CCCCCCCCCCCCCCCCCC(=O)[O-]
REMARK SMILES IDX 10 1 11 2 12 3 13 4 14 5 15 6 16 7 17 8 18 9 19 10 20 11
REMARK SMILES IDX 9 12 8 13 7 14 6 15 5 16 4 17 3 18 2 19 1 20
REMARK H PARENT
REMARK Flexibility Score: inf
ROOT
ATOM      1  C   UNL     1      11.991 -10.028  16.983  1.00  0.00     0.000 C 
ENDROOT
BRANCH   1   2
ATOM      2  C   UNL     1      12.555  -9.510  18.318  1.00  0.00     0.000 C 
BRANCH   2   3
ATOM      3  C   UNL     1      13.904 -10.124  18.743  1.00  0.00     0.000 C 
BRANCH   3   4
ATOM      4  C   UNL     1      13.907 -10.816  20.121  1.00  0.00     0.000 C 
BRANCH   4   5
ATOM      5  C   UNL     1      12.519 -11.005  20.761  1.00  0.00     0.000 C 
BRANCH   5   6
ATOM      6  C   UNL     1      12.027 -12.461  20.695  1.00  0.00     0.000 C 
BRANCH   6   7
ATOM      7  C   UNL     1      10.492 -12.566  20.593  1.00  0.00     0.006 C 
BRANCH   7   8
ATOM      8  C   UNL     1       9.907 -12.044  19.271  1.00  0.00     0.053 C 
BRANCH   8   9
ATOM      9  C   UNL     1       8.890 -10.967  19.490  1.00  0.00     0.041 C 
ATOM     10  O   UNL     1       9.164  -9.976  20.215  1.00  0.00    -0.550 OA
ATOM     11  O   UNL     1       7.651 -11.043  18.867  1.00  0.00    -0.550 OA
ENDBRANCH   8   9
ENDBRANCH   7   8
ENDBRANCH   6   7
ENDBRANCH   5   6
ENDBRANCH   4   5
ENDBRANCH   3   4
ENDBRANCH   2   3
ENDBRANCH   1   2
BRANCH   1  12
ATOM     12  C   UNL     1      12.851 -11.142  16.364  1.00  0.00     0.000 C 
BRANCH  12  13
ATOM     13  C   UNL     1      12.141 -12.507  16.347  1.00  0.00    -0.000 C 
BRANCH  13  14
ATOM     14  C   UNL     1      12.681 -13.539  17.358  1.00  0.00    -0.000 C 
BRANCH  14  15
ATOM     15  C   UNL     1      14.215 -13.562  17.516  1.00  0.00    -0.000 C 
BRANCH  15  16
ATOM     16  C   UNL     1      14.771 -14.778  18.278  1.00  0.00    -0.000 C 
BRANCH  16  17
ATOM     17  C   UNL     1      14.803 -14.565  19.798  1.00  0.00    -0.000 C 
BRANCH  17  18
ATOM     18  C   UNL     1      14.107 -15.718  20.530  1.00  0.00    -0.000 C 
BRANCH  18  19
ATOM     19  C   UNL     1      13.145 -16.462  19.596  1.00  0.00    -0.003 C 
ATOM     20  C   UNL     1      11.693 -16.104  19.900  1.00  0.00     0.004 C 
ENDBRANCH  18  19
ENDBRANCH  17  18
ENDBRANCH  16  17
ENDBRANCH  15  16
ENDBRANCH  14  15
ENDBRANCH  13  14
ENDBRANCH  12  13
ENDBRANCH   1  12
TORSDOF 16
ENDMDL
MODEL 7
REMARK VINA RESULT:    -4.102      3.594      7.041
REMARK INTER + INTRA:          -9.172
REMARK INTER:                  -6.222
REMARK INTRA:                  -2.950
REMARK UNBOUND:                -1.234
REMARK SMILES CCCCCCCCCCCCCCCCCC(=O)[O-]
REMARK SMILES IDX 10 1 11 2 12 3 13 4 14 5 15 6 16 7 17 8 18 9 19 10 20 11
REMARK SMILES IDX 9 12 8 13 7 14 6 15 5 16 4 17 3 18 2 19 1 20
REMARK H PARENT
REMARK Flexibility Score: inf
ROOT
ATOM      1  C   UNL     1      10.201 -13.994  21.417  1.00  0.00     0.000 C 
ENDROOT
BRANCH   1   2
ATOM      2  C   UNL     1      11.104 -14.009  22.663  1.00  0.00     0.000 C 
BRANCH   2   3
ATOM      3  C   UNL     1      12.515 -14.593  22.442  1.00  0.00     0.000 C 
BRANCH   3   4
ATOM      4  C   UNL     1      13.679 -13.620  22.719  1.00  0.00     0.000 C 
BRANCH   4   5
ATOM      5  C   UNL     1      14.659 -13.422  21.548  1.00  0.00     0.000 C 
BRANCH   5   6
ATOM      6  C   UNL     1      14.604 -14.569  20.525  1.00  0.00     0.000 C 
BRANCH   6   7
ATOM      7  C   UNL     1      14.569 -14.066  19.069  1.00  0.00     0.006 C 
BRANCH   7   8
ATOM      8  C   UNL     1      14.575 -15.182  18.011  1.00  0.00     0.053 C 
BRANCH   8   9
ATOM      9  C   UNL     1      13.211 -15.429  17.445  1.00  0.00     0.041 C 
ATOM     10  O   UNL     1      12.688 -14.594  16.663  1.00  0.00    -0.550 OA
ATOM     11  O   UNL     1      12.530 -16.600  17.757  1.00  0.00    -0.550 OA
ENDBRANCH   8   9
ENDBRANCH   7   8
ENDBRANCH   6   7
ENDBRANCH   5   6
ENDBRANCH   4   5
ENDBRANCH   3   4
ENDBRANCH   2   3
ENDBRANCH   1   2
BRANCH   1  12
ATOM     12  C   UNL     1      10.990 -14.130  20.105  1.00  0.00     0.000 C 
BRANCH  12  13
ATOM     13  C   UNL     1      11.013 -12.829  19.283  1.00  0.00    -0.000 C 
BRANCH  13  14
ATOM     14  C   UNL     1      10.749 -11.540  20.087  1.00  0.00    -0.000 C 
BRANCH  14  15
ATOM     15  C   UNL     1      12.012 -10.797  20.568  1.00  0.00    -0.000 C 
BRANCH  15  16
ATOM     16  C   UNL     1      13.170 -10.761  19.555  1.00  0.00    -0.000 C 
BRANCH  16  17
ATOM     17  C   UNL     1      12.940  -9.750  18.422  1.00  0.00    -0.000 C 
BRANCH  17  18
ATOM     18  C   UNL     1      12.971 -10.442  17.054  1.00  0.00    -0.000 C 
BRANCH  18  19
ATOM     19  C   UNL     1      11.672 -10.191  16.280  1.00  0.00    -0.003 C 
ATOM     20  C   UNL     1      11.017 -11.504  15.861  1.00  0.00     0.004 C 
ENDBRANCH  18  19
ENDBRANCH  17  18
ENDBRANCH  16  17
ENDBRANCH  15  16
ENDBRANCH  14  15
ENDBRANCH  13  14
ENDBRANCH  12  13
ENDBRANCH   1  12
TORSDOF 16
ENDMDL
MODEL 8
REMARK VINA RESULT:    -4.087      4.109      6.990
REMARK INTER + INTRA:          -9.145
REMARK INTER:                  -6.377
REMARK INTRA:                  -2.768
REMARK UNBOUND:                -1.234
REMARK SMILES CCCCCCCCCCCCCCCCCC(=O)[O-]
REMARK SMILES IDX 10 1 11 2 12 3 13 4 14 5 15 6 16 7 17 8 18 9 19 10 20 11
REMARK SMILES IDX 9 12 8 13 7 14 6 15 5 16 4 17 3 18 2 19 1 20
REMARK H PARENT
REMARK Flexibility Score: inf
ROOT
ATOM      1  C   UNL     1       9.591 -11.543  18.906  1.00  0.00     0.000 C 
ENDROOT
BRANCH   1   2
ATOM      2  C   UNL     1       9.733 -11.125  20.380  1.00  0.00     0.000 C 
BRANCH   2   3
ATOM      3  C   UNL     1       9.240 -12.164  21.408  1.00  0.00     0.000 C 
BRANCH   3   4
ATOM      4  C   UNL     1      10.288 -12.609  22.448  1.00  0.00     0.000 C 
BRANCH   4   5
ATOM      5  C   UNL     1      10.871 -14.017  22.229  1.00  0.00     0.000 C 
BRANCH   5   6
ATOM      6  C   UNL     1      10.209 -14.760  21.056  1.00  0.00     0.000 C 
BRANCH   6   7
ATOM      7  C   UNL     1      11.221 -15.550  20.205  1.00  0.00     0.006 C 
BRANCH   7   8
ATOM      8  C   UNL     1      12.647 -14.976  20.218  1.00  0.00     0.053 C 
BRANCH   8   9
ATOM      9  C   UNL     1      13.261 -14.961  18.852  1.00  0.00     0.041 C 
ATOM     10  O   UNL     1      14.193 -14.158  18.586  1.00  0.00    -0.550 OA
ATOM     11  O   UNL     1      12.826 -15.856  17.883  1.00  0.00    -0.550 OA
ENDBRANCH   8   9
ENDBRANCH   7   8
ENDBRANCH   6   7
ENDBRANCH   5   6
ENDBRANCH   4   5
ENDBRANCH   3   4
ENDBRANCH   2   3
ENDBRANCH   1   2
BRANCH   1  12
ATOM     12  C   UNL     1      10.855 -12.224  18.354  1.00  0.00     0.000 C 
BRANCH  12  13
ATOM     13  C   UNL     1      11.210 -11.761  16.929  1.00  0.00    -0.000 C 
BRANCH  13  14
ATOM     14  C   UNL     1      11.864 -10.368  16.836  1.00  0.00    -0.000 C 
BRANCH  14  15
ATOM     15  C   UNL     1      13.398 -10.352  16.987  1.00  0.00    -0.000 C 
BRANCH  15  16
ATOM     16  C   UNL     1      13.913 -10.619  18.413  1.00  0.00    -0.000 C 
BRANCH  16  17
ATOM     17  C   UNL     1      13.587  -9.477  19.387  1.00  0.00    -0.000 C 
BRANCH  17  18
ATOM     18  C   UNL     1      13.555  -9.983  20.834  1.00  0.00    -0.000 C 
BRANCH  18  19
ATOM     19  C   UNL     1      13.475 -11.513  20.881  1.00  0.00    -0.003 C 
ATOM     20  C   UNL     1      14.689 -12.108  21.587  1.00  0.00     0.004 C 
ENDBRANCH  18  19
ENDBRANCH  17  18
ENDBRANCH  16  17
ENDBRANCH  15  16
ENDBRANCH  14  15
ENDBRANCH  13  14
ENDBRANCH  12  13
ENDBRANCH   1  12
TORSDOF 16
ENDMDL
MODEL 9
REMARK VINA RESULT:    -4.072      3.852      5.653
REMARK INTER + INTRA:          -9.116
REMARK INTER:                  -6.037
REMARK INTRA:                  -3.079
REMARK UNBOUND:                -1.234
REMARK SMILES CCCCCCCCCCCCCCCCCC(=O)[O-]
REMARK SMILES IDX 10 1 11 2 12 3 13 4 14 5 15 6 16 7 17 8 18 9 19 10 20 11
REMARK SMILES IDX 9 12 8 13 7 14 6 15 5 16 4 17 3 18 2 19 1 20
REMARK H PARENT
REMARK Flexibility Score: inf
ROOT
ATOM      1  C   UNL     1      10.759 -14.321  21.587  1.00  0.00     0.000 C 
ENDROOT
BRANCH   1   2
ATOM      2  C   UNL     1      10.882 -14.827  20.139  1.00  0.00     0.000 C 
BRANCH   2   3
ATOM      3  C   UNL     1      11.481 -16.240  19.987  1.00  0.00     0.000 C 
BRANCH   3   4
ATOM      4  C   UNL     1      12.875 -16.296  19.330  1.00  0.00     0.000 C 
BRANCH   4   5
ATOM      5  C   UNL     1      14.008 -15.644  20.144  1.00  0.00     0.000 C 
BRANCH   5   6
ATOM      6  C   UNL     1      14.689 -14.486  19.395  1.00  0.00     0.000 C 
BRANCH   6   7
ATOM      7  C   UNL     1      13.972 -14.125  18.079  1.00  0.00     0.006 C 
BRANCH   7   8
ATOM      8  C   UNL     1      14.217 -12.686  17.597  1.00  0.00     0.053 C 
BRANCH   8   9
ATOM      9  C   UNL     1      12.979 -12.062  17.032  1.00  0.00     0.041 C 
ATOM     10  O   UNL     1      12.902 -10.812  16.902  1.00  0.00    -0.550 OA
ATOM     11  O   UNL     1      11.922 -12.863  16.618  1.00  0.00    -0.550 OA
ENDBRANCH   8   9
ENDBRANCH   7   8
ENDBRANCH   6   7
ENDBRANCH   5   6
ENDBRANCH   4   5
ENDBRANCH   3   4
ENDBRANCH   2   3
ENDBRANCH   1   2
BRANCH   1  12
ATOM     12  C   UNL     1      11.740 -13.181  21.907  1.00  0.00     0.000 C 
BRANCH  12  13
ATOM     13  C   UNL     1      12.072 -12.314  20.679  1.00  0.00    -0.000 C 
BRANCH  13  14
ATOM     14  C   UNL     1      11.620 -10.843  20.774  1.00  0.00    -0.000 C 
BRANCH  14  15
ATOM     15  C   UNL     1      10.668 -10.376  19.654  1.00  0.00    -0.000 C 
BRANCH  15  16
ATOM     16  C   UNL     1       9.768 -11.477  19.066  1.00  0.00    -0.000 C 
BRANCH  16  17
ATOM     17  C   UNL     1       8.273 -11.196  19.271  1.00  0.00    -0.000 C 
BRANCH  17  18
ATOM     18  C   UNL     1       7.982 -10.799  20.723  1.00  0.00    -0.000 C 
BRANCH  18  19
ATOM     19  C   UNL     1       7.910 -12.034  21.627  1.00  0.00    -0.003 C 
ATOM     20  C   UNL     1       8.478 -11.738  23.012  1.00  0.00     0.004 C 
ENDBRANCH  18  19
ENDBRANCH  17  18
ENDBRANCH  16  17
ENDBRANCH  15  16
ENDBRANCH  14  15
ENDBRANCH  13  14
ENDBRANCH  12  13
ENDBRANCH   1  12
TORSDOF 16
ENDMDL
