MODEL 1
REMARK VINA RESULT:    18.031      0.000      0.000
REMARK INTER + INTRA:          21.411
REMARK INTER:                  21.193
REMARK INTRA:                   0.218
REMARK UNBOUND:                 0.218
REMARK SMILES O=c1c(O)c(-c2ccc(O)cc2)oc2cc(O)cc(O)c12
REMARK SMILES IDX 5 1 3 2 2 3 1 4 21 5 19 6 18 7 16 8 15 9 14 10 13 11 6 12
REMARK SMILES IDX 7 13 8 14 9 15 12 16 11 17 10 18 4 20 20 22 17 24
REMARK H PARENT 10 19 4 21 20 23 17 25
REMARK Flexibility Score: inf
ROOT
ATOM      1  C   UNL     1       7.907   7.414  13.659  1.00  0.00     0.180 A 
ATOM      2  C   UNL     1       7.760   6.270  12.855  1.00  0.00     0.208 A 
ATOM      3  C   UNL     1       6.469   5.869  12.473  1.00  0.00     0.238 A 
ATOM      4  O   UNL     1       6.346   4.876  11.708  1.00  0.00    -0.285 OA
ATOM      5  C   UNL     1       5.343   6.607  12.913  1.00  0.00     0.111 A 
ATOM      6  C   UNL     1       3.987   6.267  12.621  1.00  0.00     0.134 A 
ATOM      7  C   UNL     1       2.961   7.141  12.998  1.00  0.00     0.093 A 
ATOM      8  C   UNL     1       3.235   8.308  13.715  1.00  0.00     0.123 A 
ATOM      9  C   UNL     1       4.550   8.617  14.056  1.00  0.00     0.094 A 
ATOM     10  C   UNL     1       5.598   7.783  13.663  1.00  0.00     0.146 A 
ATOM     11  O   UNL     1       6.838   8.121  14.001  1.00  0.00    -0.452 OA
ENDROOT
BRANCH   1  12
ATOM     12  C   UNL     1       9.234   7.884  14.122  1.00  0.00     0.021 A 
ATOM     13  C   UNL     1       9.379   8.358  15.437  1.00  0.00     0.016 A 
ATOM     14  C   UNL     1      10.626   8.785  15.902  1.00  0.00     0.047 A 
ATOM     15  C   UNL     1      11.746   8.729  15.066  1.00  0.00     0.115 A 
ATOM     16  C   UNL     1      10.368   7.812  13.292  1.00  0.00     0.016 A 
ATOM     17  C   UNL     1      11.613   8.240  13.761  1.00  0.00     0.047 A 
BRANCH  15  18
ATOM     18  O   UNL     1      12.982   9.159  15.544  1.00  0.00    -0.508 OA
ATOM     19  H   UNL     1      13.364  10.062  15.284  1.00  0.00     0.293 HD
ENDBRANCH  15  18
ENDBRANCH   1  12
BRANCH   2  20
ATOM     20  O   UNL     1       8.886   5.570  12.413  1.00  0.00    -0.502 OA
ATOM     21  H   UNL     1       9.757   5.560  12.929  1.00  0.00     0.293 HD
ENDBRANCH   2  20
BRANCH   6  22
ATOM     22  O   UNL     1       3.598   5.081  11.991  1.00  0.00    -0.507 OA
ATOM     23  H   UNL     1       2.943   5.024  11.227  1.00  0.00     0.293 HD
ENDBRANCH   6  22
BRANCH   8  24
ATOM     24  O   UNL     1       2.205   9.164  14.100  1.00  0.00    -0.508 OA
ATOM     25  H   UNL     1       2.001  10.012  13.585  1.00  0.00     0.293 HD
ENDBRANCH   8  24
TORSDOF 5
ENDMDL
MODEL 2
REMARK VINA RESULT:    18.662      1.825      2.821
REMARK INTER + INTRA:          22.153
REMARK INTER:                  22.400
REMARK INTRA:                  -0.248
REMARK UNBOUND:                 0.218
REMARK SMILES O=c1c(O)c(-c2ccc(O)cc2)oc2cc(O)cc(O)c12
REMARK SMILES IDX 5 1 3 2 2 3 1 4 21 5 19 6 18 7 16 8 15 9 14 10 13 11 6 12
REMARK SMILES IDX 7 13 8 14 9 15 12 16 11 17 10 18 4 20 20 22 17 24
REMARK H PARENT 10 19 4 21 20 23 17 25
REMARK Flexibility Score: inf
ROOT
ATOM      1  C   UNL     1       8.803   8.235  13.644  1.00  0.00     0.180 A 
ATOM      2  C   UNL     1       8.392   9.227  12.737  1.00  0.00     0.208 A 
ATOM      3  C   UNL     1       7.113   9.135  12.163  1.00  0.00     0.238 A 
ATOM      4  O   UNL     1       6.729  10.054  11.393  1.00  0.00    -0.285 OA
ATOM      5  C   UNL     1       6.271   8.045  12.490  1.00  0.00     0.111 A 
ATOM      6  C   UNL     1       4.973   7.829  11.936  1.00  0.00     0.134 A 
ATOM      7  C   UNL     1       4.176   6.790  12.429  1.00  0.00     0.093 A 
ATOM      8  C   UNL     1       4.655   5.917  13.409  1.00  0.00     0.123 A 
ATOM      9  C   UNL     1       5.943   6.083  13.913  1.00  0.00     0.094 A 
ATOM     10  C   UNL     1       6.748   7.133  13.466  1.00  0.00     0.146 A 
ATOM     11  O   UNL     1       7.966   7.261  13.980  1.00  0.00    -0.452 OA
ENDROOT
BRANCH   1  12
ATOM     12  C   UNL     1      10.145   8.250  14.271  1.00  0.00     0.021 A 
ATOM     13  C   UNL     1      11.265   7.854  13.519  1.00  0.00     0.016 A 
ATOM     14  C   UNL     1      12.543   7.883  14.083  1.00  0.00     0.047 A 
ATOM     15  C   UNL     1      12.722   8.322  15.399  1.00  0.00     0.115 A 
ATOM     16  C   UNL     1      10.334   8.709  15.588  1.00  0.00     0.016 A 
ATOM     17  C   UNL     1      11.614   8.737  16.149  1.00  0.00     0.047 A 
BRANCH  15  18
ATOM     18  O   UNL     1      14.002   8.344  15.948  1.00  0.00    -0.508 OA
ATOM     19  H   UNL     1      14.593   9.165  15.881  1.00  0.00     0.293 HD
ENDBRANCH  15  18
ENDBRANCH   1  12
BRANCH   2  20
ATOM     20  O   UNL     1       9.230  10.306  12.446  1.00  0.00    -0.502 OA
ATOM     21  H   UNL     1       9.446  10.586  11.497  1.00  0.00     0.293 HD
ENDBRANCH   2  20
BRANCH   6  22
ATOM     22  O   UNL     1       4.435   8.586  10.890  1.00  0.00    -0.507 OA
ATOM     23  H   UNL     1       4.478   8.332   9.915  1.00  0.00     0.293 HD
ENDBRANCH   6  22
BRANCH   8  24
ATOM     24  O   UNL     1       3.860   4.875  13.883  1.00  0.00    -0.508 OA
ATOM     25  H   UNL     1       2.884   5.016  14.112  1.00  0.00     0.293 HD
ENDBRANCH   8  24
TORSDOF 5
ENDMDL
