MODEL 1
REMARK VINA RESULT:    -4.048      0.000      0.000
REMARK INTER + INTRA:          -7.745
REMARK INTER:                  -6.415
REMARK INTRA:                  -1.330
REMARK UNBOUND:                -1.330
REMARK SMILES CCCCCCCCCCCC(=O)[O-]
REMARK SMILES IDX 7 1 8 2 9 3 10 4 11 5 12 6 13 7 14 8 6 9 5 10 4 11 3 12 2 13
REMARK SMILES IDX 1 14
REMARK H PARENT
REMARK Flexibility Score: inf
ROOT
ATOM      1  C   UNL     1     191.747 191.264 192.158  1.00  0.00     0.000 C 
ENDROOT
BRANCH   1   2
ATOM      2  C   UNL     1     191.455 192.191 190.968  1.00  0.00     0.000 C 
BRANCH   2   3
ATOM      3  C   UNL     1     191.975 193.608 191.237  1.00  0.00     0.000 C 
BRANCH   3   4
ATOM      4  C   UNL     1     190.814 194.583 191.483  1.00  0.00     0.006 C 
BRANCH   4   5
ATOM      5  C   UNL     1     190.799 195.118 192.920  1.00  0.00     0.053 C 
BRANCH   5   6
ATOM      6  C   UNL     1     190.973 196.605 192.960  1.00  0.00     0.041 C 
ATOM      7  O   UNL     1     191.496 197.209 191.986  1.00  0.00    -0.550 OA
ATOM      8  O   UNL     1     190.530 197.328 194.060  1.00  0.00    -0.550 OA
ENDBRANCH   5   6
ENDBRANCH   4   5
ENDBRANCH   3   4
ENDBRANCH   2   3
ENDBRANCH   1   2
BRANCH   1   9
ATOM      9  C   UNL     1     190.527 191.065 193.075  1.00  0.00     0.000 C 
BRANCH   9  10
ATOM     10  C   UNL     1     189.174 190.957 192.344  1.00  0.00    -0.000 C 
BRANCH  10  11
ATOM     11  C   UNL     1     188.200 192.126 192.592  1.00  0.00    -0.000 C 
BRANCH  11  12
ATOM     12  C   UNL     1     187.405 192.582 191.356  1.00  0.00    -0.000 C 
BRANCH  12  13
ATOM     13  C   UNL     1     187.644 191.687 190.132  1.00  0.00    -0.003 C 
ATOM     14  C   UNL     1     187.744 192.517 188.855  1.00  0.00     0.004 C 
ENDBRANCH  12  13
ENDBRANCH  11  12
ENDBRANCH  10  11
ENDBRANCH   9  10
ENDBRANCH   1   9
TORSDOF 10
ENDMDL
MODEL 2
REMARK VINA RESULT:    -3.980      2.982      5.291
REMARK INTER + INTRA:          -7.636
REMARK INTER:                  -6.678
REMARK INTRA:                  -0.957
REMARK UNBOUND:                -1.330
REMARK SMILES CCCCCCCCCCCC(=O)[O-]
REMARK SMILES IDX 7 1 8 2 9 3 10 4 11 5 12 6 13 7 14 8 6 9 5 10 4 11 3 12 2 13
REMARK SMILES IDX 1 14
REMARK H PARENT
REMARK Flexibility Score: inf
ROOT
ATOM      1  C   UNL     1     191.675 191.618 192.180  1.00  0.00     0.000 C 
ENDROOT
BRANCH   1   2
ATOM      2  C   UNL     1     190.229 191.254 192.550  1.00  0.00     0.000 C 
BRANCH   2   3
ATOM      3  C   UNL     1     189.412 192.510 192.872  1.00  0.00     0.000 C 
BRANCH   3   4
ATOM      4  C   UNL     1     188.216 192.648 191.918  1.00  0.00     0.006 C 
BRANCH   4   5
ATOM      5  C   UNL     1     188.015 191.398 191.053  1.00  0.00     0.053 C 
BRANCH   5   6
ATOM      6  C   UNL     1     187.424 191.737 189.718  1.00  0.00     0.041 C 
ATOM      7  O   UNL     1     186.539 190.999 189.210  1.00  0.00    -0.550 OA
ATOM      8  O   UNL     1     187.829 192.885 189.050  1.00  0.00    -0.550 OA
ENDBRANCH   5   6
ENDBRANCH   4   5
ENDBRANCH   3   4
ENDBRANCH   2   3
ENDBRANCH   1   2
BRANCH   1   9
ATOM      9  C   UNL     1     191.766 192.500 190.922  1.00  0.00     0.000 C 
BRANCH   9  10
ATOM     10  C   UNL     1     192.449 193.867 191.132  1.00  0.00    -0.000 C 
BRANCH  10  11
ATOM     11  C   UNL     1     191.501 195.083 191.110  1.00  0.00    -0.000 C 
BRANCH  11  12
ATOM     12  C   UNL     1     191.282 195.759 192.474  1.00  0.00    -0.000 C 
BRANCH  12  13
ATOM     13  C   UNL     1     191.231 197.291 192.378  1.00  0.00    -0.003 C 
ATOM     14  C   UNL     1     191.326 197.754 190.926  1.00  0.00     0.004 C 
ENDBRANCH  12  13
ENDBRANCH  11  12
ENDBRANCH  10  11
ENDBRANCH   9  10
ENDBRANCH   1   9
TORSDOF 10
ENDMDL
MODEL 3
REMARK VINA RESULT:    -3.969      3.431      6.154
REMARK INTER + INTRA:          -7.619
REMARK INTER:                  -7.138
REMARK INTRA:                  -0.481
REMARK UNBOUND:                -1.330
REMARK SMILES CCCCCCCCCCCC(=O)[O-]
REMARK SMILES IDX 7 1 8 2 9 3 10 4 11 5 12 6 13 7 14 8 6 9 5 10 4 11 3 12 2 13
REMARK SMILES IDX 1 14
REMARK H PARENT
REMARK Flexibility Score: inf
ROOT
ATOM      1  C   UNL     1     192.410 194.004 191.124  1.00  0.00     0.000 C 
ENDROOT
BRANCH   1   2
ATOM      2  C   UNL     1     191.321 192.929 191.256  1.00  0.00     0.000 C 
BRANCH   2   3
ATOM      3  C   UNL     1     191.883 191.654 191.896  1.00  0.00     0.000 C 
BRANCH   3   4
ATOM      4  C   UNL     1     190.784 190.879 192.638  1.00  0.00     0.006 C 
BRANCH   4   5
ATOM      5  C   UNL     1     189.440 191.618 192.621  1.00  0.00     0.053 C 
BRANCH   5   6
ATOM      6  C   UNL     1     188.337 190.751 192.097  1.00  0.00     0.041 C 
ATOM      7  O   UNL     1     188.047 189.672 192.679  1.00  0.00    -0.550 OA
ATOM      8  O   UNL     1     187.609 191.149 190.984  1.00  0.00    -0.550 OA
ENDBRANCH   5   6
ENDBRANCH   4   5
ENDBRANCH   3   4
ENDBRANCH   2   3
ENDBRANCH   1   2
BRANCH   1   9
ATOM      9  C   UNL     1     191.846 195.436 191.174  1.00  0.00     0.000 C 
BRANCH   9  10
ATOM     10  C   UNL     1     191.675 196.019 192.592  1.00  0.00    -0.000 C 
BRANCH  10  11
ATOM     11  C   UNL     1     191.045 197.425 192.649  1.00  0.00    -0.000 C 
BRANCH  11  12
ATOM     12  C   UNL     1     191.465 198.371 191.511  1.00  0.00    -0.000 C 
BRANCH  12  13
ATOM     13  C   UNL     1     192.535 199.384 191.943  1.00  0.00    -0.003 C 
ATOM     14  C   UNL     1     193.022 200.210 190.755  1.00  0.00     0.004 C 
ENDBRANCH  12  13
ENDBRANCH  11  12
ENDBRANCH  10  11
ENDBRANCH   9  10
ENDBRANCH   1   9
TORSDOF 10
ENDMDL
MODEL 4
REMARK VINA RESULT:    -3.936      1.417      2.328
REMARK INTER + INTRA:          -7.567
REMARK INTER:                  -6.635
REMARK INTRA:                  -0.932
REMARK UNBOUND:                -1.330
REMARK SMILES CCCCCCCCCCCC(=O)[O-]
REMARK SMILES IDX 7 1 8 2 9 3 10 4 11 5 12 6 13 7 14 8 6 9 5 10 4 11 3 12 2 13
REMARK SMILES IDX 1 14
REMARK H PARENT
REMARK Flexibility Score: inf
ROOT
ATOM      1  C   UNL     1     189.346 191.193 192.521  1.00  0.00     0.000 C 
ENDROOT
BRANCH   1   2
ATOM      2  C   UNL     1     190.743 190.909 193.094  1.00  0.00     0.000 C 
BRANCH   2   3
ATOM      3  C   UNL     1     191.836 191.276 192.084  1.00  0.00     0.000 C 
BRANCH   3   4
ATOM      4  C   UNL     1     191.333 192.329 191.086  1.00  0.00     0.006 C 
BRANCH   4   5
ATOM      5  C   UNL     1     192.185 193.605 191.110  1.00  0.00     0.053 C 
BRANCH   5   6
ATOM      6  C   UNL     1     191.401 194.786 191.595  1.00  0.00     0.041 C 
ATOM      7  O   UNL     1     191.553 195.913 191.055  1.00  0.00    -0.550 OA
ATOM      8  O   UNL     1     190.479 194.633 192.622  1.00  0.00    -0.550 OA
ENDBRANCH   5   6
ENDBRANCH   4   5
ENDBRANCH   3   4
ENDBRANCH   2   3
ENDBRANCH   1   2
BRANCH   1   9
ATOM      9  C   UNL     1     188.424 189.961 192.554  1.00  0.00     0.000 C 
BRANCH   9  10
ATOM     10  C   UNL     1     186.926 190.274 192.745  1.00  0.00    -0.000 C 
BRANCH  10  11
ATOM     11  C   UNL     1     186.235 190.934 191.535  1.00  0.00    -0.000 C 
BRANCH  11  12
ATOM     12  C   UNL     1     186.680 190.399 190.163  1.00  0.00    -0.000 C 
BRANCH  12  13
ATOM     13  C   UNL     1     186.746 191.495 189.090  1.00  0.00    -0.003 C 
ATOM     14  C   UNL     1     188.029 192.313 189.218  1.00  0.00     0.004 C 
ENDBRANCH  12  13
ENDBRANCH  11  12
ENDBRANCH  10  11
ENDBRANCH   9  10
ENDBRANCH   1   9
TORSDOF 10
ENDMDL
MODEL 5
REMARK VINA RESULT:    -3.906      2.332      4.090
REMARK INTER + INTRA:          -7.519
REMARK INTER:                  -6.644
REMARK INTRA:                  -0.875
REMARK UNBOUND:                -1.330
REMARK SMILES CCCCCCCCCCCC(=O)[O-]
REMARK SMILES IDX 7 1 8 2 9 3 10 4 11 5 12 6 13 7 14 8 6 9 5 10 4 11 3 12 2 13
REMARK SMILES IDX 1 14
REMARK H PARENT
REMARK Flexibility Score: inf
ROOT
ATOM      1  C   UNL     1     191.506 195.487 191.363  1.00  0.00     0.000 C 
ENDROOT
BRANCH   1   2
ATOM      2  C   UNL     1     190.961 195.996 192.707  1.00  0.00     0.000 C 
BRANCH   2   3
ATOM      3  C   UNL     1     190.142 194.910 193.414  1.00  0.00     0.000 C 
BRANCH   3   4
ATOM      4  C   UNL     1     189.581 195.424 194.748  1.00  0.00     0.006 C 
BRANCH   4   5
ATOM      5  C   UNL     1     189.605 196.955 194.837  1.00  0.00     0.053 C 
BRANCH   5   6
ATOM      6  C   UNL     1     188.521 197.475 195.731  1.00  0.00     0.041 C 
ATOM      7  O   UNL     1     188.805 198.224 196.702  1.00  0.00    -0.550 OA
ATOM      8  O   UNL     1     187.194 197.157 195.472  1.00  0.00    -0.550 OA
ENDBRANCH   5   6
ENDBRANCH   4   5
ENDBRANCH   3   4
ENDBRANCH   2   3
ENDBRANCH   1   2
BRANCH   1   9
ATOM      9  C   UNL     1     192.838 194.730 191.506  1.00  0.00     0.000 C 
BRANCH   9  10
ATOM     10  C   UNL     1     192.852 193.316 190.891  1.00  0.00    -0.000 C 
BRANCH  10  11
ATOM     11  C   UNL     1     191.525 192.538 191.006  1.00  0.00    -0.000 C 
BRANCH  11  12
ATOM     12  C   UNL     1     191.604 191.239 191.827  1.00  0.00    -0.000 C 
BRANCH  12  13
ATOM     13  C   UNL     1     190.568 191.186 192.959  1.00  0.00    -0.003 C 
ATOM     14  C   UNL     1     189.149 191.315 192.411  1.00  0.00     0.004 C 
ENDBRANCH  12  13
ENDBRANCH  11  12
ENDBRANCH  10  11
ENDBRANCH   9  10
ENDBRANCH   1   9
TORSDOF 10
ENDMDL
MODEL 6
REMARK VINA RESULT:    -3.899      1.938      3.304
REMARK INTER + INTRA:          -7.509
REMARK INTER:                  -6.540
REMARK INTRA:                  -0.969
REMARK UNBOUND:                -1.330
REMARK SMILES CCCCCCCCCCCC(=O)[O-]
REMARK SMILES IDX 7 1 8 2 9 3 10 4 11 5 12 6 13 7 14 8 6 9 5 10 4 11 3 12 2 13
REMARK SMILES IDX 1 14
REMARK H PARENT
REMARK Flexibility Score: inf
ROOT
ATOM      1  C   UNL     1     192.676 194.500 191.044  1.00  0.00     0.000 C 
ENDROOT
BRANCH   1   2
ATOM      2  C   UNL     1     191.594 195.576 191.226  1.00  0.00     0.000 C 
BRANCH   2   3
ATOM      3  C   UNL     1     191.362 195.875 192.711  1.00  0.00     0.000 C 
BRANCH   3   4
ATOM      4  C   UNL     1     191.213 197.385 192.952  1.00  0.00     0.006 C 
BRANCH   4   5
ATOM      5  C   UNL     1     191.466 198.204 191.681  1.00  0.00     0.053 C 
BRANCH   5   6
ATOM      6  C   UNL     1     192.549 199.219 191.881  1.00  0.00     0.041 C 
ATOM      7  O   UNL     1     193.199 199.249 192.960  1.00  0.00    -0.550 OA
ATOM      8  O   UNL     1     192.862 200.111 190.864  1.00  0.00    -0.550 OA
ENDBRANCH   5   6
ENDBRANCH   4   5
ENDBRANCH   3   4
ENDBRANCH   2   3
ENDBRANCH   1   2
BRANCH   1   9
ATOM      9  C   UNL     1     192.282 193.145 191.660  1.00  0.00     0.000 C 
BRANCH   9  10
ATOM     10  C   UNL     1     191.382 192.264 190.771  1.00  0.00    -0.000 C 
BRANCH  10  11
ATOM     11  C   UNL     1     190.050 191.829 191.415  1.00  0.00    -0.000 C 
BRANCH  11  12
ATOM     12  C   UNL     1     189.878 192.238 192.889  1.00  0.00    -0.000 C 
BRANCH  12  13
ATOM     13  C   UNL     1     188.818 193.331 193.084  1.00  0.00    -0.003 C 
ATOM     14  C   UNL     1     187.512 192.960 192.385  1.00  0.00     0.004 C 
ENDBRANCH  12  13
ENDBRANCH  11  12
ENDBRANCH  10  11
ENDBRANCH   9  10
ENDBRANCH   1   9
TORSDOF 10
ENDMDL
MODEL 7
REMARK VINA RESULT:    -3.895      3.434      5.212
REMARK INTER + INTRA:          -7.501
REMARK INTER:                  -6.529
REMARK INTRA:                  -0.972
REMARK UNBOUND:                -1.330
REMARK SMILES CCCCCCCCCCCC(=O)[O-]
REMARK SMILES IDX 7 1 8 2 9 3 10 4 11 5 12 6 13 7 14 8 6 9 5 10 4 11 3 12 2 13
REMARK SMILES IDX 1 14
REMARK H PARENT
REMARK Flexibility Score: inf
ROOT
ATOM      1  C   UNL     1     190.363 195.728 193.531  1.00  0.00     0.000 C 
ENDROOT
BRANCH   1   2
ATOM      2  C   UNL     1     191.600 195.682 192.622  1.00  0.00     0.000 C 
BRANCH   2   3
ATOM      3  C   UNL     1     191.329 194.842 191.369  1.00  0.00     0.000 C 
BRANCH   3   4
ATOM      4  C   UNL     1     192.482 193.863 191.101  1.00  0.00     0.006 C 
BRANCH   4   5
ATOM      5  C   UNL     1     192.280 192.520 191.814  1.00  0.00     0.053 C 
BRANCH   5   6
ATOM      6  C   UNL     1     191.123 191.758 191.243  1.00  0.00     0.041 C 
ATOM      7  O   UNL     1     190.998 191.633 189.996  1.00  0.00    -0.550 OA
ATOM      8  O   UNL     1     190.200 191.159 192.090  1.00  0.00    -0.550 OA
ENDBRANCH   5   6
ENDBRANCH   4   5
ENDBRANCH   3   4
ENDBRANCH   2   3
ENDBRANCH   1   2
BRANCH   1   9
ATOM      9  C   UNL     1     189.744 194.340 193.771  1.00  0.00     0.000 C 
BRANCH   9  10
ATOM     10  C   UNL     1     189.487 193.988 195.250  1.00  0.00    -0.000 C 
BRANCH  10  11
ATOM     11  C   UNL     1     188.232 194.637 195.869  1.00  0.00    -0.000 C 
BRANCH  11  12
ATOM     12  C   UNL     1     188.515 195.703 196.943  1.00  0.00    -0.000 C 
BRANCH  12  13
ATOM     13  C   UNL     1     188.329 197.135 196.423  1.00  0.00    -0.003 C 
ATOM     14  C   UNL     1     187.281 197.185 195.314  1.00  0.00     0.004 C 
ENDBRANCH  12  13
ENDBRANCH  11  12
ENDBRANCH  10  11
ENDBRANCH   9  10
ENDBRANCH   1   9
TORSDOF 10
ENDMDL
MODEL 8
REMARK VINA RESULT:    -3.879      2.582      4.467
REMARK INTER + INTRA:          -7.477
REMARK INTER:                  -6.359
REMARK INTRA:                  -1.118
REMARK UNBOUND:                -1.330
REMARK SMILES CCCCCCCCCCCC(=O)[O-]
REMARK SMILES IDX 7 1 8 2 9 3 10 4 11 5 12 6 13 7 14 8 6 9 5 10 4 11 3 12 2 13
REMARK SMILES IDX 1 14
REMARK H PARENT
REMARK Flexibility Score: inf
ROOT
ATOM      1  C   UNL     1     189.467 194.597 193.418  1.00  0.00     0.000 C 
ENDROOT
BRANCH   1   2
ATOM      2  C   UNL     1     189.566 194.022 194.839  1.00  0.00     0.000 C 
BRANCH   2   3
ATOM      3  C   UNL     1     188.323 194.380 195.663  1.00  0.00     0.000 C 
BRANCH   3   4
ATOM      4  C   UNL     1     187.373 195.283 194.863  1.00  0.00     0.006 C 
BRANCH   4   5
ATOM      5  C   UNL     1     187.062 196.593 195.596  1.00  0.00     0.053 C 
BRANCH   5   6
ATOM      6  C   UNL     1     188.279 197.455 195.731  1.00  0.00     0.041 C 
ATOM      7  O   UNL     1     188.712 197.769 196.872  1.00  0.00    -0.550 OA
ATOM      8  O   UNL     1     188.955 197.886 194.597  1.00  0.00    -0.550 OA
ENDBRANCH   5   6
ENDBRANCH   4   5
ENDBRANCH   3   4
ENDBRANCH   2   3
ENDBRANCH   1   2
BRANCH   1   9
ATOM      9  C   UNL     1     190.811 195.136 192.896  1.00  0.00     0.000 C 
BRANCH   9  10
ATOM     10  C   UNL     1     191.229 194.610 191.508  1.00  0.00    -0.000 C 
BRANCH  10  11
ATOM     11  C   UNL     1     192.017 193.284 191.520  1.00  0.00    -0.000 C 
BRANCH  11  12
ATOM     12  C   UNL     1     191.307 192.102 190.837  1.00  0.00    -0.000 C 
BRANCH  12  13
ATOM     13  C   UNL     1     190.308 191.392 191.762  1.00  0.00    -0.003 C 
ATOM     14  C   UNL     1     190.999 190.873 193.021  1.00  0.00     0.004 C 
ENDBRANCH  12  13
ENDBRANCH  11  12
ENDBRANCH  10  11
ENDBRANCH   9  10
ENDBRANCH   1   9
TORSDOF 10
ENDMDL
MODEL 9
REMARK VINA RESULT:    -3.807      3.902      6.117
REMARK INTER + INTRA:          -7.362
REMARK INTER:                  -6.167
REMARK INTRA:                  -1.195
REMARK UNBOUND:                -1.330
REMARK SMILES CCCCCCCCCCCC(=O)[O-]
REMARK SMILES IDX 7 1 8 2 9 3 10 4 11 5 12 6 13 7 14 8 6 9 5 10 4 11 3 12 2 13
REMARK SMILES IDX 1 14
REMARK H PARENT
REMARK Flexibility Score: inf
ROOT
ATOM      1  C   UNL     1     187.757 192.490 191.474  1.00  0.00     0.000 C 
ENDROOT
BRANCH   1   2
ATOM      2  C   UNL     1     188.013 191.836 190.108  1.00  0.00     0.000 C 
BRANCH   2   3
ATOM      3  C   UNL     1     186.759 191.114 189.601  1.00  0.00     0.000 C 
BRANCH   3   4
ATOM      4  C   UNL     1     186.079 190.331 190.734  1.00  0.00     0.006 C 
BRANCH   4   5
ATOM      5  C   UNL     1     186.585 188.886 190.826  1.00  0.00     0.053 C 
BRANCH   5   6
ATOM      6  C   UNL     1     187.049 188.549 192.210  1.00  0.00     0.041 C 
ATOM      7  O   UNL     1     187.663 187.471 192.428  1.00  0.00    -0.550 OA
ATOM      8  O   UNL     1     186.831 189.440 193.253  1.00  0.00    -0.550 OA
ENDBRANCH   5   6
ENDBRANCH   4   5
ENDBRANCH   3   4
ENDBRANCH   2   3
ENDBRANCH   1   2
BRANCH   1   9
ATOM      9  C   UNL     1     188.955 192.362 192.432  1.00  0.00     0.000 C 
BRANCH   9  10
ATOM     10  C   UNL     1     189.795 191.081 192.257  1.00  0.00    -0.000 C 
BRANCH  10  11
ATOM     11  C   UNL     1     191.286 191.315 191.941  1.00  0.00    -0.000 C 
BRANCH  11  12
ATOM     12  C   UNL     1     191.559 192.311 190.801  1.00  0.00    -0.000 C 
BRANCH  12  13
ATOM     13  C   UNL     1     192.476 193.467 191.228  1.00  0.00    -0.003 C 
ATOM     14  C   UNL     1     191.686 194.764 191.389  1.00  0.00     0.004 C 
ENDBRANCH  12  13
ENDBRANCH  11  12
ENDBRANCH  10  11
ENDBRANCH   9  10
ENDBRANCH   1   9
TORSDOF 10
ENDMDL
