MODEL 1
REMARK VINA RESULT:    -2.209      0.000      0.000
REMARK INTER + INTRA:          -2.274
REMARK INTER:                  -2.274
REMARK INTRA:                   0.000
REMARK UNBOUND:                 0.000
REMARK SMILES O=c1ccc2ccc(O)cc2o1
REMARK SMILES IDX 6 1 7 2 8 3 10 4 11 5 5 6 4 7 3 8 2 9 1 10 12 11 9 12
REMARK H PARENT 9 13
REMARK Flexibility Score: inf
ROOT
ATOM      1  C   UNL     1      20.241 -29.212  -1.003  1.00  0.00     0.016 A 
ATOM      2  C   UNL     1      20.570 -28.142  -1.841  1.00  0.00     0.047 A 
ATOM      3  C   UNL     1      20.888 -26.888  -1.296  1.00  0.00     0.119 A 
ATOM      4  C   UNL     1      20.875 -26.706   0.093  1.00  0.00     0.094 A 
ATOM      5  C   UNL     1      20.546 -27.771   0.938  1.00  0.00     0.142 A 
ATOM      6  C   UNL     1      20.227 -29.032   0.387  1.00  0.00     0.018 A 
ATOM      7  C   UNL     1      19.903 -30.077   1.259  1.00  0.00     0.019 A 
ATOM      8  C   UNL     1      19.904 -29.847   2.634  1.00  0.00     0.094 A 
ATOM      9  C   UNL     1      20.231 -28.572   3.108  1.00  0.00     0.336 A 
ATOM     10  O   UNL     1      20.237 -28.344   4.346  1.00  0.00    -0.246 OA
ATOM     11  O   UNL     1      20.535 -27.594   2.257  1.00  0.00    -0.423 OA
ENDROOT
BRANCH   3  12
ATOM     12  O   UNL     1      21.217 -25.818  -2.125  1.00  0.00    -0.508 OA
ATOM     13  H   UNL     1      21.648 -25.963  -3.030  1.00  0.00     0.293 HD
ENDBRANCH   3  12
TORSDOF 1
ENDMDL
MODEL 2
REMARK VINA RESULT:    -2.193      7.898      8.901
REMARK INTER + INTRA:          -2.257
REMARK INTER:                  -2.257
REMARK INTRA:                   0.000
REMARK UNBOUND:                 0.000
REMARK SMILES O=c1ccc2ccc(O)cc2o1
REMARK SMILES IDX 6 1 7 2 8 3 10 4 11 5 5 6 4 7 3 8 2 9 1 10 12 11 9 12
REMARK H PARENT 9 13
REMARK Flexibility Score: inf
ROOT
ATOM      1  C   UNL     1      14.258 -33.667   0.907  1.00  0.00     0.016 A 
ATOM      2  C   UNL     1      13.173 -33.666   0.024  1.00  0.00     0.047 A 
ATOM      3  C   UNL     1      13.289 -34.258  -1.242  1.00  0.00     0.119 A 
ATOM      4  C   UNL     1      14.497 -34.855  -1.626  1.00  0.00     0.094 A 
ATOM      5  C   UNL     1      15.588 -34.860  -0.751  1.00  0.00     0.142 A 
ATOM      6  C   UNL     1      15.468 -34.263   0.524  1.00  0.00     0.018 A 
ATOM      7  C   UNL     1      16.577 -34.285   1.377  1.00  0.00     0.019 A 
ATOM      8  C   UNL     1      17.757 -34.890   0.949  1.00  0.00     0.094 A 
ATOM      9  C   UNL     1      17.803 -35.462  -0.327  1.00  0.00     0.336 A 
ATOM     10  O   UNL     1      18.860 -36.013  -0.731  1.00  0.00    -0.246 OA
ATOM     11  O   UNL     1      16.734 -35.427  -1.120  1.00  0.00    -0.423 OA
ENDROOT
BRANCH   3  12
ATOM     12  O   UNL     1      12.212 -34.260  -2.125  1.00  0.00    -0.508 OA
ATOM     13  H   UNL     1      12.271 -33.815  -3.033  1.00  0.00     0.293 HD
ENDBRANCH   3  12
TORSDOF 1
ENDMDL
MODEL 3
REMARK VINA RESULT:    -2.123      0.788      4.229
REMARK INTER + INTRA:          -2.185
REMARK INTER:                  -2.185
REMARK INTRA:                   0.000
REMARK UNBOUND:                 0.000
REMARK SMILES O=c1ccc2ccc(O)cc2o1
REMARK SMILES IDX 6 1 7 2 8 3 10 4 11 5 5 6 4 7 3 8 2 9 1 10 12 11 9 12
REMARK H PARENT 9 13
REMARK Flexibility Score: inf
ROOT
ATOM      1  C   UNL     1      19.843 -29.912   0.818  1.00  0.00     0.016 A 
ATOM      2  C   UNL     1      19.775 -29.757   2.206  1.00  0.00     0.047 A 
ATOM      3  C   UNL     1      20.151 -28.544   2.802  1.00  0.00     0.119 A 
ATOM      4  C   UNL     1      20.597 -27.482   2.005  1.00  0.00     0.094 A 
ATOM      5  C   UNL     1      20.669 -27.628   0.616  1.00  0.00     0.142 A 
ATOM      6  C   UNL     1      20.290 -28.851   0.018  1.00  0.00     0.018 A 
ATOM      7  C   UNL     1      20.372 -28.966  -1.374  1.00  0.00     0.019 A 
ATOM      8  C   UNL     1      20.823 -27.882  -2.125  1.00  0.00     0.094 A 
ATOM      9  C   UNL     1      21.181 -26.702  -1.464  1.00  0.00     0.336 A 
ATOM     10  O   UNL     1      21.591 -25.711  -2.125  1.00  0.00    -0.246 OA
ATOM     11  O   UNL     1      21.094 -26.618  -0.139  1.00  0.00    -0.423 OA
ENDROOT
BRANCH   3  12
ATOM     12  O   UNL     1      20.085 -28.383   4.184  1.00  0.00    -0.508 OA
ATOM     13  H   UNL     1      20.862 -28.636   4.784  1.00  0.00     0.293 HD
ENDBRANCH   3  12
TORSDOF 1
ENDMDL
MODEL 4
REMARK VINA RESULT:    -2.123      2.037      2.470
REMARK INTER + INTRA:          -2.185
REMARK INTER:                  -2.185
REMARK INTRA:                   0.000
REMARK UNBOUND:                 0.000
REMARK SMILES O=c1ccc2ccc(O)cc2o1
REMARK SMILES IDX 6 1 7 2 8 3 10 4 11 5 5 6 4 7 3 8 2 9 1 10 12 11 9 12
REMARK H PARENT 9 13
REMARK Flexibility Score: inf
ROOT
ATOM      1  C   UNL     1      21.924 -30.732  -0.704  1.00  0.00     0.016 A 
ATOM      2  C   UNL     1      21.568 -29.695  -1.573  1.00  0.00     0.047 A 
ATOM      3  C   UNL     1      20.493 -28.849  -1.263  1.00  0.00     0.119 A 
ATOM      4  C   UNL     1      19.772 -29.041  -0.077  1.00  0.00     0.094 A 
ATOM      5  C   UNL     1      20.120 -30.076   0.797  1.00  0.00     0.142 A 
ATOM      6  C   UNL     1      21.203 -30.927   0.482  1.00  0.00     0.018 A 
ATOM      7  C   UNL     1      21.527 -31.952   1.377  1.00  0.00     0.019 A 
ATOM      8  C   UNL     1      20.778 -32.104   2.543  1.00  0.00     0.094 A 
ATOM      9  C   UNL     1      19.720 -31.223   2.790  1.00  0.00     0.336 A 
ATOM     10  O   UNL     1      19.033 -31.344   3.838  1.00  0.00    -0.246 OA
ATOM     11  O   UNL     1      19.432 -30.256   1.922  1.00  0.00    -0.423 OA
ENDROOT
BRANCH   3  12
ATOM     12  O   UNL     1      20.134 -27.814  -2.123  1.00  0.00    -0.508 OA
ATOM     13  H   UNL     1      19.174 -27.678  -2.415  1.00  0.00     0.293 HD
ENDBRANCH   3  12
TORSDOF 1
ENDMDL
MODEL 5
REMARK VINA RESULT:    -2.097      7.053      8.144
REMARK INTER + INTRA:          -2.158
REMARK INTER:                  -2.158
REMARK INTRA:                   0.000
REMARK UNBOUND:                 0.000
REMARK SMILES O=c1ccc2ccc(O)cc2o1
REMARK SMILES IDX 6 1 7 2 8 3 10 4 11 5 5 6 4 7 3 8 2 9 1 10 12 11 9 12
REMARK H PARENT 9 13
REMARK Flexibility Score: inf
ROOT
ATOM      1  C   UNL     1      16.185 -35.380  -0.851  1.00  0.00     0.016 A 
ATOM      2  C   UNL     1      15.051 -35.394  -1.669  1.00  0.00     0.047 A 
ATOM      3  C   UNL     1      13.912 -34.655  -1.314  1.00  0.00     0.119 A 
ATOM      4  C   UNL     1      13.910 -33.899  -0.135  1.00  0.00     0.094 A 
ATOM      5  C   UNL     1      15.039 -33.879   0.690  1.00  0.00     0.142 A 
ATOM      6  C   UNL     1      16.184 -34.625   0.330  1.00  0.00     0.018 A 
ATOM      7  C   UNL     1      17.299 -34.585   1.175  1.00  0.00     0.019 A 
ATOM      8  C   UNL     1      17.248 -33.818   2.338  1.00  0.00     0.094 A 
ATOM      9  C   UNL     1      16.080 -33.105   2.631  1.00  0.00     0.336 A 
ATOM     10  O   UNL     1      16.015 -32.407   3.676  1.00  0.00    -0.246 OA
ATOM     11  O   UNL     1      15.033 -33.161   1.810  1.00  0.00    -0.423 OA
ENDROOT
BRANCH   3  12
ATOM     12  O   UNL     1      12.780 -34.664  -2.125  1.00  0.00    -0.508 OA
ATOM     13  H   UNL     1      12.732 -34.113  -2.973  1.00  0.00     0.293 HD
ENDBRANCH   3  12
TORSDOF 1
ENDMDL
MODEL 6
REMARK VINA RESULT:    -2.061      8.132      9.002
REMARK INTER + INTRA:          -2.121
REMARK INTER:                  -2.121
REMARK INTRA:                   0.000
REMARK UNBOUND:                 0.000
REMARK SMILES O=c1ccc2ccc(O)cc2o1
REMARK SMILES IDX 6 1 7 2 8 3 10 4 11 5 5 6 4 7 3 8 2 9 1 10 12 11 9 12
REMARK H PARENT 9 13
REMARK Flexibility Score: inf
ROOT
ATOM      1  C   UNL     1      15.127 -33.497   1.639  1.00  0.00     0.016 A 
ATOM      2  C   UNL     1      13.809 -33.106   1.378  1.00  0.00     0.047 A 
ATOM      3  C   UNL     1      13.187 -33.470   0.175  1.00  0.00     0.119 A 
ATOM      4  C   UNL     1      13.887 -34.230  -0.772  1.00  0.00     0.094 A 
ATOM      5  C   UNL     1      15.205 -34.625  -0.520  1.00  0.00     0.142 A 
ATOM      6  C   UNL     1      15.829 -34.256   0.692  1.00  0.00     0.018 A 
ATOM      7  C   UNL     1      17.148 -34.667   0.915  1.00  0.00     0.019 A 
ATOM      8  C   UNL     1      17.803 -35.421  -0.058  1.00  0.00     0.094 A 
ATOM      9  C   UNL     1      17.122 -35.749  -1.235  1.00  0.00     0.336 A 
ATOM     10  O   UNL     1      17.696 -36.429  -2.125  1.00  0.00    -0.246 OA
ATOM     11  O   UNL     1      15.868 -35.345  -1.422  1.00  0.00    -0.423 OA
ENDROOT
BRANCH   3  12
ATOM     12  O   UNL     1      11.875 -33.084  -0.090  1.00  0.00    -0.508 OA
ATOM     13  H   UNL     1      11.088 -33.563   0.331  1.00  0.00     0.293 HD
ENDBRANCH   3  12
TORSDOF 1
ENDMDL
MODEL 7
REMARK VINA RESULT:    -2.037      7.947      8.675
REMARK INTER + INTRA:          -2.096
REMARK INTER:                  -2.096
REMARK INTRA:                   0.000
REMARK UNBOUND:                 0.000
REMARK SMILES O=c1ccc2ccc(O)cc2o1
REMARK SMILES IDX 6 1 7 2 8 3 10 4 11 5 5 6 4 7 3 8 2 9 1 10 12 11 9 12
REMARK H PARENT 9 13
REMARK Flexibility Score: inf
ROOT
ATOM      1  C   UNL     1      15.523 -35.307  -1.866  1.00  0.00     0.016 A 
ATOM      2  C   UNL     1      16.809 -35.721  -1.505  1.00  0.00     0.047 A 
ATOM      3  C   UNL     1      17.337 -35.379  -0.251  1.00  0.00     0.119 A 
ATOM      4  C   UNL     1      16.573 -34.619   0.645  1.00  0.00     0.094 A 
ATOM      5  C   UNL     1      15.286 -34.200   0.292  1.00  0.00     0.142 A 
ATOM      6  C   UNL     1      14.757 -34.547  -0.971  1.00  0.00     0.018 A 
ATOM      7  C   UNL     1      13.466 -34.114  -1.295  1.00  0.00     0.019 A 
ATOM      8  C   UNL     1      12.746 -33.360  -0.370  1.00  0.00     0.094 A 
ATOM      9  C   UNL     1      13.334 -33.055   0.862  1.00  0.00     0.336 A 
ATOM     10  O   UNL     1      12.699 -32.375   1.710  1.00  0.00    -0.246 OA
ATOM     11  O   UNL     1      14.563 -33.478   1.145  1.00  0.00    -0.423 OA
ENDROOT
BRANCH   3  12
ATOM     12  O   UNL     1      18.617 -35.787   0.115  1.00  0.00    -0.508 OA
ATOM     13  H   UNL     1      19.270 -35.150   0.555  1.00  0.00     0.293 HD
ENDBRANCH   3  12
TORSDOF 1
ENDMDL
MODEL 8
REMARK VINA RESULT:    -2.026      8.033      8.836
REMARK INTER + INTRA:          -2.085
REMARK INTER:                  -2.085
REMARK INTRA:                   0.000
REMARK UNBOUND:                 0.000
REMARK SMILES O=c1ccc2ccc(O)cc2o1
REMARK SMILES IDX 6 1 7 2 8 3 10 4 11 5 5 6 4 7 3 8 2 9 1 10 12 11 9 12
REMARK H PARENT 9 13
REMARK Flexibility Score: inf
ROOT
ATOM      1  C   UNL     1      13.611 -34.039  -1.036  1.00  0.00     0.016 A 
ATOM      2  C   UNL     1      13.067 -33.341   0.048  1.00  0.00     0.047 A 
ATOM      3  C   UNL     1      13.813 -33.163   1.222  1.00  0.00     0.119 A 
ATOM      4  C   UNL     1      15.109 -33.687   1.313  1.00  0.00     0.094 A 
ATOM      5  C   UNL     1      15.662 -34.386   0.235  1.00  0.00     0.142 A 
ATOM      6  C   UNL     1      14.908 -34.563  -0.947  1.00  0.00     0.018 A 
ATOM      7  C   UNL     1      15.488 -35.267  -2.008  1.00  0.00     0.019 A 
ATOM      8  C   UNL     1      16.781 -35.769  -1.870  1.00  0.00     0.094 A 
ATOM      9  C   UNL     1      17.468 -35.555  -0.670  1.00  0.00     0.336 A 
ATOM     10  O   UNL     1      18.637 -36.001  -0.526  1.00  0.00    -0.246 OA
ATOM     11  O   UNL     1      16.893 -34.883   0.324  1.00  0.00    -0.423 OA
ENDROOT
BRANCH   3  12
ATOM     12  O   UNL     1      13.277 -32.469   2.304  1.00  0.00    -0.508 OA
ATOM     13  H   UNL     1      13.351 -32.825   3.250  1.00  0.00     0.293 HD
ENDBRANCH   3  12
TORSDOF 1
ENDMDL
