MODEL 1
REMARK VINA RESULT:    -3.550      0.000      0.000
REMARK INTER + INTRA:          -8.126
REMARK INTER:                  -6.456
REMARK INTRA:                  -1.670
REMARK UNBOUND:                -1.670
REMARK SMILES CCCCCCCCCCCCCCCC(=O)[O-]
REMARK SMILES IDX 9 1 10 2 11 3 12 4 13 5 14 6 15 7 16 8 17 9 18 10 8 11 7 12
REMARK SMILES IDX 6 13 5 14 4 15 3 16 2 17 1 18
REMARK H PARENT
REMARK Flexibility Score: inf
ROOT
ATOM      1  C   UNL     1      32.380  -0.143 -35.046  1.00  0.00     0.000 C 
ENDROOT
BRANCH   1   2
ATOM      2  C   UNL     1      31.820   1.180 -35.611  1.00  0.00     0.000 C 
BRANCH   2   3
ATOM      3  C   UNL     1      31.609   2.271 -34.545  1.00  0.00     0.000 C 
BRANCH   3   4
ATOM      4  C   UNL     1      32.636   2.267 -33.399  1.00  0.00     0.000 C 
BRANCH   4   5
ATOM      5  C   UNL     1      33.887   3.139 -33.636  1.00  0.00     0.000 C 
BRANCH   5   6
ATOM      6  C   UNL     1      33.810   4.562 -33.058  1.00  0.00     0.006 C 
BRANCH   6   7
ATOM      7  C   UNL     1      35.142   5.317 -33.150  1.00  0.00     0.053 C 
BRANCH   7   8
ATOM      8  C   UNL     1      35.601   5.734 -31.789  1.00  0.00     0.041 C 
ATOM      9  O   UNL     1      36.125   6.867 -31.616  1.00  0.00    -0.550 OA
ATOM     10  O   UNL     1      35.406   4.893 -30.702  1.00  0.00    -0.550 OA
ENDBRANCH   7   8
ENDBRANCH   6   7
ENDBRANCH   5   6
ENDBRANCH   4   5
ENDBRANCH   3   4
ENDBRANCH   2   3
ENDBRANCH   1   2
BRANCH   1  11
ATOM     11  C   UNL     1      33.494  -0.734 -35.920  1.00  0.00     0.000 C 
BRANCH  11  12
ATOM     12  C   UNL     1      33.711   0.114 -37.183  1.00  0.00    -0.000 C 
BRANCH  12  13
ATOM     13  C   UNL     1      33.504  -0.682 -38.485  1.00  0.00    -0.000 C 
BRANCH  13  14
ATOM     14  C   UNL     1      32.608  -1.926 -38.350  1.00  0.00    -0.000 C 
BRANCH  14  15
ATOM     15  C   UNL     1      31.226  -1.744 -38.995  1.00  0.00    -0.000 C 
BRANCH  15  16
ATOM     16  C   UNL     1      30.254  -1.057 -38.025  1.00  0.00    -0.000 C 
BRANCH  16  17
ATOM     17  C   UNL     1      29.554   0.159 -38.652  1.00  0.00    -0.003 C 
ATOM     18  C   UNL     1      30.539   1.218 -39.146  1.00  0.00     0.004 C 
ENDBRANCH  16  17
ENDBRANCH  15  16
ENDBRANCH  14  15
ENDBRANCH  13  14
ENDBRANCH  12  13
ENDBRANCH  11  12
ENDBRANCH   1  11
TORSDOF 14
ENDMDL
MODEL 2
REMARK VINA RESULT:    -3.511     11.385     13.302
REMARK INTER + INTRA:          -8.055
REMARK INTER:                  -5.468
REMARK INTRA:                  -2.586
REMARK UNBOUND:                -1.670
REMARK SMILES CCCCCCCCCCCCCCCC(=O)[O-]
REMARK SMILES IDX 9 1 10 2 11 3 12 4 13 5 14 6 15 7 16 8 17 9 18 10 8 11 7 12
REMARK SMILES IDX 6 13 5 14 4 15 3 16 2 17 1 18
REMARK H PARENT
REMARK Flexibility Score: inf
ROOT
ATOM      1  C   UNL     1      27.610  -4.029 -28.616  1.00  0.00     0.000 C 
ENDROOT
BRANCH   1   2
ATOM      2  C   UNL     1      26.348  -3.714 -27.784  1.00  0.00     0.000 C 
BRANCH   2   3
ATOM      3  C   UNL     1      25.166  -3.190 -28.621  1.00  0.00     0.000 C 
BRANCH   3   4
ATOM      4  C   UNL     1      24.036  -4.207 -28.859  1.00  0.00     0.000 C 
BRANCH   4   5
ATOM      5  C   UNL     1      23.809  -4.603 -30.333  1.00  0.00     0.000 C 
BRANCH   5   6
ATOM      6  C   UNL     1      24.751  -3.925 -31.343  1.00  0.00     0.006 C 
BRANCH   6   7
ATOM      7  C   UNL     1      25.504  -4.929 -32.225  1.00  0.00     0.053 C 
BRANCH   7   8
ATOM      8  C   UNL     1      25.128  -4.747 -33.661  1.00  0.00     0.041 C 
ATOM      9  O   UNL     1      24.085  -4.111 -33.967  1.00  0.00    -0.550 OA
ATOM     10  O   UNL     1      25.956  -5.234 -34.663  1.00  0.00    -0.550 OA
ENDBRANCH   7   8
ENDBRANCH   6   7
ENDBRANCH   5   6
ENDBRANCH   4   5
ENDBRANCH   3   4
ENDBRANCH   2   3
ENDBRANCH   1   2
BRANCH   1  11
ATOM     11  C   UNL     1      28.029  -5.503 -28.517  1.00  0.00     0.000 C 
BRANCH  11  12
ATOM     12  C   UNL     1      27.331  -6.347 -29.594  1.00  0.00    -0.000 C 
BRANCH  12  13
ATOM     13  C   UNL     1      26.718  -7.645 -29.036  1.00  0.00    -0.000 C 
BRANCH  13  14
ATOM     14  C   UNL     1      25.180  -7.707 -29.079  1.00  0.00    -0.000 C 
BRANCH  14  15
ATOM     15  C   UNL     1      24.551  -7.967 -27.702  1.00  0.00    -0.000 C 
BRANCH  15  16
ATOM     16  C   UNL     1      25.623  -7.982 -26.603  1.00  0.00    -0.000 C 
BRANCH  16  17
ATOM     17  C   UNL     1      25.592  -6.718 -25.730  1.00  0.00    -0.003 C 
ATOM     18  C   UNL     1      24.233  -6.018 -25.753  1.00  0.00     0.004 C 
ENDBRANCH  16  17
ENDBRANCH  15  16
ENDBRANCH  14  15
ENDBRANCH  13  14
ENDBRANCH  12  13
ENDBRANCH  11  12
ENDBRANCH   1  11
TORSDOF 14
ENDMDL
MODEL 3
REMARK VINA RESULT:    -3.505      2.064      3.261
REMARK INTER + INTRA:          -8.044
REMARK INTER:                  -6.967
REMARK INTRA:                  -1.078
REMARK UNBOUND:                -1.670
REMARK SMILES CCCCCCCCCCCCCCCC(=O)[O-]
REMARK SMILES IDX 9 1 10 2 11 3 12 4 13 5 14 6 15 7 16 8 17 9 18 10 8 11 7 12
REMARK SMILES IDX 6 13 5 14 4 15 3 16 2 17 1 18
REMARK H PARENT
REMARK Flexibility Score: inf
ROOT
ATOM      1  C   UNL     1      32.423   2.466 -34.062  1.00  0.00     0.000 C 
ENDROOT
BRANCH   1   2
ATOM      2  C   UNL     1      32.783   3.800 -33.373  1.00  0.00     0.000 C 
BRANCH   2   3
ATOM      3  C   UNL     1      34.273   3.925 -33.002  1.00  0.00     0.000 C 
BRANCH   3   4
ATOM      4  C   UNL     1      34.898   5.304 -33.280  1.00  0.00     0.000 C 
BRANCH   4   5
ATOM      5  C   UNL     1      35.526   5.998 -32.053  1.00  0.00     0.000 C 
BRANCH   5   6
ATOM      6  C   UNL     1      34.917   7.364 -31.693  1.00  0.00     0.006 C 
BRANCH   6   7
ATOM      7  C   UNL     1      33.596   7.245 -30.923  1.00  0.00     0.053 C 
BRANCH   7   8
ATOM      8  C   UNL     1      33.213   8.566 -30.336  1.00  0.00     0.041 C 
ATOM      9  O   UNL     1      32.936   8.659 -29.111  1.00  0.00    -0.550 OA
ATOM     10  O   UNL     1      33.211   9.705 -31.130  1.00  0.00    -0.550 OA
ENDBRANCH   7   8
ENDBRANCH   6   7
ENDBRANCH   5   6
ENDBRANCH   4   5
ENDBRANCH   3   4
ENDBRANCH   2   3
ENDBRANCH   1   2
BRANCH   1  11
ATOM     11  C   UNL     1      33.578   1.455 -34.031  1.00  0.00     0.000 C 
BRANCH  11  12
ATOM     12  C   UNL     1      33.158   0.119 -34.662  1.00  0.00    -0.000 C 
BRANCH  12  13
ATOM     13  C   UNL     1      33.934  -0.206 -35.952  1.00  0.00    -0.000 C 
BRANCH  13  14
ATOM     14  C   UNL     1      33.498  -1.500 -36.662  1.00  0.00    -0.000 C 
BRANCH  14  15
ATOM     15  C   UNL     1      32.670  -1.240 -37.929  1.00  0.00    -0.000 C 
BRANCH  15  16
ATOM     16  C   UNL     1      32.810   0.219 -38.386  1.00  0.00    -0.000 C 
BRANCH  16  17
ATOM     17  C   UNL     1      31.452   0.909 -38.585  1.00  0.00    -0.003 C 
ATOM     18  C   UNL     1      30.723   1.172 -37.267  1.00  0.00     0.004 C 
ENDBRANCH  16  17
ENDBRANCH  15  16
ENDBRANCH  14  15
ENDBRANCH  13  14
ENDBRANCH  12  13
ENDBRANCH  11  12
ENDBRANCH   1  11
TORSDOF 14
ENDMDL
MODEL 4
REMARK VINA RESULT:    -3.439      5.447      8.698
REMARK INTER + INTRA:          -7.924
REMARK INTER:                  -6.329
REMARK INTRA:                  -1.595
REMARK UNBOUND:                -1.670
REMARK SMILES CCCCCCCCCCCCCCCC(=O)[O-]
REMARK SMILES IDX 9 1 10 2 11 3 12 4 13 5 14 6 15 7 16 8 17 9 18 10 8 11 7 12
REMARK SMILES IDX 6 13 5 14 4 15 3 16 2 17 1 18
REMARK H PARENT
REMARK Flexibility Score: inf
ROOT
ATOM      1  C   UNL     1      32.260   7.323 -30.586  1.00  0.00     0.000 C 
ENDROOT
BRANCH   1   2
ATOM      2  C   UNL     1      33.296   8.414 -30.936  1.00  0.00     0.000 C 
BRANCH   2   3
ATOM      3  C   UNL     1      32.814   9.847 -30.637  1.00  0.00     0.000 C 
BRANCH   3   4
ATOM      4  C   UNL     1      31.517   9.938 -29.814  1.00  0.00     0.000 C 
BRANCH   4   5
ATOM      5  C   UNL     1      31.716  10.160 -28.300  1.00  0.00     0.000 C 
BRANCH   5   6
ATOM      6  C   UNL     1      33.181  10.209 -27.834  1.00  0.00     0.006 C 
BRANCH   6   7
ATOM      7  C   UNL     1      33.393  11.127 -26.624  1.00  0.00     0.053 C 
BRANCH   7   8
ATOM      8  C   UNL     1      33.564  10.317 -25.378  1.00  0.00     0.041 C 
ATOM      9  O   UNL     1      33.914  10.874 -24.304  1.00  0.00    -0.550 OA
ATOM     10  O   UNL     1      33.289   8.956 -25.391  1.00  0.00    -0.550 OA
ENDBRANCH   7   8
ENDBRANCH   6   7
ENDBRANCH   5   6
ENDBRANCH   4   5
ENDBRANCH   3   4
ENDBRANCH   2   3
ENDBRANCH   1   2
BRANCH   1  11
ATOM     11  C   UNL     1      32.913   5.977 -30.246  1.00  0.00     0.000 C 
BRANCH  11  12
ATOM     12  C   UNL     1      34.398   6.157 -29.898  1.00  0.00    -0.000 C 
BRANCH  12  13
ATOM     13  C   UNL     1      35.331   5.325 -30.797  1.00  0.00    -0.000 C 
BRANCH  13  14
ATOM     14  C   UNL     1      35.746   6.008 -32.112  1.00  0.00    -0.000 C 
BRANCH  14  15
ATOM     15  C   UNL     1      34.998   5.458 -33.336  1.00  0.00    -0.000 C 
BRANCH  15  16
ATOM     16  C   UNL     1      34.428   4.062 -33.049  1.00  0.00    -0.000 C 
BRANCH  16  17
ATOM     17  C   UNL     1      32.912   3.983 -33.284  1.00  0.00    -0.003 C 
ATOM     18  C   UNL     1      32.216   3.008 -32.335  1.00  0.00     0.004 C 
ENDBRANCH  16  17
ENDBRANCH  15  16
ENDBRANCH  14  15
ENDBRANCH  13  14
ENDBRANCH  12  13
ENDBRANCH  11  12
ENDBRANCH   1  11
TORSDOF 14
ENDMDL
MODEL 5
REMARK VINA RESULT:    -3.422      6.030     10.354
REMARK INTER + INTRA:          -7.893
REMARK INTER:                  -6.200
REMARK INTRA:                  -1.692
REMARK UNBOUND:                -1.670
REMARK SMILES CCCCCCCCCCCCCCCC(=O)[O-]
REMARK SMILES IDX 9 1 10 2 11 3 12 4 13 5 14 6 15 7 16 8 17 9 18 10 8 11 7 12
REMARK SMILES IDX 6 13 5 14 4 15 3 16 2 17 1 18
REMARK H PARENT
REMARK Flexibility Score: inf
ROOT
ATOM      1  C   UNL     1      31.525   8.233 -28.111  1.00  0.00     0.000 C 
ENDROOT
BRANCH   1   2
ATOM      2  C   UNL     1      31.679   9.757 -27.920  1.00  0.00     0.000 C 
BRANCH   2   3
ATOM      3  C   UNL     1      33.110  10.273 -28.162  1.00  0.00     0.000 C 
BRANCH   3   4
ATOM      4  C   UNL     1      33.711  11.090 -27.004  1.00  0.00     0.000 C 
BRANCH   4   5
ATOM      5  C   UNL     1      32.695  11.582 -25.954  1.00  0.00     0.000 C 
BRANCH   5   6
ATOM      6  C   UNL     1      32.870  10.987 -24.546  1.00  0.00     0.006 C 
BRANCH   6   7
ATOM      7  C   UNL     1      33.894   9.846 -24.503  1.00  0.00     0.053 C 
BRANCH   7   8
ATOM      8  C   UNL     1      33.200   8.524 -24.437  1.00  0.00     0.041 C 
ATOM      9  O   UNL     1      31.942   8.467 -24.453  1.00  0.00    -0.550 OA
ATOM     10  O   UNL     1      33.941   7.350 -24.408  1.00  0.00    -0.550 OA
ENDBRANCH   7   8
ENDBRANCH   6   7
ENDBRANCH   5   6
ENDBRANCH   4   5
ENDBRANCH   3   4
ENDBRANCH   2   3
ENDBRANCH   1   2
BRANCH   1  11
ATOM     11  C   UNL     1      32.843   7.475 -27.894  1.00  0.00     0.000 C 
BRANCH  11  12
ATOM     12  C   UNL     1      33.215   6.651 -29.135  1.00  0.00    -0.000 C 
BRANCH  12  13
ATOM     13  C   UNL     1      32.792   7.325 -30.454  1.00  0.00    -0.000 C 
BRANCH  13  14
ATOM     14  C   UNL     1      33.913   7.464 -31.500  1.00  0.00    -0.000 C 
BRANCH  14  15
ATOM     15  C   UNL     1      35.268   6.940 -31.002  1.00  0.00    -0.000 C 
BRANCH  15  16
ATOM     16  C   UNL     1      35.630   5.616 -31.690  1.00  0.00    -0.000 C 
BRANCH  16  17
ATOM     17  C   UNL     1      35.006   5.487 -33.089  1.00  0.00    -0.003 C 
ATOM     18  C   UNL     1      34.250   4.172 -33.279  1.00  0.00     0.004 C 
ENDBRANCH  16  17
ENDBRANCH  15  16
ENDBRANCH  14  15
ENDBRANCH  13  14
ENDBRANCH  12  13
ENDBRANCH  11  12
ENDBRANCH   1  11
TORSDOF 14
ENDMDL
MODEL 6
REMARK VINA RESULT:    -3.417      5.625      8.103
REMARK INTER + INTRA:          -7.884
REMARK INTER:                  -5.293
REMARK INTRA:                  -2.590
REMARK UNBOUND:                -1.670
REMARK SMILES CCCCCCCCCCCCCCCC(=O)[O-]
REMARK SMILES IDX 9 1 10 2 11 3 12 4 13 5 14 6 15 7 16 8 17 9 18 10 8 11 7 12
REMARK SMILES IDX 6 13 5 14 4 15 3 16 2 17 1 18
REMARK H PARENT
REMARK Flexibility Score: inf
ROOT
ATOM      1  C   UNL     1      35.991   5.781 -32.203  1.00  0.00     0.000 C 
ENDROOT
BRANCH   1   2
ATOM      2  C   UNL     1      35.445   6.866 -31.250  1.00  0.00     0.000 C 
BRANCH   2   3
ATOM      3  C   UNL     1      34.154   7.541 -31.752  1.00  0.00     0.000 C 
BRANCH   3   4
ATOM      4  C   UNL     1      33.515   8.534 -30.765  1.00  0.00     0.000 C 
BRANCH   4   5
ATOM      5  C   UNL     1      32.010   8.318 -30.501  1.00  0.00     0.000 C 
BRANCH   5   6
ATOM      6  C   UNL     1      31.652   7.907 -29.062  1.00  0.00     0.006 C 
BRANCH   6   7
ATOM      7  C   UNL     1      32.823   8.071 -28.085  1.00  0.00     0.053 C 
BRANCH   7   8
ATOM      8  C   UNL     1      32.687   9.347 -27.317  1.00  0.00     0.041 C 
ATOM      9  O   UNL     1      33.118  10.427 -27.800  1.00  0.00    -0.550 OA
ATOM     10  O   UNL     1      32.038   9.353 -26.089  1.00  0.00    -0.550 OA
ENDBRANCH   7   8
ENDBRANCH   6   7
ENDBRANCH   5   6
ENDBRANCH   4   5
ENDBRANCH   3   4
ENDBRANCH   2   3
ENDBRANCH   1   2
BRANCH   1  11
ATOM     11  C   UNL     1      35.029   5.471 -33.358  1.00  0.00     0.000 C 
BRANCH  11  12
ATOM     12  C   UNL     1      34.304   4.137 -33.128  1.00  0.00    -0.000 C 
BRANCH  12  13
ATOM     13  C   UNL     1      32.780   4.298 -32.977  1.00  0.00    -0.000 C 
BRANCH  13  14
ATOM     14  C   UNL     1      32.279   4.409 -31.526  1.00  0.00    -0.000 C 
BRANCH  14  15
ATOM     15  C   UNL     1      33.253   3.800 -30.506  1.00  0.00    -0.000 C 
BRANCH  15  16
ATOM     16  C   UNL     1      33.133   4.503 -29.146  1.00  0.00    -0.000 C 
BRANCH  16  17
ATOM     17  C   UNL     1      34.496   4.718 -28.470  1.00  0.00    -0.003 C 
ATOM     18  C   UNL     1      35.586   3.805 -29.031  1.00  0.00     0.004 C 
ENDBRANCH  16  17
ENDBRANCH  15  16
ENDBRANCH  14  15
ENDBRANCH  13  14
ENDBRANCH  12  13
ENDBRANCH  11  12
ENDBRANCH   1  11
TORSDOF 14
ENDMDL
MODEL 7
REMARK VINA RESULT:    -3.388      1.490      2.689
REMARK INTER + INTRA:          -7.831
REMARK INTER:                  -6.006
REMARK INTRA:                  -1.826
REMARK UNBOUND:                -1.670
REMARK SMILES CCCCCCCCCCCCCCCC(=O)[O-]
REMARK SMILES IDX 9 1 10 2 11 3 12 4 13 5 14 6 15 7 16 8 17 9 18 10 8 11 7 12
REMARK SMILES IDX 6 13 5 14 4 15 3 16 2 17 1 18
REMARK H PARENT
REMARK Flexibility Score: inf
ROOT
ATOM      1  C   UNL     1      33.866  -0.088 -36.975  1.00  0.00     0.000 C 
ENDROOT
BRANCH   1   2
ATOM      2  C   UNL     1      33.486  -0.946 -35.748  1.00  0.00     0.000 C 
BRANCH   2   3
ATOM      3  C   UNL     1      33.159  -0.119 -34.490  1.00  0.00     0.000 C 
BRANCH   3   4
ATOM      4  C   UNL     1      33.757   1.299 -34.470  1.00  0.00     0.000 C 
BRANCH   4   5
ATOM      5  C   UNL     1      33.385   2.151 -33.239  1.00  0.00     0.000 C 
BRANCH   5   6
ATOM      6  C   UNL     1      33.624   3.662 -33.394  1.00  0.00     0.006 C 
BRANCH   6   7
ATOM      7  C   UNL     1      34.306   4.288 -32.171  1.00  0.00     0.053 C 
BRANCH   7   8
ATOM      8  C   UNL     1      35.273   5.346 -32.597  1.00  0.00     0.041 C 
ATOM      9  O   UNL     1      35.537   5.509 -33.818  1.00  0.00    -0.550 OA
ATOM     10  O   UNL     1      35.846   6.186 -31.652  1.00  0.00    -0.550 OA
ENDBRANCH   7   8
ENDBRANCH   6   7
ENDBRANCH   5   6
ENDBRANCH   4   5
ENDBRANCH   3   4
ENDBRANCH   2   3
ENDBRANCH   1   2
BRANCH   1  11
ATOM     11  C   UNL     1      33.033  -0.433 -38.216  1.00  0.00     0.000 C 
BRANCH  11  12
ATOM     12  C   UNL     1      32.045   0.696 -38.547  1.00  0.00    -0.000 C 
BRANCH  12  13
ATOM     13  C   UNL     1      30.575   0.238 -38.512  1.00  0.00    -0.000 C 
BRANCH  13  14
ATOM     14  C   UNL     1      30.140  -0.452 -37.207  1.00  0.00    -0.000 C 
BRANCH  14  15
ATOM     15  C   UNL     1      29.120   0.369 -36.404  1.00  0.00    -0.000 C 
BRANCH  15  16
ATOM     16  C   UNL     1      29.783   1.029 -35.187  1.00  0.00    -0.000 C 
BRANCH  16  17
ATOM     17  C   UNL     1      30.435   2.378 -35.528  1.00  0.00    -0.003 C 
ATOM     18  C   UNL     1      29.417   3.436 -35.953  1.00  0.00     0.004 C 
ENDBRANCH  16  17
ENDBRANCH  15  16
ENDBRANCH  14  15
ENDBRANCH  13  14
ENDBRANCH  12  13
ENDBRANCH  11  12
ENDBRANCH   1  11
TORSDOF 14
ENDMDL
MODEL 8
REMARK VINA RESULT:    -3.340      1.306      2.893
REMARK INTER + INTRA:          -7.744
REMARK INTER:                  -5.758
REMARK INTRA:                  -1.986
REMARK UNBOUND:                -1.670
REMARK SMILES CCCCCCCCCCCCCCCC(=O)[O-]
REMARK SMILES IDX 9 1 10 2 11 3 12 4 13 5 14 6 15 7 16 8 17 9 18 10 8 11 7 12
REMARK SMILES IDX 6 13 5 14 4 15 3 16 2 17 1 18
REMARK H PARENT
REMARK Flexibility Score: inf
ROOT
ATOM      1  C   UNL     1      29.814   1.266 -36.317  1.00  0.00     0.000 C 
ENDROOT
BRANCH   1   2
ATOM      2  C   UNL     1      30.898   1.913 -35.428  1.00  0.00     0.000 C 
BRANCH   2   3
ATOM      3  C   UNL     1      31.395   1.001 -34.291  1.00  0.00     0.000 C 
BRANCH   3   4
ATOM      4  C   UNL     1      32.525   1.593 -33.429  1.00  0.00     0.000 C 
BRANCH   4   5
ATOM      5  C   UNL     1      32.667   3.128 -33.500  1.00  0.00     0.000 C 
BRANCH   5   6
ATOM      6  C   UNL     1      34.113   3.651 -33.481  1.00  0.00     0.006 C 
BRANCH   6   7
ATOM      7  C   UNL     1      34.365   4.671 -32.363  1.00  0.00     0.053 C 
BRANCH   7   8
ATOM      8  C   UNL     1      35.513   5.562 -32.719  1.00  0.00     0.041 C 
ATOM      9  O   UNL     1      35.904   5.646 -33.913  1.00  0.00    -0.550 OA
ATOM     10  O   UNL     1      36.118   6.339 -31.741  1.00  0.00    -0.550 OA
ENDBRANCH   7   8
ENDBRANCH   6   7
ENDBRANCH   5   6
ENDBRANCH   4   5
ENDBRANCH   3   4
ENDBRANCH   2   3
ENDBRANCH   1   2
BRANCH   1  11
ATOM     11  C   UNL     1      29.906  -0.266 -36.337  1.00  0.00     0.000 C 
BRANCH  11  12
ATOM     12  C   UNL     1      29.980  -0.794 -37.778  1.00  0.00    -0.000 C 
BRANCH  12  13
ATOM     13  C   UNL     1      31.048  -0.078 -38.626  1.00  0.00    -0.000 C 
BRANCH  13  14
ATOM     14  C   UNL     1      32.446  -0.721 -38.589  1.00  0.00    -0.000 C 
BRANCH  14  15
ATOM     15  C   UNL     1      33.492   0.155 -37.884  1.00  0.00    -0.000 C 
BRANCH  15  16
ATOM     16  C   UNL     1      33.869  -0.434 -36.517  1.00  0.00    -0.000 C 
BRANCH  16  17
ATOM     17  C   UNL     1      33.528  -1.929 -36.403  1.00  0.00    -0.003 C 
ATOM     18  C   UNL     1      32.831  -2.278 -35.088  1.00  0.00     0.004 C 
ENDBRANCH  16  17
ENDBRANCH  15  16
ENDBRANCH  14  15
ENDBRANCH  13  14
ENDBRANCH  12  13
ENDBRANCH  11  12
ENDBRANCH   1  11
TORSDOF 14
ENDMDL
