MODEL 1
REMARK VINA RESULT:    -3.908      0.000      0.000
REMARK INTER + INTRA:          -7.073
REMARK INTER:                  -6.193
REMARK INTRA:                  -0.880
REMARK UNBOUND:                -0.880
REMARK SMILES CCCCCCCCCCCC(=O)[O-]
REMARK SMILES IDX 7 1 8 2 9 3 10 4 11 5 12 6 13 7 14 8 6 9 5 10 4 11 3 12 2 13
REMARK SMILES IDX 1 14
REMARK H PARENT
REMARK Flexibility Score: inf
ROOT
ATOM      1  C   UNL     1       2.548  16.268  28.841  1.00  0.00     0.000 C 
ENDROOT
BRANCH   1   2
ATOM      2  C   UNL     1       2.430  15.005  29.709  1.00  0.00     0.000 C 
BRANCH   2   3
ATOM      3  C   UNL     1       1.014  14.810  30.280  1.00  0.00     0.000 C 
BRANCH   3   4
ATOM      4  C   UNL     1       0.254  13.665  29.593  1.00  0.00     0.006 C 
BRANCH   4   5
ATOM      5  C   UNL     1      -1.249  13.680  29.906  1.00  0.00     0.053 C 
BRANCH   5   6
ATOM      6  C   UNL     1      -1.642  12.436  30.637  1.00  0.00     0.041 C 
ATOM      7  O   UNL     1      -1.377  11.305  30.151  1.00  0.00    -0.550 OA
ATOM      8  O   UNL     1      -2.345  12.523  31.832  1.00  0.00    -0.550 OA
ENDBRANCH   5   6
ENDBRANCH   4   5
ENDBRANCH   3   4
ENDBRANCH   2   3
ENDBRANCH   1   2
BRANCH   1   9
ATOM      9  C   UNL     1       1.875  16.112  27.469  1.00  0.00     0.000 C 
BRANCH   9  10
ATOM     10  C   UNL     1       0.826  17.209  27.244  1.00  0.00    -0.000 C 
BRANCH  10  11
ATOM     11  C   UNL     1       0.545  17.976  28.545  1.00  0.00    -0.000 C 
BRANCH  11  12
ATOM     12  C   UNL     1      -0.916  17.847  29.005  1.00  0.00    -0.000 C 
BRANCH  12  13
ATOM     13  C   UNL     1      -1.509  19.184  29.474  1.00  0.00    -0.003 C 
ATOM     14  C   UNL     1      -3.017  19.225  29.249  1.00  0.00     0.004 C 
ENDBRANCH  12  13
ENDBRANCH  11  12
ENDBRANCH  10  11
ENDBRANCH   9  10
ENDBRANCH   1   9
TORSDOF 10
ENDMDL
MODEL 2
REMARK VINA RESULT:    -3.866      1.892      2.573
REMARK INTER + INTRA:          -7.006
REMARK INTER:                  -6.117
REMARK INTRA:                  -0.890
REMARK UNBOUND:                -0.880
REMARK SMILES CCCCCCCCCCCC(=O)[O-]
REMARK SMILES IDX 7 1 8 2 9 3 10 4 11 5 12 6 13 7 14 8 6 9 5 10 4 11 3 12 2 13
REMARK SMILES IDX 1 14
REMARK H PARENT
REMARK Flexibility Score: inf
ROOT
ATOM      1  C   UNL     1       1.182  16.367  28.758  1.00  0.00     0.000 C 
ENDROOT
BRANCH   1   2
ATOM      2  C   UNL     1       1.526  16.213  30.248  1.00  0.00     0.000 C 
BRANCH   2   3
ATOM      3  C   UNL     1       0.773  15.045  30.910  1.00  0.00     0.000 C 
BRANCH   3   4
ATOM      4  C   UNL     1      -0.132  14.292  29.923  1.00  0.00     0.006 C 
BRANCH   4   5
ATOM      5  C   UNL     1       0.035  12.768  30.010  1.00  0.00     0.053 C 
BRANCH   5   6
ATOM      6  C   UNL     1       0.949  12.282  28.930  1.00  0.00     0.041 C 
ATOM      7  O   UNL     1       0.553  11.414  28.109  1.00  0.00    -0.550 OA
ATOM      8  O   UNL     1       2.255  12.751  28.860  1.00  0.00    -0.550 OA
ENDBRANCH   5   6
ENDBRANCH   4   5
ENDBRANCH   3   4
ENDBRANCH   2   3
ENDBRANCH   1   2
BRANCH   1   9
ATOM      9  C   UNL     1       0.561  17.734  28.430  1.00  0.00     0.000 C 
BRANCH   9  10
ATOM     10  C   UNL     1      -0.937  17.749  28.759  1.00  0.00    -0.000 C 
BRANCH  10  11
ATOM     11  C   UNL     1      -1.331  19.053  29.471  1.00  0.00    -0.000 C 
BRANCH  11  12
ATOM     12  C   UNL     1      -0.142  19.722  30.179  1.00  0.00    -0.000 C 
BRANCH  12  13
ATOM     13  C   UNL     1      -0.297  21.247  30.281  1.00  0.00    -0.003 C 
ATOM     14  C   UNL     1      -1.769  21.646  30.339  1.00  0.00     0.004 C 
ENDBRANCH  12  13
ENDBRANCH  11  12
ENDBRANCH  10  11
ENDBRANCH   9  10
ENDBRANCH   1   9
TORSDOF 10
ENDMDL
MODEL 3
REMARK VINA RESULT:    -3.841      2.109      3.171
REMARK INTER + INTRA:          -6.967
REMARK INTER:                  -5.792
REMARK INTRA:                  -1.175
REMARK UNBOUND:                -0.880
REMARK SMILES CCCCCCCCCCCC(=O)[O-]
REMARK SMILES IDX 7 1 8 2 9 3 10 4 11 5 12 6 13 7 14 8 6 9 5 10 4 11 3 12 2 13
REMARK SMILES IDX 1 14
REMARK H PARENT
REMARK Flexibility Score: inf
ROOT
ATOM      1  C   UNL     1       2.438  18.796  28.525  1.00  0.00     0.000 C 
ENDROOT
BRANCH   1   2
ATOM      2  C   UNL     1       2.037  17.349  28.191  1.00  0.00     0.000 C 
BRANCH   2   3
ATOM      3  C   UNL     1       0.581  17.237  27.704  1.00  0.00     0.000 C 
BRANCH   3   4
ATOM      4  C   UNL     1      -0.366  16.713  28.795  1.00  0.00     0.006 C 
BRANCH   4   5
ATOM      5  C   UNL     1       0.358  15.874  29.856  1.00  0.00     0.053 C 
BRANCH   5   6
ATOM      6  C   UNL     1       0.163  14.415  29.589  1.00  0.00     0.041 C 
ATOM      7  O   UNL     1      -0.964  13.883  29.773  1.00  0.00    -0.550 OA
ATOM      8  O   UNL     1       1.236  13.632  29.185  1.00  0.00    -0.550 OA
ENDBRANCH   5   6
ENDBRANCH   4   5
ENDBRANCH   3   4
ENDBRANCH   2   3
ENDBRANCH   1   2
BRANCH   1   9
ATOM      9  C   UNL     1       2.566  19.044  30.035  1.00  0.00     0.000 C 
BRANCH   9  10
ATOM     10  C   UNL     1       1.221  19.470  30.637  1.00  0.00    -0.000 C 
BRANCH  10  11
ATOM     11  C   UNL     1       0.879  20.917  30.251  1.00  0.00    -0.000 C 
BRANCH  11  12
ATOM     12  C   UNL     1      -0.629  21.205  30.311  1.00  0.00    -0.000 C 
BRANCH  12  13
ATOM     13  C   UNL     1      -1.477  20.016  29.835  1.00  0.00    -0.003 C 
ATOM     14  C   UNL     1      -2.959  20.378  29.800  1.00  0.00     0.004 C 
ENDBRANCH  12  13
ENDBRANCH  11  12
ENDBRANCH  10  11
ENDBRANCH   9  10
ENDBRANCH   1   9
TORSDOF 10
ENDMDL
MODEL 4
REMARK VINA RESULT:    -3.838      4.092      5.745
REMARK INTER + INTRA:          -6.961
REMARK INTER:                  -6.511
REMARK INTRA:                  -0.449
REMARK UNBOUND:                -0.880
REMARK SMILES CCCCCCCCCCCC(=O)[O-]
REMARK SMILES IDX 7 1 8 2 9 3 10 4 11 5 12 6 13 7 14 8 6 9 5 10 4 11 3 12 2 13
REMARK SMILES IDX 1 14
REMARK H PARENT
REMARK Flexibility Score: inf
ROOT
ATOM      1  C   UNL     1      -1.048  18.723  29.383  1.00  0.00     0.000 C 
ENDROOT
BRANCH   1   2
ATOM      2  C   UNL     1      -0.663  17.375  28.751  1.00  0.00     0.000 C 
BRANCH   2   3
ATOM      3  C   UNL     1       0.296  17.535  27.558  1.00  0.00     0.000 C 
BRANCH   3   4
ATOM      4  C   UNL     1       1.755  17.227  27.928  1.00  0.00     0.006 C 
BRANCH   4   5
ATOM      5  C   UNL     1       2.296  15.979  27.217  1.00  0.00     0.053 C 
BRANCH   5   6
ATOM      6  C   UNL     1       3.762  16.122  26.956  1.00  0.00     0.041 C 
ATOM      7  O   UNL     1       4.445  16.948  27.618  1.00  0.00    -0.550 OA
ATOM      8  O   UNL     1       4.366  15.380  25.948  1.00  0.00    -0.550 OA
ENDBRANCH   5   6
ENDBRANCH   4   5
ENDBRANCH   3   4
ENDBRANCH   2   3
ENDBRANCH   1   2
BRANCH   1   9
ATOM      9  C   UNL     1      -2.541  19.047  29.229  1.00  0.00     0.000 C 
BRANCH   9  10
ATOM     10  C   UNL     1      -2.863  20.437  29.791  1.00  0.00    -0.000 C 
BRANCH  10  11
ATOM     11  C   UNL     1      -1.578  21.179  30.192  1.00  0.00    -0.000 C 
BRANCH  11  12
ATOM     12  C   UNL     1      -1.853  22.590  30.733  1.00  0.00    -0.000 C 
BRANCH  12  13
ATOM     13  C   UNL     1      -0.637  23.519  30.608  1.00  0.00    -0.003 C 
ATOM     14  C   UNL     1       0.531  22.807  29.932  1.00  0.00     0.004 C 
ENDBRANCH  12  13
ENDBRANCH  11  12
ENDBRANCH  10  11
ENDBRANCH   9  10
ENDBRANCH   1   9
TORSDOF 10
ENDMDL
MODEL 5
REMARK VINA RESULT:    -3.832      1.486      2.811
REMARK INTER + INTRA:          -6.952
REMARK INTER:                  -5.497
REMARK INTRA:                  -1.455
REMARK UNBOUND:                -0.880
REMARK SMILES CCCCCCCCCCCC(=O)[O-]
REMARK SMILES IDX 7 1 8 2 9 3 10 4 11 5 12 6 13 7 14 8 6 9 5 10 4 11 3 12 2 13
REMARK SMILES IDX 1 14
REMARK H PARENT
REMARK Flexibility Score: inf
ROOT
ATOM      1  C   UNL     1       2.485  16.362  31.429  1.00  0.00     0.000 C 
ENDROOT
BRANCH   1   2
ATOM      2  C   UNL     1       2.068  15.062  30.722  1.00  0.00     0.000 C 
BRANCH   2   3
ATOM      3  C   UNL     1       0.610  14.669  31.021  1.00  0.00     0.000 C 
BRANCH   3   4
ATOM      4  C   UNL     1      -0.230  14.503  29.745  1.00  0.00     0.006 C 
BRANCH   4   5
ATOM      5  C   UNL     1      -1.287  13.397  29.871  1.00  0.00     0.053 C 
BRANCH   5   6
ATOM      6  C   UNL     1      -0.637  12.051  29.863  1.00  0.00     0.041 C 
ATOM      7  O   UNL     1       0.071  11.695  28.883  1.00  0.00    -0.550 OA
ATOM      8  O   UNL     1      -0.851  11.167  30.913  1.00  0.00    -0.550 OA
ENDBRANCH   5   6
ENDBRANCH   4   5
ENDBRANCH   3   4
ENDBRANCH   2   3
ENDBRANCH   1   2
BRANCH   1   9
ATOM      9  C   UNL     1       1.366  17.414  31.448  1.00  0.00     0.000 C 
BRANCH   9  10
ATOM     10  C   UNL     1       1.381  18.255  30.165  1.00  0.00    -0.000 C 
BRANCH  10  11
ATOM     11  C   UNL     1       0.086  18.059  29.363  1.00  0.00    -0.000 C 
BRANCH  11  12
ATOM     12  C   UNL     1       0.347  17.618  27.915  1.00  0.00    -0.000 C 
BRANCH  12  13
ATOM     13  C   UNL     1       1.839  17.405  27.621  1.00  0.00    -0.003 C 
ATOM     14  C   UNL     1       2.115  15.965  27.198  1.00  0.00     0.004 C 
ENDBRANCH  12  13
ENDBRANCH  11  12
ENDBRANCH  10  11
ENDBRANCH   9  10
ENDBRANCH   1   9
TORSDOF 10
ENDMDL
MODEL 6
REMARK VINA RESULT:    -3.830      2.051      3.726
REMARK INTER + INTRA:          -6.948
REMARK INTER:                  -6.005
REMARK INTRA:                  -0.943
REMARK UNBOUND:                -0.880
REMARK SMILES CCCCCCCCCCCC(=O)[O-]
REMARK SMILES IDX 7 1 8 2 9 3 10 4 11 5 12 6 13 7 14 8 6 9 5 10 4 11 3 12 2 13
REMARK SMILES IDX 1 14
REMARK H PARENT
REMARK Flexibility Score: inf
ROOT
ATOM      1  C   UNL     1      -0.645  16.352  29.118  1.00  0.00     0.000 C 
ENDROOT
BRANCH   1   2
ATOM      2  C   UNL     1       0.508  15.493  29.664  1.00  0.00     0.000 C 
BRANCH   2   3
ATOM      3  C   UNL     1       0.012  14.302  30.503  1.00  0.00     0.000 C 
BRANCH   3   4
ATOM      4  C   UNL     1      -1.101  13.508  29.800  1.00  0.00     0.006 C 
BRANCH   4   5
ATOM      5  C   UNL     1      -0.840  11.996  29.799  1.00  0.00     0.053 C 
BRANCH   5   6
ATOM      6  C   UNL     1       0.510  11.700  29.225  1.00  0.00     0.041 C 
ATOM      7  O   UNL     1       0.706  11.796  27.985  1.00  0.00    -0.550 OA
ATOM      8  O   UNL     1       1.539  11.270  30.053  1.00  0.00    -0.550 OA
ENDBRANCH   5   6
ENDBRANCH   4   5
ENDBRANCH   3   4
ENDBRANCH   2   3
ENDBRANCH   1   2
BRANCH   1   9
ATOM      9  C   UNL     1      -0.159  17.657  28.471  1.00  0.00     0.000 C 
BRANCH   9  10
ATOM     10  C   UNL     1       0.925  17.380  27.422  1.00  0.00    -0.000 C 
BRANCH  10  11
ATOM     11  C   UNL     1       2.254  18.044  27.816  1.00  0.00    -0.000 C 
BRANCH  11  12
ATOM     12  C   UNL     1       3.452  17.090  27.694  1.00  0.00    -0.000 C 
BRANCH  12  13
ATOM     13  C   UNL     1       3.096  15.785  26.966  1.00  0.00    -0.003 C 
ATOM     14  C   UNL     1       3.493  14.568  27.796  1.00  0.00     0.004 C 
ENDBRANCH  12  13
ENDBRANCH  11  12
ENDBRANCH  10  11
ENDBRANCH   9  10
ENDBRANCH   1   9
TORSDOF 10
ENDMDL
MODEL 7
REMARK VINA RESULT:    -3.812      2.866      4.464
REMARK INTER + INTRA:          -6.920
REMARK INTER:                  -5.460
REMARK INTRA:                  -1.460
REMARK UNBOUND:                -0.880
REMARK SMILES CCCCCCCCCCCC(=O)[O-]
REMARK SMILES IDX 7 1 8 2 9 3 10 4 11 5 12 6 13 7 14 8 6 9 5 10 4 11 3 12 2 13
REMARK SMILES IDX 1 14
REMARK H PARENT
REMARK Flexibility Score: inf
ROOT
ATOM      1  C   UNL     1      -0.319  17.161  28.702  1.00  0.00     0.000 C 
ENDROOT
BRANCH   1   2
ATOM      2  C   UNL     1       0.390  17.299  27.344  1.00  0.00     0.000 C 
BRANCH   2   3
ATOM      3  C   UNL     1       1.779  16.637  27.334  1.00  0.00     0.000 C 
BRANCH   3   4
ATOM      4  C   UNL     1       1.997  15.703  28.533  1.00  0.00     0.006 C 
BRANCH   4   5
ATOM      5  C   UNL     1       3.382  15.041  28.526  1.00  0.00     0.053 C 
BRANCH   5   6
ATOM      6  C   UNL     1       3.249  13.552  28.562  1.00  0.00     0.041 C 
ATOM      7  O   UNL     1       4.263  12.830  28.750  1.00  0.00    -0.550 OA
ATOM      8  O   UNL     1       2.013  12.958  28.339  1.00  0.00    -0.550 OA
ENDBRANCH   5   6
ENDBRANCH   4   5
ENDBRANCH   3   4
ENDBRANCH   2   3
ENDBRANCH   1   2
BRANCH   1   9
ATOM      9  C   UNL     1      -0.994  18.465  29.155  1.00  0.00     0.000 C 
BRANCH   9  10
ATOM     10  C   UNL     1      -0.005  19.364  29.906  1.00  0.00    -0.000 C 
BRANCH  10  11
ATOM     11  C   UNL     1       1.004  18.525  30.706  1.00  0.00    -0.000 C 
BRANCH  11  12
ATOM     12  C   UNL     1       2.457  18.969  30.478  1.00  0.00    -0.000 C 
BRANCH  12  13
ATOM     13  C   UNL     1       2.588  20.009  29.355  1.00  0.00    -0.003 C 
ATOM     14  C   UNL     1       3.645  19.589  28.339  1.00  0.00     0.004 C 
ENDBRANCH  12  13
ENDBRANCH  11  12
ENDBRANCH  10  11
ENDBRANCH   9  10
ENDBRANCH   1   9
TORSDOF 10
ENDMDL
MODEL 8
REMARK VINA RESULT:    -3.771      1.741      3.421
REMARK INTER + INTRA:          -6.856
REMARK INTER:                  -5.824
REMARK INTRA:                  -1.031
REMARK UNBOUND:                -0.880
REMARK SMILES CCCCCCCCCCCC(=O)[O-]
REMARK SMILES IDX 7 1 8 2 9 3 10 4 11 5 12 6 13 7 14 8 6 9 5 10 4 11 3 12 2 13
REMARK SMILES IDX 1 14
REMARK H PARENT
REMARK Flexibility Score: inf
ROOT
ATOM      1  C   UNL     1       0.788  16.054  30.220  1.00  0.00     0.000 C 
ENDROOT
BRANCH   1   2
ATOM      2  C   UNL     1       0.594  14.585  30.630  1.00  0.00     0.000 C 
BRANCH   2   3
ATOM      3  C   UNL     1       0.806  13.612  29.456  1.00  0.00     0.000 C 
BRANCH   3   4
ATOM      4  C   UNL     1      -0.207  12.457  29.458  1.00  0.00     0.006 C 
BRANCH   4   5
ATOM      5  C   UNL     1      -1.445  12.756  30.315  1.00  0.00     0.053 C 
BRANCH   5   6
ATOM      6  C   UNL     1      -1.726  11.616  31.241  1.00  0.00     0.041 C 
ATOM      7  O   UNL     1      -0.834  10.759  31.480  1.00  0.00    -0.550 OA
ATOM      8  O   UNL     1      -2.989  11.469  31.802  1.00  0.00    -0.550 OA
ENDBRANCH   5   6
ENDBRANCH   4   5
ENDBRANCH   3   4
ENDBRANCH   2   3
ENDBRANCH   1   2
BRANCH   1   9
ATOM      9  C   UNL     1      -0.138  16.478  29.070  1.00  0.00     0.000 C 
BRANCH   9  10
ATOM     10  C   UNL     1       0.622  17.312  28.032  1.00  0.00    -0.000 C 
BRANCH  10  11
ATOM     11  C   UNL     1       2.082  17.528  28.461  1.00  0.00    -0.000 C 
BRANCH  11  12
ATOM     12  C   UNL     1       3.088  17.002  27.425  1.00  0.00    -0.000 C 
BRANCH  12  13
ATOM     13  C   UNL     1       2.849  15.528  27.065  1.00  0.00    -0.003 C 
ATOM     14  C   UNL     1       4.165  14.819  26.757  1.00  0.00     0.004 C 
ENDBRANCH  12  13
ENDBRANCH  11  12
ENDBRANCH  10  11
ENDBRANCH   9  10
ENDBRANCH   1   9
TORSDOF 10
ENDMDL
MODEL 9
REMARK VINA RESULT:    -3.769      1.650      2.483
REMARK INTER + INTRA:          -6.852
REMARK INTER:                  -5.676
REMARK INTRA:                  -1.176
REMARK UNBOUND:                -0.880
REMARK SMILES CCCCCCCCCCCC(=O)[O-]
REMARK SMILES IDX 7 1 8 2 9 3 10 4 11 5 12 6 13 7 14 8 6 9 5 10 4 11 3 12 2 13
REMARK SMILES IDX 1 14
REMARK H PARENT
REMARK Flexibility Score: inf
ROOT
ATOM      1  C   UNL     1       1.680  17.173  27.979  1.00  0.00     0.000 C 
ENDROOT
BRANCH   1   2
ATOM      2  C   UNL     1       1.860  15.665  28.213  1.00  0.00     0.000 C 
BRANCH   2   3
ATOM      3  C   UNL     1       2.273  15.336  29.659  1.00  0.00     0.000 C 
BRANCH   3   4
ATOM      4  C   UNL     1       1.065  15.109  30.581  1.00  0.00     0.006 C 
BRANCH   4   5
ATOM      5  C   UNL     1      -0.111  14.433  29.861  1.00  0.00     0.053 C 
BRANCH   5   6
ATOM      6  C   UNL     1      -0.629  13.288  30.671  1.00  0.00     0.041 C 
ATOM      7  O   UNL     1      -0.209  13.100  31.843  1.00  0.00    -0.550 OA
ATOM      8  O   UNL     1      -1.540  12.398  30.115  1.00  0.00    -0.550 OA
ENDBRANCH   5   6
ENDBRANCH   4   5
ENDBRANCH   3   4
ENDBRANCH   2   3
ENDBRANCH   1   2
BRANCH   1   9
ATOM      9  C   UNL     1       0.245  17.546  27.576  1.00  0.00     0.000 C 
BRANCH   9  10
ATOM     10  C   UNL     1      -0.570  17.993  28.796  1.00  0.00    -0.000 C 
BRANCH  10  11
ATOM     11  C   UNL     1       0.332  18.662  29.844  1.00  0.00    -0.000 C 
BRANCH  11  12
ATOM     12  C   UNL     1      -0.109  20.097  30.175  1.00  0.00    -0.000 C 
BRANCH  12  13
ATOM     13  C   UNL     1       1.065  21.087  30.194  1.00  0.00    -0.003 C 
ATOM     14  C   UNL     1       2.365  20.405  29.779  1.00  0.00     0.004 C 
ENDBRANCH  12  13
ENDBRANCH  11  12
ENDBRANCH  10  11
ENDBRANCH   9  10
ENDBRANCH   1   9
TORSDOF 10
ENDMDL
