MODEL 1
REMARK VINA RESULT:    -3.208      0.000      0.000
REMARK INTER + INTRA:          -3.302
REMARK INTER:                  -3.302
REMARK INTRA:                   0.000
REMARK UNBOUND:                 0.000
REMARK SMILES CC1(C)[C@H]2CC[C@](C)(C2)[C@H]1O
REMARK SMILES IDX 1 1 2 2 4 3 5 4 6 5 7 6 9 7 10 8 8 9 3 10 11 11
REMARK H PARENT 11 12
REMARK Flexibility Score: inf
ROOT
ATOM      1  C   UNL     1     107.775 110.509 106.428  1.00  0.00     0.014 C 
ATOM      2  C   UNL     1     108.260 109.670 105.222  1.00  0.00    -0.006 C 
ATOM      3  C   UNL     1     108.020 108.144 105.495  1.00  0.00    -0.002 C 
ATOM      4  C   UNL     1     108.241 107.307 104.217  1.00  0.00     0.005 C 
ATOM      5  C   UNL     1     109.754 107.437 103.982  1.00  0.00     0.010 C 
ATOM      6  C   UNL     1     110.225 108.235 105.222  1.00  0.00    -0.006 C 
ATOM      7  C   UNL     1     109.259 107.749 106.281  1.00  0.00     0.013 C 
ATOM      8  C   UNL     1     109.818 109.726 105.092  1.00  0.00     0.126 C 
ATOM      9  C   UNL     1     111.699 108.021 105.575  1.00  0.00     0.014 C 
ATOM     10  C   UNL     1     107.512 110.192 103.967  1.00  0.00     0.014 C 
ENDROOT
BRANCH   8  11
ATOM     11  O   UNL     1     110.266 110.272 103.876  1.00  0.00    -0.392 OA
ATOM     12  H   UNL     1     110.976 109.664 103.539  1.00  0.00     0.211 HD
ENDBRANCH   8  11
TORSDOF 1
ENDMDL
MODEL 2
REMARK VINA RESULT:    -3.206      2.430      4.503
REMARK INTER + INTRA:          -3.300
REMARK INTER:                  -3.300
REMARK INTRA:                   0.000
REMARK UNBOUND:                 0.000
REMARK SMILES CC1(C)[C@H]2CC[C@](C)(C2)[C@H]1O
REMARK SMILES IDX 1 1 2 2 4 3 5 4 6 5 7 6 9 7 10 8 8 9 3 10 11 11
REMARK H PARENT 11 12
REMARK Flexibility Score: inf
ROOT
ATOM      1  C   UNL     1     112.250 109.480 106.501  1.00  0.00     0.014 C 
ATOM      2  C   UNL     1     111.804 110.351 105.302  1.00  0.00    -0.006 C 
ATOM      3  C   UNL     1     112.037 111.868 105.621  1.00  0.00    -0.002 C 
ATOM      4  C   UNL     1     111.857 112.737 104.358  1.00  0.00     0.005 C 
ATOM      5  C   UNL     1     110.352 112.618 104.075  1.00  0.00     0.010 C 
ATOM      6  C   UNL     1     109.842 111.789 105.279  1.00  0.00    -0.006 C 
ATOM      7  C   UNL     1     110.776 112.246 106.379  1.00  0.00     0.013 C 
ATOM      8  C   UNL     1     110.250 110.302 105.124  1.00  0.00     0.126 C 
ATOM      9  C   UNL     1     108.358 111.999 105.593  1.00  0.00     0.014 C 
ATOM     10  C   UNL     1     112.589 109.858 104.057  1.00  0.00     0.014 C 
ENDROOT
BRANCH   8  11
ATOM     11  O   UNL     1     109.838 109.787 103.881  1.00  0.00    -0.392 OA
ATOM     12  H   UNL     1     110.329 110.303 103.188  1.00  0.00     0.211 HD
ENDBRANCH   8  11
TORSDOF 1
ENDMDL
MODEL 3
REMARK VINA RESULT:    -3.204      8.338     10.842
REMARK INTER + INTRA:          -3.298
REMARK INTER:                  -3.298
REMARK INTRA:                   0.000
REMARK UNBOUND:                 0.000
REMARK SMILES CC1(C)[C@H]2CC[C@](C)(C2)[C@H]1O
REMARK SMILES IDX 1 1 2 2 4 3 5 4 6 5 7 6 9 7 10 8 8 9 3 10 11 11
REMARK H PARENT 11 12
REMARK Flexibility Score: inf
ROOT
ATOM      1  C   UNL     1     106.212 115.419 108.016  1.00  0.00     0.014 C 
ATOM      2  C   UNL     1     105.767 116.585 108.930  1.00  0.00    -0.006 C 
ATOM      3  C   UNL     1     104.578 116.130 109.845  1.00  0.00    -0.002 C 
ATOM      4  C   UNL     1     104.291 117.173 110.947  1.00  0.00     0.005 C 
ATOM      5  C   UNL     1     103.744 118.367 110.149  1.00  0.00     0.010 C 
ATOM      6  C   UNL     1     103.679 117.813 108.705  1.00  0.00    -0.006 C 
ATOM      7  C   UNL     1     103.368 116.353 108.953  1.00  0.00     0.013 C 
ATOM      8  C   UNL     1     105.101 117.728 108.094  1.00  0.00     0.126 C 
ATOM      9  C   UNL     1     102.659 118.525 107.813  1.00  0.00     0.014 C 
ATOM     10  C   UNL     1     107.015 117.046 109.730  1.00  0.00     0.014 C 
ENDROOT
BRANCH   8  11
ATOM     11  O   UNL     1     105.770 118.962 108.187  1.00  0.00    -0.392 OA
ATOM     12  H   UNL     1     105.776 119.206 109.149  1.00  0.00     0.211 HD
ENDBRANCH   8  11
TORSDOF 1
ENDMDL
MODEL 4
REMARK VINA RESULT:    -3.194      1.604      3.140
REMARK INTER + INTRA:          -3.287
REMARK INTER:                  -3.287
REMARK INTRA:                   0.000
REMARK UNBOUND:                 0.000
REMARK SMILES CC1(C)[C@H]2CC[C@](C)(C2)[C@H]1O
REMARK SMILES IDX 1 1 2 2 4 3 5 4 6 5 7 6 9 7 10 8 8 9 3 10 11 11
REMARK H PARENT 11 12
REMARK Flexibility Score: inf
ROOT
ATOM      1  C   UNL     1     109.435 107.895 106.379  1.00  0.00     0.014 C 
ATOM      2  C   UNL     1     110.313 108.365 105.195  1.00  0.00    -0.006 C 
ATOM      3  C   UNL     1     111.823 108.060 105.489  1.00  0.00    -0.002 C 
ATOM      4  C   UNL     1     112.690 108.269 104.229  1.00  0.00     0.005 C 
ATOM      5  C   UNL     1     112.625 109.789 104.020  1.00  0.00     0.010 C 
ATOM      6  C   UNL     1     111.824 110.271 105.254  1.00  0.00    -0.006 C 
ATOM      7  C   UNL     1     112.253 109.269 106.304  1.00  0.00     0.013 C 
ATOM      8  C   UNL     1     110.322 109.927 105.092  1.00  0.00     0.126 C 
ATOM      9  C   UNL     1     112.092 111.729 105.636  1.00  0.00     0.014 C 
ATOM     10  C   UNL     1     109.783 107.660 103.918  1.00  0.00     0.014 C 
ENDROOT
BRANCH   8  11
ATOM     11  O   UNL     1     109.815 110.417 103.875  1.00  0.00    -0.392 OA
ATOM     12  H   UNL     1     109.446 111.319 104.067  1.00  0.00     0.211 HD
ENDBRANCH   8  11
TORSDOF 1
ENDMDL
MODEL 5
REMARK VINA RESULT:    -3.191      1.600      3.154
REMARK INTER + INTRA:          -3.284
REMARK INTER:                  -3.284
REMARK INTRA:                   0.000
REMARK UNBOUND:                 0.000
REMARK SMILES CC1(C)[C@H]2CC[C@](C)(C2)[C@H]1O
REMARK SMILES IDX 1 1 2 2 4 3 5 4 6 5 7 6 9 7 10 8 8 9 3 10 11 11
REMARK H PARENT 11 12
REMARK Flexibility Score: inf
ROOT
ATOM      1  C   UNL     1     110.456 112.254 106.402  1.00  0.00     0.014 C 
ATOM      2  C   UNL     1     109.630 111.751 105.195  1.00  0.00    -0.006 C 
ATOM      3  C   UNL     1     108.101 111.983 105.454  1.00  0.00    -0.002 C 
ATOM      4  C   UNL     1     107.275 111.743 104.172  1.00  0.00     0.005 C 
ATOM      5  C   UNL     1     107.417 110.228 103.955  1.00  0.00     0.010 C 
ATOM      6  C   UNL     1     108.209 109.777 105.206  1.00  0.00    -0.006 C 
ATOM      7  C   UNL     1     107.709 110.750 106.251  1.00  0.00     0.013 C 
ATOM      8  C   UNL     1     109.697 110.192 105.082  1.00  0.00     0.126 C 
ATOM      9  C   UNL     1     108.002 108.305 105.573  1.00  0.00     0.014 C 
ATOM     10  C   UNL     1     110.156 112.490 103.936  1.00  0.00     0.014 C 
ENDROOT
BRANCH   8  11
ATOM     11  O   UNL     1     110.256 109.735 103.875  1.00  0.00    -0.392 OA
ATOM     12  H   UNL     1     110.018 108.774 103.802  1.00  0.00     0.211 HD
ENDBRANCH   8  11
TORSDOF 1
ENDMDL
MODEL 6
REMARK VINA RESULT:    -3.184      7.892      9.889
REMARK INTER + INTRA:          -3.277
REMARK INTER:                  -3.277
REMARK INTRA:                   0.000
REMARK UNBOUND:                 0.000
REMARK SMILES CC1(C)[C@H]2CC[C@](C)(C2)[C@H]1O
REMARK SMILES IDX 1 1 2 2 4 3 5 4 6 5 7 6 9 7 10 8 8 9 3 10 11 11
REMARK H PARENT 11 12
REMARK Flexibility Score: inf
ROOT
ATOM      1  C   UNL     1     114.085 104.789 108.125  1.00  0.00     0.014 C 
ATOM      2  C   UNL     1     114.482 103.573 108.996  1.00  0.00    -0.006 C 
ATOM      3  C   UNL     1     115.702 103.940 109.909  1.00  0.00    -0.002 C 
ATOM      4  C   UNL     1     115.951 102.848 110.972  1.00  0.00     0.005 C 
ATOM      5  C   UNL     1     116.428 101.655 110.130  1.00  0.00     0.010 C 
ATOM      6  C   UNL     1     116.504 102.253 108.704  1.00  0.00    -0.006 C 
ATOM      7  C   UNL     1     116.889 103.687 108.995  1.00  0.00     0.013 C 
ATOM      8  C   UNL     1     115.081 102.427 108.114  1.00  0.00     0.126 C 
ATOM      9  C   UNL     1     117.477 101.521 107.775  1.00  0.00     0.014 C 
ATOM     10  C   UNL     1     113.222 103.149 109.796  1.00  0.00     0.014 C 
ENDROOT
BRANCH   8  11
ATOM     11  O   UNL     1     114.353 101.226 108.176  1.00  0.00    -0.392 OA
ATOM     12  H   UNL     1     113.478 101.449 108.589  1.00  0.00     0.211 HD
ENDBRANCH   8  11
TORSDOF 1
ENDMDL
MODEL 7
REMARK VINA RESULT:    -3.167     10.253     11.707
REMARK INTER + INTRA:          -3.260
REMARK INTER:                  -3.260
REMARK INTRA:                   0.000
REMARK UNBOUND:                 0.000
REMARK SMILES CC1(C)[C@H]2CC[C@](C)(C2)[C@H]1O
REMARK SMILES IDX 1 1 2 2 4 3 5 4 6 5 7 6 9 7 10 8 8 9 3 10 11 11
REMARK H PARENT 11 12
REMARK Flexibility Score: inf
ROOT
ATOM      1  C   UNL     1     115.438 114.083 108.172  1.00  0.00     0.014 C 
ATOM      2  C   UNL     1     116.664 114.493 109.022  1.00  0.00    -0.006 C 
ATOM      3  C   UNL     1     116.297 115.703 109.949  1.00  0.00    -0.002 C 
ATOM      4  C   UNL     1     117.405 115.961 110.993  1.00  0.00     0.005 C 
ATOM      5  C   UNL     1     118.574 116.461 110.131  1.00  0.00     0.010 C 
ATOM      6  C   UNL     1     117.949 116.536 108.717  1.00  0.00    -0.006 C 
ATOM      7  C   UNL     1     116.515 116.899 109.037  1.00  0.00     0.013 C 
ATOM      8  C   UNL     1     117.785 115.114 108.123  1.00  0.00     0.126 C 
ATOM      9  C   UNL     1     118.650 117.524 107.781  1.00  0.00     0.014 C 
ATOM     10  C   UNL     1     117.122 113.236 109.807  1.00  0.00     0.014 C 
ENDROOT
BRANCH   8  11
ATOM     11  O   UNL     1     118.997 114.402 108.158  1.00  0.00    -0.392 OA
ATOM     12  H   UNL     1     119.558 114.767 107.424  1.00  0.00     0.211 HD
ENDBRANCH   8  11
TORSDOF 1
ENDMDL
MODEL 8
REMARK VINA RESULT:    -3.063      3.193      4.706
REMARK INTER + INTRA:          -3.152
REMARK INTER:                  -3.152
REMARK INTRA:                   0.000
REMARK UNBOUND:                 0.000
REMARK SMILES CC1(C)[C@H]2CC[C@](C)(C2)[C@H]1O
REMARK SMILES IDX 1 1 2 2 4 3 5 4 6 5 7 6 9 7 10 8 8 9 3 10 11 11
REMARK H PARENT 11 12
REMARK Flexibility Score: inf
ROOT
ATOM      1  C   UNL     1     112.205 113.005 107.260  1.00  0.00     0.014 C 
ATOM      2  C   UNL     1     111.743 111.836 106.357  1.00  0.00    -0.006 C 
ATOM      3  C   UNL     1     112.337 112.002 104.915  1.00  0.00    -0.002 C 
ATOM      4  C   UNL     1     112.120 110.726 104.072  1.00  0.00     0.005 C 
ATOM      5  C   UNL     1     110.597 110.705 103.875  1.00  0.00     0.010 C 
ATOM      6  C   UNL     1     110.148 112.033 104.531  1.00  0.00    -0.006 C 
ATOM      7  C   UNL     1     111.334 112.928 104.248  1.00  0.00     0.013 C 
ATOM      8  C   UNL     1     110.206 111.920 106.076  1.00  0.00     0.126 C 
ATOM      9  C   UNL     1     108.818 112.571 103.996  1.00  0.00     0.014 C 
ATOM     10  C   UNL     1     112.178 110.518 107.051  1.00  0.00     0.014 C 
ENDROOT
BRANCH   8  11
ATOM     11  O   UNL     1     109.485 110.803 106.533  1.00  0.00    -0.392 OA
ATOM     12  H   UNL     1     109.926 110.004 106.141  1.00  0.00     0.211 HD
ENDBRANCH   8  11
TORSDOF 1
ENDMDL
MODEL 9
REMARK VINA RESULT:    -3.047      1.418      2.741
REMARK INTER + INTRA:          -3.137
REMARK INTER:                  -3.137
REMARK INTRA:                   0.000
REMARK UNBOUND:                 0.000
REMARK SMILES CC1(C)[C@H]2CC[C@](C)(C2)[C@H]1O
REMARK SMILES IDX 1 1 2 2 4 3 5 4 6 5 7 6 9 7 10 8 8 9 3 10 11 11
REMARK H PARENT 11 12
REMARK Flexibility Score: inf
ROOT
ATOM      1  C   UNL     1     107.750 107.178 106.706  1.00  0.00     0.014 C 
ATOM      2  C   UNL     1     108.455 107.729 105.443  1.00  0.00    -0.006 C 
ATOM      3  C   UNL     1     109.981 107.946 105.728  1.00  0.00    -0.002 C 
ATOM      4  C   UNL     1     110.756 108.235 104.424  1.00  0.00     0.005 C 
ATOM      5  C   UNL     1     110.227 109.618 104.014  1.00  0.00     0.010 C 
ATOM      6  C   UNL     1     109.303 109.995 105.197  1.00  0.00    -0.006 C 
ATOM      7  C   UNL     1     110.007 109.328 106.358  1.00  0.00     0.013 C 
ATOM      8  C   UNL     1     107.982 109.187 105.130  1.00  0.00     0.126 C 
ATOM      9  C   UNL     1     109.102 111.503 105.371  1.00  0.00     0.014 C 
ATOM     10  C   UNL     1     108.183 106.726 104.290  1.00  0.00     0.014 C 
ENDROOT
BRANCH   8  11
ATOM     11  O   UNL     1     107.362 109.325 103.875  1.00  0.00    -0.392 OA
ATOM     12  H   UNL     1     108.023 109.772 103.284  1.00  0.00     0.211 HD
ENDBRANCH   8  11
TORSDOF 1
ENDMDL
