MODEL 1
REMARK VINA RESULT:    -4.621      0.000      0.000
REMARK INTER + INTRA:         -13.044
REMARK INTER:                 -10.024
REMARK INTRA:                  -3.021
REMARK UNBOUND:                -3.021
REMARK SMILES CCCCCCCCCCCCCCCCCCCCCC(=O)[O-]
REMARK SMILES IDX 12 1 11 2 10 3 9 4 8 5 7 6 6 7 5 8 4 9 3 10 2 11 1 12 13 13
REMARK SMILES IDX 14 14 15 15 16 16 17 17 18 18 19 19 20 20 21 21 22 22 23 23
REMARK SMILES IDX 24 24
REMARK H PARENT
REMARK Flexibility Score: inf
ROOT
ATOM      1  C   UNL     1      57.034  -4.148  30.407  1.00  0.00     0.000 C 
ENDROOT
BRANCH   1   2
ATOM      2  C   UNL     1      55.691  -4.604  30.997  1.00  0.00     0.000 C 
BRANCH   2   3
ATOM      3  C   UNL     1      55.230  -3.651  32.110  1.00  0.00     0.000 C 
BRANCH   3   4
ATOM      4  C   UNL     1      53.951  -2.878  31.745  1.00  0.00    -0.000 C 
BRANCH   4   5
ATOM      5  C   UNL     1      54.181  -1.507  31.076  1.00  0.00    -0.000 C 
BRANCH   5   6
ATOM      6  C   UNL     1      53.892  -1.462  29.564  1.00  0.00    -0.000 C 
BRANCH   6   7
ATOM      7  C   UNL     1      55.137  -1.587  28.664  1.00  0.00    -0.000 C 
BRANCH   7   8
ATOM      8  C   UNL     1      55.525  -0.270  27.956  1.00  0.00    -0.000 C 
BRANCH   8   9
ATOM      9  C   UNL     1      56.660   0.471  28.678  1.00  0.00    -0.000 C 
BRANCH   9  10
ATOM     10  C   UNL     1      57.500  -0.493  29.522  1.00  0.00    -0.000 C 
BRANCH  10  11
ATOM     11  C   UNL     1      57.427  -0.132  31.009  1.00  0.00    -0.003 C 
ATOM     12  C   UNL     1      58.814  -0.122  31.645  1.00  0.00     0.004 C 
ENDBRANCH  10  11
ENDBRANCH   9  10
ENDBRANCH   8   9
ENDBRANCH   7   8
ENDBRANCH   6   7
ENDBRANCH   5   6
ENDBRANCH   4   5
ENDBRANCH   3   4
ENDBRANCH   2   3
ENDBRANCH   1   2
BRANCH   1  13
ATOM     13  C   UNL     1      58.075  -3.810  31.486  1.00  0.00     0.000 C 
BRANCH  13  14
ATOM     14  C   UNL     1      59.459  -3.495  30.899  1.00  0.00     0.000 C 
BRANCH  14  15
ATOM     15  C   UNL     1      59.474  -3.709  29.378  1.00  0.00     0.000 C 
BRANCH  15  16
ATOM     16  C   UNL     1      60.527  -2.843  28.663  1.00  0.00     0.000 C 
BRANCH  16  17
ATOM     17  C   UNL     1      61.482  -2.074  29.598  1.00  0.00     0.000 C 
BRANCH  17  18
ATOM     18  C   UNL     1      62.791  -2.812  29.943  1.00  0.00     0.000 C 
BRANCH  18  19
ATOM     19  C   UNL     1      63.157  -3.967  28.990  1.00  0.00     0.000 C 
BRANCH  19  20
ATOM     20  C   UNL     1      64.404  -3.722  28.121  1.00  0.00     0.006 C 
BRANCH  20  21
ATOM     21  C   UNL     1      64.245  -2.523  27.178  1.00  0.00     0.053 C 
BRANCH  21  22
ATOM     22  C   UNL     1      63.508  -2.925  25.939  1.00  0.00     0.041 C 
ATOM     23  O   UNL     1      63.408  -4.141  25.628  1.00  0.00    -0.550 OA
ATOM     24  O   UNL     1      62.963  -1.953  25.110  1.00  0.00    -0.550 OA
ENDBRANCH  21  22
ENDBRANCH  20  21
ENDBRANCH  19  20
ENDBRANCH  18  19
ENDBRANCH  17  18
ENDBRANCH  16  17
ENDBRANCH  15  16
ENDBRANCH  14  15
ENDBRANCH  13  14
ENDBRANCH   1  13
TORSDOF 20
ENDMDL
MODEL 2
REMARK VINA RESULT:    -4.514      1.498      2.087
REMARK INTER + INTRA:         -12.812
REMARK INTER:                 -10.004
REMARK INTRA:                  -2.808
REMARK UNBOUND:                -3.021
REMARK SMILES CCCCCCCCCCCCCCCCCCCCCC(=O)[O-]
REMARK SMILES IDX 12 1 11 2 10 3 9 4 8 5 7 6 6 7 5 8 4 9 3 10 2 11 1 12 13 13
REMARK SMILES IDX 14 14 15 15 16 16 17 17 18 18 19 19 20 20 21 21 22 22 23 23
REMARK SMILES IDX 24 24
REMARK H PARENT
REMARK Flexibility Score: inf
ROOT
ATOM      1  C   UNL     1      57.534  -4.113  30.066  1.00  0.00     0.000 C 
ENDROOT
BRANCH   1   2
ATOM      2  C   UNL     1      57.013  -3.863  31.489  1.00  0.00     0.000 C 
BRANCH   2   3
ATOM      3  C   UNL     1      55.649  -4.537  31.699  1.00  0.00     0.000 C 
BRANCH   3   4
ATOM      4  C   UNL     1      54.508  -3.527  31.914  1.00  0.00    -0.000 C 
BRANCH   4   5
ATOM      5  C   UNL     1      54.822  -2.081  31.479  1.00  0.00    -0.000 C 
BRANCH   5   6
ATOM      6  C   UNL     1      53.686  -1.365  30.725  1.00  0.00    -0.000 C 
BRANCH   6   7
ATOM      7  C   UNL     1      53.737  -1.507  29.192  1.00  0.00    -0.000 C 
BRANCH   7   8
ATOM      8  C   UNL     1      55.171  -1.539  28.620  1.00  0.00    -0.000 C 
BRANCH   8   9
ATOM      9  C   UNL     1      55.514  -0.269  27.827  1.00  0.00    -0.000 C 
BRANCH   9  10
ATOM     10  C   UNL     1      56.606   0.543  28.532  1.00  0.00    -0.000 C 
BRANCH  10  11
ATOM     11  C   UNL     1      57.479  -0.355  29.414  1.00  0.00    -0.003 C 
ATOM     12  C   UNL     1      57.682   0.256  30.798  1.00  0.00     0.004 C 
ENDBRANCH  10  11
ENDBRANCH   9  10
ENDBRANCH   8   9
ENDBRANCH   7   8
ENDBRANCH   6   7
ENDBRANCH   5   6
ENDBRANCH   4   5
ENDBRANCH   3   4
ENDBRANCH   2   3
ENDBRANCH   1   2
BRANCH   1  13
ATOM     13  C   UNL     1      59.028  -3.786  29.912  1.00  0.00     0.000 C 
BRANCH  13  14
ATOM     14  C   UNL     1      59.623  -3.120  31.163  1.00  0.00     0.000 C 
BRANCH  14  15
ATOM     15  C   UNL     1      60.588  -1.989  30.778  1.00  0.00     0.000 C 
BRANCH  15  16
ATOM     16  C   UNL     1      62.059  -2.441  30.750  1.00  0.00     0.000 C 
BRANCH  16  17
ATOM     17  C   UNL     1      62.750  -2.327  29.376  1.00  0.00     0.000 C 
BRANCH  17  18
ATOM     18  C   UNL     1      61.793  -2.199  28.174  1.00  0.00     0.000 C 
BRANCH  18  19
ATOM     19  C   UNL     1      62.324  -2.791  26.854  1.00  0.00     0.000 C 
BRANCH  19  20
ATOM     20  C   UNL     1      63.704  -3.466  26.953  1.00  0.00     0.006 C 
BRANCH  20  21
ATOM     21  C   UNL     1      63.773  -4.793  26.187  1.00  0.00     0.053 C 
BRANCH  21  22
ATOM     22  C   UNL     1      63.383  -5.932  27.077  1.00  0.00     0.041 C 
ATOM     23  O   UNL     1      63.256  -7.091  26.603  1.00  0.00    -0.550 OA
ATOM     24  O   UNL     1      63.122  -5.703  28.422  1.00  0.00    -0.550 OA
ENDBRANCH  21  22
ENDBRANCH  20  21
ENDBRANCH  19  20
ENDBRANCH  18  19
ENDBRANCH  17  18
ENDBRANCH  16  17
ENDBRANCH  15  16
ENDBRANCH  14  15
ENDBRANCH  13  14
ENDBRANCH   1  13
TORSDOF 20
ENDMDL
MODEL 3
REMARK VINA RESULT:    -4.229      1.133      2.773
REMARK INTER + INTRA:         -12.195
REMARK INTER:                  -8.825
REMARK INTRA:                  -3.370
REMARK UNBOUND:                -3.021
REMARK SMILES CCCCCCCCCCCCCCCCCCCCCC(=O)[O-]
REMARK SMILES IDX 12 1 11 2 10 3 9 4 8 5 7 6 6 7 5 8 4 9 3 10 2 11 1 12 13 13
REMARK SMILES IDX 14 14 15 15 16 16 17 17 18 18 19 19 20 20 21 21 22 22 23 23
REMARK SMILES IDX 24 24
REMARK H PARENT
REMARK Flexibility Score: inf
ROOT
ATOM      1  C   UNL     1      58.255  -3.463  29.567  1.00  0.00     0.000 C 
ENDROOT
BRANCH   1   2
ATOM      2  C   UNL     1      57.489  -4.266  30.628  1.00  0.00     0.000 C 
BRANCH   2   3
ATOM      3  C   UNL     1      57.309  -3.444  31.913  1.00  0.00     0.000 C 
BRANCH   3   4
ATOM      4  C   UNL     1      58.300  -2.272  32.018  1.00  0.00    -0.000 C 
BRANCH   4   5
ATOM      5  C   UNL     1      57.690  -0.874  31.785  1.00  0.00    -0.000 C 
BRANCH   5   6
ATOM      6  C   UNL     1      58.593   0.114  31.023  1.00  0.00    -0.000 C 
BRANCH   6   7
ATOM      7  C   UNL     1      58.236   0.301  29.536  1.00  0.00    -0.000 C 
BRANCH   7   8
ATOM      8  C   UNL     1      56.736   0.572  29.288  1.00  0.00    -0.000 C 
BRANCH   8   9
ATOM      9  C   UNL     1      56.180  -0.241  28.109  1.00  0.00    -0.000 C 
BRANCH   9  10
ATOM     10  C   UNL     1      54.803  -0.824  28.441  1.00  0.00    -0.000 C 
BRANCH  10  11
ATOM     11  C   UNL     1      54.914  -1.946  29.480  1.00  0.00    -0.003 C 
ATOM     12  C   UNL     1      54.131  -1.608  30.745  1.00  0.00     0.004 C 
ENDBRANCH  10  11
ENDBRANCH   9  10
ENDBRANCH   8   9
ENDBRANCH   7   8
ENDBRANCH   6   7
ENDBRANCH   5   6
ENDBRANCH   4   5
ENDBRANCH   3   4
ENDBRANCH   2   3
ENDBRANCH   1   2
BRANCH   1  13
ATOM     13  C   UNL     1      59.678  -3.994  29.329  1.00  0.00     0.000 C 
BRANCH  13  14
ATOM     14  C   UNL     1      60.501  -3.093  28.395  1.00  0.00     0.000 C 
BRANCH  14  15
ATOM     15  C   UNL     1      61.088  -1.898  29.161  1.00  0.00     0.000 C 
BRANCH  15  16
ATOM     16  C   UNL     1      62.078  -2.321  30.261  1.00  0.00     0.000 C 
BRANCH  16  17
ATOM     17  C   UNL     1      63.528  -2.539  29.784  1.00  0.00     0.000 C 
BRANCH  17  18
ATOM     18  C   UNL     1      64.035  -3.991  29.883  1.00  0.00     0.000 C 
BRANCH  18  19
ATOM     19  C   UNL     1      63.595  -4.915  28.729  1.00  0.00     0.000 C 
BRANCH  19  20
ATOM     20  C   UNL     1      64.359  -4.713  27.408  1.00  0.00     0.006 C 
BRANCH  20  21
ATOM     21  C   UNL     1      63.457  -4.220  26.269  1.00  0.00     0.053 C 
BRANCH  21  22
ATOM     22  C   UNL     1      63.638  -2.750  26.057  1.00  0.00     0.041 C 
ATOM     23  O   UNL     1      62.780  -2.092  25.412  1.00  0.00    -0.550 OA
ATOM     24  O   UNL     1      64.775  -2.115  26.540  1.00  0.00    -0.550 OA
ENDBRANCH  21  22
ENDBRANCH  20  21
ENDBRANCH  19  20
ENDBRANCH  18  19
ENDBRANCH  17  18
ENDBRANCH  16  17
ENDBRANCH  15  16
ENDBRANCH  14  15
ENDBRANCH  13  14
ENDBRANCH   1  13
TORSDOF 20
ENDMDL
MODEL 4
REMARK VINA RESULT:    -4.156      2.416      8.115
REMARK INTER + INTRA:         -12.036
REMARK INTER:                  -8.971
REMARK INTRA:                  -3.064
REMARK UNBOUND:                -3.021
REMARK SMILES CCCCCCCCCCCCCCCCCCCCCC(=O)[O-]
REMARK SMILES IDX 12 1 11 2 10 3 9 4 8 5 7 6 6 7 5 8 4 9 3 10 2 11 1 12 13 13
REMARK SMILES IDX 14 14 15 15 16 16 17 17 18 18 19 19 20 20 21 21 22 22 23 23
REMARK SMILES IDX 24 24
REMARK H PARENT
REMARK Flexibility Score: inf
ROOT
ATOM      1  C   UNL     1      60.593  -3.102  28.633  1.00  0.00     0.000 C 
ENDROOT
BRANCH   1   2
ATOM      2  C   UNL     1      61.446  -1.927  29.134  1.00  0.00     0.000 C 
BRANCH   2   3
ATOM      3  C   UNL     1      62.769  -2.428  29.733  1.00  0.00     0.000 C 
BRANCH   3   4
ATOM      4  C   UNL     1      63.977  -1.570  29.321  1.00  0.00    -0.000 C 
BRANCH   4   5
ATOM      5  C   UNL     1      65.245  -2.362  28.941  1.00  0.00    -0.000 C 
BRANCH   5   6
ATOM      6  C   UNL     1      65.389  -3.733  29.628  1.00  0.00    -0.000 C 
BRANCH   6   7
ATOM      7  C   UNL     1      65.434  -4.936  28.668  1.00  0.00    -0.000 C 
BRANCH   7   8
ATOM      8  C   UNL     1      64.163  -5.813  28.712  1.00  0.00    -0.000 C 
BRANCH   8   9
ATOM      9  C   UNL     1      63.172  -5.467  27.590  1.00  0.00    -0.000 C 
BRANCH   9  10
ATOM     10  C   UNL     1      63.868  -4.709  26.454  1.00  0.00    -0.000 C 
BRANCH  10  11
ATOM     11  C   UNL     1      62.887  -3.783  25.727  1.00  0.00    -0.003 C 
ATOM     12  C   UNL     1      63.398  -2.346  25.701  1.00  0.00     0.004 C 
ENDBRANCH  10  11
ENDBRANCH   9  10
ENDBRANCH   8   9
ENDBRANCH   7   8
ENDBRANCH   6   7
ENDBRANCH   5   6
ENDBRANCH   4   5
ENDBRANCH   3   4
ENDBRANCH   2   3
ENDBRANCH   1   2
BRANCH   1  13
ATOM     13  C   UNL     1      59.839  -3.817  29.764  1.00  0.00     0.000 C 
BRANCH  13  14
ATOM     14  C   UNL     1      58.322  -3.874  29.525  1.00  0.00     0.000 C 
BRANCH  14  15
ATOM     15  C   UNL     1      57.571  -4.194  30.827  1.00  0.00     0.000 C 
BRANCH  15  16
ATOM     16  C   UNL     1      56.100  -4.580  30.589  1.00  0.00     0.000 C 
BRANCH  16  17
ATOM     17  C   UNL     1      55.195  -4.496  31.836  1.00  0.00     0.000 C 
BRANCH  17  18
ATOM     18  C   UNL     1      54.484  -3.143  32.035  1.00  0.00     0.000 C 
BRANCH  18  19
ATOM     19  C   UNL     1      54.626  -2.154  30.861  1.00  0.00     0.000 C 
BRANCH  19  20
ATOM     20  C   UNL     1      55.600  -0.987  31.109  1.00  0.00     0.006 C 
BRANCH  20  21
ATOM     21  C   UNL     1      56.442  -0.643  29.874  1.00  0.00     0.053 C 
BRANCH  21  22
ATOM     22  C   UNL     1      57.860  -0.374  30.266  1.00  0.00     0.041 C 
ATOM     23  O   UNL     1      58.277  -0.709  31.406  1.00  0.00    -0.550 OA
ATOM     24  O   UNL     1      58.712   0.279  29.385  1.00  0.00    -0.550 OA
ENDBRANCH  21  22
ENDBRANCH  20  21
ENDBRANCH  19  20
ENDBRANCH  18  19
ENDBRANCH  17  18
ENDBRANCH  16  17
ENDBRANCH  15  16
ENDBRANCH  14  15
ENDBRANCH  13  14
ENDBRANCH   1  13
TORSDOF 20
ENDMDL
MODEL 5
REMARK VINA RESULT:    -4.150     14.736     18.472
REMARK INTER + INTRA:         -12.023
REMARK INTER:                  -7.921
REMARK INTRA:                  -4.102
REMARK UNBOUND:                -3.021
REMARK SMILES CCCCCCCCCCCCCCCCCCCCCC(=O)[O-]
REMARK SMILES IDX 12 1 11 2 10 3 9 4 8 5 7 6 6 7 5 8 4 9 3 10 2 11 1 12 13 13
REMARK SMILES IDX 14 14 15 15 16 16 17 17 18 18 19 19 20 20 21 21 22 22 23 23
REMARK SMILES IDX 24 24
REMARK H PARENT
REMARK Flexibility Score: inf
ROOT
ATOM      1  C   UNL     1      61.843 -11.904  16.018  1.00  0.00     0.000 C 
ENDROOT
BRANCH   1   2
ATOM      2  C   UNL     1      62.000 -13.201  16.826  1.00  0.00     0.000 C 
BRANCH   2   3
ATOM      3  C   UNL     1      60.629 -13.814  17.149  1.00  0.00     0.000 C 
BRANCH   3   4
ATOM      4  C   UNL     1      60.484 -15.259  16.641  1.00  0.00    -0.000 C 
BRANCH   4   5
ATOM      5  C   UNL     1      60.093 -15.396  15.155  1.00  0.00    -0.000 C 
BRANCH   5   6
ATOM      6  C   UNL     1      60.992 -16.331  14.326  1.00  0.00    -0.000 C 
BRANCH   6   7
ATOM      7  C   UNL     1      62.435 -15.829  14.124  1.00  0.00    -0.000 C 
BRANCH   7   8
ATOM      8  C   UNL     1      63.486 -16.961  14.091  1.00  0.00    -0.000 C 
BRANCH   8   9
ATOM      9  C   UNL     1      64.553 -16.802  15.184  1.00  0.00    -0.000 C 
BRANCH   9  10
ATOM     10  C   UNL     1      63.933 -16.917  16.581  1.00  0.00    -0.000 C 
BRANCH  10  11
ATOM     11  C   UNL     1      64.448 -15.808  17.506  1.00  0.00    -0.003 C 
ATOM     12  C   UNL     1      63.677 -15.783  18.822  1.00  0.00     0.004 C 
ENDBRANCH  10  11
ENDBRANCH   9  10
ENDBRANCH   8   9
ENDBRANCH   7   8
ENDBRANCH   6   7
ENDBRANCH   5   6
ENDBRANCH   4   5
ENDBRANCH   3   4
ENDBRANCH   2   3
ENDBRANCH   1   2
BRANCH   1  13
ATOM     13  C   UNL     1      61.914 -12.134  14.501  1.00  0.00     0.000 C 
BRANCH  13  14
ATOM     14  C   UNL     1      63.141 -11.471  13.856  1.00  0.00     0.000 C 
BRANCH  14  15
ATOM     15  C   UNL     1      64.036 -12.516  13.173  1.00  0.00     0.000 C 
BRANCH  15  16
ATOM     16  C   UNL     1      64.916 -13.292  14.169  1.00  0.00     0.000 C 
BRANCH  16  17
ATOM     17  C   UNL     1      65.934 -12.432  14.945  1.00  0.00     0.000 C 
BRANCH  17  18
ATOM     18  C   UNL     1      65.700 -12.360  16.467  1.00  0.00     0.000 C 
BRANCH  18  19
ATOM     19  C   UNL     1      65.488 -10.939  17.026  1.00  0.00     0.000 C 
BRANCH  19  20
ATOM     20  C   UNL     1      64.606 -10.861  18.286  1.00  0.00     0.006 C 
BRANCH  20  21
ATOM     21  C   UNL     1      64.538 -12.192  19.046  1.00  0.00     0.053 C 
BRANCH  21  22
ATOM     22  C   UNL     1      64.604 -11.955  20.523  1.00  0.00     0.041 C 
ATOM     23  O   UNL     1      65.160 -10.919  20.974  1.00  0.00    -0.550 OA
ATOM     24  O   UNL     1      64.084 -12.897  21.401  1.00  0.00    -0.550 OA
ENDBRANCH  21  22
ENDBRANCH  20  21
ENDBRANCH  19  20
ENDBRANCH  18  19
ENDBRANCH  17  18
ENDBRANCH  16  17
ENDBRANCH  15  16
ENDBRANCH  14  15
ENDBRANCH  13  14
ENDBRANCH   1  13
TORSDOF 20
ENDMDL
MODEL 6
REMARK VINA RESULT:    -4.129      1.720      3.721
REMARK INTER + INTRA:         -11.977
REMARK INTER:                  -9.359
REMARK INTRA:                  -2.618
REMARK UNBOUND:                -3.021
REMARK SMILES CCCCCCCCCCCCCCCCCCCCCC(=O)[O-]
REMARK SMILES IDX 12 1 11 2 10 3 9 4 8 5 7 6 6 7 5 8 4 9 3 10 2 11 1 12 13 13
REMARK SMILES IDX 14 14 15 15 16 16 17 17 18 18 19 19 20 20 21 21 22 22 23 23
REMARK SMILES IDX 24 24
REMARK H PARENT
REMARK Flexibility Score: inf
ROOT
ATOM      1  C   UNL     1      60.241  -1.793  31.576  1.00  0.00     0.000 C 
ENDROOT
BRANCH   1   2
ATOM      2  C   UNL     1      59.423  -0.614  32.124  1.00  0.00     0.000 C 
BRANCH   2   3
ATOM      3  C   UNL     1      58.011  -0.598  31.519  1.00  0.00     0.000 C 
BRANCH   3   4
ATOM      4  C   UNL     1      57.785   0.579  30.554  1.00  0.00    -0.000 C 
BRANCH   4   5
ATOM      5  C   UNL     1      57.107   0.211  29.219  1.00  0.00    -0.000 C 
BRANCH   5   6
ATOM      6  C   UNL     1      56.337  -1.123  29.223  1.00  0.00    -0.000 C 
BRANCH   6   7
ATOM      7  C   UNL     1      54.805  -0.986  29.149  1.00  0.00    -0.000 C 
BRANCH   7   8
ATOM      8  C   UNL     1      54.064  -1.660  30.324  1.00  0.00    -0.000 C 
BRANCH   8   9
ATOM      9  C   UNL     1      55.027  -2.291  31.340  1.00  0.00    -0.000 C 
BRANCH   9  10
ATOM     10  C   UNL     1      54.397  -3.517  32.010  1.00  0.00    -0.000 C 
BRANCH  10  11
ATOM     11  C   UNL     1      55.276  -4.759  31.827  1.00  0.00    -0.003 C 
ATOM     12  C   UNL     1      56.127  -4.652  30.565  1.00  0.00     0.004 C 
ENDBRANCH  10  11
ENDBRANCH   9  10
ENDBRANCH   8   9
ENDBRANCH   7   8
ENDBRANCH   6   7
ENDBRANCH   5   6
ENDBRANCH   4   5
ENDBRANCH   3   4
ENDBRANCH   2   3
ENDBRANCH   1   2
BRANCH   1  13
ATOM     13  C   UNL     1      59.360  -2.960  31.102  1.00  0.00     0.000 C 
BRANCH  13  14
ATOM     14  C   UNL     1      59.573  -3.303  29.620  1.00  0.00     0.000 C 
BRANCH  14  15
ATOM     15  C   UNL     1      60.042  -2.070  28.832  1.00  0.00     0.000 C 
BRANCH  15  16
ATOM     16  C   UNL     1      61.304  -2.341  27.993  1.00  0.00     0.000 C 
BRANCH  16  17
ATOM     17  C   UNL     1      62.585  -2.604  28.811  1.00  0.00     0.000 C 
BRANCH  17  18
ATOM     18  C   UNL     1      63.812  -3.030  27.981  1.00  0.00     0.000 C 
BRANCH  18  19
ATOM     19  C   UNL     1      63.526  -3.303  26.490  1.00  0.00     0.000 C 
BRANCH  19  20
ATOM     20  C   UNL     1      63.641  -4.779  26.067  1.00  0.00     0.006 C 
BRANCH  20  21
ATOM     21  C   UNL     1      64.332  -5.649  27.124  1.00  0.00     0.053 C 
BRANCH  21  22
ATOM     22  C   UNL     1      63.502  -6.856  27.432  1.00  0.00     0.041 C 
ATOM     23  O   UNL     1      63.152  -7.099  28.617  1.00  0.00    -0.550 OA
ATOM     24  O   UNL     1      63.146  -7.732  26.414  1.00  0.00    -0.550 OA
ENDBRANCH  21  22
ENDBRANCH  20  21
ENDBRANCH  19  20
ENDBRANCH  18  19
ENDBRANCH  17  18
ENDBRANCH  16  17
ENDBRANCH  15  16
ENDBRANCH  14  15
ENDBRANCH  13  14
ENDBRANCH   1  13
TORSDOF 20
ENDMDL
MODEL 7
REMARK VINA RESULT:    -4.126     14.817     18.521
REMARK INTER + INTRA:         -11.972
REMARK INTER:                  -7.681
REMARK INTRA:                  -4.291
REMARK UNBOUND:                -3.021
REMARK SMILES CCCCCCCCCCCCCCCCCCCCCC(=O)[O-]
REMARK SMILES IDX 12 1 11 2 10 3 9 4 8 5 7 6 6 7 5 8 4 9 3 10 2 11 1 12 13 13
REMARK SMILES IDX 14 14 15 15 16 16 17 17 18 18 19 19 20 20 21 21 22 22 23 23
REMARK SMILES IDX 24 24
REMARK H PARENT
REMARK Flexibility Score: inf
ROOT
ATOM      1  C   UNL     1      60.807 -12.770  16.731  1.00  0.00     0.000 C 
ENDROOT
BRANCH   1   2
ATOM      2  C   UNL     1      60.509 -14.276  16.760  1.00  0.00     0.000 C 
BRANCH   2   3
ATOM      3  C   UNL     1      61.258 -14.960  17.914  1.00  0.00     0.000 C 
BRANCH   3   4
ATOM      4  C   UNL     1      62.575 -14.253  18.276  1.00  0.00    -0.000 C 
BRANCH   4   5
ATOM      5  C   UNL     1      63.743 -15.191  18.647  1.00  0.00    -0.000 C 
BRANCH   5   6
ATOM      6  C   UNL     1      64.872 -15.273  17.602  1.00  0.00    -0.000 C 
BRANCH   6   7
ATOM      7  C   UNL     1      64.453 -14.902  16.167  1.00  0.00    -0.000 C 
BRANCH   7   8
ATOM      8  C   UNL     1      64.752 -16.006  15.129  1.00  0.00    -0.000 C 
BRANCH   8   9
ATOM      9  C   UNL     1      63.473 -16.625  14.547  1.00  0.00    -0.000 C 
BRANCH   9  10
ATOM     10  C   UNL     1      62.763 -17.503  15.583  1.00  0.00    -0.000 C 
BRANCH  10  11
ATOM     11  C   UNL     1      61.262 -17.599  15.290  1.00  0.00    -0.003 C 
ATOM     12  C   UNL     1      60.975 -17.396  13.805  1.00  0.00     0.004 C 
ENDBRANCH  10  11
ENDBRANCH   9  10
ENDBRANCH   8   9
ENDBRANCH   7   8
ENDBRANCH   6   7
ENDBRANCH   5   6
ENDBRANCH   4   5
ENDBRANCH   3   4
ENDBRANCH   2   3
ENDBRANCH   1   2
BRANCH   1  13
ATOM     13  C   UNL     1      61.262 -12.279  15.347  1.00  0.00     0.000 C 
BRANCH  13  14
ATOM     14  C   UNL     1      61.506 -13.430  14.359  1.00  0.00     0.000 C 
BRANCH  14  15
ATOM     15  C   UNL     1      62.726 -13.143  13.471  1.00  0.00     0.000 C 
BRANCH  15  16
ATOM     16  C   UNL     1      63.385 -11.787  13.780  1.00  0.00     0.000 C 
BRANCH  16  17
ATOM     17  C   UNL     1      64.889 -11.856  14.118  1.00  0.00     0.000 C 
BRANCH  17  18
ATOM     18  C   UNL     1      65.293 -11.165  15.435  1.00  0.00     0.000 C 
BRANCH  18  19
ATOM     19  C   UNL     1      64.310 -11.369  16.606  1.00  0.00     0.000 C 
BRANCH  19  20
ATOM     20  C   UNL     1      64.779 -10.795  17.955  1.00  0.00     0.006 C 
BRANCH  20  21
ATOM     21  C   UNL     1      65.395 -11.859  18.873  1.00  0.00     0.053 C 
BRANCH  21  22
ATOM     22  C   UNL     1      64.989 -11.623  20.294  1.00  0.00     0.041 C 
ATOM     23  O   UNL     1      65.492 -10.671  20.946  1.00  0.00    -0.550 OA
ATOM     24  O   UNL     1      64.083 -12.478  20.908  1.00  0.00    -0.550 OA
ENDBRANCH  21  22
ENDBRANCH  20  21
ENDBRANCH  19  20
ENDBRANCH  18  19
ENDBRANCH  17  18
ENDBRANCH  16  17
ENDBRANCH  15  16
ENDBRANCH  14  15
ENDBRANCH  13  14
ENDBRANCH   1  13
TORSDOF 20
ENDMDL
MODEL 8
REMARK VINA RESULT:    -4.084      2.591      3.508
REMARK INTER + INTRA:         -11.881
REMARK INTER:                  -9.688
REMARK INTRA:                  -2.193
REMARK UNBOUND:                -3.021
REMARK SMILES CCCCCCCCCCCCCCCCCCCCCC(=O)[O-]
REMARK SMILES IDX 12 1 11 2 10 3 9 4 8 5 7 6 6 7 5 8 4 9 3 10 2 11 1 12 13 13
REMARK SMILES IDX 14 14 15 15 16 16 17 17 18 18 19 19 20 20 21 21 22 22 23 23
REMARK SMILES IDX 24 24
REMARK H PARENT
REMARK Flexibility Score: inf
ROOT
ATOM      1  C   UNL     1      58.961  -3.532  29.981  1.00  0.00     0.000 C 
ENDROOT
BRANCH   1   2
ATOM      2  C   UNL     1      58.004  -3.790  31.155  1.00  0.00     0.000 C 
BRANCH   2   3
ATOM      3  C   UNL     1      56.644  -4.295  30.651  1.00  0.00     0.000 C 
BRANCH   3   4
ATOM      4  C   UNL     1      55.632  -4.528  31.786  1.00  0.00    -0.000 C 
BRANCH   4   5
ATOM      5  C   UNL     1      54.457  -3.530  31.833  1.00  0.00    -0.000 C 
BRANCH   5   6
ATOM      6  C   UNL     1      54.807  -2.090  31.415  1.00  0.00    -0.000 C 
BRANCH   6   7
ATOM      7  C   UNL     1      53.869  -1.477  30.359  1.00  0.00    -0.000 C 
BRANCH   7   8
ATOM      8  C   UNL     1      54.512  -1.343  28.961  1.00  0.00    -0.000 C 
BRANCH   8   9
ATOM      9  C   UNL     1      56.025  -1.086  29.034  1.00  0.00    -0.000 C 
BRANCH   9  10
ATOM     10  C   UNL     1      56.379   0.292  28.464  1.00  0.00    -0.000 C 
BRANCH  10  11
ATOM     11  C   UNL     1      57.616   0.873  29.158  1.00  0.00    -0.003 C 
ATOM     12  C   UNL     1      57.554   0.661  30.668  1.00  0.00     0.004 C 
ENDBRANCH  10  11
ENDBRANCH   9  10
ENDBRANCH   8   9
ENDBRANCH   7   8
ENDBRANCH   6   7
ENDBRANCH   5   6
ENDBRANCH   4   5
ENDBRANCH   3   4
ENDBRANCH   2   3
ENDBRANCH   1   2
BRANCH   1  13
ATOM     13  C   UNL     1      59.723  -2.204  30.115  1.00  0.00     0.000 C 
BRANCH  13  14
ATOM     14  C   UNL     1      60.557  -1.869  28.868  1.00  0.00     0.000 C 
BRANCH  14  15
ATOM     15  C   UNL     1      60.857  -3.134  28.051  1.00  0.00     0.000 C 
BRANCH  15  16
ATOM     16  C   UNL     1      62.364  -3.426  27.933  1.00  0.00     0.000 C 
BRANCH  16  17
ATOM     17  C   UNL     1      62.787  -4.156  26.642  1.00  0.00     0.000 C 
BRANCH  17  18
ATOM     18  C   UNL     1      63.738  -5.351  26.851  1.00  0.00     0.000 C 
BRANCH  18  19
ATOM     19  C   UNL     1      63.516  -6.140  28.158  1.00  0.00     0.000 C 
BRANCH  19  20
ATOM     20  C   UNL     1      63.188  -7.632  27.968  1.00  0.00     0.006 C 
BRANCH  20  21
ATOM     21  C   UNL     1      63.140  -8.047  26.492  1.00  0.00     0.053 C 
BRANCH  21  22
ATOM     22  C   UNL     1      64.176  -9.088  26.207  1.00  0.00     0.041 C 
ATOM     23  O   UNL     1      64.152  -9.726  25.122  1.00  0.00    -0.550 OA
ATOM     24  O   UNL     1      65.148  -9.378  27.157  1.00  0.00    -0.550 OA
ENDBRANCH  21  22
ENDBRANCH  20  21
ENDBRANCH  19  20
ENDBRANCH  18  19
ENDBRANCH  17  18
ENDBRANCH  16  17
ENDBRANCH  15  16
ENDBRANCH  14  15
ENDBRANCH  13  14
ENDBRANCH   1  13
TORSDOF 20
ENDMDL
MODEL 9
REMARK VINA RESULT:    -4.067      3.256      8.150
REMARK INTER + INTRA:         -11.844
REMARK INTER:                  -8.554
REMARK INTRA:                  -3.290
REMARK UNBOUND:                -3.021
REMARK SMILES CCCCCCCCCCCCCCCCCCCCCC(=O)[O-]
REMARK SMILES IDX 12 1 11 2 10 3 9 4 8 5 7 6 6 7 5 8 4 9 3 10 2 11 1 12 13 13
REMARK SMILES IDX 14 14 15 15 16 16 17 17 18 18 19 19 20 20 21 21 22 22 23 23
REMARK SMILES IDX 24 24
REMARK H PARENT
REMARK Flexibility Score: inf
ROOT
ATOM      1  C   UNL     1      59.766  -3.483  28.777  1.00  0.00     0.000 C 
ENDROOT
BRANCH   1   2
ATOM      2  C   UNL     1      61.164  -2.970  29.155  1.00  0.00     0.000 C 
BRANCH   2   3
ATOM      3  C   UNL     1      61.803  -2.209  27.982  1.00  0.00     0.000 C 
BRANCH   3   4
ATOM      4  C   UNL     1      62.272  -3.139  26.850  1.00  0.00    -0.000 C 
BRANCH   4   5
ATOM      5  C   UNL     1      63.653  -2.798  26.253  1.00  0.00    -0.000 C 
BRANCH   5   6
ATOM      6  C   UNL     1      64.620  -2.079  27.212  1.00  0.00    -0.000 C 
BRANCH   6   7
ATOM      7  C   UNL     1      65.475  -3.014  28.088  1.00  0.00    -0.000 C 
BRANCH   7   8
ATOM      8  C   UNL     1      64.966  -3.140  29.541  1.00  0.00    -0.000 C 
BRANCH   8   9
ATOM      9  C   UNL     1      64.472  -4.557  29.868  1.00  0.00    -0.000 C 
BRANCH   9  10
ATOM     10  C   UNL     1      64.712  -5.511  28.693  1.00  0.00    -0.000 C 
BRANCH  10  11
ATOM     11  C   UNL     1      63.433  -6.272  28.329  1.00  0.00    -0.003 C 
ATOM     12  C   UNL     1      63.429  -6.676  26.858  1.00  0.00     0.004 C 
ENDBRANCH  10  11
ENDBRANCH   9  10
ENDBRANCH   8   9
ENDBRANCH   7   8
ENDBRANCH   6   7
ENDBRANCH   5   6
ENDBRANCH   4   5
ENDBRANCH   3   4
ENDBRANCH   2   3
ENDBRANCH   1   2
BRANCH   1  13
ATOM     13  C   UNL     1      58.891  -3.786  30.004  1.00  0.00     0.000 C 
BRANCH  13  14
ATOM     14  C   UNL     1      59.469  -3.207  31.304  1.00  0.00     0.000 C 
BRANCH  14  15
ATOM     15  C   UNL     1      58.537  -2.136  31.892  1.00  0.00     0.000 C 
BRANCH  15  16
ATOM     16  C   UNL     1      59.123  -0.716  31.798  1.00  0.00     0.000 C 
BRANCH  16  17
ATOM     17  C   UNL     1      58.305   0.270  30.940  1.00  0.00     0.000 C 
BRANCH  17  18
ATOM     18  C   UNL     1      58.074  -0.171  29.481  1.00  0.00     0.000 C 
BRANCH  18  19
ATOM     19  C   UNL     1      56.839   0.452  28.801  1.00  0.00     0.000 C 
BRANCH  19  20
ATOM     20  C   UNL     1      55.664  -0.517  28.572  1.00  0.00     0.006 C 
BRANCH  20  21
ATOM     21  C   UNL     1      55.873  -1.875  29.252  1.00  0.00     0.053 C 
BRANCH  21  22
ATOM     22  C   UNL     1      54.973  -2.010  30.440  1.00  0.00     0.041 C 
ATOM     23  O   UNL     1      54.093  -1.139  30.670  1.00  0.00    -0.550 OA
ATOM     24  O   UNL     1      55.131  -3.079  31.313  1.00  0.00    -0.550 OA
ENDBRANCH  21  22
ENDBRANCH  20  21
ENDBRANCH  19  20
ENDBRANCH  18  19
ENDBRANCH  17  18
ENDBRANCH  16  17
ENDBRANCH  15  16
ENDBRANCH  14  15
ENDBRANCH  13  14
ENDBRANCH   1  13
TORSDOF 20
ENDMDL
