MODEL 1
REMARK VINA RESULT:    -3.381      0.000      0.000
REMARK INTER + INTRA:          -9.106
REMARK INTER:                  -6.544
REMARK INTRA:                  -2.562
REMARK UNBOUND:                -2.562
REMARK SMILES CCCCCCCCCCCCCCCCCC(=O)[O-]
REMARK SMILES IDX 10 1 11 2 12 3 13 4 14 5 15 6 16 7 17 8 18 9 19 10 20 11
REMARK SMILES IDX 9 12 8 13 7 14 6 15 5 16 4 17 3 18 2 19 1 20
REMARK H PARENT
REMARK Flexibility Score: inf
ROOT
ATOM      1  C   UNL     1      18.428   2.946  43.187  1.00  0.00     0.000 C 
ENDROOT
BRANCH   1   2
ATOM      2  C   UNL     1      17.081   2.205  43.080  1.00  0.00     0.000 C 
BRANCH   2   3
ATOM      3  C   UNL     1      16.665   1.809  41.649  1.00  0.00     0.000 C 
BRANCH   3   4
ATOM      4  C   UNL     1      16.172   2.972  40.769  1.00  0.00     0.000 C 
BRANCH   4   5
ATOM      5  C   UNL     1      15.979   2.569  39.300  1.00  0.00     0.000 C 
BRANCH   5   6
ATOM      6  C   UNL     1      17.116   1.655  38.828  1.00  0.00     0.000 C 
BRANCH   6   7
ATOM      7  C   UNL     1      16.561   0.386  38.162  1.00  0.00     0.006 C 
BRANCH   7   8
ATOM      8  C   UNL     1      15.199   0.628  37.496  1.00  0.00     0.053 C 
BRANCH   8   9
ATOM      9  C   UNL     1      15.317   0.720  36.006  1.00  0.00     0.041 C 
ATOM     10  O   UNL     1      15.681   1.796  35.465  1.00  0.00    -0.550 OA
ATOM     11  O   UNL     1      14.990  -0.373  35.213  1.00  0.00    -0.550 OA
ENDBRANCH   8   9
ENDBRANCH   7   8
ENDBRANCH   6   7
ENDBRANCH   5   6
ENDBRANCH   4   5
ENDBRANCH   3   4
ENDBRANCH   2   3
ENDBRANCH   1   2
BRANCH   1  12
ATOM     12  C   UNL     1      19.626   2.061  43.582  1.00  0.00     0.000 C 
BRANCH  12  13
ATOM     13  C   UNL     1      20.756   1.988  42.536  1.00  0.00    -0.000 C 
BRANCH  13  14
ATOM     14  C   UNL     1      20.288   1.787  41.084  1.00  0.00    -0.000 C 
BRANCH  14  15
ATOM     15  C   UNL     1      21.235   0.893  40.269  1.00  0.00    -0.000 C 
BRANCH  15  16
ATOM     16  C   UNL     1      20.473  -0.284  39.642  1.00  0.00    -0.000 C 
BRANCH  16  17
ATOM     17  C   UNL     1      19.282  -0.745  40.498  1.00  0.00    -0.000 C 
BRANCH  17  18
ATOM     18  C   UNL     1      19.610  -1.985  41.348  1.00  0.00    -0.000 C 
BRANCH  18  19
ATOM     19  C   UNL     1      19.840  -1.639  42.828  1.00  0.00    -0.003 C 
ATOM     20  C   UNL     1      18.537  -1.426  43.597  1.00  0.00     0.004 C 
ENDBRANCH  18  19
ENDBRANCH  17  18
ENDBRANCH  16  17
ENDBRANCH  15  16
ENDBRANCH  14  15
ENDBRANCH  13  14
ENDBRANCH  12  13
ENDBRANCH   1  12
TORSDOF 16
ENDMDL
MODEL 2
REMARK VINA RESULT:    -3.351      1.780      3.102
REMARK INTER + INTRA:          -9.048
REMARK INTER:                  -7.383
REMARK INTRA:                  -1.665
REMARK UNBOUND:                -2.562
REMARK SMILES CCCCCCCCCCCCCCCCCC(=O)[O-]
REMARK SMILES IDX 10 1 11 2 12 3 13 4 14 5 15 6 16 7 17 8 18 9 19 10 20 11
REMARK SMILES IDX 9 12 8 13 7 14 6 15 5 16 4 17 3 18 2 19 1 20
REMARK H PARENT
REMARK Flexibility Score: inf
ROOT
ATOM      1  C   UNL     1      16.705   2.277  41.099  1.00  0.00     0.000 C 
ENDROOT
BRANCH   1   2
ATOM      2  C   UNL     1      15.876   3.268  40.259  1.00  0.00     0.000 C 
BRANCH   2   3
ATOM      3  C   UNL     1      16.408   3.521  38.834  1.00  0.00     0.000 C 
BRANCH   3   4
ATOM      4  C   UNL     1      15.448   3.121  37.700  1.00  0.00     0.000 C 
BRANCH   4   5
ATOM      5  C   UNL     1      14.313   2.201  38.176  1.00  0.00     0.000 C 
BRANCH   5   6
ATOM      6  C   UNL     1      14.317   0.879  37.399  1.00  0.00     0.000 C 
BRANCH   6   7
ATOM      7  C   UNL     1      15.313   0.929  36.231  1.00  0.00     0.006 C 
BRANCH   7   8
ATOM      8  C   UNL     1      15.279  -0.350  35.383  1.00  0.00     0.053 C 
BRANCH   8   9
ATOM      9  C   UNL     1      15.088  -0.048  33.929  1.00  0.00     0.041 C 
ATOM     10  O   UNL     1      16.054   0.361  33.235  1.00  0.00    -0.550 OA
ATOM     11  O   UNL     1      13.833  -0.187  33.348  1.00  0.00    -0.550 OA
ENDBRANCH   8   9
ENDBRANCH   7   8
ENDBRANCH   6   7
ENDBRANCH   5   6
ENDBRANCH   4   5
ENDBRANCH   3   4
ENDBRANCH   2   3
ENDBRANCH   1   2
BRANCH   1  12
ATOM     12  C   UNL     1      18.128   2.011  40.570  1.00  0.00     0.000 C 
BRANCH  12  13
ATOM     13  C   UNL     1      19.244   2.814  41.267  1.00  0.00    -0.000 C 
BRANCH  13  14
ATOM     14  C   UNL     1      20.261   1.968  42.054  1.00  0.00    -0.000 C 
BRANCH  14  15
ATOM     15  C   UNL     1      19.950   0.464  42.008  1.00  0.00    -0.000 C 
BRANCH  15  16
ATOM     16  C   UNL     1      19.439  -0.031  43.368  1.00  0.00    -0.000 C 
BRANCH  16  17
ATOM     17  C   UNL     1      19.253   1.107  44.385  1.00  0.00    -0.000 C 
BRANCH  17  18
ATOM     18  C   UNL     1      17.777   1.499  44.569  1.00  0.00    -0.000 C 
BRANCH  18  19
ATOM     19  C   UNL     1      16.813   0.396  44.106  1.00  0.00    -0.003 C 
ATOM     20  C   UNL     1      15.464   0.447  44.823  1.00  0.00     0.004 C 
ENDBRANCH  18  19
ENDBRANCH  17  18
ENDBRANCH  16  17
ENDBRANCH  15  16
ENDBRANCH  14  15
ENDBRANCH  13  14
ENDBRANCH  12  13
ENDBRANCH   1  12
TORSDOF 16
ENDMDL
MODEL 3
REMARK VINA RESULT:    -3.299      1.428      2.842
REMARK INTER + INTRA:          -8.948
REMARK INTER:                  -6.169
REMARK INTRA:                  -2.778
REMARK UNBOUND:                -2.562
REMARK SMILES CCCCCCCCCCCCCCCCCC(=O)[O-]
REMARK SMILES IDX 10 1 11 2 12 3 13 4 14 5 15 6 16 7 17 8 18 9 19 10 20 11
REMARK SMILES IDX 9 12 8 13 7 14 6 15 5 16 4 17 3 18 2 19 1 20
REMARK H PARENT
REMARK Flexibility Score: inf
ROOT
ATOM      1  C   UNL     1      20.707   1.675  42.317  1.00  0.00     0.000 C 
ENDROOT
BRANCH   1   2
ATOM      2  C   UNL     1      19.540   2.348  43.065  1.00  0.00     0.000 C 
BRANCH   2   3
ATOM      3  C   UNL     1      18.436   1.387  43.552  1.00  0.00     0.000 C 
BRANCH   3   4
ATOM      4  C   UNL     1      17.161   1.369  42.689  1.00  0.00     0.000 C 
BRANCH   4   5
ATOM      5  C   UNL     1      16.711   2.773  42.260  1.00  0.00     0.000 C 
BRANCH   5   6
ATOM      6  C   UNL     1      16.300   2.790  40.783  1.00  0.00     0.000 C 
BRANCH   6   7
ATOM      7  C   UNL     1      16.893   1.587  40.033  1.00  0.00     0.006 C 
BRANCH   7   8
ATOM      8  C   UNL     1      16.888   1.792  38.512  1.00  0.00     0.053 C 
BRANCH   8   9
ATOM      9  C   UNL     1      15.504   1.717  37.945  1.00  0.00     0.041 C 
ATOM     10  O   UNL     1      14.749   0.754  38.242  1.00  0.00    -0.550 OA
ATOM     11  O   UNL     1      15.059   2.692  37.061  1.00  0.00    -0.550 OA
ENDBRANCH   8   9
ENDBRANCH   7   8
ENDBRANCH   6   7
ENDBRANCH   5   6
ENDBRANCH   4   5
ENDBRANCH   3   4
ENDBRANCH   2   3
ENDBRANCH   1   2
BRANCH   1  12
ATOM     12  C   UNL     1      20.504   1.526  40.797  1.00  0.00     0.000 C 
BRANCH  12  13
ATOM     13  C   UNL     1      20.868   0.143  40.222  1.00  0.00    -0.000 C 
BRANCH  13  14
ATOM     14  C   UNL     1      19.668  -0.741  39.841  1.00  0.00    -0.000 C 
BRANCH  14  15
ATOM     15  C   UNL     1      19.172  -1.610  41.008  1.00  0.00    -0.000 C 
BRANCH  15  16
ATOM     16  C   UNL     1      20.345  -2.062  41.890  1.00  0.00    -0.000 C 
BRANCH  16  17
ATOM     17  C   UNL     1      20.026  -1.979  43.392  1.00  0.00    -0.000 C 
BRANCH  17  18
ATOM     18  C   UNL     1      18.539  -2.228  43.695  1.00  0.00    -0.000 C 
BRANCH  18  19
ATOM     19  C   UNL     1      18.241  -3.703  44.009  1.00  0.00    -0.003 C 
ATOM     20  C   UNL     1      17.479  -4.406  42.887  1.00  0.00     0.004 C 
ENDBRANCH  18  19
ENDBRANCH  17  18
ENDBRANCH  16  17
ENDBRANCH  15  16
ENDBRANCH  14  15
ENDBRANCH  13  14
ENDBRANCH  12  13
ENDBRANCH   1  12
TORSDOF 16
ENDMDL
MODEL 4
REMARK VINA RESULT:    -3.255      1.608      2.183
REMARK INTER + INTRA:          -8.862
REMARK INTER:                  -6.651
REMARK INTRA:                  -2.211
REMARK UNBOUND:                -2.562
REMARK SMILES CCCCCCCCCCCCCCCCCC(=O)[O-]
REMARK SMILES IDX 10 1 11 2 12 3 13 4 14 5 15 6 16 7 17 8 18 9 19 10 20 11
REMARK SMILES IDX 9 12 8 13 7 14 6 15 5 16 4 17 3 18 2 19 1 20
REMARK H PARENT
REMARK Flexibility Score: inf
ROOT
ATOM      1  C   UNL     1      16.899   2.318  44.115  1.00  0.00     0.000 C 
ENDROOT
BRANCH   1   2
ATOM      2  C   UNL     1      16.278   3.662  44.540  1.00  0.00     0.000 C 
BRANCH   2   3
ATOM      3  C   UNL     1      15.881   4.596  43.378  1.00  0.00     0.000 C 
BRANCH   3   4
ATOM      4  C   UNL     1      16.817   4.547  42.157  1.00  0.00     0.000 C 
BRANCH   4   5
ATOM      5  C   UNL     1      16.099   4.112  40.871  1.00  0.00     0.000 C 
BRANCH   5   6
ATOM      6  C   UNL     1      16.436   2.658  40.519  1.00  0.00     0.000 C 
BRANCH   6   7
ATOM      7  C   UNL     1      16.328   2.420  39.005  1.00  0.00     0.006 C 
BRANCH   7   8
ATOM      8  C   UNL     1      14.877   2.479  38.510  1.00  0.00     0.053 C 
BRANCH   8   9
ATOM      9  C   UNL     1      14.387   1.138  38.059  1.00  0.00     0.041 C 
ATOM     10  O   UNL     1      15.172   0.337  37.487  1.00  0.00    -0.550 OA
ATOM     11  O   UNL     1      13.055   0.786  38.239  1.00  0.00    -0.550 OA
ENDBRANCH   8   9
ENDBRANCH   7   8
ENDBRANCH   6   7
ENDBRANCH   5   6
ENDBRANCH   4   5
ENDBRANCH   3   4
ENDBRANCH   2   3
ENDBRANCH   1   2
BRANCH   1  12
ATOM     12  C   UNL     1      18.031   1.808  45.028  1.00  0.00     0.000 C 
BRANCH  12  13
ATOM     13  C   UNL     1      19.456   2.003  44.473  1.00  0.00    -0.000 C 
BRANCH  13  14
ATOM     14  C   UNL     1      19.527   2.417  42.992  1.00  0.00    -0.000 C 
BRANCH  14  15
ATOM     15  C   UNL     1      20.767   1.861  42.276  1.00  0.00    -0.000 C 
BRANCH  15  16
ATOM     16  C   UNL     1      20.368   1.102  41.002  1.00  0.00    -0.000 C 
BRANCH  16  17
ATOM     17  C   UNL     1      19.123   0.221  41.198  1.00  0.00    -0.000 C 
BRANCH  17  18
ATOM     18  C   UNL     1      19.457  -1.280  41.202  1.00  0.00    -0.000 C 
BRANCH  18  19
ATOM     19  C   UNL     1      19.945  -1.771  42.574  1.00  0.00    -0.003 C 
ATOM     20  C   UNL     1      18.892  -1.608  43.671  1.00  0.00     0.004 C 
ENDBRANCH  18  19
ENDBRANCH  17  18
ENDBRANCH  16  17
ENDBRANCH  15  16
ENDBRANCH  14  15
ENDBRANCH  13  14
ENDBRANCH  12  13
ENDBRANCH   1  12
TORSDOF 16
ENDMDL
MODEL 5
REMARK VINA RESULT:    -3.246      2.127      3.808
REMARK INTER + INTRA:          -8.843
REMARK INTER:                  -5.708
REMARK INTRA:                  -3.135
REMARK UNBOUND:                -2.562
REMARK SMILES CCCCCCCCCCCCCCCCCC(=O)[O-]
REMARK SMILES IDX 10 1 11 2 12 3 13 4 14 5 15 6 16 7 17 8 18 9 19 10 20 11
REMARK SMILES IDX 9 12 8 13 7 14 6 15 5 16 4 17 3 18 2 19 1 20
REMARK H PARENT
REMARK Flexibility Score: inf
ROOT
ATOM      1  C   UNL     1      19.371   3.485  38.351  1.00  0.00     0.000 C 
ENDROOT
BRANCH   1   2
ATOM      2  C   UNL     1      19.061   4.667  39.291  1.00  0.00     0.000 C 
BRANCH   2   3
ATOM      3  C   UNL     1      18.744   4.277  40.749  1.00  0.00     0.000 C 
BRANCH   3   4
ATOM      4  C   UNL     1      17.435   4.861  41.309  1.00  0.00     0.000 C 
BRANCH   4   5
ATOM      5  C   UNL     1      16.302   3.827  41.380  1.00  0.00     0.000 C 
BRANCH   5   6
ATOM      6  C   UNL     1      16.833   2.413  41.117  1.00  0.00     0.000 C 
BRANCH   6   7
ATOM      7  C   UNL     1      16.082   1.752  39.950  1.00  0.00     0.006 C 
BRANCH   7   8
ATOM      8  C   UNL     1      15.614   2.776  38.908  1.00  0.00     0.053 C 
BRANCH   8   9
ATOM      9  C   UNL     1      14.277   2.416  38.336  1.00  0.00     0.041 C 
ATOM     10  O   UNL     1      13.455   3.320  38.031  1.00  0.00    -0.550 OA
ATOM     11  O   UNL     1      13.925   1.082  38.171  1.00  0.00    -0.550 OA
ENDBRANCH   8   9
ENDBRANCH   7   8
ENDBRANCH   6   7
ENDBRANCH   5   6
ENDBRANCH   4   5
ENDBRANCH   3   4
ENDBRANCH   2   3
ENDBRANCH   1   2
BRANCH   1  12
ATOM     12  C   UNL     1      20.234   2.371  38.975  1.00  0.00     0.000 C 
BRANCH  12  13
ATOM     13  C   UNL     1      19.569   0.980  39.023  1.00  0.00    -0.000 C 
BRANCH  13  14
ATOM     14  C   UNL     1      19.623   0.279  40.392  1.00  0.00    -0.000 C 
BRANCH  14  15
ATOM     15  C   UNL     1      20.486   1.032  41.415  1.00  0.00    -0.000 C 
BRANCH  15  16
ATOM     16  C   UNL     1      19.962   0.812  42.841  1.00  0.00    -0.000 C 
BRANCH  16  17
ATOM     17  C   UNL     1      19.723   2.129  43.598  1.00  0.00    -0.000 C 
BRANCH  17  18
ATOM     18  C   UNL     1      18.446   2.093  44.455  1.00  0.00    -0.000 C 
BRANCH  18  19
ATOM     19  C   UNL     1      18.044   3.485  44.969  1.00  0.00    -0.003 C 
ATOM     20  C   UNL     1      16.529   3.674  45.048  1.00  0.00     0.004 C 
ENDBRANCH  18  19
ENDBRANCH  17  18
ENDBRANCH  16  17
ENDBRANCH  15  16
ENDBRANCH  14  15
ENDBRANCH  13  14
ENDBRANCH  12  13
ENDBRANCH   1  12
TORSDOF 16
ENDMDL
MODEL 6
REMARK VINA RESULT:    -3.244      1.523      2.711
REMARK INTER + INTRA:          -8.840
REMARK INTER:                  -6.251
REMARK INTRA:                  -2.590
REMARK UNBOUND:                -2.562
REMARK SMILES CCCCCCCCCCCCCCCCCC(=O)[O-]
REMARK SMILES IDX 10 1 11 2 12 3 13 4 14 5 15 6 16 7 17 8 18 9 19 10 20 11
REMARK SMILES IDX 9 12 8 13 7 14 6 15 5 16 4 17 3 18 2 19 1 20
REMARK H PARENT
REMARK Flexibility Score: inf
ROOT
ATOM      1  C   UNL     1      17.169   2.017  42.352  1.00  0.00     0.000 C 
ENDROOT
BRANCH   1   2
ATOM      2  C   UNL     1      16.377   1.716  41.065  1.00  0.00     0.000 C 
BRANCH   2   3
ATOM      3  C   UNL     1      16.612   2.709  39.907  1.00  0.00     0.000 C 
BRANCH   3   4
ATOM      4  C   UNL     1      15.361   3.479  39.447  1.00  0.00     0.000 C 
BRANCH   4   5
ATOM      5  C   UNL     1      14.865   3.039  38.062  1.00  0.00     0.000 C 
BRANCH   5   6
ATOM      6  C   UNL     1      14.093   1.717  38.150  1.00  0.00     0.000 C 
BRANCH   6   7
ATOM      7  C   UNL     1      14.776   0.624  37.314  1.00  0.00     0.006 C 
BRANCH   7   8
ATOM      8  C   UNL     1      15.332   1.168  35.991  1.00  0.00     0.053 C 
BRANCH   8   9
ATOM      9  C   UNL     1      15.387   0.109  34.933  1.00  0.00     0.041 C 
ATOM     10  O   UNL     1      14.402  -0.076  34.171  1.00  0.00    -0.550 OA
ATOM     11  O   UNL     1      16.512  -0.697  34.812  1.00  0.00    -0.550 OA
ENDBRANCH   8   9
ENDBRANCH   7   8
ENDBRANCH   6   7
ENDBRANCH   5   6
ENDBRANCH   4   5
ENDBRANCH   3   4
ENDBRANCH   2   3
ENDBRANCH   1   2
BRANCH   1  12
ATOM     12  C   UNL     1      18.300   3.050  42.191  1.00  0.00     0.000 C 
BRANCH  12  13
ATOM     13  C   UNL     1      19.727   2.467  42.232  1.00  0.00    -0.000 C 
BRANCH  13  14
ATOM     14  C   UNL     1      19.808   0.965  42.554  1.00  0.00    -0.000 C 
BRANCH  14  15
ATOM     15  C   UNL     1      20.307   0.126  41.367  1.00  0.00    -0.000 C 
BRANCH  15  16
ATOM     16  C   UNL     1      21.104   0.993  40.381  1.00  0.00    -0.000 C 
BRANCH  16  17
ATOM     17  C   UNL     1      20.798   0.658  38.912  1.00  0.00    -0.000 C 
BRANCH  17  18
ATOM     18  C   UNL     1      19.615   1.467  38.356  1.00  0.00    -0.000 C 
BRANCH  18  19
ATOM     19  C   UNL     1      18.590   0.584  37.625  1.00  0.00    -0.003 C 
ATOM     20  C   UNL     1      18.034  -0.534  38.508  1.00  0.00     0.004 C 
ENDBRANCH  18  19
ENDBRANCH  17  18
ENDBRANCH  16  17
ENDBRANCH  15  16
ENDBRANCH  14  15
ENDBRANCH  13  14
ENDBRANCH  12  13
ENDBRANCH   1  12
TORSDOF 16
ENDMDL
MODEL 7
REMARK VINA RESULT:    -3.226      1.655      4.316
REMARK INTER + INTRA:          -8.806
REMARK INTER:                  -6.649
REMARK INTRA:                  -2.157
REMARK UNBOUND:                -2.562
REMARK SMILES CCCCCCCCCCCCCCCCCC(=O)[O-]
REMARK SMILES IDX 10 1 11 2 12 3 13 4 14 5 15 6 16 7 17 8 18 9 19 10 20 11
REMARK SMILES IDX 9 12 8 13 7 14 6 15 5 16 4 17 3 18 2 19 1 20
REMARK H PARENT
REMARK Flexibility Score: inf
ROOT
ATOM      1  C   UNL     1      20.231   0.987  41.952  1.00  0.00     0.000 C 
ENDROOT
BRANCH   1   2
ATOM      2  C   UNL     1      20.186   1.404  40.469  1.00  0.00     0.000 C 
BRANCH   2   3
ATOM      3  C   UNL     1      19.056   2.387  40.101  1.00  0.00     0.000 C 
BRANCH   3   4
ATOM      4  C   UNL     1      17.954   1.804  39.199  1.00  0.00     0.000 C 
BRANCH   4   5
ATOM      5  C   UNL     1      16.851   2.821  38.872  1.00  0.00     0.000 C 
BRANCH   5   6
ATOM      6  C   UNL     1      15.479   2.307  39.326  1.00  0.00     0.000 C 
BRANCH   6   7
ATOM      7  C   UNL     1      14.529   2.145  38.129  1.00  0.00     0.006 C 
BRANCH   7   8
ATOM      8  C   UNL     1      14.503   0.705  37.599  1.00  0.00     0.053 C 
BRANCH   8   9
ATOM      9  C   UNL     1      15.210   0.583  36.285  1.00  0.00     0.041 C 
ATOM     10  O   UNL     1      15.391  -0.549  35.765  1.00  0.00    -0.550 OA
ATOM     11  O   UNL     1      15.701   1.717  35.650  1.00  0.00    -0.550 OA
ENDBRANCH   8   9
ENDBRANCH   7   8
ENDBRANCH   6   7
ENDBRANCH   5   6
ENDBRANCH   4   5
ENDBRANCH   3   4
ENDBRANCH   2   3
ENDBRANCH   1   2
BRANCH   1  12
ATOM     12  C   UNL     1      20.289   2.157  42.953  1.00  0.00     0.000 C 
BRANCH  12  13
ATOM     13  C   UNL     1      19.723   1.847  44.353  1.00  0.00    -0.000 C 
BRANCH  13  14
ATOM     14  C   UNL     1      18.316   2.407  44.625  1.00  0.00    -0.000 C 
BRANCH  14  15
ATOM     15  C   UNL     1      17.208   1.600  43.932  1.00  0.00    -0.000 C 
BRANCH  15  16
ATOM     16  C   UNL     1      16.614   2.385  42.753  1.00  0.00    -0.000 C 
BRANCH  16  17
ATOM     17  C   UNL     1      16.937   3.887  42.815  1.00  0.00    -0.000 C 
BRANCH  17  18
ATOM     18  C   UNL     1      15.954   4.737  41.992  1.00  0.00    -0.000 C 
BRANCH  18  19
ATOM     19  C   UNL     1      15.063   5.624  42.875  1.00  0.00    -0.003 C 
ATOM     20  C   UNL     1      15.287   5.391  44.369  1.00  0.00     0.004 C 
ENDBRANCH  18  19
ENDBRANCH  17  18
ENDBRANCH  16  17
ENDBRANCH  15  16
ENDBRANCH  14  15
ENDBRANCH  13  14
ENDBRANCH  12  13
ENDBRANCH   1  12
TORSDOF 16
ENDMDL
MODEL 8
REMARK VINA RESULT:    -3.207      2.507      4.697
REMARK INTER + INTRA:          -8.769
REMARK INTER:                  -6.139
REMARK INTRA:                  -2.630
REMARK UNBOUND:                -2.562
REMARK SMILES CCCCCCCCCCCCCCCCCC(=O)[O-]
REMARK SMILES IDX 10 1 11 2 12 3 13 4 14 5 15 6 16 7 17 8 18 9 19 10 20 11
REMARK SMILES IDX 9 12 8 13 7 14 6 15 5 16 4 17 3 18 2 19 1 20
REMARK H PARENT
REMARK Flexibility Score: inf
ROOT
ATOM      1  C   UNL     1      13.903   2.313  38.155  1.00  0.00     0.000 C 
ENDROOT
BRANCH   1   2
ATOM      2  C   UNL     1      14.058   0.795  37.942  1.00  0.00     0.000 C 
BRANCH   2   3
ATOM      3  C   UNL     1      14.720   0.386  36.609  1.00  0.00     0.000 C 
BRANCH   3   4
ATOM      4  C   UNL     1      16.237   0.141  36.686  1.00  0.00     0.000 C 
BRANCH   4   5
ATOM      5  C   UNL     1      17.030   0.984  35.676  1.00  0.00     0.000 C 
BRANCH   5   6
ATOM      6  C   UNL     1      16.192   2.164  35.169  1.00  0.00     0.000 C 
BRANCH   6   7
ATOM      7  C   UNL     1      16.735   3.496  35.708  1.00  0.00     0.006 C 
BRANCH   7   8
ATOM      8  C   UNL     1      15.678   4.609  35.679  1.00  0.00     0.053 C 
BRANCH   8   9
ATOM      9  C   UNL     1      16.183   5.873  36.303  1.00  0.00     0.041 C 
ATOM     10  O   UNL     1      16.080   6.967  35.689  1.00  0.00    -0.550 OA
ATOM     11  O   UNL     1      16.799   5.838  37.548  1.00  0.00    -0.550 OA
ENDBRANCH   8   9
ENDBRANCH   7   8
ENDBRANCH   6   7
ENDBRANCH   5   6
ENDBRANCH   4   5
ENDBRANCH   3   4
ENDBRANCH   2   3
ENDBRANCH   1   2
BRANCH   1  12
ATOM     12  C   UNL     1      15.069   2.984  38.906  1.00  0.00     0.000 C 
BRANCH  12  13
ATOM     13  C   UNL     1      15.912   2.037  39.783  1.00  0.00    -0.000 C 
BRANCH  13  14
ATOM     14  C   UNL     1      17.287   2.588  40.203  1.00  0.00    -0.000 C 
BRANCH  14  15
ATOM     15  C   UNL     1      18.320   2.544  39.067  1.00  0.00    -0.000 C 
BRANCH  15  16
ATOM     16  C   UNL     1      18.929   1.140  38.935  1.00  0.00    -0.000 C 
BRANCH  16  17
ATOM     17  C   UNL     1      19.150   0.457  40.295  1.00  0.00    -0.000 C 
BRANCH  17  18
ATOM     18  C   UNL     1      20.550   0.729  40.872  1.00  0.00    -0.000 C 
BRANCH  18  19
ATOM     19  C   UNL     1      20.523   1.742  42.028  1.00  0.00    -0.003 C 
ATOM     20  C   UNL     1      19.799   1.210  43.265  1.00  0.00     0.004 C 
ENDBRANCH  18  19
ENDBRANCH  17  18
ENDBRANCH  16  17
ENDBRANCH  15  16
ENDBRANCH  14  15
ENDBRANCH  13  14
ENDBRANCH  12  13
ENDBRANCH   1  12
TORSDOF 16
ENDMDL
MODEL 9
REMARK VINA RESULT:    -3.197      1.232      2.799
REMARK INTER + INTRA:          -8.750
REMARK INTER:                  -6.776
REMARK INTRA:                  -1.974
REMARK UNBOUND:                -2.562
REMARK SMILES CCCCCCCCCCCCCCCCCC(=O)[O-]
REMARK SMILES IDX 10 1 11 2 12 3 13 4 14 5 15 6 16 7 17 8 18 9 19 10 20 11
REMARK SMILES IDX 9 12 8 13 7 14 6 15 5 16 4 17 3 18 2 19 1 20
REMARK H PARENT
REMARK Flexibility Score: inf
ROOT
ATOM      1  C   UNL     1      16.964   1.536  41.952  1.00  0.00     0.000 C 
ENDROOT
BRANCH   1   2
ATOM      2  C   UNL     1      16.999   2.897  41.229  1.00  0.00     0.000 C 
BRANCH   2   3
ATOM      3  C   UNL     1      16.854   2.825  39.695  1.00  0.00     0.000 C 
BRANCH   3   4
ATOM      4  C   UNL     1      16.223   1.527  39.161  1.00  0.00     0.000 C 
BRANCH   4   5
ATOM      5  C   UNL     1      14.777   1.720  38.682  1.00  0.00     0.000 C 
BRANCH   5   6
ATOM      6  C   UNL     1      14.393   0.652  37.651  1.00  0.00     0.000 C 
BRANCH   6   7
ATOM      7  C   UNL     1      15.080   0.917  36.302  1.00  0.00     0.006 C 
BRANCH   7   8
ATOM      8  C   UNL     1      15.549  -0.378  35.625  1.00  0.00     0.053 C 
BRANCH   8   9
ATOM      9  C   UNL     1      15.249  -0.380  34.158  1.00  0.00     0.041 C 
ATOM     10  O   UNL     1      14.080  -0.152  33.751  1.00  0.00    -0.550 OA
ATOM     11  O   UNL     1      16.253  -0.666  33.242  1.00  0.00    -0.550 OA
ENDBRANCH   8   9
ENDBRANCH   7   8
ENDBRANCH   6   7
ENDBRANCH   5   6
ENDBRANCH   4   5
ENDBRANCH   3   4
ENDBRANCH   2   3
ENDBRANCH   1   2
BRANCH   1  12
ATOM     12  C   UNL     1      17.059   1.615  43.488  1.00  0.00     0.000 C 
BRANCH  12  13
ATOM     13  C   UNL     1      18.444   2.015  44.036  1.00  0.00    -0.000 C 
BRANCH  13  14
ATOM     14  C   UNL     1      19.630   1.240  43.437  1.00  0.00    -0.000 C 
BRANCH  14  15
ATOM     15  C   UNL     1      19.664  -0.232  43.873  1.00  0.00    -0.000 C 
BRANCH  15  16
ATOM     16  C   UNL     1      19.158  -1.148  42.749  1.00  0.00    -0.000 C 
BRANCH  16  17
ATOM     17  C   UNL     1      20.033  -1.078  41.486  1.00  0.00    -0.000 C 
BRANCH  17  18
ATOM     18  C   UNL     1      19.220  -0.747  40.223  1.00  0.00    -0.000 C 
BRANCH  18  19
ATOM     19  C   UNL     1      19.954   0.231  39.291  1.00  0.00    -0.003 C 
ATOM     20  C   UNL     1      20.361   1.527  39.992  1.00  0.00     0.004 C 
ENDBRANCH  18  19
ENDBRANCH  17  18
ENDBRANCH  16  17
ENDBRANCH  15  16
ENDBRANCH  14  15
ENDBRANCH  13  14
ENDBRANCH  12  13
ENDBRANCH   1  12
TORSDOF 16
ENDMDL
