MODEL 1
REMARK VINA RESULT:    -5.252      0.000      0.000
REMARK INTER + INTRA:         -10.479
REMARK INTER:                  -8.937
REMARK INTRA:                  -1.542
REMARK UNBOUND:                -1.542
REMARK SMILES CCCCCCCCCCCCCC(=O)[O-]
REMARK SMILES IDX 8 1 9 2 10 3 11 4 12 5 13 6 14 7 15 8 16 9 7 10 6 11 5 12
REMARK SMILES IDX 4 13 3 14 2 15 1 16
REMARK H PARENT
REMARK Flexibility Score: inf
ROOT
ATOM      1  C   UNL     1     102.819 107.747 230.514  1.00  0.00     0.000 C 
ENDROOT
BRANCH   1   2
ATOM      2  C   UNL     1     102.204 107.064 231.745  1.00  0.00     0.000 C 
BRANCH   2   3
ATOM      3  C   UNL     1     102.991 105.819 232.193  1.00  0.00     0.000 C 
BRANCH   3   4
ATOM      4  C   UNL     1     103.571 105.933 233.619  1.00  0.00     0.000 C 
BRANCH   4   5
ATOM      5  C   UNL     1     105.103 106.059 233.611  1.00  0.00     0.006 C 
BRANCH   5   6
ATOM      6  C   UNL     1     105.745 105.282 232.455  1.00  0.00     0.053 C 
BRANCH   6   7
ATOM      7  C   UNL     1     106.751 104.286 232.947  1.00  0.00     0.041 C 
ATOM      8  O   UNL     1     107.769 104.674 233.579  1.00  0.00    -0.550 OA
ATOM      9  O   UNL     1     106.580 102.933 232.682  1.00  0.00    -0.550 OA
ENDBRANCH   6   7
ENDBRANCH   5   6
ENDBRANCH   4   5
ENDBRANCH   3   4
ENDBRANCH   2   3
ENDBRANCH   1   2
BRANCH   1  10
ATOM     10  C   UNL     1     104.278 108.186 230.738  1.00  0.00     0.000 C 
BRANCH  10  11
ATOM     11  C   UNL     1     105.286 107.673 229.689  1.00  0.00    -0.000 C 
BRANCH  11  12
ATOM     12  C   UNL     1     104.670 107.231 228.347  1.00  0.00    -0.000 C 
BRANCH  12  13
ATOM     13  C   UNL     1     104.948 105.768 227.957  1.00  0.00    -0.000 C 
BRANCH  13  14
ATOM     14  C   UNL     1     103.767 105.112 227.225  1.00  0.00    -0.000 C 
BRANCH  14  15
ATOM     15  C   UNL     1     102.603 104.850 228.187  1.00  0.00    -0.003 C 
ATOM     16  C   UNL     1     101.263 105.181 227.536  1.00  0.00     0.004 C 
ENDBRANCH  14  15
ENDBRANCH  13  14
ENDBRANCH  12  13
ENDBRANCH  11  12
ENDBRANCH  10  11
ENDBRANCH   1  10
TORSDOF 12
ENDMDL
MODEL 2
REMARK VINA RESULT:    -5.109      2.669      5.448
REMARK INTER + INTRA:         -10.235
REMARK INTER:                  -8.460
REMARK INTRA:                  -1.775
REMARK UNBOUND:                -1.542
REMARK SMILES CCCCCCCCCCCCCC(=O)[O-]
REMARK SMILES IDX 8 1 9 2 10 3 11 4 12 5 13 6 14 7 15 8 16 9 7 10 6 11 5 12
REMARK SMILES IDX 4 13 3 14 2 15 1 16
REMARK H PARENT
REMARK Flexibility Score: inf
ROOT
ATOM      1  C   UNL     1     104.718 107.275 228.159  1.00  0.00     0.000 C 
ENDROOT
BRANCH   1   2
ATOM      2  C   UNL     1     105.155 105.890 228.659  1.00  0.00     0.000 C 
BRANCH   2   3
ATOM      3  C   UNL     1     104.117 104.793 228.362  1.00  0.00     0.000 C 
BRANCH   3   4
ATOM      4  C   UNL     1     103.067 105.204 227.309  1.00  0.00     0.000 C 
BRANCH   4   5
ATOM      5  C   UNL     1     101.672 104.644 227.635  1.00  0.00     0.006 C 
BRANCH   5   6
ATOM      6  C   UNL     1     101.061 105.298 228.881  1.00  0.00     0.053 C 
BRANCH   6   7
ATOM      7  C   UNL     1     100.670 104.277 229.906  1.00  0.00     0.041 C 
ATOM      8  O   UNL     1     101.000 103.071 229.757  1.00  0.00    -0.550 OA
ATOM      9  O   UNL     1      99.914 104.652 231.010  1.00  0.00    -0.550 OA
ENDBRANCH   6   7
ENDBRANCH   5   6
ENDBRANCH   4   5
ENDBRANCH   3   4
ENDBRANCH   2   3
ENDBRANCH   1   2
BRANCH   1  10
ATOM     10  C   UNL     1     105.008 108.397 229.172  1.00  0.00     0.000 C 
BRANCH  10  11
ATOM     11  C   UNL     1     104.460 108.157 230.594  1.00  0.00    -0.000 C 
BRANCH  11  12
ATOM     12  C   UNL     1     102.926 108.040 230.695  1.00  0.00    -0.000 C 
BRANCH  12  13
ATOM     13  C   UNL     1     102.421 107.026 231.738  1.00  0.00    -0.000 C 
BRANCH  13  14
ATOM     14  C   UNL     1     103.430 105.901 232.013  1.00  0.00    -0.000 C 
BRANCH  14  15
ATOM     15  C   UNL     1     103.944 105.967 233.455  1.00  0.00    -0.003 C 
ATOM     16  C   UNL     1     105.465 106.081 233.495  1.00  0.00     0.004 C 
ENDBRANCH  14  15
ENDBRANCH  13  14
ENDBRANCH  12  13
ENDBRANCH  11  12
ENDBRANCH  10  11
ENDBRANCH   1  10
TORSDOF 12
ENDMDL
MODEL 3
REMARK VINA RESULT:    -5.094      1.171      3.950
REMARK INTER + INTRA:         -10.209
REMARK INTER:                  -8.432
REMARK INTRA:                  -1.777
REMARK UNBOUND:                -1.542
REMARK SMILES CCCCCCCCCCCCCC(=O)[O-]
REMARK SMILES IDX 8 1 9 2 10 3 11 4 12 5 13 6 14 7 15 8 16 9 7 10 6 11 5 12
REMARK SMILES IDX 4 13 3 14 2 15 1 16
REMARK H PARENT
REMARK Flexibility Score: inf
ROOT
ATOM      1  C   UNL     1     103.871 105.171 227.036  1.00  0.00     0.000 C 
ENDROOT
BRANCH   1   2
ATOM      2  C   UNL     1     104.997 105.217 228.079  1.00  0.00     0.000 C 
BRANCH   2   3
ATOM      3  C   UNL     1     105.183 106.615 228.696  1.00  0.00     0.000 C 
BRANCH   3   4
ATOM      4  C   UNL     1     105.605 106.586 230.180  1.00  0.00     0.000 C 
BRANCH   4   5
ATOM      5  C   UNL     1     105.536 105.169 230.773  1.00  0.00     0.006 C 
BRANCH   5   6
ATOM      6  C   UNL     1     105.577 105.178 232.306  1.00  0.00     0.053 C 
BRANCH   6   7
ATOM      7  C   UNL     1     106.661 104.289 232.836  1.00  0.00     0.041 C 
ATOM      8  O   UNL     1     107.622 104.781 233.486  1.00  0.00    -0.550 OA
ATOM      9  O   UNL     1     106.627 102.923 232.586  1.00  0.00    -0.550 OA
ENDBRANCH   6   7
ENDBRANCH   5   6
ENDBRANCH   4   5
ENDBRANCH   3   4
ENDBRANCH   2   3
ENDBRANCH   1   2
BRANCH   1  10
ATOM     10  C   UNL     1     102.467 105.159 227.668  1.00  0.00     0.000 C 
BRANCH  10  11
ATOM     11  C   UNL     1     102.350 104.378 228.992  1.00  0.00    -0.000 C 
BRANCH  11  12
ATOM     12  C   UNL     1     101.468 105.040 230.070  1.00  0.00    -0.000 C 
BRANCH  12  13
ATOM     13  C   UNL     1     101.624 106.567 230.187  1.00  0.00    -0.000 C 
BRANCH  13  14
ATOM     14  C   UNL     1     102.270 107.000 231.512  1.00  0.00    -0.000 C 
BRANCH  14  15
ATOM     15  C   UNL     1     101.793 106.117 232.669  1.00  0.00    -0.003 C 
ATOM     16  C   UNL     1     100.756 106.840 233.524  1.00  0.00     0.004 C 
ENDBRANCH  14  15
ENDBRANCH  13  14
ENDBRANCH  12  13
ENDBRANCH  11  12
ENDBRANCH  10  11
ENDBRANCH   1  10
TORSDOF 12
ENDMDL
MODEL 4
REMARK VINA RESULT:    -5.056      2.721      4.940
REMARK INTER + INTRA:         -10.146
REMARK INTER:                  -8.087
REMARK INTRA:                  -2.059
REMARK UNBOUND:                -1.542
REMARK SMILES CCCCCCCCCCCCCC(=O)[O-]
REMARK SMILES IDX 8 1 9 2 10 3 11 4 12 5 13 6 14 7 15 8 16 9 7 10 6 11 5 12
REMARK SMILES IDX 4 13 3 14 2 15 1 16
REMARK H PARENT
REMARK Flexibility Score: inf
ROOT
ATOM      1  C   UNL     1     104.971 107.929 229.023  1.00  0.00     0.000 C 
ENDROOT
BRANCH   1   2
ATOM      2  C   UNL     1     104.337 108.117 230.410  1.00  0.00     0.000 C 
BRANCH   2   3
ATOM      3  C   UNL     1     102.823 107.844 230.416  1.00  0.00     0.000 C 
BRANCH   3   4
ATOM      4  C   UNL     1     102.368 106.905 231.553  1.00  0.00     0.000 C 
BRANCH   4   5
ATOM      5  C   UNL     1     101.206 105.995 231.120  1.00  0.00     0.006 C 
BRANCH   5   6
ATOM      6  C   UNL     1     101.116 105.851 229.596  1.00  0.00     0.053 C 
BRANCH   6   7
ATOM      7  C   UNL     1     101.065 104.413 229.177  1.00  0.00     0.041 C 
ATOM      8  O   UNL     1     100.951 103.505 230.042  1.00  0.00    -0.550 OA
ATOM      9  O   UNL     1     101.174 104.075 227.834  1.00  0.00    -0.550 OA
ENDBRANCH   6   7
ENDBRANCH   5   6
ENDBRANCH   4   5
ENDBRANCH   3   4
ENDBRANCH   2   3
ENDBRANCH   1   2
BRANCH   1  10
ATOM     10  C   UNL     1     104.596 106.586 228.370  1.00  0.00     0.000 C 
BRANCH  10  11
ATOM     11  C   UNL     1     105.405 105.368 228.861  1.00  0.00    -0.000 C 
BRANCH  11  12
ATOM     12  C   UNL     1     104.590 104.299 229.616  1.00  0.00    -0.000 C 
BRANCH  12  13
ATOM     13  C   UNL     1     104.935 104.156 231.109  1.00  0.00    -0.000 C 
BRANCH  13  14
ATOM     14  C   UNL     1     106.037 105.125 231.562  1.00  0.00    -0.000 C 
BRANCH  14  15
ATOM     15  C   UNL     1     106.121 105.186 233.090  1.00  0.00    -0.003 C 
ATOM     16  C   UNL     1     105.007 106.052 233.671  1.00  0.00     0.004 C 
ENDBRANCH  14  15
ENDBRANCH  13  14
ENDBRANCH  12  13
ENDBRANCH  11  12
ENDBRANCH  10  11
ENDBRANCH   1  10
TORSDOF 12
ENDMDL
MODEL 5
REMARK VINA RESULT:    -5.051      2.370      3.929
REMARK INTER + INTRA:         -10.136
REMARK INTER:                  -8.491
REMARK INTRA:                  -1.645
REMARK UNBOUND:                -1.542
REMARK SMILES CCCCCCCCCCCCCC(=O)[O-]
REMARK SMILES IDX 8 1 9 2 10 3 11 4 12 5 13 6 14 7 15 8 16 9 7 10 6 11 5 12
REMARK SMILES IDX 4 13 3 14 2 15 1 16
REMARK H PARENT
REMARK Flexibility Score: inf
ROOT
ATOM      1  C   UNL     1     104.824 105.998 233.346  1.00  0.00     0.000 C 
ENDROOT
BRANCH   1   2
ATOM      2  C   UNL     1     106.084 105.157 233.090  1.00  0.00     0.000 C 
BRANCH   2   3
ATOM      3  C   UNL     1     105.999 104.335 231.791  1.00  0.00     0.000 C 
BRANCH   3   4
ATOM      4  C   UNL     1     106.189 102.819 232.005  1.00  0.00     0.000 C 
BRANCH   4   5
ATOM      5  C   UNL     1     105.203 101.989 231.165  1.00  0.00     0.006 C 
BRANCH   5   6
ATOM      6  C   UNL     1     104.443 102.847 230.146  1.00  0.00     0.053 C 
BRANCH   6   7
ATOM      7  C   UNL     1     102.959 102.699 230.295  1.00  0.00     0.041 C 
ATOM      8  O   UNL     1     102.181 103.300 229.508  1.00  0.00    -0.550 OA
ATOM      9  O   UNL     1     102.436 101.925 231.322  1.00  0.00    -0.550 OA
ENDBRANCH   6   7
ENDBRANCH   5   6
ENDBRANCH   4   5
ENDBRANCH   3   4
ENDBRANCH   2   3
ENDBRANCH   1   2
BRANCH   1  10
ATOM     10  C   UNL     1     103.784 105.879 232.217  1.00  0.00     0.000 C 
BRANCH  10  11
ATOM     11  C   UNL     1     103.629 107.133 231.332  1.00  0.00    -0.000 C 
BRANCH  11  12
ATOM     12  C   UNL     1     104.915 107.959 231.132  1.00  0.00    -0.000 C 
BRANCH  12  13
ATOM     13  C   UNL     1     105.734 107.592 229.881  1.00  0.00    -0.000 C 
BRANCH  13  14
ATOM     14  C   UNL     1     104.853 107.316 228.653  1.00  0.00    -0.000 C 
BRANCH  14  15
ATOM     15  C   UNL     1     105.029 105.874 228.165  1.00  0.00    -0.003 C 
ATOM     16  C   UNL     1     103.912 105.476 227.205  1.00  0.00     0.004 C 
ENDBRANCH  14  15
ENDBRANCH  13  14
ENDBRANCH  12  13
ENDBRANCH  11  12
ENDBRANCH  10  11
ENDBRANCH   1  10
TORSDOF 12
ENDMDL
MODEL 6
REMARK VINA RESULT:    -5.019      2.016      3.402
REMARK INTER + INTRA:         -10.083
REMARK INTER:                  -7.858
REMARK INTRA:                  -2.224
REMARK UNBOUND:                -1.542
REMARK SMILES CCCCCCCCCCCCCC(=O)[O-]
REMARK SMILES IDX 8 1 9 2 10 3 11 4 12 5 13 6 14 7 15 8 16 9 7 10 6 11 5 12
REMARK SMILES IDX 4 13 3 14 2 15 1 16
REMARK H PARENT
REMARK Flexibility Score: inf
ROOT
ATOM      1  C   UNL     1     101.448 103.980 228.453  1.00  0.00     0.000 C 
ENDROOT
BRANCH   1   2
ATOM      2  C   UNL     1     101.245 104.409 229.914  1.00  0.00     0.000 C 
BRANCH   2   3
ATOM      3  C   UNL     1     101.090 105.932 230.072  1.00  0.00     0.000 C 
BRANCH   3   4
ATOM      4  C   UNL     1     102.027 106.542 231.136  1.00  0.00     0.000 C 
BRANCH   4   5
ATOM      5  C   UNL     1     102.597 105.474 232.084  1.00  0.00     0.006 C 
BRANCH   5   6
ATOM      6  C   UNL     1     103.381 106.091 233.250  1.00  0.00     0.053 C 
BRANCH   6   7
ATOM      7  C   UNL     1     104.815 106.332 232.887  1.00  0.00     0.041 C 
ATOM      8  O   UNL     1     105.131 107.323 232.178  1.00  0.00    -0.550 OA
ATOM      9  O   UNL     1     105.798 105.444 233.306  1.00  0.00    -0.550 OA
ENDBRANCH   6   7
ENDBRANCH   5   6
ENDBRANCH   4   5
ENDBRANCH   3   4
ENDBRANCH   2   3
ENDBRANCH   1   2
BRANCH   1  10
ATOM     10  C   UNL     1     101.930 105.131 227.551  1.00  0.00     0.000 C 
BRANCH  10  11
ATOM     11  C   UNL     1     103.445 105.149 227.262  1.00  0.00    -0.000 C 
BRANCH  11  12
ATOM     12  C   UNL     1     104.261 106.153 228.100  1.00  0.00    -0.000 C 
BRANCH  12  13
ATOM     13  C   UNL     1     105.170 105.517 229.169  1.00  0.00    -0.000 C 
BRANCH  13  14
ATOM     14  C   UNL     1     105.211 103.984 229.081  1.00  0.00    -0.000 C 
BRANCH  14  15
ATOM     15  C   UNL     1     105.026 103.350 230.463  1.00  0.00    -0.003 C 
ATOM     16  C   UNL     1     104.135 102.113 230.389  1.00  0.00     0.004 C 
ENDBRANCH  14  15
ENDBRANCH  13  14
ENDBRANCH  12  13
ENDBRANCH  11  12
ENDBRANCH  10  11
ENDBRANCH   1  10
TORSDOF 12
ENDMDL
MODEL 7
REMARK VINA RESULT:    -5.012      2.110      3.815
REMARK INTER + INTRA:         -10.071
REMARK INTER:                  -7.775
REMARK INTRA:                  -2.296
REMARK UNBOUND:                -1.542
REMARK SMILES CCCCCCCCCCCCCC(=O)[O-]
REMARK SMILES IDX 8 1 9 2 10 3 11 4 12 5 13 6 14 7 15 8 16 9 7 10 6 11 5 12
REMARK SMILES IDX 4 13 3 14 2 15 1 16
REMARK H PARENT
REMARK Flexibility Score: inf
ROOT
ATOM      1  C   UNL     1     105.697 107.546 229.924  1.00  0.00     0.000 C 
ENDROOT
BRANCH   1   2
ATOM      2  C   UNL     1     104.738 107.291 228.751  1.00  0.00     0.000 C 
BRANCH   2   3
ATOM      3  C   UNL     1     104.875 105.874 228.166  1.00  0.00     0.000 C 
BRANCH   3   4
ATOM      4  C   UNL     1     105.816 104.958 228.976  1.00  0.00     0.000 C 
BRANCH   4   5
ATOM      5  C   UNL     1     105.216 103.558 229.190  1.00  0.00     0.006 C 
BRANCH   5   6
ATOM      6  C   UNL     1     105.290 103.112 230.656  1.00  0.00     0.053 C 
BRANCH   6   7
ATOM      7  C   UNL     1     104.602 101.798 230.870  1.00  0.00     0.041 C 
ATOM      8  O   UNL     1     105.276 100.738 230.964  1.00  0.00    -0.550 OA
ATOM      9  O   UNL     1     103.216 101.739 230.934  1.00  0.00    -0.550 OA
ENDBRANCH   6   7
ENDBRANCH   5   6
ENDBRANCH   4   5
ENDBRANCH   3   4
ENDBRANCH   2   3
ENDBRANCH   1   2
BRANCH   1  10
ATOM     10  C   UNL     1     104.963 107.863 231.240  1.00  0.00     0.000 C 
BRANCH  10  11
ATOM     11  C   UNL     1     104.682 106.646 232.145  1.00  0.00    -0.000 C 
BRANCH  11  12
ATOM     12  C   UNL     1     103.278 106.028 231.998  1.00  0.00    -0.000 C 
BRANCH  12  13
ATOM     13  C   UNL     1     102.219 106.963 231.387  1.00  0.00    -0.000 C 
BRANCH  13  14
ATOM     14  C   UNL     1     101.454 106.316 230.222  1.00  0.00    -0.000 C 
BRANCH  14  15
ATOM     15  C   UNL     1     101.780 104.823 230.113  1.00  0.00    -0.003 C 
ATOM     16  C   UNL     1     101.560 104.311 228.693  1.00  0.00     0.004 C 
ENDBRANCH  14  15
ENDBRANCH  13  14
ENDBRANCH  12  13
ENDBRANCH  11  12
ENDBRANCH  10  11
ENDBRANCH   1  10
TORSDOF 12
ENDMDL
MODEL 8
REMARK VINA RESULT:    -4.998      2.398      4.179
REMARK INTER + INTRA:         -10.047
REMARK INTER:                  -8.308
REMARK INTRA:                  -1.739
REMARK UNBOUND:                -1.542
REMARK SMILES CCCCCCCCCCCCCC(=O)[O-]
REMARK SMILES IDX 8 1 9 2 10 3 11 4 12 5 13 6 14 7 15 8 16 9 7 10 6 11 5 12
REMARK SMILES IDX 4 13 3 14 2 15 1 16
REMARK H PARENT
REMARK Flexibility Score: inf
ROOT
ATOM      1  C   UNL     1     102.142 105.894 233.976  1.00  0.00     0.000 C 
ENDROOT
BRANCH   1   2
ATOM      2  C   UNL     1     101.303 106.757 233.020  1.00  0.00     0.000 C 
BRANCH   2   3
ATOM      3  C   UNL     1     100.473 105.918 232.032  1.00  0.00     0.000 C 
BRANCH   3   4
ATOM      4  C   UNL     1     100.999 105.971 230.582  1.00  0.00     0.000 C 
BRANCH   4   5
ATOM      5  C   UNL     1     100.950 104.594 229.899  1.00  0.00     0.006 C 
BRANCH   5   6
ATOM      6  C   UNL     1     102.293 103.857 229.979  1.00  0.00     0.053 C 
BRANCH   6   7
ATOM      7  C   UNL     1     102.167 102.554 230.708  1.00  0.00     0.041 C 
ATOM      8  O   UNL     1     103.135 102.108 231.379  1.00  0.00    -0.550 OA
ATOM      9  O   UNL     1     100.993 101.818 230.621  1.00  0.00    -0.550 OA
ENDBRANCH   6   7
ENDBRANCH   5   6
ENDBRANCH   4   5
ENDBRANCH   3   4
ENDBRANCH   2   3
ENDBRANCH   1   2
BRANCH   1  10
ATOM     10  C   UNL     1     103.654 106.151 233.844  1.00  0.00     0.000 C 
BRANCH  10  11
ATOM     11  C   UNL     1     104.250 105.862 232.452  1.00  0.00    -0.000 C 
BRANCH  11  12
ATOM     12  C   UNL     1     104.964 107.053 231.783  1.00  0.00    -0.000 C 
BRANCH  12  13
ATOM     13  C   UNL     1     104.129 107.800 230.727  1.00  0.00    -0.000 C 
BRANCH  13  14
ATOM     14  C   UNL     1     104.792 107.810 229.341  1.00  0.00    -0.000 C 
BRANCH  14  15
ATOM     15  C   UNL     1     104.293 106.640 228.487  1.00  0.00    -0.003 C 
ATOM     16  C   UNL     1     105.327 105.519 228.428  1.00  0.00     0.004 C 
ENDBRANCH  14  15
ENDBRANCH  13  14
ENDBRANCH  12  13
ENDBRANCH  11  12
ENDBRANCH  10  11
ENDBRANCH   1  10
TORSDOF 12
ENDMDL
MODEL 9
REMARK VINA RESULT:    -4.974      1.791      4.361
REMARK INTER + INTRA:         -10.006
REMARK INTER:                  -8.069
REMARK INTRA:                  -1.937
REMARK UNBOUND:                -1.542
REMARK SMILES CCCCCCCCCCCCCC(=O)[O-]
REMARK SMILES IDX 8 1 9 2 10 3 11 4 12 5 13 6 14 7 15 8 16 9 7 10 6 11 5 12
REMARK SMILES IDX 4 13 3 14 2 15 1 16
REMARK H PARENT
REMARK Flexibility Score: inf
ROOT
ATOM      1  C   UNL     1     103.125 105.495 226.887  1.00  0.00     0.000 C 
ENDROOT
BRANCH   1   2
ATOM      2  C   UNL     1     104.206 105.703 227.959  1.00  0.00     0.000 C 
BRANCH   2   3
ATOM      3  C   UNL     1     105.387 104.727 227.812  1.00  0.00     0.000 C 
BRANCH   3   4
ATOM      4  C   UNL     1     106.008 104.300 229.159  1.00  0.00     0.000 C 
BRANCH   4   5
ATOM      5  C   UNL     1     105.149 104.742 230.356  1.00  0.00     0.006 C 
BRANCH   5   6
ATOM      6  C   UNL     1     104.500 103.552 231.075  1.00  0.00     0.053 C 
BRANCH   6   7
ATOM      7  C   UNL     1     105.517 102.534 231.492  1.00  0.00     0.041 C 
ATOM      8  O   UNL     1     105.485 101.372 231.010  1.00  0.00    -0.550 OA
ATOM      9  O   UNL     1     106.482 102.861 232.437  1.00  0.00    -0.550 OA
ENDBRANCH   6   7
ENDBRANCH   5   6
ENDBRANCH   4   5
ENDBRANCH   3   4
ENDBRANCH   2   3
ENDBRANCH   1   2
BRANCH   1  10
ATOM     10  C   UNL     1     101.746 105.158 227.484  1.00  0.00     0.000 C 
BRANCH  10  11
ATOM     11  C   UNL     1     101.737 104.000 228.502  1.00  0.00    -0.000 C 
BRANCH  11  12
ATOM     12  C   UNL     1     101.042 104.309 229.843  1.00  0.00    -0.000 C 
BRANCH  12  13
ATOM     13  C   UNL     1     100.818 105.805 230.127  1.00  0.00    -0.000 C 
BRANCH  13  14
ATOM     14  C   UNL     1     101.056 106.174 231.599  1.00  0.00    -0.000 C 
BRANCH  14  15
ATOM     15  C   UNL     1     102.443 106.795 231.792  1.00  0.00    -0.003 C 
ATOM     16  C   UNL     1     102.752 107.807 230.692  1.00  0.00     0.004 C 
ENDBRANCH  14  15
ENDBRANCH  13  14
ENDBRANCH  12  13
ENDBRANCH  11  12
ENDBRANCH  10  11
ENDBRANCH   1  10
TORSDOF 12
ENDMDL
