MODEL 1
REMARK VINA RESULT:    -2.265      0.000      0.000
REMARK INTER + INTRA:          -9.103
REMARK INTER:                  -5.177
REMARK INTRA:                  -3.926
REMARK UNBOUND:                -3.926
REMARK SMILES CCCCCCCCCCCCCCCCCCCCCCCC(=O)[O-]
REMARK SMILES IDX 13 1 14 2 15 3 16 4 17 5 18 6 19 7 20 8 21 9 22 10 23 11
REMARK SMILES IDX 24 12 25 13 26 14 12 15 11 16 10 17 9 18 8 19 7 20 6 21 5 22
REMARK SMILES IDX 4 23 3 24 2 25 1 26
REMARK H PARENT
REMARK Flexibility Score: inf
ROOT
ATOM      1  C   UNL     1      85.349  89.546  77.509  1.00  0.00     0.000 C 
ENDROOT
BRANCH   1   2
ATOM      2  C   UNL     1      84.419  88.420  77.027  1.00  0.00     0.000 C 
BRANCH   2   3
ATOM      3  C   UNL     1      85.177  87.269  76.343  1.00  0.00     0.000 C 
BRANCH   3   4
ATOM      4  C   UNL     1      85.732  87.681  74.963  1.00  0.00     0.000 C 
BRANCH   4   5
ATOM      5  C   UNL     1      86.305  86.504  74.154  1.00  0.00     0.000 C 
BRANCH   5   6
ATOM      6  C   UNL     1      87.798  86.266  74.424  1.00  0.00     0.000 C 
BRANCH   6   7
ATOM      7  C   UNL     1      88.006  84.989  75.248  1.00  0.00     0.000 C 
BRANCH   7   8
ATOM      8  C   UNL     1      88.315  85.319  76.715  1.00  0.00     0.000 C 
BRANCH   8   9
ATOM      9  C   UNL     1      89.123  86.618  76.880  1.00  0.00     0.000 C 
BRANCH   9  10
ATOM     10  C   UNL     1      88.540  87.587  77.930  1.00  0.00     0.006 C 
BRANCH  10  11
ATOM     11  C   UNL     1      89.471  88.773  78.220  1.00  0.00     0.053 C 
BRANCH  11  12
ATOM     12  C   UNL     1      88.913  89.650  79.300  1.00  0.00     0.041 C 
ATOM     13  O   UNL     1      88.452  90.789  79.019  1.00  0.00    -0.550 OA
ATOM     14  O   UNL     1      88.867  89.194  80.612  1.00  0.00    -0.550 OA
ENDBRANCH  11  12
ENDBRANCH  10  11
ENDBRANCH   9  10
ENDBRANCH   8   9
ENDBRANCH   7   8
ENDBRANCH   6   7
ENDBRANCH   5   6
ENDBRANCH   4   5
ENDBRANCH   3   4
ENDBRANCH   2   3
ENDBRANCH   1   2
BRANCH   1  15
ATOM     15  C   UNL     1      84.909  90.951  77.044  1.00  0.00     0.000 C 
BRANCH  15  16
ATOM     16  C   UNL     1      83.403  91.008  76.730  1.00  0.00     0.000 C 
BRANCH  16  17
ATOM     17  C   UNL     1      83.108  91.581  75.327  1.00  0.00     0.000 C 
BRANCH  17  18
ATOM     18  C   UNL     1      84.241  91.357  74.309  1.00  0.00    -0.000 C 
BRANCH  18  19
ATOM     19  C   UNL     1      83.908  90.284  73.263  1.00  0.00    -0.000 C 
BRANCH  19  20
ATOM     20  C   UNL     1      82.465  89.762  73.381  1.00  0.00    -0.000 C 
BRANCH  20  21
ATOM     21  C   UNL     1      82.377  88.234  73.581  1.00  0.00    -0.000 C 
BRANCH  21  22
ATOM     22  C   UNL     1      81.569  87.856  74.835  1.00  0.00    -0.000 C 
BRANCH  22  23
ATOM     23  C   UNL     1      80.485  88.892  75.182  1.00  0.00    -0.000 C 
BRANCH  23  24
ATOM     24  C   UNL     1      79.042  88.351  75.179  1.00  0.00    -0.000 C 
BRANCH  24  25
ATOM     25  C   UNL     1      78.091  89.043  74.187  1.00  0.00    -0.003 C 
ATOM     26  C   UNL     1      78.774  89.432  72.875  1.00  0.00     0.004 C 
ENDBRANCH  24  25
ENDBRANCH  23  24
ENDBRANCH  22  23
ENDBRANCH  21  22
ENDBRANCH  20  21
ENDBRANCH  19  20
ENDBRANCH  18  19
ENDBRANCH  17  18
ENDBRANCH  16  17
ENDBRANCH  15  16
ENDBRANCH   1  15
TORSDOF 22
ENDMDL
MODEL 2
REMARK VINA RESULT:    -2.261      8.599     11.706
REMARK INTER + INTRA:          -9.095
REMARK INTER:                  -5.780
REMARK INTRA:                  -3.315
REMARK UNBOUND:                -3.926
REMARK SMILES CCCCCCCCCCCCCCCCCCCCCCCC(=O)[O-]
REMARK SMILES IDX 13 1 14 2 15 3 16 4 17 5 18 6 19 7 20 8 21 9 22 10 23 11
REMARK SMILES IDX 24 12 25 13 26 14 12 15 11 16 10 17 9 18 8 19 7 20 6 21 5 22
REMARK SMILES IDX 4 23 3 24 2 25 1 26
REMARK H PARENT
REMARK Flexibility Score: inf
ROOT
ATOM      1  C   UNL     1      77.679  88.162  79.650  1.00  0.00     0.000 C 
ENDROOT
BRANCH   1   2
ATOM      2  C   UNL     1      78.011  89.353  80.564  1.00  0.00     0.000 C 
BRANCH   2   3
ATOM      3  C   UNL     1      76.758  90.096  81.058  1.00  0.00     0.000 C 
BRANCH   3   4
ATOM      4  C   UNL     1      76.669  91.526  80.482  1.00  0.00     0.000 C 
BRANCH   4   5
ATOM      5  C   UNL     1      75.341  91.818  79.763  1.00  0.00     0.000 C 
BRANCH   5   6
ATOM      6  C   UNL     1      74.275  90.742  80.017  1.00  0.00     0.000 C 
BRANCH   6   7
ATOM      7  C   UNL     1      72.957  91.377  80.477  1.00  0.00     0.000 C 
BRANCH   7   8
ATOM      8  C   UNL     1      72.001  90.320  81.048  1.00  0.00     0.000 C 
BRANCH   8   9
ATOM      9  C   UNL     1      72.398  89.852  82.459  1.00  0.00     0.000 C 
BRANCH   9  10
ATOM     10  C   UNL     1      72.565  88.323  82.585  1.00  0.00     0.006 C 
BRANCH  10  11
ATOM     11  C   UNL     1      72.388  87.598  81.243  1.00  0.00     0.053 C 
BRANCH  11  12
ATOM     12  C   UNL     1      73.627  86.844  80.868  1.00  0.00     0.041 C 
ATOM     13  O   UNL     1      74.278  87.163  79.836  1.00  0.00    -0.550 OA
ATOM     14  O   UNL     1      74.086  85.811  81.677  1.00  0.00    -0.550 OA
ENDBRANCH  11  12
ENDBRANCH  10  11
ENDBRANCH   9  10
ENDBRANCH   8   9
ENDBRANCH   7   8
ENDBRANCH   6   7
ENDBRANCH   5   6
ENDBRANCH   4   5
ENDBRANCH   3   4
ENDBRANCH   2   3
ENDBRANCH   1   2
BRANCH   1  15
ATOM     15  C   UNL     1      77.062  88.575  78.297  1.00  0.00     0.000 C 
BRANCH  15  16
ATOM     16  C   UNL     1      78.088  89.268  77.383  1.00  0.00     0.000 C 
BRANCH  16  17
ATOM     17  C   UNL     1      77.439  90.288  76.422  1.00  0.00     0.000 C 
BRANCH  17  18
ATOM     18  C   UNL     1      75.908  90.389  76.559  1.00  0.00    -0.000 C 
BRANCH  18  19
ATOM     19  C   UNL     1      75.202  90.676  75.226  1.00  0.00    -0.000 C 
BRANCH  19  20
ATOM     20  C   UNL     1      75.810  89.895  74.047  1.00  0.00    -0.000 C 
BRANCH  20  21
ATOM     21  C   UNL     1      74.900  88.765  73.522  1.00  0.00    -0.000 C 
BRANCH  21  22
ATOM     22  C   UNL     1      75.460  87.368  73.845  1.00  0.00    -0.000 C 
BRANCH  22  23
ATOM     23  C   UNL     1      75.270  86.975  75.320  1.00  0.00    -0.000 C 
BRANCH  23  24
ATOM     24  C   UNL     1      74.116  85.989  75.588  1.00  0.00    -0.000 C 
BRANCH  24  25
ATOM     25  C   UNL     1      74.242  85.180  76.890  1.00  0.00    -0.003 C 
ATOM     26  C   UNL     1      72.898  84.951  77.585  1.00  0.00     0.004 C 
ENDBRANCH  24  25
ENDBRANCH  23  24
ENDBRANCH  22  23
ENDBRANCH  21  22
ENDBRANCH  20  21
ENDBRANCH  19  20
ENDBRANCH  18  19
ENDBRANCH  17  18
ENDBRANCH  16  17
ENDBRANCH  15  16
ENDBRANCH   1  15
TORSDOF 22
ENDMDL
MODEL 3
REMARK VINA RESULT:    -2.243      1.367      2.115
REMARK INTER + INTRA:          -9.053
REMARK INTER:                  -5.046
REMARK INTRA:                  -4.008
REMARK UNBOUND:                -3.926
REMARK SMILES CCCCCCCCCCCCCCCCCCCCCCCC(=O)[O-]
REMARK SMILES IDX 13 1 14 2 15 3 16 4 17 5 18 6 19 7 20 8 21 9 22 10 23 11
REMARK SMILES IDX 24 12 25 13 26 14 12 15 11 16 10 17 9 18 8 19 7 20 6 21 5 22
REMARK SMILES IDX 4 23 3 24 2 25 1 26
REMARK H PARENT
REMARK Flexibility Score: inf
ROOT
ATOM      1  C   UNL     1      85.333  89.227  77.825  1.00  0.00     0.000 C 
ENDROOT
BRANCH   1   2
ATOM      2  C   UNL     1      84.218  88.251  77.415  1.00  0.00     0.000 C 
BRANCH   2   3
ATOM      3  C   UNL     1      84.733  87.074  76.569  1.00  0.00     0.000 C 
BRANCH   3   4
ATOM      4  C   UNL     1      85.458  87.554  75.293  1.00  0.00     0.000 C 
BRANCH   4   5
ATOM      5  C   UNL     1      86.836  86.901  75.087  1.00  0.00     0.000 C 
BRANCH   5   6
ATOM      6  C   UNL     1      87.279  86.050  76.286  1.00  0.00     0.000 C 
BRANCH   6   7
ATOM      7  C   UNL     1      88.698  86.430  76.729  1.00  0.00     0.000 C 
BRANCH   7   8
ATOM      8  C   UNL     1      88.670  87.547  77.783  1.00  0.00     0.000 C 
BRANCH   8   9
ATOM      9  C   UNL     1      90.001  88.313  77.881  1.00  0.00     0.000 C 
BRANCH   9  10
ATOM     10  C   UNL     1      89.999  89.436  78.938  1.00  0.00     0.006 C 
BRANCH  10  11
ATOM     11  C   UNL     1      88.580  89.880  79.324  1.00  0.00     0.053 C 
BRANCH  11  12
ATOM     12  C   UNL     1      88.424  91.365  79.202  1.00  0.00     0.041 C 
ATOM     13  O   UNL     1      89.230  92.033  78.499  1.00  0.00    -0.550 OA
ATOM     14  O   UNL     1      87.367  92.009  79.833  1.00  0.00    -0.550 OA
ENDBRANCH  11  12
ENDBRANCH  10  11
ENDBRANCH   9  10
ENDBRANCH   8   9
ENDBRANCH   7   8
ENDBRANCH   6   7
ENDBRANCH   5   6
ENDBRANCH   4   5
ENDBRANCH   3   4
ENDBRANCH   2   3
ENDBRANCH   1   2
BRANCH   1  15
ATOM     15  C   UNL     1      85.070  90.684  77.386  1.00  0.00     0.000 C 
BRANCH  15  16
ATOM     16  C   UNL     1      83.580  90.938  77.100  1.00  0.00     0.000 C 
BRANCH  16  17
ATOM     17  C   UNL     1      83.335  91.550  75.704  1.00  0.00     0.000 C 
BRANCH  17  18
ATOM     18  C   UNL     1      84.430  91.213  74.674  1.00  0.00    -0.000 C 
BRANCH  18  19
ATOM     19  C   UNL     1      83.903  90.413  73.475  1.00  0.00    -0.000 C 
BRANCH  19  20
ATOM     20  C   UNL     1      82.369  90.457  73.355  1.00  0.00    -0.000 C 
BRANCH  20  21
ATOM     21  C   UNL     1      81.719  89.062  73.239  1.00  0.00    -0.000 C 
BRANCH  21  22
ATOM     22  C   UNL     1      81.853  88.247  74.537  1.00  0.00    -0.000 C 
BRANCH  22  23
ATOM     23  C   UNL     1      80.906  88.733  75.648  1.00  0.00    -0.000 C 
BRANCH  23  24
ATOM     24  C   UNL     1      80.636  87.709  76.768  1.00  0.00    -0.000 C 
BRANCH  24  25
ATOM     25  C   UNL     1      79.958  88.283  78.024  1.00  0.00    -0.003 C 
ATOM     26  C   UNL     1      80.909  89.107  78.893  1.00  0.00     0.004 C 
ENDBRANCH  24  25
ENDBRANCH  23  24
ENDBRANCH  22  23
ENDBRANCH  21  22
ENDBRANCH  20  21
ENDBRANCH  19  20
ENDBRANCH  18  19
ENDBRANCH  17  18
ENDBRANCH  16  17
ENDBRANCH  15  16
ENDBRANCH   1  15
TORSDOF 22
ENDMDL
MODEL 4
REMARK VINA RESULT:    -2.223     13.954     16.641
REMARK INTER + INTRA:          -9.007
REMARK INTER:                  -4.639
REMARK INTRA:                  -4.369
REMARK UNBOUND:                -3.926
REMARK SMILES CCCCCCCCCCCCCCCCCCCCCCCC(=O)[O-]
REMARK SMILES IDX 13 1 14 2 15 3 16 4 17 5 18 6 19 7 20 8 21 9 22 10 23 11
REMARK SMILES IDX 24 12 25 13 26 14 12 15 11 16 10 17 9 18 8 19 7 20 6 21 5 22
REMARK SMILES IDX 4 23 3 24 2 25 1 26
REMARK H PARENT
REMARK Flexibility Score: inf
ROOT
ATOM      1  C   UNL     1      76.048  77.184  77.496  1.00  0.00     0.000 C 
ENDROOT
BRANCH   1   2
ATOM      2  C   UNL     1      75.620  77.397  78.958  1.00  0.00     0.000 C 
BRANCH   2   3
ATOM      3  C   UNL     1      76.051  76.246  79.882  1.00  0.00     0.000 C 
BRANCH   3   4
ATOM      4  C   UNL     1      76.939  75.217  79.148  1.00  0.00     0.000 C 
BRANCH   4   5
ATOM      5  C   UNL     1      76.953  73.831  79.815  1.00  0.00     0.000 C 
BRANCH   5   6
ATOM      6  C   UNL     1      76.967  72.679  78.798  1.00  0.00     0.000 C 
BRANCH   6   7
ATOM      7  C   UNL     1      76.967  73.219  77.363  1.00  0.00     0.000 C 
BRANCH   7   8
ATOM      8  C   UNL     1      75.682  72.823  76.621  1.00  0.00     0.000 C 
BRANCH   8   9
ATOM      9  C   UNL     1      74.786  71.875  77.437  1.00  0.00     0.000 C 
BRANCH   9  10
ATOM     10  C   UNL     1      73.378  72.439  77.723  1.00  0.00     0.006 C 
BRANCH  10  11
ATOM     11  C   UNL     1      73.421  73.834  78.363  1.00  0.00     0.053 C 
BRANCH  11  12
ATOM     12  C   UNL     1      73.206  73.758  79.844  1.00  0.00     0.041 C 
ATOM     13  O   UNL     1      73.400  72.675  80.460  1.00  0.00    -0.550 OA
ATOM     14  O   UNL     1      72.829  74.893  80.552  1.00  0.00    -0.550 OA
ENDBRANCH  11  12
ENDBRANCH  10  11
ENDBRANCH   9  10
ENDBRANCH   8   9
ENDBRANCH   7   8
ENDBRANCH   6   7
ENDBRANCH   5   6
ENDBRANCH   4   5
ENDBRANCH   3   4
ENDBRANCH   2   3
ENDBRANCH   1   2
BRANCH   1  15
ATOM     15  C   UNL     1      74.861  77.018  76.523  1.00  0.00     0.000 C 
BRANCH  15  16
ATOM     16  C   UNL     1      73.520  77.384  77.183  1.00  0.00     0.000 C 
BRANCH  16  17
ATOM     17  C   UNL     1      72.365  77.501  76.165  1.00  0.00     0.000 C 
BRANCH  17  18
ATOM     18  C   UNL     1      72.197  78.910  75.569  1.00  0.00    -0.000 C 
BRANCH  18  19
ATOM     19  C   UNL     1      72.320  78.936  74.039  1.00  0.00    -0.000 C 
BRANCH  19  20
ATOM     20  C   UNL     1      73.579  79.677  73.553  1.00  0.00    -0.000 C 
BRANCH  20  21
ATOM     21  C   UNL     1      74.768  78.740  73.253  1.00  0.00    -0.000 C 
BRANCH  21  22
ATOM     22  C   UNL     1      76.066  79.211  73.932  1.00  0.00    -0.000 C 
BRANCH  22  23
ATOM     23  C   UNL     1      75.947  80.622  74.535  1.00  0.00    -0.000 C 
BRANCH  23  24
ATOM     24  C   UNL     1      76.286  80.719  76.036  1.00  0.00    -0.000 C 
BRANCH  24  25
ATOM     25  C   UNL     1      75.069  80.746  76.976  1.00  0.00    -0.003 C 
ATOM     26  C   UNL     1      74.128  81.921  76.704  1.00  0.00     0.004 C 
ENDBRANCH  24  25
ENDBRANCH  23  24
ENDBRANCH  22  23
ENDBRANCH  21  22
ENDBRANCH  20  21
ENDBRANCH  19  20
ENDBRANCH  18  19
ENDBRANCH  17  18
ENDBRANCH  16  17
ENDBRANCH  15  16
ENDBRANCH   1  15
TORSDOF 22
ENDMDL
MODEL 5
REMARK VINA RESULT:    -2.220     15.659     18.046
REMARK INTER + INTRA:          -9.001
REMARK INTER:                  -4.396
REMARK INTRA:                  -4.605
REMARK UNBOUND:                -3.926
REMARK SMILES CCCCCCCCCCCCCCCCCCCCCCCC(=O)[O-]
REMARK SMILES IDX 13 1 14 2 15 3 16 4 17 5 18 6 19 7 20 8 21 9 22 10 23 11
REMARK SMILES IDX 24 12 25 13 26 14 12 15 11 16 10 17 9 18 8 19 7 20 6 21 5 22
REMARK SMILES IDX 4 23 3 24 2 25 1 26
REMARK H PARENT
REMARK Flexibility Score: inf
ROOT
ATOM      1  C   UNL     1      73.725  87.032  88.632  1.00  0.00     0.000 C 
ENDROOT
BRANCH   1   2
ATOM      2  C   UNL     1      74.109  87.716  89.956  1.00  0.00     0.000 C 
BRANCH   2   3
ATOM      3  C   UNL     1      72.965  87.714  90.985  1.00  0.00     0.000 C 
BRANCH   3   4
ATOM      4  C   UNL     1      73.447  88.152  92.384  1.00  0.00     0.000 C 
BRANCH   4   5
ATOM      5  C   UNL     1      74.118  89.537  92.398  1.00  0.00     0.000 C 
BRANCH   5   6
ATOM      6  C   UNL     1      75.555  89.499  92.939  1.00  0.00     0.000 C 
BRANCH   6   7
ATOM      7  C   UNL     1      76.519  90.207  91.978  1.00  0.00     0.000 C 
BRANCH   7   8
ATOM      8  C   UNL     1      77.500  89.211  91.343  1.00  0.00     0.000 C 
BRANCH   8   9
ATOM      9  C   UNL     1      77.340  89.101  89.816  1.00  0.00     0.000 C 
BRANCH   9  10
ATOM     10  C   UNL     1      77.934  87.810  89.217  1.00  0.00     0.006 C 
BRANCH  10  11
ATOM     11  C   UNL     1      79.462  87.873  89.076  1.00  0.00     0.053 C 
BRANCH  11  12
ATOM     12  C   UNL     1      79.863  88.218  87.674  1.00  0.00     0.041 C 
ATOM     13  O   UNL     1      80.817  89.015  87.464  1.00  0.00    -0.550 OA
ATOM     14  O   UNL     1      79.209  87.631  86.599  1.00  0.00    -0.550 OA
ENDBRANCH  11  12
ENDBRANCH  10  11
ENDBRANCH   9  10
ENDBRANCH   8   9
ENDBRANCH   7   8
ENDBRANCH   6   7
ENDBRANCH   5   6
ENDBRANCH   4   5
ENDBRANCH   3   4
ENDBRANCH   2   3
ENDBRANCH   1   2
BRANCH   1  15
ATOM     15  C   UNL     1      74.518  85.737  88.354  1.00  0.00     0.000 C 
BRANCH  15  16
ATOM     16  C   UNL     1      73.783  84.489  88.874  1.00  0.00     0.000 C 
BRANCH  16  17
ATOM     17  C   UNL     1      74.741  83.322  89.194  1.00  0.00     0.000 C 
BRANCH  17  18
ATOM     18  C   UNL     1      75.324  83.364  90.619  1.00  0.00    -0.000 C 
BRANCH  18  19
ATOM     19  C   UNL     1      74.416  84.093  91.619  1.00  0.00    -0.000 C 
BRANCH  19  20
ATOM     20  C   UNL     1      75.204  84.943  92.632  1.00  0.00    -0.000 C 
BRANCH  20  21
ATOM     21  C   UNL     1      76.329  85.782  91.989  1.00  0.00    -0.000 C 
BRANCH  21  22
ATOM     22  C   UNL     1      77.586  85.847  92.874  1.00  0.00    -0.000 C 
BRANCH  22  23
ATOM     23  C   UNL     1      78.887  85.646  92.078  1.00  0.00    -0.000 C 
BRANCH  23  24
ATOM     24  C   UNL     1      79.414  84.198  92.047  1.00  0.00    -0.000 C 
BRANCH  24  25
ATOM     25  C   UNL     1      78.946  83.363  90.842  1.00  0.00    -0.003 C 
ATOM     26  C   UNL     1      78.854  84.177  89.550  1.00  0.00     0.004 C 
ENDBRANCH  24  25
ENDBRANCH  23  24
ENDBRANCH  22  23
ENDBRANCH  21  22
ENDBRANCH  20  21
ENDBRANCH  19  20
ENDBRANCH  18  19
ENDBRANCH  17  18
ENDBRANCH  16  17
ENDBRANCH  15  16
ENDBRANCH   1  15
TORSDOF 22
ENDMDL
MODEL 6
REMARK VINA RESULT:    -2.217     14.590     17.059
REMARK INTER + INTRA:          -8.994
REMARK INTER:                  -5.154
REMARK INTRA:                  -3.840
REMARK UNBOUND:                -3.926
REMARK SMILES CCCCCCCCCCCCCCCCCCCCCCCC(=O)[O-]
REMARK SMILES IDX 13 1 14 2 15 3 16 4 17 5 18 6 19 7 20 8 21 9 22 10 23 11
REMARK SMILES IDX 24 12 25 13 26 14 12 15 11 16 10 17 9 18 8 19 7 20 6 21 5 22
REMARK SMILES IDX 4 23 3 24 2 25 1 26
REMARK H PARENT
REMARK Flexibility Score: inf
ROOT
ATOM      1  C   UNL     1      73.886  75.050  78.129  1.00  0.00     0.000 C 
ENDROOT
BRANCH   1   2
ATOM      2  C   UNL     1      73.018  73.834  78.495  1.00  0.00     0.000 C 
BRANCH   2   3
ATOM      3  C   UNL     1      73.814  72.718  79.193  1.00  0.00     0.000 C 
BRANCH   3   4
ATOM      4  C   UNL     1      74.925  72.146  78.286  1.00  0.00     0.000 C 
BRANCH   4   5
ATOM      5  C   UNL     1      76.257  71.910  79.019  1.00  0.00     0.000 C 
BRANCH   5   6
ATOM      6  C   UNL     1      76.649  73.078  79.936  1.00  0.00     0.000 C 
BRANCH   6   7
ATOM      7  C   UNL     1      77.292  74.213  79.129  1.00  0.00     0.000 C 
BRANCH   7   8
ATOM      8  C   UNL     1      78.518  73.714  78.350  1.00  0.00     0.000 C 
BRANCH   8   9
ATOM      9  C   UNL     1      78.514  74.158  76.876  1.00  0.00     0.000 C 
BRANCH   9  10
ATOM     10  C   UNL     1      78.180  73.024  75.884  1.00  0.00     0.006 C 
BRANCH  10  11
ATOM     11  C   UNL     1      76.869  73.273  75.124  1.00  0.00     0.053 C 
BRANCH  11  12
ATOM     12  C   UNL     1      77.039  73.029  73.655  1.00  0.00     0.041 C 
ATOM     13  O   UNL     1      78.182  73.101  73.127  1.00  0.00    -0.550 OA
ATOM     14  O   UNL     1      75.942  72.684  72.875  1.00  0.00    -0.550 OA
ENDBRANCH  11  12
ENDBRANCH  10  11
ENDBRANCH   9  10
ENDBRANCH   8   9
ENDBRANCH   7   8
ENDBRANCH   6   7
ENDBRANCH   5   6
ENDBRANCH   4   5
ENDBRANCH   3   4
ENDBRANCH   2   3
ENDBRANCH   1   2
BRANCH   1  15
ATOM     15  C   UNL     1      73.215  76.404  78.442  1.00  0.00     0.000 C 
BRANCH  15  16
ATOM     16  C   UNL     1      72.453  76.964  77.228  1.00  0.00     0.000 C 
BRANCH  16  17
ATOM     17  C   UNL     1      72.618  78.491  77.071  1.00  0.00     0.000 C 
BRANCH  17  18
ATOM     18  C   UNL     1      72.372  79.002  75.640  1.00  0.00    -0.000 C 
BRANCH  18  19
ATOM     19  C   UNL     1      72.158  77.871  74.625  1.00  0.00    -0.000 C 
BRANCH  19  20
ATOM     20  C   UNL     1      72.802  78.164  73.258  1.00  0.00    -0.000 C 
BRANCH  20  21
ATOM     21  C   UNL     1      73.701  79.419  73.257  1.00  0.00    -0.000 C 
BRANCH  21  22
ATOM     22  C   UNL     1      75.190  79.069  73.091  1.00  0.00    -0.000 C 
BRANCH  22  23
ATOM     23  C   UNL     1      75.868  78.701  74.422  1.00  0.00    -0.000 C 
BRANCH  23  24
ATOM     24  C   UNL     1      75.964  77.190  74.708  1.00  0.00    -0.000 C 
BRANCH  24  25
ATOM     25  C   UNL     1      76.224  76.823  76.180  1.00  0.00    -0.003 C 
ATOM     26  C   UNL     1      76.303  78.045  77.096  1.00  0.00     0.004 C 
ENDBRANCH  24  25
ENDBRANCH  23  24
ENDBRANCH  22  23
ENDBRANCH  21  22
ENDBRANCH  20  21
ENDBRANCH  19  20
ENDBRANCH  18  19
ENDBRANCH  17  18
ENDBRANCH  16  17
ENDBRANCH  15  16
ENDBRANCH   1  15
TORSDOF 22
ENDMDL
MODEL 7
REMARK VINA RESULT:    -2.199      3.058      5.910
REMARK INTER + INTRA:          -8.954
REMARK INTER:                  -4.967
REMARK INTRA:                  -3.987
REMARK UNBOUND:                -3.926
REMARK SMILES CCCCCCCCCCCCCCCCCCCCCCCC(=O)[O-]
REMARK SMILES IDX 13 1 14 2 15 3 16 4 17 5 18 6 19 7 20 8 21 9 22 10 23 11
REMARK SMILES IDX 24 12 25 13 26 14 12 15 11 16 10 17 9 18 8 19 7 20 6 21 5 22
REMARK SMILES IDX 4 23 3 24 2 25 1 26
REMARK H PARENT
REMARK Flexibility Score: inf
ROOT
ATOM      1  C   UNL     1      86.697  88.326  78.158  1.00  0.00     0.000 C 
ENDROOT
BRANCH   1   2
ATOM      2  C   UNL     1      85.946  89.363  79.010  1.00  0.00     0.000 C 
BRANCH   2   3
ATOM      3  C   UNL     1      86.109  90.800  78.486  1.00  0.00     0.000 C 
BRANCH   3   4
ATOM      4  C   UNL     1      87.000  91.655  79.412  1.00  0.00     0.000 C 
BRANCH   4   5
ATOM      5  C   UNL     1      88.427  91.861  78.873  1.00  0.00     0.000 C 
BRANCH   5   6
ATOM      6  C   UNL     1      89.501  91.233  79.773  1.00  0.00     0.000 C 
BRANCH   6   7
ATOM      7  C   UNL     1      88.866  90.581  81.007  1.00  0.00     0.000 C 
BRANCH   7   8
ATOM      8  C   UNL     1      89.773  89.484  81.584  1.00  0.00     0.000 C 
BRANCH   8   9
ATOM      9  C   UNL     1      91.115  89.363  80.840  1.00  0.00     0.000 C 
BRANCH   9  10
ATOM     10  C   UNL     1      91.984  88.178  81.311  1.00  0.00     0.006 C 
BRANCH  10  11
ATOM     11  C   UNL     1      91.885  86.965  80.374  1.00  0.00     0.053 C 
BRANCH  11  12
ATOM     12  C   UNL     1      90.868  85.981  80.866  1.00  0.00     0.041 C 
ATOM     13  O   UNL     1      90.450  86.039  82.054  1.00  0.00    -0.550 OA
ATOM     14  O   UNL     1      90.353  85.021  80.003  1.00  0.00    -0.550 OA
ENDBRANCH  11  12
ENDBRANCH  10  11
ENDBRANCH   9  10
ENDBRANCH   8   9
ENDBRANCH   7   8
ENDBRANCH   6   7
ENDBRANCH   5   6
ENDBRANCH   4   5
ENDBRANCH   3   4
ENDBRANCH   2   3
ENDBRANCH   1   2
BRANCH   1  15
ATOM     15  C   UNL     1      87.942  87.738  78.857  1.00  0.00     0.000 C 
BRANCH  15  16
ATOM     16  C   UNL     1      89.156  87.675  77.913  1.00  0.00     0.000 C 
BRANCH  16  17
ATOM     17  C   UNL     1      88.868  86.876  76.623  1.00  0.00     0.000 C 
BRANCH  17  18
ATOM     18  C   UNL     1      88.749  85.356  76.844  1.00  0.00    -0.000 C 
BRANCH  18  19
ATOM     19  C   UNL     1      87.666  84.705  75.973  1.00  0.00    -0.000 C 
BRANCH  19  20
ATOM     20  C   UNL     1      86.293  84.652  76.668  1.00  0.00    -0.000 C 
BRANCH  20  21
ATOM     21  C   UNL     1      85.315  85.743  76.183  1.00  0.00    -0.000 C 
BRANCH  21  22
ATOM     22  C   UNL     1      85.501  86.072  74.692  1.00  0.00    -0.000 C 
BRANCH  22  23
ATOM     23  C   UNL     1      85.928  87.531  74.451  1.00  0.00    -0.000 C 
BRANCH  23  24
ATOM     24  C   UNL     1      84.769  88.515  74.197  1.00  0.00    -0.000 C 
BRANCH  24  25
ATOM     25  C   UNL     1      84.556  89.566  75.300  1.00  0.00    -0.003 C 
ATOM     26  C   UNL     1      84.625  91.003  74.778  1.00  0.00     0.004 C 
ENDBRANCH  24  25
ENDBRANCH  23  24
ENDBRANCH  22  23
ENDBRANCH  21  22
ENDBRANCH  20  21
ENDBRANCH  19  20
ENDBRANCH  18  19
ENDBRANCH  17  18
ENDBRANCH  16  17
ENDBRANCH  15  16
ENDBRANCH   1  15
TORSDOF 22
ENDMDL
MODEL 8
REMARK VINA RESULT:    -2.198     11.100     14.422
REMARK INTER + INTRA:          -8.950
REMARK INTER:                  -4.575
REMARK INTRA:                  -4.376
REMARK UNBOUND:                -3.926
REMARK SMILES CCCCCCCCCCCCCCCCCCCCCCCC(=O)[O-]
REMARK SMILES IDX 13 1 14 2 15 3 16 4 17 5 18 6 19 7 20 8 21 9 22 10 23 11
REMARK SMILES IDX 24 12 25 13 26 14 12 15 11 16 10 17 9 18 8 19 7 20 6 21 5 22
REMARK SMILES IDX 4 23 3 24 2 25 1 26
REMARK H PARENT
REMARK Flexibility Score: inf
ROOT
ATOM      1  C   UNL     1      85.869  76.563  76.752  1.00  0.00     0.000 C 
ENDROOT
BRANCH   1   2
ATOM      2  C   UNL     1      85.709  75.918  78.139  1.00  0.00     0.000 C 
BRANCH   2   3
ATOM      3  C   UNL     1      85.973  74.402  78.129  1.00  0.00     0.000 C 
BRANCH   3   4
ATOM      4  C   UNL     1      87.338  74.050  78.760  1.00  0.00     0.000 C 
BRANCH   4   5
ATOM      5  C   UNL     1      88.001  72.810  78.135  1.00  0.00     0.000 C 
BRANCH   5   6
ATOM      6  C   UNL     1      89.053  72.169  79.053  1.00  0.00     0.000 C 
BRANCH   6   7
ATOM      7  C   UNL     1      89.525  73.164  80.120  1.00  0.00     0.000 C 
BRANCH   7   8
ATOM      8  C   UNL     1      91.054  73.147  80.258  1.00  0.00     0.000 C 
BRANCH   8   9
ATOM      9  C   UNL     1      91.650  74.542  80.514  1.00  0.00     0.000 C 
BRANCH   9  10
ATOM     10  C   UNL     1      92.124  74.761  81.966  1.00  0.00     0.006 C 
BRANCH  10  11
ATOM     11  C   UNL     1      91.053  75.428  82.842  1.00  0.00     0.053 C 
BRANCH  11  12
ATOM     12  C   UNL     1      90.381  76.553  82.115  1.00  0.00     0.041 C 
ATOM     13  O   UNL     1      91.020  77.604  81.840  1.00  0.00    -0.550 OA
ATOM     14  O   UNL     1      89.058  76.426  81.707  1.00  0.00    -0.550 OA
ENDBRANCH  11  12
ENDBRANCH  10  11
ENDBRANCH   9  10
ENDBRANCH   8   9
ENDBRANCH   7   8
ENDBRANCH   6   7
ENDBRANCH   5   6
ENDBRANCH   4   5
ENDBRANCH   3   4
ENDBRANCH   2   3
ENDBRANCH   1   2
BRANCH   1  15
ATOM     15  C   UNL     1      85.167  75.779  75.622  1.00  0.00     0.000 C 
BRANCH  15  16
ATOM     16  C   UNL     1      86.109  75.510  74.436  1.00  0.00     0.000 C 
BRANCH  16  17
ATOM     17  C   UNL     1      87.463  74.911  74.872  1.00  0.00     0.000 C 
BRANCH  17  18
ATOM     18  C   UNL     1      88.665  75.422  74.056  1.00  0.00    -0.000 C 
BRANCH  18  19
ATOM     19  C   UNL     1      89.920  75.650  74.910  1.00  0.00    -0.000 C 
BRANCH  19  20
ATOM     20  C   UNL     1      89.644  75.536  76.420  1.00  0.00    -0.000 C 
BRANCH  20  21
ATOM     21  C   UNL     1      90.856  75.911  77.299  1.00  0.00    -0.000 C 
BRANCH  21  22
ATOM     22  C   UNL     1      90.615  77.200  78.105  1.00  0.00    -0.000 C 
BRANCH  22  23
ATOM     23  C   UNL     1      89.128  77.434  78.426  1.00  0.00    -0.000 C 
BRANCH  23  24
ATOM     24  C   UNL     1      88.553  78.767  77.908  1.00  0.00    -0.000 C 
BRANCH  24  25
ATOM     25  C   UNL     1      89.144  79.255  76.575  1.00  0.00    -0.003 C 
ATOM     26  C   UNL     1      88.218  79.006  75.383  1.00  0.00     0.004 C 
ENDBRANCH  24  25
ENDBRANCH  23  24
ENDBRANCH  22  23
ENDBRANCH  21  22
ENDBRANCH  20  21
ENDBRANCH  19  20
ENDBRANCH  18  19
ENDBRANCH  17  18
ENDBRANCH  16  17
ENDBRANCH  15  16
ENDBRANCH   1  15
TORSDOF 22
ENDMDL
MODEL 9
REMARK VINA RESULT:    -2.190     14.496     16.699
REMARK INTER + INTRA:          -8.932
REMARK INTER:                  -5.144
REMARK INTRA:                  -3.788
REMARK UNBOUND:                -3.926
REMARK SMILES CCCCCCCCCCCCCCCCCCCCCCCC(=O)[O-]
REMARK SMILES IDX 13 1 14 2 15 3 16 4 17 5 18 6 19 7 20 8 21 9 22 10 23 11
REMARK SMILES IDX 24 12 25 13 26 14 12 15 11 16 10 17 9 18 8 19 7 20 6 21 5 22
REMARK SMILES IDX 4 23 3 24 2 25 1 26
REMARK H PARENT
REMARK Flexibility Score: inf
ROOT
ATOM      1  C   UNL     1      76.491  76.115  74.078  1.00  0.00     0.000 C 
ENDROOT
BRANCH   1   2
ATOM      2  C   UNL     1      77.763  75.807  73.271  1.00  0.00     0.000 C 
BRANCH   2   3
ATOM      3  C   UNL     1      78.908  75.262  74.142  1.00  0.00     0.000 C 
BRANCH   3   4
ATOM      4  C   UNL     1      79.373  73.865  73.676  1.00  0.00     0.000 C 
BRANCH   4   5
ATOM      5  C   UNL     1      78.216  72.939  73.261  1.00  0.00     0.000 C 
BRANCH   5   6
ATOM      6  C   UNL     1      77.858  71.908  74.342  1.00  0.00     0.000 C 
BRANCH   6   7
ATOM      7  C   UNL     1      76.378  72.020  74.732  1.00  0.00     0.000 C 
BRANCH   7   8
ATOM      8  C   UNL     1      76.192  72.943  75.944  1.00  0.00     0.000 C 
BRANCH   8   9
ATOM      9  C   UNL     1      76.555  72.265  77.277  1.00  0.00     0.000 C 
BRANCH   9  10
ATOM     10  C   UNL     1      77.287  73.192  78.270  1.00  0.00     0.006 C 
BRANCH  10  11
ATOM     11  C   UNL     1      77.844  74.455  77.597  1.00  0.00     0.053 C 
BRANCH  11  12
ATOM     12  C   UNL     1      79.319  74.585  77.826  1.00  0.00     0.041 C 
ATOM     13  O   UNL     1      79.761  75.400  78.681  1.00  0.00    -0.550 OA
ATOM     14  O   UNL     1      80.207  73.780  77.122  1.00  0.00    -0.550 OA
ENDBRANCH  11  12
ENDBRANCH  10  11
ENDBRANCH   9  10
ENDBRANCH   8   9
ENDBRANCH   7   8
ENDBRANCH   6   7
ENDBRANCH   5   6
ENDBRANCH   4   5
ENDBRANCH   3   4
ENDBRANCH   2   3
ENDBRANCH   1   2
BRANCH   1  15
ATOM     15  C   UNL     1      75.373  76.773  73.241  1.00  0.00     0.000 C 
BRANCH  15  16
ATOM     16  C   UNL     1      75.405  78.308  73.343  1.00  0.00     0.000 C 
BRANCH  16  17
ATOM     17  C   UNL     1      73.995  78.933  73.405  1.00  0.00     0.000 C 
BRANCH  17  18
ATOM     18  C   UNL     1      72.919  77.990  73.975  1.00  0.00    -0.000 C 
BRANCH  18  19
ATOM     19  C   UNL     1      72.330  78.481  75.305  1.00  0.00    -0.000 C 
BRANCH  19  20
ATOM     20  C   UNL     1      72.611  77.520  76.473  1.00  0.00    -0.000 C 
BRANCH  20  21
ATOM     21  C   UNL     1      74.108  77.409  76.834  1.00  0.00    -0.000 C 
BRANCH  21  22
ATOM     22  C   UNL     1      74.417  76.147  77.659  1.00  0.00    -0.000 C 
BRANCH  22  23
ATOM     23  C   UNL     1      73.147  75.413  78.125  1.00  0.00    -0.000 C 
BRANCH  23  24
ATOM     24  C   UNL     1      73.327  73.905  78.387  1.00  0.00    -0.000 C 
BRANCH  24  25
ATOM     25  C   UNL     1      73.291  73.494  79.869  1.00  0.00    -0.003 C 
ATOM     26  C   UNL     1      74.201  72.305  80.182  1.00  0.00     0.004 C 
ENDBRANCH  24  25
ENDBRANCH  23  24
ENDBRANCH  22  23
ENDBRANCH  21  22
ENDBRANCH  20  21
ENDBRANCH  19  20
ENDBRANCH  18  19
ENDBRANCH  17  18
ENDBRANCH  16  17
ENDBRANCH  15  16
ENDBRANCH   1  15
TORSDOF 22
ENDMDL
