MODEL 1
REMARK VINA RESULT:     5.657      0.000      0.000
REMARK INTER + INTRA:           9.124
REMARK INTER:                   8.303
REMARK INTRA:                   0.821
REMARK UNBOUND:                 0.821
REMARK SMILES O=c1c(O[C@@H]2O[C@@H](CO)[C@H](O)[C@H](O)[C@H]2O)c(-c2ccc(O)c(O)c2)oc2cc(O)cc(O)c12
REMARK SMILES IDX 4 1 3 2 16 3 25 4 2 5 26 6 1 7 33 8 27 9 31 10 28 11 30 12
REMARK SMILES IDX 17 13 18 14 19 15 20 16 24 17 22 18 21 19 23 21 32 23 29 25
REMARK SMILES IDX 5 27 14 28 6 29 12 30 7 31 10 32 15 33 13 35 8 37 9 38 11 40
REMARK H PARENT 21 20 23 22 32 24 29 26 15 34 13 36 9 39 11 41
REMARK Flexibility Score: inf
ROOT
ATOM      1  O   UNL     1      14.581 -11.055  30.191  1.00  0.00    -0.454 OA
ENDROOT
BRANCH   1   2
ATOM      2  C   UNL     1      14.779 -12.089  29.254  1.00  0.00     0.214 A 
ATOM      3  C   UNL     1      14.838 -11.765  27.878  1.00  0.00     0.180 A 
ATOM      4  O   UNL     1      15.125 -12.708  26.984  1.00  0.00    -0.452 OA
ATOM      5  C   UNL     1      14.982 -13.432  29.631  1.00  0.00     0.239 A 
ATOM      6  C   UNL     1      15.349 -13.975  27.302  1.00  0.00     0.146 A 
ATOM      7  O   UNL     1      14.914 -13.766  30.842  1.00  0.00    -0.285 OA
ATOM      8  C   UNL     1      15.288 -14.400  28.649  1.00  0.00     0.111 A 
ATOM      9  C   UNL     1      15.654 -14.887  26.288  1.00  0.00     0.094 A 
ATOM     10  C   UNL     1      15.526 -15.761  28.951  1.00  0.00     0.134 A 
ATOM     11  C   UNL     1      15.901 -16.227  26.595  1.00  0.00     0.123 A 
ATOM     12  C   UNL     1      15.826 -16.663  27.919  1.00  0.00     0.093 A 
BRANCH   3  13
ATOM     13  C   UNL     1      14.598 -10.390  27.374  1.00  0.00     0.025 A 
ATOM     14  C   UNL     1      13.315  -9.818  27.378  1.00  0.00     0.016 A 
ATOM     15  C   UNL     1      13.112  -8.525  26.891  1.00  0.00     0.051 A 
ATOM     16  C   UNL     1      14.179  -7.801  26.345  1.00  0.00     0.157 A 
ATOM     17  C   UNL     1      15.664  -9.661  26.821  1.00  0.00     0.062 A 
ATOM     18  C   UNL     1      15.463  -8.372  26.314  1.00  0.00     0.158 A 
BRANCH  16  19
ATOM     19  O   UNL     1      13.961  -6.528  25.819  1.00  0.00    -0.504 OA
ATOM     20  H   UNL     1      14.633  -5.779  25.946  1.00  0.00     0.293 HD
ENDBRANCH  16  19
BRANCH  18  21
ATOM     21  O   UNL     1      16.544  -7.677  25.774  1.00  0.00    -0.504 OA
ATOM     22  H   UNL     1      16.965  -6.885  26.249  1.00  0.00     0.293 HD
ENDBRANCH  18  21
ENDBRANCH   3  13
BRANCH  10  23
ATOM     23  O   UNL     1      15.501 -16.220  30.270  1.00  0.00    -0.507 OA
ATOM     24  H   UNL     1      15.447 -17.209  30.490  1.00  0.00     0.293 HD
ENDBRANCH  10  23
BRANCH  11  25
ATOM     25  O   UNL     1      16.196 -17.125  25.567  1.00  0.00    -0.508 OA
ATOM     26  H   UNL     1      17.141 -17.222  25.211  1.00  0.00     0.293 HD
ENDBRANCH  11  25
ENDBRANCH   1   2
BRANCH   1  27
ATOM     27  C   UNL     1      13.767 -11.111  31.367  1.00  0.00     0.339 C 
ATOM     28  C   UNL     1      13.279  -9.712  31.797  1.00  0.00     0.214 C 
ATOM     29  O   UNL     1      12.668 -11.985  31.169  1.00  0.00    -0.332 OA
ATOM     30  C   UNL     1      12.202  -9.156  30.831  1.00  0.00     0.180 C 
ATOM     31  C   UNL     1      11.828 -11.566  30.107  1.00  0.00     0.179 C 
ATOM     32  C   UNL     1      11.149 -10.215  30.451  1.00  0.00     0.177 C 
BRANCH  28  33
ATOM     33  O   UNL     1      12.758  -9.802  33.100  1.00  0.00    -0.384 OA
ATOM     34  H   UNL     1      12.507  -8.881  33.373  1.00  0.00     0.211 HD
ENDBRANCH  28  33
BRANCH  30  35
ATOM     35  O   UNL     1      12.789  -8.564  29.696  1.00  0.00    -0.387 OA
ATOM     36  H   UNL     1      12.089  -8.441  29.007  1.00  0.00     0.211 HD
ENDBRANCH  30  35
BRANCH  31  37
ATOM     37  C   UNL     1      10.795 -12.681  29.869  1.00  0.00     0.191 C 
BRANCH  37  38
ATOM     38  O   UNL     1      10.885 -13.173  28.560  1.00  0.00    -0.394 OA
ATOM     39  H   UNL     1      11.273 -12.439  28.015  1.00  0.00     0.210 HD
ENDBRANCH  37  38
ENDBRANCH  31  37
BRANCH  32  40
ATOM     40  O   UNL     1      10.404  -9.736  29.356  1.00  0.00    -0.387 OA
ATOM     41  H   UNL     1      10.906  -9.963  28.531  1.00  0.00     0.211 HD
ENDBRANCH  32  40
ENDBRANCH   1  27
TORSDOF 12
ENDMDL
MODEL 2
REMARK VINA RESULT:     8.131      1.491      6.318
REMARK INTER + INTRA:          12.755
REMARK INTER:                  13.562
REMARK INTRA:                  -0.808
REMARK UNBOUND:                 0.821
REMARK SMILES O=c1c(O[C@@H]2O[C@@H](CO)[C@H](O)[C@H](O)[C@H]2O)c(-c2ccc(O)c(O)c2)oc2cc(O)cc(O)c12
REMARK SMILES IDX 4 1 3 2 16 3 25 4 2 5 26 6 1 7 33 8 27 9 31 10 28 11 30 12
REMARK SMILES IDX 17 13 18 14 19 15 20 16 24 17 22 18 21 19 23 21 32 23 29 25
REMARK SMILES IDX 5 27 14 28 6 29 12 30 7 31 10 32 15 33 13 35 8 37 9 38 11 40
REMARK H PARENT 21 20 23 22 32 24 29 26 15 34 13 36 9 39 11 41
REMARK Flexibility Score: inf
ROOT
ATOM      1  O   UNL     1      12.262 -10.652  27.636  1.00  0.00    -0.454 OA
ENDROOT
BRANCH   1   2
ATOM      2  C   UNL     1      13.424  -9.904  27.361  1.00  0.00     0.214 A 
ATOM      3  C   UNL     1      14.686 -10.534  27.468  1.00  0.00     0.180 A 
ATOM      4  O   UNL     1      15.790  -9.879  27.115  1.00  0.00    -0.452 OA
ATOM      5  C   UNL     1      13.383  -8.565  26.920  1.00  0.00     0.239 A 
ATOM      6  C   UNL     1      15.789  -8.629  26.672  1.00  0.00     0.146 A 
ATOM      7  O   UNL     1      12.283  -7.961  26.834  1.00  0.00    -0.285 OA
ATOM      8  C   UNL     1      14.578  -7.909  26.552  1.00  0.00     0.111 A 
ATOM      9  C   UNL     1      17.002  -8.034  26.316  1.00  0.00     0.094 A 
ATOM     10  C   UNL     1      14.617  -6.576  26.082  1.00  0.00     0.134 A 
ATOM     11  C   UNL     1      17.031  -6.721  25.839  1.00  0.00     0.123 A 
ATOM     12  C   UNL     1      15.844  -5.992  25.734  1.00  0.00     0.093 A 
BRANCH   3  13
ATOM     13  C   UNL     1      14.841 -11.925  27.960  1.00  0.00     0.025 A 
ATOM     14  C   UNL     1      14.847 -13.020  27.080  1.00  0.00     0.016 A 
ATOM     15  C   UNL     1      14.986 -14.322  27.567  1.00  0.00     0.051 A 
ATOM     16  C   UNL     1      15.071 -14.555  28.945  1.00  0.00     0.157 A 
ATOM     17  C   UNL     1      14.921 -12.164  29.341  1.00  0.00     0.062 A 
ATOM     18  C   UNL     1      15.043 -13.468  29.837  1.00  0.00     0.158 A 
BRANCH  16  19
ATOM     19  O   UNL     1      15.165 -15.859  29.427  1.00  0.00    -0.504 OA
ATOM     20  H   UNL     1      15.402 -16.052  30.394  1.00  0.00     0.293 HD
ENDBRANCH  16  19
BRANCH  18  21
ATOM     21  O   UNL     1      15.121 -13.668  31.214  1.00  0.00    -0.504 OA
ATOM     22  H   UNL     1      15.640 -14.442  31.615  1.00  0.00     0.293 HD
ENDBRANCH  18  21
ENDBRANCH   3  13
BRANCH  10  23
ATOM     23  O   UNL     1      13.442  -5.835  25.924  1.00  0.00    -0.507 OA
ATOM     24  H   UNL     1      12.952  -5.794  25.036  1.00  0.00     0.293 HD
ENDBRANCH  10  23
BRANCH  11  25
ATOM     25  O   UNL     1      18.253  -6.140  25.497  1.00  0.00    -0.508 OA
ATOM     26  H   UNL     1      18.422  -5.150  25.641  1.00  0.00     0.293 HD
ENDBRANCH  11  25
ENDBRANCH   1   2
BRANCH   1  27
ATOM     27  C   UNL     1      11.154 -10.244  28.445  1.00  0.00     0.339 C 
ATOM     28  C   UNL     1      10.267 -11.438  28.853  1.00  0.00     0.214 C 
ATOM     29  O   UNL     1      11.607  -9.542  29.591  1.00  0.00    -0.332 OA
ATOM     30  C   UNL     1      10.964 -12.340  29.903  1.00  0.00     0.180 C 
ATOM     31  C   UNL     1      12.447 -10.336  30.413  1.00  0.00     0.179 C 
ATOM     32  C   UNL     1      11.652 -11.525  31.016  1.00  0.00     0.177 C 
BRANCH  28  33
ATOM     33  O   UNL     1       9.058 -10.940  29.371  1.00  0.00    -0.384 OA
ATOM     34  H   UNL     1       9.296 -10.309  30.099  1.00  0.00     0.211 HD
ENDBRANCH  28  33
BRANCH  30  35
ATOM     35  O   UNL     1      11.848 -13.249  29.292  1.00  0.00    -0.387 OA
ATOM     36  H   UNL     1      11.460 -14.158  29.356  1.00  0.00     0.211 HD
ENDBRANCH  30  35
BRANCH  31  37
ATOM     37  C   UNL     1      13.020  -9.418  31.507  1.00  0.00     0.191 C 
BRANCH  37  38
ATOM     38  O   UNL     1      13.398 -10.162  32.634  1.00  0.00    -0.394 OA
ATOM     39  H   UNL     1      12.664 -10.053  33.295  1.00  0.00     0.210 HD
ENDBRANCH  37  38
ENDBRANCH  31  37
BRANCH  32  40
ATOM     40  O   UNL     1      12.504 -12.380  31.740  1.00  0.00    -0.387 OA
ATOM     41  H   UNL     1      13.083 -11.811  32.312  1.00  0.00     0.211 HD
ENDBRANCH  32  40
ENDBRANCH   1  27
TORSDOF 12
ENDMDL
MODEL 3
REMARK VINA RESULT:     8.584      1.689      5.691
REMARK INTER + INTRA:          13.420
REMARK INTER:                  10.975
REMARK INTRA:                   2.445
REMARK UNBOUND:                 0.821
REMARK SMILES O=c1c(O[C@@H]2O[C@@H](CO)[C@H](O)[C@H](O)[C@H]2O)c(-c2ccc(O)c(O)c2)oc2cc(O)cc(O)c12
REMARK SMILES IDX 4 1 3 2 16 3 25 4 2 5 26 6 1 7 33 8 27 9 31 10 28 11 30 12
REMARK SMILES IDX 17 13 18 14 19 15 20 16 24 17 22 18 21 19 23 21 32 23 29 25
REMARK SMILES IDX 5 27 14 28 6 29 12 30 7 31 10 32 15 33 13 35 8 37 9 38 11 40
REMARK H PARENT 21 20 23 22 32 24 29 26 15 34 13 36 9 39 11 41
REMARK Flexibility Score: inf
ROOT
ATOM      1  O   UNL     1      13.494 -11.170  29.922  1.00  0.00    -0.454 OA
ENDROOT
BRANCH   1   2
ATOM      2  C   UNL     1      13.971 -10.758  28.662  1.00  0.00     0.214 A 
ATOM      3  C   UNL     1      14.621 -11.702  27.833  1.00  0.00     0.180 A 
ATOM      4  O   UNL     1      14.989 -11.364  26.599  1.00  0.00    -0.452 OA
ATOM      5  C   UNL     1      13.776  -9.455  28.161  1.00  0.00     0.239 A 
ATOM      6  C   UNL     1      14.798 -10.157  26.083  1.00  0.00     0.146 A 
ATOM      7  O   UNL     1      13.223  -8.579  28.875  1.00  0.00    -0.285 OA
ATOM      8  C   UNL     1      14.178  -9.140  26.844  1.00  0.00     0.111 A 
ATOM      9  C   UNL     1      15.211  -9.905  24.773  1.00  0.00     0.094 A 
ATOM     10  C   UNL     1      13.997  -7.863  26.264  1.00  0.00     0.134 A 
ATOM     11  C   UNL     1      15.017  -8.645  24.201  1.00  0.00     0.123 A 
ATOM     12  C   UNL     1      14.423  -7.626  24.948  1.00  0.00     0.093 A 
BRANCH   3  13
ATOM     13  C   UNL     1      14.911 -13.087  28.280  1.00  0.00     0.025 A 
ATOM     14  C   UNL     1      15.135 -14.126  27.361  1.00  0.00     0.016 A 
ATOM     15  C   UNL     1      15.398 -15.423  27.807  1.00  0.00     0.051 A 
ATOM     16  C   UNL     1      15.393 -15.715  29.176  1.00  0.00     0.157 A 
ATOM     17  C   UNL     1      14.902 -13.385  29.653  1.00  0.00     0.062 A 
ATOM     18  C   UNL     1      15.147 -14.688  30.104  1.00  0.00     0.158 A 
BRANCH  16  19
ATOM     19  O   UNL     1      15.612 -17.020  29.612  1.00  0.00    -0.504 OA
ATOM     20  H   UNL     1      16.523 -17.459  29.539  1.00  0.00     0.293 HD
ENDBRANCH  16  19
BRANCH  18  21
ATOM     21  O   UNL     1      15.131 -14.947  31.474  1.00  0.00    -0.504 OA
ATOM     22  H   UNL     1      15.101 -14.201  32.161  1.00  0.00     0.293 HD
ENDBRANCH  18  21
ENDBRANCH   3  13
BRANCH  10  23
ATOM     23  O   UNL     1      13.367  -6.835  26.970  1.00  0.00    -0.507 OA
ATOM     24  H   UNL     1      13.074  -6.951  27.934  1.00  0.00     0.293 HD
ENDBRANCH  10  23
BRANCH  11  25
ATOM     25  O   UNL     1      15.444  -8.410  22.893  1.00  0.00    -0.508 OA
ATOM     26  H   UNL     1      15.630  -7.469  22.564  1.00  0.00     0.293 HD
ENDBRANCH  11  25
ENDBRANCH   1   2
BRANCH   1  27
ATOM     27  C   UNL     1      12.488 -12.156  30.175  1.00  0.00     0.339 C 
ATOM     28  C   UNL     1      11.292 -11.572  30.954  1.00  0.00     0.214 C 
ATOM     29  O   UNL     1      12.055 -12.747  28.961  1.00  0.00    -0.332 OA
ATOM     30  C   UNL     1      10.435 -10.629  30.070  1.00  0.00     0.180 C 
ATOM     31  C   UNL     1      11.488 -11.800  28.071  1.00  0.00     0.179 C 
ATOM     32  C   UNL     1      10.182 -11.209  28.664  1.00  0.00     0.177 C 
BRANCH  28  33
ATOM     33  O   UNL     1      10.505 -12.636  31.428  1.00  0.00    -0.384 OA
ATOM     34  H   UNL     1      11.095 -13.201  31.993  1.00  0.00     0.211 HD
ENDBRANCH  28  33
BRANCH  30  35
ATOM     35  O   UNL     1      10.987  -9.336  30.016  1.00  0.00    -0.387 OA
ATOM     36  H   UNL     1      10.507  -8.816  29.324  1.00  0.00     0.211 HD
ENDBRANCH  30  35
BRANCH  31  37
ATOM     37  C   UNL     1      11.236 -12.517  26.734  1.00  0.00     0.191 C 
BRANCH  37  38
ATOM     38  O   UNL     1      11.845 -13.780  26.724  1.00  0.00    -0.394 OA
ATOM     39  H   UNL     1      11.105 -14.443  26.740  1.00  0.00     0.210 HD
ENDBRANCH  37  38
ENDBRANCH  31  37
BRANCH  32  40
ATOM     40  O   UNL     1       9.676 -10.186  27.840  1.00  0.00    -0.387 OA
ATOM     41  H   UNL     1       9.560  -9.378  28.404  1.00  0.00     0.211 HD
ENDBRANCH  32  40
ENDBRANCH   1  27
TORSDOF 12
ENDMDL
