MODEL 1
REMARK VINA RESULT:    29.583      0.000      0.000
REMARK INTER + INTRA:          34.504
REMARK INTER:                  34.772
REMARK INTRA:                  -0.268
REMARK UNBOUND:                -0.268
REMARK SMILES O=c1cc(-c2ccc(O)c(O)c2)oc2cc(O)cc(O)c12
REMARK SMILES IDX 4 1 3 2 2 3 1 4 21 5 19 6 18 7 16 8 15 9 14 10 13 11 5 12
REMARK SMILES IDX 6 13 7 14 8 15 12 16 10 17 9 18 11 20 20 22 17 24
REMARK H PARENT 9 19 11 21 20 23 17 25
REMARK Flexibility Score: inf
ROOT
ATOM      1  C   UNL     1      12.853   5.247  18.345  1.00  0.00     0.138 A 
ATOM      2  C   UNL     1      13.764   6.159  18.898  1.00  0.00     0.100 A 
ATOM      3  C   UNL     1      13.680   7.509  18.558  1.00  0.00     0.197 A 
ATOM      4  O   UNL     1      14.549   8.294  19.020  1.00  0.00    -0.289 OA
ATOM      5  C   UNL     1      12.659   7.953  17.684  1.00  0.00     0.107 A 
ATOM      6  C   UNL     1      12.452   9.312  17.299  1.00  0.00     0.134 A 
ATOM      7  C   UNL     1      11.481   9.615  16.336  1.00  0.00     0.093 A 
ATOM      8  C   UNL     1      10.670   8.617  15.790  1.00  0.00     0.123 A 
ATOM      9  C   UNL     1      10.828   7.295  16.199  1.00  0.00     0.094 A 
ATOM     10  C   UNL     1      11.811   6.955  17.132  1.00  0.00     0.146 A 
ATOM     11  O   UNL     1      11.939   5.680  17.485  1.00  0.00    -0.456 OA
ENDROOT
BRANCH   1  12
ATOM     12  C   UNL     1      12.897   3.800  18.674  1.00  0.00     0.021 A 
ATOM     13  C   UNL     1      12.379   3.299  19.883  1.00  0.00     0.016 A 
ATOM     14  C   UNL     1      12.424   1.931  20.161  1.00  0.00     0.051 A 
ATOM     15  C   UNL     1      12.979   1.038  19.237  1.00  0.00     0.157 A 
ATOM     16  C   UNL     1      13.442   2.895  17.745  1.00  0.00     0.062 A 
ATOM     17  C   UNL     1      13.489   1.524  18.021  1.00  0.00     0.158 A 
BRANCH  15  18
ATOM     18  O   UNL     1      13.024  -0.327  19.519  1.00  0.00    -0.504 OA
ATOM     19  H   UNL     1      13.029  -0.671  20.471  1.00  0.00     0.293 HD
ENDBRANCH  15  18
BRANCH  17  20
ATOM     20  O   UNL     1      14.045   0.661  17.078  1.00  0.00    -0.504 OA
ATOM     21  H   UNL     1      14.715  -0.055  17.331  1.00  0.00     0.293 HD
ENDBRANCH  17  20
ENDBRANCH   1  12
BRANCH   6  22
ATOM     22  O   UNL     1      13.149  10.393  17.845  1.00  0.00    -0.507 OA
ATOM     23  H   UNL     1      14.153  10.485  17.856  1.00  0.00     0.293 HD
ENDBRANCH   6  22
BRANCH   8  24
ATOM     24  O   UNL     1       9.696   8.931  14.845  1.00  0.00    -0.508 OA
ATOM     25  H   UNL     1       9.832   8.738  13.859  1.00  0.00     0.293 HD
ENDBRANCH   8  24
TORSDOF 5
ENDMDL
MODEL 2
REMARK VINA RESULT:    30.287      4.751      8.088
REMARK INTER + INTRA:          35.331
REMARK INTER:                  35.599
REMARK INTRA:                  -0.267
REMARK UNBOUND:                -0.268
REMARK SMILES O=c1cc(-c2ccc(O)c(O)c2)oc2cc(O)cc(O)c12
REMARK SMILES IDX 4 1 3 2 2 3 1 4 21 5 19 6 18 7 16 8 15 9 14 10 13 11 5 12
REMARK SMILES IDX 6 13 7 14 8 15 12 16 10 17 9 18 11 20 20 22 17 24
REMARK H PARENT 9 19 11 21 20 23 17 25
REMARK Flexibility Score: inf
ROOT
ATOM      1  C   UNL     1       9.347   9.898  19.344  1.00  0.00     0.138 A 
ATOM      2  C   UNL     1       8.879   9.472  18.093  1.00  0.00     0.100 A 
ATOM      3  C   UNL     1       9.788   9.027  17.132  1.00  0.00     0.197 A 
ATOM      4  O   UNL     1       9.344   8.710  15.998  1.00  0.00    -0.289 OA
ATOM      5  C   UNL     1      11.169   8.977  17.439  1.00  0.00     0.107 A 
ATOM      6  C   UNL     1      12.181   8.503  16.553  1.00  0.00     0.134 A 
ATOM      7  C   UNL     1      13.528   8.611  16.923  1.00  0.00     0.093 A 
ATOM      8  C   UNL     1      13.894   9.121  18.171  1.00  0.00     0.123 A 
ATOM      9  C   UNL     1      12.910   9.536  19.065  1.00  0.00     0.094 A 
ATOM     10  C   UNL     1      11.559   9.474  18.711  1.00  0.00     0.146 A 
ATOM     11  O   UNL     1      10.652   9.895  19.587  1.00  0.00    -0.456 OA
ENDROOT
BRANCH   1  12
ATOM     12  C   UNL     1       8.424  10.382  20.403  1.00  0.00     0.021 A 
ATOM     13  C   UNL     1       7.678   9.491  21.197  1.00  0.00     0.016 A 
ATOM     14  C   UNL     1       6.825   9.973  22.193  1.00  0.00     0.051 A 
ATOM     15  C   UNL     1       6.707  11.350  22.418  1.00  0.00     0.157 A 
ATOM     16  C   UNL     1       8.309  11.763  20.644  1.00  0.00     0.062 A 
ATOM     17  C   UNL     1       7.455  12.249  21.640  1.00  0.00     0.158 A 
BRANCH  15  18
ATOM     18  O   UNL     1       5.853  11.828  23.412  1.00  0.00    -0.504 OA
ATOM     19  H   UNL     1       6.034  12.702  23.891  1.00  0.00     0.293 HD
ENDBRANCH  15  18
BRANCH  17  20
ATOM     20  O   UNL     1       7.363  13.625  21.841  1.00  0.00    -0.504 OA
ATOM     21  H   UNL     1       8.170  14.190  22.079  1.00  0.00     0.293 HD
ENDBRANCH  17  20
ENDBRANCH   1  12
BRANCH   6  22
ATOM     22  O   UNL     1      11.920   7.899  15.319  1.00  0.00    -0.507 OA
ATOM     23  H   UNL     1      12.621   7.516  14.705  1.00  0.00     0.293 HD
ENDBRANCH   6  22
BRANCH   8  24
ATOM     24  O   UNL     1      15.235   9.210  18.537  1.00  0.00    -0.508 OA
ATOM     25  H   UNL     1      15.957   8.711  18.029  1.00  0.00     0.293 HD
ENDBRANCH   8  24
TORSDOF 5
ENDMDL
MODEL 3
REMARK VINA RESULT:    30.561      1.089      2.606
REMARK INTER + INTRA:          35.653
REMARK INTER:                  35.916
REMARK INTRA:                  -0.263
REMARK UNBOUND:                -0.268
REMARK SMILES O=c1cc(-c2ccc(O)c(O)c2)oc2cc(O)cc(O)c12
REMARK SMILES IDX 4 1 3 2 2 3 1 4 21 5 19 6 18 7 16 8 15 9 14 10 13 11 5 12
REMARK SMILES IDX 6 13 7 14 8 15 12 16 10 17 9 18 11 20 20 22 17 24
REMARK H PARENT 9 19 11 21 20 23 17 25
REMARK Flexibility Score: inf
ROOT
ATOM      1  C   UNL     1      12.312   5.156  17.895  1.00  0.00     0.138 A 
ATOM      2  C   UNL     1      11.466   5.368  16.797  1.00  0.00     0.100 A 
ATOM      3  C   UNL     1      11.236   6.667  16.343  1.00  0.00     0.197 A 
ATOM      4  O   UNL     1      10.423   6.830  15.396  1.00  0.00    -0.289 OA
ATOM      5  C   UNL     1      11.882   7.757  16.973  1.00  0.00     0.107 A 
ATOM      6  C   UNL     1      11.755   9.120  16.570  1.00  0.00     0.134 A 
ATOM      7  C   UNL     1      12.350  10.126  17.342  1.00  0.00     0.093 A 
ATOM      8  C   UNL     1      13.118   9.812  18.467  1.00  0.00     0.123 A 
ATOM      9  C   UNL     1      13.293   8.481  18.837  1.00  0.00     0.094 A 
ATOM     10  C   UNL     1      12.683   7.457  18.108  1.00  0.00     0.146 A 
ATOM     11  O   UNL     1      12.863   6.201  18.503  1.00  0.00    -0.456 OA
ENDROOT
BRANCH   1  12
ATOM     12  C   UNL     1      12.592   3.795  18.418  1.00  0.00     0.021 A 
ATOM     13  C   UNL     1      12.191   3.400  19.708  1.00  0.00     0.016 A 
ATOM     14  C   UNL     1      12.459   2.110  20.170  1.00  0.00     0.051 A 
ATOM     15  C   UNL     1      13.124   1.188  19.352  1.00  0.00     0.157 A 
ATOM     16  C   UNL     1      13.249   2.859  17.597  1.00  0.00     0.062 A 
ATOM     17  C   UNL     1      13.519   1.566  18.058  1.00  0.00     0.158 A 
BRANCH  15  18
ATOM     18  O   UNL     1      13.391  -0.099  19.817  1.00  0.00    -0.504 OA
ATOM     19  H   UNL     1      13.876  -0.780  19.244  1.00  0.00     0.293 HD
ENDBRANCH  15  18
BRANCH  17  20
ATOM     20  O   UNL     1      14.180   0.672  17.217  1.00  0.00    -0.504 OA
ATOM     21  H   UNL     1      14.041   0.673  16.213  1.00  0.00     0.293 HD
ENDBRANCH  17  20
ENDBRANCH   1  12
BRANCH   6  22
ATOM     22  O   UNL     1      11.081   9.534  15.417  1.00  0.00    -0.507 OA
ATOM     23  H   UNL     1      10.118   9.828  15.388  1.00  0.00     0.293 HD
ENDBRANCH   6  22
BRANCH   8  24
ATOM     24  O   UNL     1      13.719  10.819  19.219  1.00  0.00    -0.508 OA
ATOM     25  H   UNL     1      13.875  10.715  20.216  1.00  0.00     0.293 HD
ENDBRANCH   8  24
TORSDOF 5
ENDMDL
MODEL 4
REMARK VINA RESULT:    31.200      4.739      7.605
REMARK INTER + INTRA:          36.404
REMARK INTER:                  36.668
REMARK INTRA:                  -0.264
REMARK UNBOUND:                -0.268
REMARK SMILES O=c1cc(-c2ccc(O)c(O)c2)oc2cc(O)cc(O)c12
REMARK SMILES IDX 4 1 3 2 2 3 1 4 21 5 19 6 18 7 16 8 15 9 14 10 13 11 5 12
REMARK SMILES IDX 6 13 7 14 8 15 12 16 10 17 9 18 11 20 20 22 17 24
REMARK H PARENT 9 19 11 21 20 23 17 25
REMARK Flexibility Score: inf
ROOT
ATOM      1  C   UNL     1       9.893  10.018  19.739  1.00  0.00     0.138 A 
ATOM      2  C   UNL     1      11.212  10.351  20.078  1.00  0.00     0.100 A 
ATOM      3  C   UNL     1      12.260   9.954  19.246  1.00  0.00     0.197 A 
ATOM      4  O   UNL     1      13.437  10.213  19.609  1.00  0.00    -0.289 OA
ATOM      5  C   UNL     1      11.981   9.248  18.052  1.00  0.00     0.107 A 
ATOM      6  C   UNL     1      12.965   8.828  17.107  1.00  0.00     0.134 A 
ATOM      7  C   UNL     1      12.581   8.034  16.019  1.00  0.00     0.093 A 
ATOM      8  C   UNL     1      11.242   7.695  15.810  1.00  0.00     0.123 A 
ATOM      9  C   UNL     1      10.267   8.145  16.697  1.00  0.00     0.094 A 
ATOM     10  C   UNL     1      10.622   8.909  17.811  1.00  0.00     0.146 A 
ATOM     11  O   UNL     1       9.663   9.307  18.641  1.00  0.00    -0.456 OA
ENDROOT
BRANCH   1  12
ATOM     12  C   UNL     1       8.742  10.416  20.588  1.00  0.00     0.021 A 
ATOM     13  C   UNL     1       7.924   9.461  21.222  1.00  0.00     0.016 A 
ATOM     14  C   UNL     1       6.854   9.865  22.023  1.00  0.00     0.051 A 
ATOM     15  C   UNL     1       6.584  11.226  22.213  1.00  0.00     0.157 A 
ATOM     16  C   UNL     1       8.472  11.781  20.794  1.00  0.00     0.062 A 
ATOM     17  C   UNL     1       7.400  12.189  21.596  1.00  0.00     0.158 A 
BRANCH  15  18
ATOM     18  O   UNL     1       5.514  11.625  23.012  1.00  0.00    -0.504 OA
ATOM     19  H   UNL     1       4.601  11.194  22.930  1.00  0.00     0.293 HD
ENDBRANCH  15  18
BRANCH  17  20
ATOM     20  O   UNL     1       7.162  13.551  21.766  1.00  0.00    -0.504 OA
ATOM     21  H   UNL     1       6.236  13.917  21.959  1.00  0.00     0.293 HD
ENDBRANCH  17  20
ENDBRANCH   1  12
BRANCH   6  22
ATOM     22  O   UNL     1      14.316   9.182  17.177  1.00  0.00    -0.507 OA
ATOM     23  H   UNL     1      15.078   8.529  17.271  1.00  0.00     0.293 HD
ENDBRANCH   6  22
BRANCH   8  24
ATOM     24  O   UNL     1      10.869   6.917  14.716  1.00  0.00    -0.508 OA
ATOM     25  H   UNL     1      10.158   6.198  14.795  1.00  0.00     0.293 HD
ENDBRANCH   8  24
TORSDOF 5
ENDMDL
