MODEL 1
REMARK VINA RESULT:    -3.782      0.000      0.000
REMARK INTER + INTRA:         -11.908
REMARK INTER:                  -8.203
REMARK INTRA:                  -3.705
REMARK UNBOUND:                -3.705
REMARK SMILES CCCCCCCCCCCCCCCCCCCCCC(=O)[O-]
REMARK SMILES IDX 12 1 11 2 10 3 9 4 8 5 7 6 6 7 5 8 4 9 3 10 2 11 1 12 13 13
REMARK SMILES IDX 14 14 15 15 16 16 17 17 18 18 19 19 20 20 21 21 22 22 23 23
REMARK SMILES IDX 24 24
REMARK H PARENT
REMARK Flexibility Score: inf
ROOT
ATOM      1  C   UNL     1      11.593 -17.411 -24.331  1.00  0.00     0.000 C 
ENDROOT
BRANCH   1   2
ATOM      2  C   UNL     1      11.445 -17.781 -22.843  1.00  0.00     0.000 C 
BRANCH   2   3
ATOM      3  C   UNL     1       9.980 -17.699 -22.364  1.00  0.00     0.000 C 
BRANCH   3   4
ATOM      4  C   UNL     1       9.161 -18.966 -22.667  1.00  0.00    -0.000 C 
BRANCH   4   5
ATOM      5  C   UNL     1       8.070 -18.735 -23.722  1.00  0.00    -0.000 C 
BRANCH   5   6
ATOM      6  C   UNL     1       8.350 -19.552 -24.993  1.00  0.00    -0.000 C 
BRANCH   6   7
ATOM      7  C   UNL     1       9.661 -20.357 -24.907  1.00  0.00    -0.000 C 
BRANCH   7   8
ATOM      8  C   UNL     1      10.393 -20.515 -26.254  1.00  0.00    -0.000 C 
BRANCH   8   9
ATOM      9  C   UNL     1       9.995 -19.447 -27.299  1.00  0.00    -0.000 C 
BRANCH   9  10
ATOM     10  C   UNL     1      10.748 -19.584 -28.635  1.00  0.00    -0.000 C 
BRANCH  10  11
ATOM     11  C   UNL     1      11.633 -18.377 -28.991  1.00  0.00    -0.003 C 
ATOM     12  C   UNL     1      12.566 -17.968 -27.851  1.00  0.00     0.004 C 
ENDBRANCH  10  11
ENDBRANCH   9  10
ENDBRANCH   8   9
ENDBRANCH   7   8
ENDBRANCH   6   7
ENDBRANCH   5   6
ENDBRANCH   4   5
ENDBRANCH   3   4
ENDBRANCH   2   3
ENDBRANCH   1   2
BRANCH   1  13
ATOM     13  C   UNL     1      10.901 -16.083 -24.680  1.00  0.00     0.000 C 
BRANCH  13  14
ATOM     14  C   UNL     1       9.912 -16.221 -25.847  1.00  0.00     0.000 C 
BRANCH  14  15
ATOM     15  C   UNL     1       8.832 -15.130 -25.780  1.00  0.00     0.000 C 
BRANCH  15  16
ATOM     16  C   UNL     1       8.184 -15.025 -24.391  1.00  0.00     0.000 C 
BRANCH  16  17
ATOM     17  C   UNL     1       8.246 -13.601 -23.812  1.00  0.00     0.000 C 
BRANCH  17  18
ATOM     18  C   UNL     1       9.534 -12.852 -24.201  1.00  0.00     0.000 C 
BRANCH  18  19
ATOM     19  C   UNL     1      10.611 -12.801 -23.101  1.00  0.00     0.000 C 
BRANCH  19  20
ATOM     20  C   UNL     1      10.051 -13.108 -21.702  1.00  0.00     0.006 C 
BRANCH  20  21
ATOM     21  C   UNL     1      10.628 -14.405 -21.120  1.00  0.00     0.053 C 
BRANCH  21  22
ATOM     22  C   UNL     1      10.814 -14.316 -19.636  1.00  0.00     0.041 C 
ATOM     23  O   UNL     1      10.937 -15.363 -18.948  1.00  0.00    -0.550 OA
ATOM     24  O   UNL     1      10.823 -13.076 -19.010  1.00  0.00    -0.550 OA
ENDBRANCH  21  22
ENDBRANCH  20  21
ENDBRANCH  19  20
ENDBRANCH  18  19
ENDBRANCH  17  18
ENDBRANCH  16  17
ENDBRANCH  15  16
ENDBRANCH  14  15
ENDBRANCH  13  14
ENDBRANCH   1  13
TORSDOF 20
ENDMDL
MODEL 2
REMARK VINA RESULT:    -3.689     17.182     19.336
REMARK INTER + INTRA:         -11.706
REMARK INTER:                  -8.295
REMARK INTRA:                  -3.411
REMARK UNBOUND:                -3.705
REMARK SMILES CCCCCCCCCCCCCCCCCCCCCC(=O)[O-]
REMARK SMILES IDX 12 1 11 2 10 3 9 4 8 5 7 6 6 7 5 8 4 9 3 10 2 11 1 12 13 13
REMARK SMILES IDX 14 14 15 15 16 16 17 17 18 18 19 19 20 20 21 21 22 22 23 23
REMARK SMILES IDX 24 24
REMARK H PARENT
REMARK Flexibility Score: inf
ROOT
ATOM      1  C   UNL     1      23.287  -7.651 -26.617  1.00  0.00     0.000 C 
ENDROOT
BRANCH   1   2
ATOM      2  C   UNL     1      24.372  -8.315 -27.485  1.00  0.00     0.000 C 
BRANCH   2   3
ATOM      3  C   UNL     1      23.814  -8.823 -28.830  1.00  0.00     0.000 C 
BRANCH   3   4
ATOM      4  C   UNL     1      24.523  -8.223 -30.058  1.00  0.00    -0.000 C 
BRANCH   4   5
ATOM      5  C   UNL     1      23.592  -7.365 -30.926  1.00  0.00    -0.000 C 
BRANCH   5   6
ATOM      6  C   UNL     1      22.124  -7.779 -30.735  1.00  0.00    -0.000 C 
BRANCH   6   7
ATOM      7  C   UNL     1      21.163  -6.575 -30.725  1.00  0.00    -0.000 C 
BRANCH   7   8
ATOM      8  C   UNL     1      21.458  -5.523 -31.812  1.00  0.00    -0.000 C 
BRANCH   8   9
ATOM      9  C   UNL     1      21.780  -4.123 -31.240  1.00  0.00    -0.000 C 
BRANCH   9  10
ATOM     10  C   UNL     1      22.813  -3.341 -32.073  1.00  0.00    -0.000 C 
BRANCH  10  11
ATOM     11  C   UNL     1      22.944  -1.856 -31.693  1.00  0.00    -0.003 C 
ATOM     12  C   UNL     1      22.369  -1.546 -30.310  1.00  0.00     0.004 C 
ENDBRANCH  10  11
ENDBRANCH   9  10
ENDBRANCH   8   9
ENDBRANCH   7   8
ENDBRANCH   6   7
ENDBRANCH   5   6
ENDBRANCH   4   5
ENDBRANCH   3   4
ENDBRANCH   2   3
ENDBRANCH   1   2
BRANCH   1  13
ATOM     13  C   UNL     1      23.428  -6.122 -26.561  1.00  0.00     0.000 C 
BRANCH  13  14
ATOM     14  C   UNL     1      22.949  -5.437 -27.851  1.00  0.00     0.000 C 
BRANCH  14  15
ATOM     15  C   UNL     1      23.811  -4.204 -28.166  1.00  0.00     0.000 C 
BRANCH  15  16
ATOM     16  C   UNL     1      25.001  -4.534 -29.080  1.00  0.00     0.000 C 
BRANCH  16  17
ATOM     17  C   UNL     1      25.686  -3.275 -29.643  1.00  0.00     0.000 C 
BRANCH  17  18
ATOM     18  C   UNL     1      27.048  -2.990 -28.983  1.00  0.00     0.000 C 
BRANCH  18  19
ATOM     19  C   UNL     1      27.164  -1.611 -28.307  1.00  0.00     0.000 C 
BRANCH  19  20
ATOM     20  C   UNL     1      26.366  -1.520 -26.995  1.00  0.00     0.006 C 
BRANCH  20  21
ATOM     21  C   UNL     1      27.079  -2.225 -25.835  1.00  0.00     0.053 C 
BRANCH  21  22
ATOM     22  C   UNL     1      26.112  -2.717 -24.802  1.00  0.00     0.041 C 
ATOM     23  O   UNL     1      26.443  -2.752 -23.588  1.00  0.00    -0.550 OA
ATOM     24  O   UNL     1      24.853  -3.162 -25.185  1.00  0.00    -0.550 OA
ENDBRANCH  21  22
ENDBRANCH  20  21
ENDBRANCH  19  20
ENDBRANCH  18  19
ENDBRANCH  17  18
ENDBRANCH  16  17
ENDBRANCH  15  16
ENDBRANCH  14  15
ENDBRANCH  13  14
ENDBRANCH   1  13
TORSDOF 20
ENDMDL
MODEL 3
REMARK VINA RESULT:    -3.681      1.161      1.929
REMARK INTER + INTRA:         -11.689
REMARK INTER:                  -8.393
REMARK INTRA:                  -3.296
REMARK UNBOUND:                -3.705
REMARK SMILES CCCCCCCCCCCCCCCCCCCCCC(=O)[O-]
REMARK SMILES IDX 12 1 11 2 10 3 9 4 8 5 7 6 6 7 5 8 4 9 3 10 2 11 1 12 13 13
REMARK SMILES IDX 14 14 15 15 16 16 17 17 18 18 19 19 20 20 21 21 22 22 23 23
REMARK SMILES IDX 24 24
REMARK H PARENT
REMARK Flexibility Score: inf
ROOT
ATOM      1  C   UNL     1      11.455 -16.978 -23.706  1.00  0.00     0.000 C 
ENDROOT
BRANCH   1   2
ATOM      2  C   UNL     1      10.427 -17.573 -22.727  1.00  0.00     0.000 C 
BRANCH   2   3
ATOM      3  C   UNL     1      10.065 -19.032 -23.076  1.00  0.00     0.000 C 
BRANCH   3   4
ATOM      4  C   UNL     1      10.829 -19.582 -24.294  1.00  0.00    -0.000 C 
BRANCH   4   5
ATOM      5  C   UNL     1       9.899 -20.139 -25.381  1.00  0.00    -0.000 C 
BRANCH   5   6
ATOM      6  C   UNL     1       9.110 -19.009 -26.064  1.00  0.00    -0.000 C 
BRANCH   6   7
ATOM      7  C   UNL     1       9.467 -18.850 -27.554  1.00  0.00    -0.000 C 
BRANCH   7   8
ATOM      8  C   UNL     1      10.038 -17.467 -27.922  1.00  0.00    -0.000 C 
BRANCH   8   9
ATOM      9  C   UNL     1      11.441 -17.533 -28.568  1.00  0.00    -0.000 C 
BRANCH   9  10
ATOM     10  C   UNL     1      12.591 -17.490 -27.545  1.00  0.00    -0.000 C 
BRANCH  10  11
ATOM     11  C   UNL     1      13.889 -16.858 -28.076  1.00  0.00    -0.003 C 
ATOM     12  C   UNL     1      14.111 -17.121 -29.565  1.00  0.00     0.004 C 
ENDBRANCH  10  11
ENDBRANCH   9  10
ENDBRANCH   8   9
ENDBRANCH   7   8
ENDBRANCH   6   7
ENDBRANCH   5   6
ENDBRANCH   4   5
ENDBRANCH   3   4
ENDBRANCH   2   3
ENDBRANCH   1   2
BRANCH   1  13
ATOM     13  C   UNL     1      10.829 -15.963 -24.676  1.00  0.00     0.000 C 
BRANCH  13  14
ATOM     14  C   UNL     1       9.355 -15.671 -24.354  1.00  0.00     0.000 C 
BRANCH  14  15
ATOM     15  C   UNL     1       8.617 -15.153 -25.598  1.00  0.00     0.000 C 
BRANCH  15  16
ATOM     16  C   UNL     1       8.390 -13.634 -25.562  1.00  0.00     0.000 C 
BRANCH  16  17
ATOM     17  C   UNL     1       8.354 -13.072 -24.130  1.00  0.00     0.000 C 
BRANCH  17  18
ATOM     18  C   UNL     1       9.513 -12.099 -23.839  1.00  0.00     0.000 C 
BRANCH  18  19
ATOM     19  C   UNL     1      10.616 -12.661 -22.923  1.00  0.00     0.000 C 
BRANCH  19  20
ATOM     20  C   UNL     1      10.060 -13.288 -21.634  1.00  0.00     0.006 C 
BRANCH  20  21
ATOM     21  C   UNL     1      11.038 -14.292 -21.011  1.00  0.00     0.053 C 
BRANCH  21  22
ATOM     22  C   UNL     1      10.426 -15.024 -19.856  1.00  0.00     0.041 C 
ATOM     23  O   UNL     1       9.219 -15.378 -19.897  1.00  0.00    -0.550 OA
ATOM     24  O   UNL     1      11.183 -15.290 -18.722  1.00  0.00    -0.550 OA
ENDBRANCH  21  22
ENDBRANCH  20  21
ENDBRANCH  19  20
ENDBRANCH  18  19
ENDBRANCH  17  18
ENDBRANCH  16  17
ENDBRANCH  15  16
ENDBRANCH  14  15
ENDBRANCH  13  14
ENDBRANCH   1  13
TORSDOF 20
ENDMDL
MODEL 4
REMARK VINA RESULT:    -3.632      3.273      7.253
REMARK INTER + INTRA:         -11.582
REMARK INTER:                  -7.945
REMARK INTRA:                  -3.637
REMARK UNBOUND:                -3.705
REMARK SMILES CCCCCCCCCCCCCCCCCCCCCC(=O)[O-]
REMARK SMILES IDX 12 1 11 2 10 3 9 4 8 5 7 6 6 7 5 8 4 9 3 10 2 11 1 12 13 13
REMARK SMILES IDX 14 14 15 15 16 16 17 17 18 18 19 19 20 20 21 21 22 22 23 23
REMARK SMILES IDX 24 24
REMARK H PARENT
REMARK Flexibility Score: inf
ROOT
ATOM      1  C   UNL     1      11.222 -17.666 -22.593  1.00  0.00     0.000 C 
ENDROOT
BRANCH   1   2
ATOM      2  C   UNL     1      11.416 -17.480 -24.109  1.00  0.00     0.000 C 
BRANCH   2   3
ATOM      3  C   UNL     1      10.949 -16.091 -24.592  1.00  0.00     0.000 C 
BRANCH   3   4
ATOM      4  C   UNL     1       9.832 -16.149 -25.649  1.00  0.00    -0.000 C 
BRANCH   4   5
ATOM      5  C   UNL     1       8.502 -15.573 -25.146  1.00  0.00    -0.000 C 
BRANCH   5   6
ATOM      6  C   UNL     1       8.423 -14.059 -25.403  1.00  0.00    -0.000 C 
BRANCH   6   7
ATOM      7  C   UNL     1       8.553 -13.229 -24.112  1.00  0.00    -0.000 C 
BRANCH   7   8
ATOM      8  C   UNL     1       9.919 -12.534 -23.944  1.00  0.00    -0.000 C 
BRANCH   8   9
ATOM      9  C   UNL     1      10.626 -12.884 -22.614  1.00  0.00    -0.000 C 
BRANCH   9  10
ATOM     10  C   UNL     1       9.860 -13.916 -21.765  1.00  0.00    -0.000 C 
BRANCH  10  11
ATOM     11  C   UNL     1      10.149 -13.836 -20.256  1.00  0.00    -0.003 C 
ATOM     12  C   UNL     1      10.845 -15.087 -19.719  1.00  0.00     0.004 C 
ENDBRANCH  10  11
ENDBRANCH   9  10
ENDBRANCH   8   9
ENDBRANCH   7   8
ENDBRANCH   6   7
ENDBRANCH   5   6
ENDBRANCH   4   5
ENDBRANCH   3   4
ENDBRANCH   2   3
ENDBRANCH   1   2
BRANCH   1  13
ATOM     13  C   UNL     1       9.743 -17.790 -22.197  1.00  0.00     0.000 C 
BRANCH  13  14
ATOM     14  C   UNL     1       9.125 -19.128 -22.632  1.00  0.00     0.000 C 
BRANCH  14  15
ATOM     15  C   UNL     1       7.993 -18.903 -23.646  1.00  0.00     0.000 C 
BRANCH  15  16
ATOM     16  C   UNL     1       8.236 -19.632 -24.976  1.00  0.00     0.000 C 
BRANCH  16  17
ATOM     17  C   UNL     1       9.189 -20.831 -24.831  1.00  0.00     0.000 C 
BRANCH  17  18
ATOM     18  C   UNL     1      10.471 -20.682 -25.672  1.00  0.00     0.000 C 
BRANCH  18  19
ATOM     19  C   UNL     1      10.382 -19.652 -26.812  1.00  0.00     0.000 C 
BRANCH  19  20
ATOM     20  C   UNL     1      11.681 -19.549 -27.629  1.00  0.00     0.006 C 
BRANCH  20  21
ATOM     21  C   UNL     1      12.232 -18.118 -27.662  1.00  0.00     0.053 C 
BRANCH  21  22
ATOM     22  C   UNL     1      13.393 -17.989 -28.599  1.00  0.00     0.041 C 
ATOM     23  O   UNL     1      13.309 -17.253 -29.617  1.00  0.00    -0.550 OA
ATOM     24  O   UNL     1      14.560 -18.705 -28.362  1.00  0.00    -0.550 OA
ENDBRANCH  21  22
ENDBRANCH  20  21
ENDBRANCH  19  20
ENDBRANCH  18  19
ENDBRANCH  17  18
ENDBRANCH  16  17
ENDBRANCH  15  16
ENDBRANCH  14  15
ENDBRANCH  13  14
ENDBRANCH   1  13
TORSDOF 20
ENDMDL
MODEL 5
REMARK VINA RESULT:    -3.611      2.206      4.412
REMARK INTER + INTRA:         -11.538
REMARK INTER:                  -8.355
REMARK INTRA:                  -3.183
REMARK UNBOUND:                -3.705
REMARK SMILES CCCCCCCCCCCCCCCCCCCCCC(=O)[O-]
REMARK SMILES IDX 12 1 11 2 10 3 9 4 8 5 7 6 6 7 5 8 4 9 3 10 2 11 1 12 13 13
REMARK SMILES IDX 14 14 15 15 16 16 17 17 18 18 19 19 20 20 21 21 22 22 23 23
REMARK SMILES IDX 24 24
REMARK H PARENT
REMARK Flexibility Score: inf
ROOT
ATOM      1  C   UNL     1      11.635 -17.514 -25.380  1.00  0.00     0.000 C 
ENDROOT
BRANCH   1   2
ATOM      2  C   UNL     1      10.692 -16.616 -26.203  1.00  0.00     0.000 C 
BRANCH   2   3
ATOM      3  C   UNL     1       9.682 -17.435 -27.032  1.00  0.00     0.000 C 
BRANCH   3   4
ATOM      4  C   UNL     1      10.123 -17.664 -28.489  1.00  0.00    -0.000 C 
BRANCH   4   5
ATOM      5  C   UNL     1      10.389 -19.142 -28.808  1.00  0.00    -0.000 C 
BRANCH   5   6
ATOM      6  C   UNL     1      11.878 -19.484 -28.638  1.00  0.00    -0.000 C 
BRANCH   6   7
ATOM      7  C   UNL     1      12.802 -18.509 -29.392  1.00  0.00    -0.000 C 
BRANCH   7   8
ATOM      8  C   UNL     1      14.081 -18.129 -28.621  1.00  0.00    -0.000 C 
BRANCH   8   9
ATOM      9  C   UNL     1      14.033 -16.706 -28.016  1.00  0.00    -0.000 C 
BRANCH   9  10
ATOM     10  C   UNL     1      15.425 -16.094 -27.777  1.00  0.00    -0.000 C 
BRANCH  10  11
ATOM     11  C   UNL     1      16.547 -16.715 -28.626  1.00  0.00    -0.003 C 
ATOM     12  C   UNL     1      17.429 -17.679 -27.832  1.00  0.00     0.004 C 
ENDBRANCH  10  11
ENDBRANCH   9  10
ENDBRANCH   8   9
ENDBRANCH   7   8
ENDBRANCH   6   7
ENDBRANCH   5   6
ENDBRANCH   4   5
ENDBRANCH   3   4
ENDBRANCH   2   3
ENDBRANCH   1   2
BRANCH   1  13
ATOM     13  C   UNL     1      11.037 -18.902 -25.105  1.00  0.00     0.000 C 
BRANCH  13  14
ATOM     14  C   UNL     1      11.186 -19.329 -23.636  1.00  0.00     0.000 C 
BRANCH  14  15
ATOM     15  C   UNL     1       9.814 -19.635 -23.016  1.00  0.00     0.000 C 
BRANCH  15  16
ATOM     16  C   UNL     1       9.260 -18.459 -22.197  1.00  0.00     0.000 C 
BRANCH  16  17
ATOM     17  C   UNL     1       8.470 -17.456 -23.056  1.00  0.00     0.000 C 
BRANCH  17  18
ATOM     18  C   UNL     1       9.036 -16.026 -22.979  1.00  0.00     0.000 C 
BRANCH  18  19
ATOM     19  C   UNL     1      10.372 -15.898 -22.225  1.00  0.00     0.000 C 
BRANCH  19  20
ATOM     20  C   UNL     1      11.255 -14.758 -22.762  1.00  0.00     0.006 C 
BRANCH  20  21
ATOM     21  C   UNL     1      10.424 -13.623 -23.374  1.00  0.00     0.053 C 
BRANCH  21  22
ATOM     22  C   UNL     1      10.345 -12.436 -22.463  1.00  0.00     0.041 C 
ATOM     23  O   UNL     1      10.804 -11.323 -22.830  1.00  0.00    -0.550 OA
ATOM     24  O   UNL     1       9.788 -12.568 -21.197  1.00  0.00    -0.550 OA
ENDBRANCH  21  22
ENDBRANCH  20  21
ENDBRANCH  19  20
ENDBRANCH  18  19
ENDBRANCH  17  18
ENDBRANCH  16  17
ENDBRANCH  15  16
ENDBRANCH  14  15
ENDBRANCH  13  14
ENDBRANCH   1  13
TORSDOF 20
ENDMDL
MODEL 6
REMARK VINA RESULT:    -3.572      3.454      7.095
REMARK INTER + INTRA:         -11.453
REMARK INTER:                  -8.161
REMARK INTRA:                  -3.291
REMARK UNBOUND:                -3.705
REMARK SMILES CCCCCCCCCCCCCCCCCCCCCC(=O)[O-]
REMARK SMILES IDX 12 1 11 2 10 3 9 4 8 5 7 6 6 7 5 8 4 9 3 10 2 11 1 12 13 13
REMARK SMILES IDX 14 14 15 15 16 16 17 17 18 18 19 19 20 20 21 21 22 22 23 23
REMARK SMILES IDX 24 24
REMARK H PARENT
REMARK Flexibility Score: inf
ROOT
ATOM      1  C   UNL     1      11.623 -17.226 -24.159  1.00  0.00     0.000 C 
ENDROOT
BRANCH   1   2
ATOM      2  C   UNL     1      10.975 -18.191 -23.148  1.00  0.00     0.000 C 
BRANCH   2   3
ATOM      3  C   UNL     1       9.756 -17.563 -22.440  1.00  0.00     0.000 C 
BRANCH   3   4
ATOM      4  C   UNL     1       8.571 -17.286 -23.383  1.00  0.00    -0.000 C 
BRANCH   4   5
ATOM      5  C   UNL     1       7.959 -15.894 -23.179  1.00  0.00    -0.000 C 
BRANCH   5   6
ATOM      6  C   UNL     1       8.170 -15.011 -24.419  1.00  0.00    -0.000 C 
BRANCH   6   7
ATOM      7  C   UNL     1       8.911 -13.699 -24.098  1.00  0.00    -0.000 C 
BRANCH   7   8
ATOM      8  C   UNL     1      10.436 -13.859 -23.938  1.00  0.00    -0.000 C 
BRANCH   8   9
ATOM      9  C   UNL     1      10.880 -14.071 -22.472  1.00  0.00    -0.000 C 
BRANCH   9  10
ATOM     10  C   UNL     1      10.090 -13.220 -21.462  1.00  0.00    -0.000 C 
BRANCH  10  11
ATOM     11  C   UNL     1      10.073 -13.784 -20.031  1.00  0.00    -0.003 C 
ATOM     12  C   UNL     1      10.911 -15.054 -19.884  1.00  0.00     0.004 C 
ENDBRANCH  10  11
ENDBRANCH   9  10
ENDBRANCH   8   9
ENDBRANCH   7   8
ENDBRANCH   6   7
ENDBRANCH   5   6
ENDBRANCH   4   5
ENDBRANCH   3   4
ENDBRANCH   2   3
ENDBRANCH   1   2
BRANCH   1  13
ATOM     13  C   UNL     1      11.463 -17.700 -25.612  1.00  0.00     0.000 C 
BRANCH  13  14
ATOM     14  C   UNL     1      10.727 -16.676 -26.490  1.00  0.00     0.000 C 
BRANCH  14  15
ATOM     15  C   UNL     1       9.652 -17.364 -27.346  1.00  0.00     0.000 C 
BRANCH  15  16
ATOM     16  C   UNL     1      10.050 -17.464 -28.826  1.00  0.00     0.000 C 
BRANCH  16  17
ATOM     17  C   UNL     1      10.486 -18.884 -29.231  1.00  0.00     0.000 C 
BRANCH  17  18
ATOM     18  C   UNL     1      11.865 -18.914 -29.916  1.00  0.00     0.000 C 
BRANCH  18  19
ATOM     19  C   UNL     1      12.772 -17.710 -29.600  1.00  0.00     0.000 C 
BRANCH  19  20
ATOM     20  C   UNL     1      13.717 -17.969 -28.415  1.00  0.00     0.006 C 
BRANCH  20  21
ATOM     21  C   UNL     1      14.490 -16.709 -28.006  1.00  0.00     0.053 C 
BRANCH  21  22
ATOM     22  C   UNL     1      15.972 -16.923 -28.055  1.00  0.00     0.041 C 
ATOM     23  O   UNL     1      16.547 -17.594 -27.158  1.00  0.00    -0.550 OA
ATOM     24  O   UNL     1      16.722 -16.358 -29.079  1.00  0.00    -0.550 OA
ENDBRANCH  21  22
ENDBRANCH  20  21
ENDBRANCH  19  20
ENDBRANCH  18  19
ENDBRANCH  17  18
ENDBRANCH  16  17
ENDBRANCH  15  16
ENDBRANCH  14  15
ENDBRANCH  13  14
ENDBRANCH   1  13
TORSDOF 20
ENDMDL
MODEL 7
REMARK VINA RESULT:    -3.480      3.465      6.915
REMARK INTER + INTRA:         -11.253
REMARK INTER:                  -7.803
REMARK INTRA:                  -3.450
REMARK UNBOUND:                -3.705
REMARK SMILES CCCCCCCCCCCCCCCCCCCCCC(=O)[O-]
REMARK SMILES IDX 12 1 11 2 10 3 9 4 8 5 7 6 6 7 5 8 4 9 3 10 2 11 1 12 13 13
REMARK SMILES IDX 14 14 15 15 16 16 17 17 18 18 19 19 20 20 21 21 22 22 23 23
REMARK SMILES IDX 24 24
REMARK H PARENT
REMARK Flexibility Score: inf
ROOT
ATOM      1  C   UNL     1      10.873 -19.432 -24.471  1.00  0.00     0.000 C 
ENDROOT
BRANCH   1   2
ATOM      2  C   UNL     1      11.660 -18.872 -23.272  1.00  0.00     0.000 C 
BRANCH   2   3
ATOM      3  C   UNL     1      11.091 -17.526 -22.777  1.00  0.00     0.000 C 
BRANCH   3   4
ATOM      4  C   UNL     1       9.667 -17.633 -22.201  1.00  0.00    -0.000 C 
BRANCH   4   5
ATOM      5  C   UNL     1       8.655 -16.746 -22.939  1.00  0.00    -0.000 C 
BRANCH   5   6
ATOM      6  C   UNL     1       9.317 -16.020 -24.121  1.00  0.00    -0.000 C 
BRANCH   6   7
ATOM      7  C   UNL     1       8.983 -14.516 -24.159  1.00  0.00    -0.000 C 
BRANCH   7   8
ATOM      8  C   UNL     1      10.188 -13.595 -23.886  1.00  0.00    -0.000 C 
BRANCH   8   9
ATOM      9  C   UNL     1      10.855 -13.848 -22.514  1.00  0.00    -0.000 C 
BRANCH   9  10
ATOM     10  C   UNL     1      10.090 -13.219 -21.334  1.00  0.00    -0.000 C 
BRANCH  10  11
ATOM     11  C   UNL     1       9.747 -14.203 -20.202  1.00  0.00    -0.003 C 
ATOM     12  C   UNL     1      10.932 -15.083 -19.804  1.00  0.00     0.004 C 
ENDBRANCH  10  11
ENDBRANCH   9  10
ENDBRANCH   8   9
ENDBRANCH   7   8
ENDBRANCH   6   7
ENDBRANCH   5   6
ENDBRANCH   4   5
ENDBRANCH   3   4
ENDBRANCH   2   3
ENDBRANCH   1   2
BRANCH   1  13
ATOM     13  C   UNL     1      10.043 -20.672 -24.105  1.00  0.00     0.000 C 
BRANCH  13  14
ATOM     14  C   UNL     1       8.688 -20.712 -24.830  1.00  0.00     0.000 C 
BRANCH  14  15
ATOM     15  C   UNL     1       8.433 -19.396 -25.582  1.00  0.00     0.000 C 
BRANCH  15  16
ATOM     16  C   UNL     1       8.340 -19.593 -27.103  1.00  0.00     0.000 C 
BRANCH  16  17
ATOM     17  C   UNL     1       9.521 -18.959 -27.858  1.00  0.00     0.000 C 
BRANCH  17  18
ATOM     18  C   UNL     1       9.671 -17.452 -27.578  1.00  0.00     0.000 C 
BRANCH  18  19
ATOM     19  C   UNL     1      11.068 -17.017 -27.099  1.00  0.00     0.000 C 
BRANCH  19  20
ATOM     20  C   UNL     1      12.201 -17.844 -27.730  1.00  0.00     0.006 C 
BRANCH  20  21
ATOM     21  C   UNL     1      13.506 -17.046 -27.842  1.00  0.00     0.053 C 
BRANCH  21  22
ATOM     22  C   UNL     1      14.525 -17.759 -28.677  1.00  0.00     0.041 C 
ATOM     23  O   UNL     1      14.309 -17.968 -29.900  1.00  0.00    -0.550 OA
ATOM     24  O   UNL     1      15.702 -18.216 -28.098  1.00  0.00    -0.550 OA
ENDBRANCH  21  22
ENDBRANCH  20  21
ENDBRANCH  19  20
ENDBRANCH  18  19
ENDBRANCH  17  18
ENDBRANCH  16  17
ENDBRANCH  15  16
ENDBRANCH  14  15
ENDBRANCH  13  14
ENDBRANCH   1  13
TORSDOF 20
ENDMDL
MODEL 8
REMARK VINA RESULT:    -3.427     15.928     18.483
REMARK INTER + INTRA:         -11.138
REMARK INTER:                  -8.135
REMARK INTRA:                  -3.003
REMARK UNBOUND:                -3.705
REMARK SMILES CCCCCCCCCCCCCCCCCCCCCC(=O)[O-]
REMARK SMILES IDX 12 1 11 2 10 3 9 4 8 5 7 6 6 7 5 8 4 9 3 10 2 11 1 12 13 13
REMARK SMILES IDX 14 14 15 15 16 16 17 17 18 18 19 19 20 20 21 21 22 22 23 23
REMARK SMILES IDX 24 24
REMARK H PARENT
REMARK Flexibility Score: inf
ROOT
ATOM      1  C   UNL     1      22.917  -2.375 -29.377  1.00  0.00     0.000 C 
ENDROOT
BRANCH   1   2
ATOM      2  C   UNL     1      22.515  -2.166 -30.849  1.00  0.00     0.000 C 
BRANCH   2   3
ATOM      3  C   UNL     1      23.675  -2.470 -31.820  1.00  0.00     0.000 C 
BRANCH   3   4
ATOM      4  C   UNL     1      23.209  -2.860 -33.234  1.00  0.00    -0.000 C 
BRANCH   4   5
ATOM      5  C   UNL     1      21.682  -2.861 -33.381  1.00  0.00    -0.000 C 
BRANCH   5   6
ATOM      6  C   UNL     1      21.153  -4.282 -33.637  1.00  0.00    -0.000 C 
BRANCH   6   7
ATOM      7  C   UNL     1      19.939  -4.633 -32.756  1.00  0.00    -0.000 C 
BRANCH   7   8
ATOM      8  C   UNL     1      20.295  -4.953 -31.291  1.00  0.00    -0.000 C 
BRANCH   8   9
ATOM      9  C   UNL     1      21.623  -5.731 -31.138  1.00  0.00    -0.000 C 
BRANCH   9  10
ATOM     10  C   UNL     1      21.438  -7.160 -30.596  1.00  0.00    -0.000 C 
BRANCH  10  11
ATOM     11  C   UNL     1      21.825  -8.271 -31.588  1.00  0.00    -0.003 C 
ATOM     12  C   UNL     1      22.849  -7.808 -32.625  1.00  0.00     0.004 C 
ENDBRANCH  10  11
ENDBRANCH   9  10
ENDBRANCH   8   9
ENDBRANCH   7   8
ENDBRANCH   6   7
ENDBRANCH   5   6
ENDBRANCH   4   5
ENDBRANCH   3   4
ENDBRANCH   2   3
ENDBRANCH   1   2
BRANCH   1  13
ATOM     13  C   UNL     1      24.032  -3.420 -29.212  1.00  0.00     0.000 C 
BRANCH  13  14
ATOM     14  C   UNL     1      24.046  -4.053 -27.812  1.00  0.00     0.000 C 
BRANCH  14  15
ATOM     15  C   UNL     1      23.220  -5.348 -27.790  1.00  0.00     0.000 C 
BRANCH  15  16
ATOM     16  C   UNL     1      23.305  -6.081 -26.442  1.00  0.00     0.000 C 
BRANCH  16  17
ATOM     17  C   UNL     1      23.516  -7.597 -26.601  1.00  0.00     0.000 C 
BRANCH  17  18
ATOM     18  C   UNL     1      23.722  -8.022 -28.067  1.00  0.00     0.000 C 
BRANCH  18  19
ATOM     19  C   UNL     1      24.758  -9.141 -28.279  1.00  0.00     0.000 C 
BRANCH  19  20
ATOM     20  C   UNL     1      24.518  -9.941 -29.571  1.00  0.00     0.006 C 
BRANCH  20  21
ATOM     21  C   UNL     1      23.691 -11.208 -29.321  1.00  0.00     0.053 C 
BRANCH  21  22
ATOM     22  C   UNL     1      23.004 -11.679 -30.566  1.00  0.00     0.041 C 
ATOM     23  O   UNL     1      23.585 -11.599 -31.681  1.00  0.00    -0.550 OA
ATOM     24  O   UNL     1      21.711 -12.182 -30.499  1.00  0.00    -0.550 OA
ENDBRANCH  21  22
ENDBRANCH  20  21
ENDBRANCH  19  20
ENDBRANCH  18  19
ENDBRANCH  17  18
ENDBRANCH  16  17
ENDBRANCH  15  16
ENDBRANCH  14  15
ENDBRANCH  13  14
ENDBRANCH   1  13
TORSDOF 20
ENDMDL
MODEL 9
REMARK VINA RESULT:    -3.396      2.436      4.216
REMARK INTER + INTRA:         -11.072
REMARK INTER:                  -8.683
REMARK INTRA:                  -2.389
REMARK UNBOUND:                -3.705
REMARK SMILES CCCCCCCCCCCCCCCCCCCCCC(=O)[O-]
REMARK SMILES IDX 12 1 11 2 10 3 9 4 8 5 7 6 6 7 5 8 4 9 3 10 2 11 1 12 13 13
REMARK SMILES IDX 14 14 15 15 16 16 17 17 18 18 19 19 20 20 21 21 22 22 23 23
REMARK SMILES IDX 24 24
REMARK H PARENT
REMARK Flexibility Score: inf
ROOT
ATOM      1  C   UNL     1      11.448 -17.717 -23.180  1.00  0.00     0.000 C 
ENDROOT
BRANCH   1   2
ATOM      2  C   UNL     1      11.916 -17.406 -24.614  1.00  0.00     0.000 C 
BRANCH   2   3
ATOM      3  C   UNL     1      10.810 -17.666 -25.658  1.00  0.00     0.000 C 
BRANCH   3   4
ATOM      4  C   UNL     1      11.164 -17.164 -27.070  1.00  0.00    -0.000 C 
BRANCH   4   5
ATOM      5  C   UNL     1      12.020 -18.162 -27.862  1.00  0.00    -0.000 C 
BRANCH   5   6
ATOM      6  C   UNL     1      12.675 -17.485 -29.077  1.00  0.00    -0.000 C 
BRANCH   6   7
ATOM      7  C   UNL     1      14.212 -17.586 -29.058  1.00  0.00    -0.000 C 
BRANCH   7   8
ATOM      8  C   UNL     1      14.889 -16.704 -27.991  1.00  0.00    -0.000 C 
BRANCH   8   9
ATOM      9  C   UNL     1      16.364 -16.371 -28.317  1.00  0.00    -0.000 C 
BRANCH   9  10
ATOM     10  C   UNL     1      17.349 -17.481 -27.903  1.00  0.00    -0.000 C 
BRANCH  10  11
ATOM     11  C   UNL     1      17.859 -18.344 -29.070  1.00  0.00    -0.003 C 
ATOM     12  C   UNL     1      18.308 -17.512 -30.272  1.00  0.00     0.004 C 
ENDBRANCH  10  11
ENDBRANCH   9  10
ENDBRANCH   8   9
ENDBRANCH   7   8
ENDBRANCH   6   7
ENDBRANCH   5   6
ENDBRANCH   4   5
ENDBRANCH   3   4
ENDBRANCH   2   3
ENDBRANCH   1   2
BRANCH   1  13
ATOM     13  C   UNL     1      10.081 -18.419 -23.144  1.00  0.00     0.000 C 
BRANCH  13  14
ATOM     14  C   UNL     1       8.993 -17.562 -22.479  1.00  0.00     0.000 C 
BRANCH  14  15
ATOM     15  C   UNL     1       8.007 -17.022 -23.526  1.00  0.00     0.000 C 
BRANCH  15  16
ATOM     16  C   UNL     1       7.877 -15.492 -23.481  1.00  0.00     0.000 C 
BRANCH  16  17
ATOM     17  C   UNL     1       8.644 -14.796 -24.619  1.00  0.00     0.000 C 
BRANCH  17  18
ATOM     18  C   UNL     1      10.056 -14.346 -24.200  1.00  0.00     0.000 C 
BRANCH  18  19
ATOM     19  C   UNL     1      10.131 -12.940 -23.578  1.00  0.00     0.000 C 
BRANCH  19  20
ATOM     20  C   UNL     1      10.085 -12.963 -22.041  1.00  0.00     0.006 C 
BRANCH  20  21
ATOM     21  C   UNL     1      10.602 -14.288 -21.468  1.00  0.00     0.053 C 
BRANCH  21  22
ATOM     22  C   UNL     1      10.224 -14.458 -20.028  1.00  0.00     0.041 C 
ATOM     23  O   UNL     1      10.764 -13.745 -19.142  1.00  0.00    -0.550 OA
ATOM     24  O   UNL     1       9.295 -15.423 -19.662  1.00  0.00    -0.550 OA
ENDBRANCH  21  22
ENDBRANCH  20  21
ENDBRANCH  19  20
ENDBRANCH  18  19
ENDBRANCH  17  18
ENDBRANCH  16  17
ENDBRANCH  15  16
ENDBRANCH  14  15
ENDBRANCH  13  14
ENDBRANCH   1  13
TORSDOF 20
ENDMDL
