MODEL 1
REMARK VINA RESULT:    -3.305      0.000      0.000
REMARK INTER + INTRA:          -7.127
REMARK INTER:                  -6.010
REMARK INTRA:                  -1.117
REMARK UNBOUND:                -1.117
REMARK SMILES CCCCCCCCCCCCCCCC(=O)[O-]
REMARK SMILES IDX 9 1 10 2 11 3 12 4 13 5 14 6 15 7 16 8 17 9 18 10 8 11 7 12
REMARK SMILES IDX 6 13 5 14 4 15 3 16 2 17 1 18
REMARK H PARENT
REMARK Flexibility Score: inf
ROOT
ATOM      1  C   UNL     1      11.066  -7.204   5.744  1.00  0.00     0.000 C 
ENDROOT
BRANCH   1   2
ATOM      2  C   UNL     1      11.927  -6.834   4.522  1.00  0.00     0.000 C 
BRANCH   2   3
ATOM      3  C   UNL     1      13.388  -7.302   4.652  1.00  0.00     0.000 C 
BRANCH   3   4
ATOM      4  C   UNL     1      13.712  -7.820   6.070  1.00  0.00     0.000 C 
BRANCH   4   5
ATOM      5  C   UNL     1      15.179  -8.247   6.255  1.00  0.00     0.000 C 
BRANCH   5   6
ATOM      6  C   UNL     1      16.174  -7.122   5.942  1.00  0.00     0.006 C 
BRANCH   6   7
ATOM      7  C   UNL     1      16.691  -6.466   7.224  1.00  0.00     0.053 C 
BRANCH   7   8
ATOM      8  C   UNL     1      18.118  -6.848   7.466  1.00  0.00     0.041 C 
ATOM      9  O   UNL     1      18.750  -6.356   8.438  1.00  0.00    -0.550 OA
ATOM     10  O   UNL     1      18.735  -7.787   6.647  1.00  0.00    -0.550 OA
ENDBRANCH   7   8
ENDBRANCH   6   7
ENDBRANCH   5   6
ENDBRANCH   4   5
ENDBRANCH   3   4
ENDBRANCH   2   3
ENDBRANCH   1   2
BRANCH   1  11
ATOM     11  C   UNL     1       9.601  -7.555   5.428  1.00  0.00     0.000 C 
BRANCH  11  12
ATOM     12  C   UNL     1       9.239  -9.003   5.789  1.00  0.00    -0.000 C 
BRANCH  12  13
ATOM     13  C   UNL     1       8.629  -9.089   7.197  1.00  0.00    -0.000 C 
BRANCH  13  14
ATOM     14  C   UNL     1       7.096  -9.184   7.172  1.00  0.00    -0.000 C 
BRANCH  14  15
ATOM     15  C   UNL     1       6.557  -9.798   5.868  1.00  0.00    -0.000 C 
BRANCH  15  16
ATOM     16  C   UNL     1       5.660  -8.814   5.088  1.00  0.00    -0.000 C 
BRANCH  16  17
ATOM     17  C   UNL     1       5.809  -7.353   5.547  1.00  0.00    -0.003 C 
ATOM     18  C   UNL     1       6.206  -6.409   4.413  1.00  0.00     0.004 C 
ENDBRANCH  16  17
ENDBRANCH  15  16
ENDBRANCH  14  15
ENDBRANCH  13  14
ENDBRANCH  12  13
ENDBRANCH  11  12
ENDBRANCH   1  11
TORSDOF 14
ENDMDL
MODEL 2
REMARK VINA RESULT:    -3.290      1.733      3.422
REMARK INTER + INTRA:          -7.100
REMARK INTER:                  -6.127
REMARK INTRA:                  -0.973
REMARK UNBOUND:                -1.117
REMARK SMILES CCCCCCCCCCCCCCCC(=O)[O-]
REMARK SMILES IDX 9 1 10 2 11 3 12 4 13 5 14 6 15 7 16 8 17 9 18 10 8 11 7 12
REMARK SMILES IDX 6 13 5 14 4 15 3 16 2 17 1 18
REMARK H PARENT
REMARK Flexibility Score: inf
ROOT
ATOM      1  C   UNL     1      14.422  -8.346   5.104  1.00  0.00     0.000 C 
ENDROOT
BRANCH   1   2
ATOM      2  C   UNL     1      15.294  -7.606   6.134  1.00  0.00     0.000 C 
BRANCH   2   3
ATOM      3  C   UNL     1      16.035  -6.396   5.538  1.00  0.00     0.000 C 
BRANCH   3   4
ATOM      4  C   UNL     1      16.680  -6.721   4.173  1.00  0.00     0.000 C 
BRANCH   4   5
ATOM      5  C   UNL     1      18.117  -6.193   4.024  1.00  0.00     0.000 C 
BRANCH   5   6
ATOM      6  C   UNL     1      19.174  -7.176   4.546  1.00  0.00     0.006 C 
BRANCH   6   7
ATOM      7  C   UNL     1      19.857  -6.637   5.805  1.00  0.00     0.053 C 
BRANCH   7   8
ATOM      8  C   UNL     1      19.299  -7.299   7.025  1.00  0.00     0.041 C 
ATOM      9  O   UNL     1      18.795  -6.607   7.948  1.00  0.00    -0.550 OA
ATOM     10  O   UNL     1      19.291  -8.687   7.121  1.00  0.00    -0.550 OA
ENDBRANCH   7   8
ENDBRANCH   6   7
ENDBRANCH   5   6
ENDBRANCH   4   5
ENDBRANCH   3   4
ENDBRANCH   2   3
ENDBRANCH   1   2
BRANCH   1  11
ATOM     11  C   UNL     1      13.059  -7.692   4.809  1.00  0.00     0.000 C 
BRANCH  11  12
ATOM     12  C   UNL     1      12.216  -7.465   6.073  1.00  0.00    -0.000 C 
BRANCH  12  13
ATOM     13  C   UNL     1      10.761  -7.126   5.715  1.00  0.00    -0.000 C 
BRANCH  13  14
ATOM     14  C   UNL     1      10.122  -8.170   4.787  1.00  0.00    -0.000 C 
BRANCH  14  15
ATOM     15  C   UNL     1       8.799  -8.730   5.341  1.00  0.00    -0.000 C 
BRANCH  15  16
ATOM     16  C   UNL     1       8.803  -8.816   6.881  1.00  0.00    -0.000 C 
BRANCH  16  17
ATOM     17  C   UNL     1       8.055 -10.044   7.429  1.00  0.00    -0.003 C 
ATOM     18  C   UNL     1       7.330  -9.765   8.744  1.00  0.00     0.004 C 
ENDBRANCH  16  17
ENDBRANCH  15  16
ENDBRANCH  14  15
ENDBRANCH  13  14
ENDBRANCH  12  13
ENDBRANCH  11  12
ENDBRANCH   1  11
TORSDOF 14
ENDMDL
MODEL 3
REMARK VINA RESULT:    -3.210      4.176      9.457
REMARK INTER + INTRA:          -6.954
REMARK INTER:                  -5.768
REMARK INTRA:                  -1.186
REMARK UNBOUND:                -1.117
REMARK SMILES CCCCCCCCCCCCCCCC(=O)[O-]
REMARK SMILES IDX 9 1 10 2 11 3 12 4 13 5 14 6 15 7 16 8 17 9 18 10 8 11 7 12
REMARK SMILES IDX 6 13 5 14 4 15 3 16 2 17 1 18
REMARK H PARENT
REMARK Flexibility Score: inf
ROOT
ATOM      1  C   UNL     1      13.983  -7.798   5.903  1.00  0.00     0.000 C 
ENDROOT
BRANCH   1   2
ATOM      2  C   UNL     1      13.354  -8.165   4.546  1.00  0.00     0.000 C 
BRANCH   2   3
ATOM      3  C   UNL     1      11.868  -7.777   4.447  1.00  0.00     0.000 C 
BRANCH   3   4
ATOM      4  C   UNL     1      11.348  -7.121   5.745  1.00  0.00     0.000 C 
BRANCH   4   5
ATOM      5  C   UNL     1      10.189  -7.888   6.406  1.00  0.00     0.000 C 
BRANCH   5   6
ATOM      6  C   UNL     1       9.485  -8.855   5.446  1.00  0.00     0.006 C 
BRANCH   6   7
ATOM      7  C   UNL     1       8.615  -9.857   6.207  1.00  0.00     0.053 C 
BRANCH   7   8
ATOM      8  C   UNL     1       7.534  -9.144   6.958  1.00  0.00     0.041 C 
ATOM      9  O   UNL     1       7.502  -9.186   8.216  1.00  0.00    -0.550 OA
ATOM     10  O   UNL     1       6.590  -8.391   6.268  1.00  0.00    -0.550 OA
ENDBRANCH   7   8
ENDBRANCH   6   7
ENDBRANCH   5   6
ENDBRANCH   4   5
ENDBRANCH   3   4
ENDBRANCH   2   3
ENDBRANCH   1   2
BRANCH   1  11
ATOM     11  C   UNL     1      15.520  -7.705   5.908  1.00  0.00     0.000 C 
BRANCH  11  12
ATOM     12  C   UNL     1      16.041  -6.345   5.423  1.00  0.00    -0.000 C 
BRANCH  12  13
ATOM     13  C   UNL     1      16.811  -6.485   4.100  1.00  0.00    -0.000 C 
BRANCH  13  14
ATOM     14  C   UNL     1      18.327  -6.308   4.276  1.00  0.00    -0.000 C 
BRANCH  14  15
ATOM     15  C   UNL     1      19.018  -7.576   4.805  1.00  0.00    -0.000 C 
BRANCH  15  16
ATOM     16  C   UNL     1      19.815  -7.309   6.099  1.00  0.00    -0.000 C 
BRANCH  16  17
ATOM     17  C   UNL     1      19.025  -7.619   7.382  1.00  0.00    -0.003 C 
ATOM     18  C   UNL     1      19.011  -6.455   8.370  1.00  0.00     0.004 C 
ENDBRANCH  16  17
ENDBRANCH  15  16
ENDBRANCH  14  15
ENDBRANCH  13  14
ENDBRANCH  12  13
ENDBRANCH  11  12
ENDBRANCH   1  11
TORSDOF 14
ENDMDL
MODEL 4
REMARK VINA RESULT:    -3.200      0.958      2.048
REMARK INTER + INTRA:          -6.936
REMARK INTER:                  -5.844
REMARK INTRA:                  -1.092
REMARK UNBOUND:                -1.117
REMARK SMILES CCCCCCCCCCCCCCCC(=O)[O-]
REMARK SMILES IDX 9 1 10 2 11 3 12 4 13 5 14 6 15 7 16 8 17 9 18 10 8 11 7 12
REMARK SMILES IDX 6 13 5 14 4 15 3 16 2 17 1 18
REMARK H PARENT
REMARK Flexibility Score: inf
ROOT
ATOM      1  C   UNL     1      11.934  -7.195   5.684  1.00  0.00     0.000 C 
ENDROOT
BRANCH   1   2
ATOM      2  C   UNL     1      12.358  -7.296   4.208  1.00  0.00     0.000 C 
BRANCH   2   3
ATOM      3  C   UNL     1      13.579  -8.209   3.993  1.00  0.00     0.000 C 
BRANCH   3   4
ATOM      4  C   UNL     1      14.490  -8.267   5.238  1.00  0.00     0.000 C 
BRANCH   4   5
ATOM      5  C   UNL     1      15.941  -7.833   4.966  1.00  0.00     0.000 C 
BRANCH   5   6
ATOM      6  C   UNL     1      16.303  -6.499   5.632  1.00  0.00     0.006 C 
BRANCH   6   7
ATOM      7  C   UNL     1      16.628  -6.690   7.115  1.00  0.00     0.053 C 
BRANCH   7   8
ATOM      8  C   UNL     1      18.110  -6.707   7.326  1.00  0.00     0.041 C 
ATOM      9  O   UNL     1      18.594  -6.413   8.450  1.00  0.00    -0.550 OA
ATOM     10  O   UNL     1      18.955  -7.097   6.292  1.00  0.00    -0.550 OA
ENDBRANCH   7   8
ENDBRANCH   6   7
ENDBRANCH   5   6
ENDBRANCH   4   5
ENDBRANCH   3   4
ENDBRANCH   2   3
ENDBRANCH   1   2
BRANCH   1  11
ATOM     11  C   UNL     1      10.460  -7.540   5.967  1.00  0.00     0.000 C 
BRANCH  11  12
ATOM     12  C   UNL     1       9.478  -6.737   5.102  1.00  0.00    -0.000 C 
BRANCH  12  13
ATOM     13  C   UNL     1       8.479  -7.663   4.393  1.00  0.00    -0.000 C 
BRANCH  13  14
ATOM     14  C   UNL     1       7.023  -7.202   4.562  1.00  0.00    -0.000 C 
BRANCH  14  15
ATOM     15  C   UNL     1       6.301  -7.920   5.716  1.00  0.00    -0.000 C 
BRANCH  15  16
ATOM     16  C   UNL     1       6.685  -9.412   5.806  1.00  0.00    -0.000 C 
BRANCH  16  17
ATOM     17  C   UNL     1       6.811  -9.927   7.250  1.00  0.00    -0.003 C 
ATOM     18  C   UNL     1       7.961  -9.278   8.018  1.00  0.00     0.004 C 
ENDBRANCH  16  17
ENDBRANCH  15  16
ENDBRANCH  14  15
ENDBRANCH  13  14
ENDBRANCH  12  13
ENDBRANCH  11  12
ENDBRANCH   1  11
TORSDOF 14
ENDMDL
MODEL 5
REMARK VINA RESULT:    -3.087      4.438      9.745
REMARK INTER + INTRA:          -6.729
REMARK INTER:                  -5.848
REMARK INTRA:                  -0.882
REMARK UNBOUND:                -1.117
REMARK SMILES CCCCCCCCCCCCCCCC(=O)[O-]
REMARK SMILES IDX 9 1 10 2 11 3 12 4 13 5 14 6 15 7 16 8 17 9 18 10 8 11 7 12
REMARK SMILES IDX 6 13 5 14 4 15 3 16 2 17 1 18
REMARK H PARENT
REMARK Flexibility Score: inf
ROOT
ATOM      1  C   UNL     1      14.248  -7.901   5.764  1.00  0.00     0.000 C 
ENDROOT
BRANCH   1   2
ATOM      2  C   UNL     1      12.898  -7.992   5.030  1.00  0.00     0.000 C 
BRANCH   2   3
ATOM      3  C   UNL     1      11.783  -7.183   5.717  1.00  0.00     0.000 C 
BRANCH   3   4
ATOM      4  C   UNL     1      10.652  -6.800   4.738  1.00  0.00     0.000 C 
BRANCH   4   5
ATOM      5  C   UNL     1       9.321  -7.520   5.015  1.00  0.00     0.000 C 
BRANCH   5   6
ATOM      6  C   UNL     1       9.357  -8.379   6.285  1.00  0.00     0.006 C 
BRANCH   6   7
ATOM      7  C   UNL     1       8.493  -9.633   6.132  1.00  0.00     0.053 C 
BRANCH   7   8
ATOM      8  C   UNL     1       7.150  -9.420   6.757  1.00  0.00     0.041 C 
ATOM      9  O   UNL     1       6.892  -9.912   7.887  1.00  0.00    -0.550 OA
ATOM     10  O   UNL     1       6.200  -8.636   6.112  1.00  0.00    -0.550 OA
ENDBRANCH   7   8
ENDBRANCH   6   7
ENDBRANCH   5   6
ENDBRANCH   4   5
ENDBRANCH   3   4
ENDBRANCH   2   3
ENDBRANCH   1   2
BRANCH   1  11
ATOM     11  C   UNL     1      15.444  -7.490   4.885  1.00  0.00     0.000 C 
BRANCH  11  12
ATOM     12  C   UNL     1      16.262  -6.338   5.486  1.00  0.00    -0.000 C 
BRANCH  12  13
ATOM     13  C   UNL     1      16.689  -6.652   6.928  1.00  0.00    -0.000 C 
BRANCH  13  14
ATOM     14  C   UNL     1      18.207  -6.837   7.069  1.00  0.00    -0.000 C 
BRANCH  14  15
ATOM     15  C   UNL     1      18.780  -7.850   6.062  1.00  0.00    -0.000 C 
BRANCH  15  16
ATOM     16  C   UNL     1      20.082  -7.345   5.405  1.00  0.00    -0.000 C 
BRANCH  16  17
ATOM     17  C   UNL     1      19.916  -6.009   4.660  1.00  0.00    -0.003 C 
ATOM     18  C   UNL     1      21.045  -5.021   4.946  1.00  0.00     0.004 C 
ENDBRANCH  16  17
ENDBRANCH  15  16
ENDBRANCH  14  15
ENDBRANCH  13  14
ENDBRANCH  12  13
ENDBRANCH  11  12
ENDBRANCH   1  11
TORSDOF 14
ENDMDL
MODEL 6
REMARK VINA RESULT:    -3.012      1.371      2.591
REMARK INTER + INTRA:          -6.594
REMARK INTER:                  -5.178
REMARK INTRA:                  -1.416
REMARK UNBOUND:                -1.117
REMARK SMILES CCCCCCCCCCCCCCCC(=O)[O-]
REMARK SMILES IDX 9 1 10 2 11 3 12 4 13 5 14 6 15 7 16 8 17 9 18 10 8 11 7 12
REMARK SMILES IDX 6 13 5 14 4 15 3 16 2 17 1 18
REMARK H PARENT
REMARK Flexibility Score: inf
ROOT
ATOM      1  C   UNL     1       9.789  -6.453   4.668  1.00  0.00     0.000 C 
ENDROOT
BRANCH   1   2
ATOM      2  C   UNL     1      10.247  -7.743   3.964  1.00  0.00     0.000 C 
BRANCH   2   3
ATOM      3  C   UNL     1      11.331  -8.505   4.748  1.00  0.00     0.000 C 
BRANCH   3   4
ATOM      4  C   UNL     1      12.173  -7.567   5.641  1.00  0.00     0.000 C 
BRANCH   4   5
ATOM      5  C   UNL     1      13.682  -7.618   5.345  1.00  0.00     0.000 C 
BRANCH   5   6
ATOM      6  C   UNL     1      14.482  -8.344   6.436  1.00  0.00     0.006 C 
BRANCH   6   7
ATOM      7  C   UNL     1      15.982  -8.306   6.139  1.00  0.00     0.053 C 
BRANCH   7   8
ATOM      8  C   UNL     1      16.510  -6.914   6.291  1.00  0.00     0.041 C 
ATOM      9  O   UNL     1      16.558  -6.374   7.428  1.00  0.00    -0.550 OA
ATOM     10  O   UNL     1      16.996  -6.230   5.182  1.00  0.00    -0.550 OA
ENDBRANCH   7   8
ENDBRANCH   6   7
ENDBRANCH   5   6
ENDBRANCH   4   5
ENDBRANCH   3   4
ENDBRANCH   2   3
ENDBRANCH   1   2
BRANCH   1  11
ATOM     11  C   UNL     1       8.271  -6.193   4.635  1.00  0.00     0.000 C 
BRANCH  11  12
ATOM     12  C   UNL     1       7.465  -7.402   4.138  1.00  0.00    -0.000 C 
BRANCH  12  13
ATOM     13  C   UNL     1       6.179  -7.587   4.958  1.00  0.00    -0.000 C 
BRANCH  13  14
ATOM     14  C   UNL     1       5.669  -9.035   4.940  1.00  0.00    -0.000 C 
BRANCH  14  15
ATOM     15  C   UNL     1       6.638 -10.017   5.623  1.00  0.00    -0.000 C 
BRANCH  15  16
ATOM     16  C   UNL     1       6.384 -10.125   7.141  1.00  0.00    -0.000 C 
BRANCH  16  17
ATOM     17  C   UNL     1       7.386  -9.321   7.989  1.00  0.00    -0.003 C 
ATOM     18  C   UNL     1       8.758  -9.195   7.332  1.00  0.00     0.004 C 
ENDBRANCH  16  17
ENDBRANCH  15  16
ENDBRANCH  14  15
ENDBRANCH  13  14
ENDBRANCH  12  13
ENDBRANCH  11  12
ENDBRANCH   1  11
TORSDOF 14
ENDMDL
MODEL 7
REMARK VINA RESULT:    -2.954      4.208      9.229
REMARK INTER + INTRA:          -6.489
REMARK INTER:                  -5.574
REMARK INTRA:                  -0.915
REMARK UNBOUND:                -1.117
REMARK SMILES CCCCCCCCCCCCCCCC(=O)[O-]
REMARK SMILES IDX 9 1 10 2 11 3 12 4 13 5 14 6 15 7 16 8 17 9 18 10 8 11 7 12
REMARK SMILES IDX 6 13 5 14 4 15 3 16 2 17 1 18
REMARK H PARENT
REMARK Flexibility Score: inf
ROOT
ATOM      1  C   UNL     1       9.956  -7.885   6.179  1.00  0.00     0.000 C 
ENDROOT
BRANCH   1   2
ATOM      2  C   UNL     1       9.203  -9.221   6.313  1.00  0.00     0.000 C 
BRANCH   2   3
ATOM      3  C   UNL     1       8.441  -9.352   7.644  1.00  0.00     0.000 C 
BRANCH   3   4
ATOM      4  C   UNL     1       6.957  -9.723   7.432  1.00  0.00     0.000 C 
BRANCH   4   5
ATOM      5  C   UNL     1       6.614 -10.107   5.982  1.00  0.00     0.000 C 
BRANCH   5   6
ATOM      6  C   UNL     1       5.502  -9.238   5.379  1.00  0.00     0.006 C 
BRANCH   6   7
ATOM      7  C   UNL     1       6.047  -8.330   4.275  1.00  0.00     0.053 C 
BRANCH   7   8
ATOM      8  C   UNL     1       6.347  -6.969   4.819  1.00  0.00     0.041 C 
ATOM      9  O   UNL     1       5.585  -6.445   5.674  1.00  0.00    -0.550 OA
ATOM     10  O   UNL     1       7.498  -6.298   4.419  1.00  0.00    -0.550 OA
ENDBRANCH   7   8
ENDBRANCH   6   7
ENDBRANCH   5   6
ENDBRANCH   4   5
ENDBRANCH   3   4
ENDBRANCH   2   3
ENDBRANCH   1   2
BRANCH   1  11
ATOM     11  C   UNL     1      10.878  -7.774   4.951  1.00  0.00     0.000 C 
BRANCH  11  12
ATOM     12  C   UNL     1      12.219  -7.095   5.267  1.00  0.00    -0.000 C 
BRANCH  12  13
ATOM     13  C   UNL     1      13.383  -8.094   5.169  1.00  0.00    -0.000 C 
BRANCH  13  14
ATOM     14  C   UNL     1      14.503  -7.798   6.177  1.00  0.00    -0.000 C 
BRANCH  14  15
ATOM     15  C   UNL     1      15.835  -7.433   5.498  1.00  0.00    -0.000 C 
BRANCH  15  16
ATOM     16  C   UNL     1      16.734  -6.569   6.406  1.00  0.00    -0.000 C 
BRANCH  16  17
ATOM     17  C   UNL     1      18.115  -7.193   6.675  1.00  0.00    -0.003 C 
ATOM     18  C   UNL     1      18.806  -6.607   7.905  1.00  0.00     0.004 C 
ENDBRANCH  16  17
ENDBRANCH  15  16
ENDBRANCH  14  15
ENDBRANCH  13  14
ENDBRANCH  12  13
ENDBRANCH  11  12
ENDBRANCH   1  11
TORSDOF 14
ENDMDL
MODEL 8
REMARK VINA RESULT:    -2.870      3.664      8.630
REMARK INTER + INTRA:          -6.336
REMARK INTER:                  -5.422
REMARK INTRA:                  -0.914
REMARK UNBOUND:                -1.117
REMARK SMILES CCCCCCCCCCCCCCCC(=O)[O-]
REMARK SMILES IDX 9 1 10 2 11 3 12 4 13 5 14 6 15 7 16 8 17 9 18 10 8 11 7 12
REMARK SMILES IDX 6 13 5 14 4 15 3 16 2 17 1 18
REMARK H PARENT
REMARK Flexibility Score: inf
ROOT
ATOM      1  C   UNL     1       8.523  -6.867   4.252  1.00  0.00     0.000 C 
ENDROOT
BRANCH   1   2
ATOM      2  C   UNL     1       7.149  -6.324   4.683  1.00  0.00     0.000 C 
BRANCH   2   3
ATOM      3  C   UNL     1       5.973  -7.117   4.084  1.00  0.00     0.000 C 
BRANCH   3   4
ATOM      4  C   UNL     1       5.117  -7.802   5.172  1.00  0.00     0.000 C 
BRANCH   4   5
ATOM      5  C   UNL     1       5.067  -9.335   5.048  1.00  0.00     0.000 C 
BRANCH   5   6
ATOM      6  C   UNL     1       5.754 -10.053   6.217  1.00  0.00     0.006 C 
BRANCH   6   7
ATOM      7  C   UNL     1       7.276 -10.044   6.055  1.00  0.00     0.053 C 
BRANCH   7   8
ATOM      8  C   UNL     1       7.920  -9.342   7.210  1.00  0.00     0.041 C 
ATOM      9  O   UNL     1       7.349  -9.312   8.332  1.00  0.00    -0.550 OA
ATOM     10  O   UNL     1       9.175  -8.764   7.059  1.00  0.00    -0.550 OA
ENDBRANCH   7   8
ENDBRANCH   6   7
ENDBRANCH   5   6
ENDBRANCH   4   5
ENDBRANCH   3   4
ENDBRANCH   2   3
ENDBRANCH   1   2
BRANCH   1  11
ATOM     11  C   UNL     1       9.734  -6.067   4.768  1.00  0.00     0.000 C 
BRANCH  11  12
ATOM     12  C   UNL     1      11.056  -6.484   4.108  1.00  0.00    -0.000 C 
BRANCH  12  13
ATOM     13  C   UNL     1      11.900  -7.350   5.055  1.00  0.00    -0.000 C 
BRANCH  13  14
ATOM     14  C   UNL     1      13.377  -7.416   4.638  1.00  0.00    -0.000 C 
BRANCH  14  15
ATOM     15  C   UNL     1      14.334  -7.497   5.840  1.00  0.00    -0.000 C 
BRANCH  15  16
ATOM     16  C   UNL     1      15.644  -6.719   5.596  1.00  0.00    -0.000 C 
BRANCH  16  17
ATOM     17  C   UNL     1      16.496  -6.540   6.864  1.00  0.00    -0.003 C 
ATOM     18  C   UNL     1      17.933  -7.028   6.692  1.00  0.00     0.004 C 
ENDBRANCH  16  17
ENDBRANCH  15  16
ENDBRANCH  14  15
ENDBRANCH  13  14
ENDBRANCH  12  13
ENDBRANCH  11  12
ENDBRANCH   1  11
TORSDOF 14
ENDMDL
MODEL 9
REMARK VINA RESULT:    -2.661      4.407      9.663
REMARK INTER + INTRA:          -5.955
REMARK INTER:                  -4.982
REMARK INTRA:                  -0.973
REMARK UNBOUND:                -1.117
REMARK SMILES CCCCCCCCCCCCCCCC(=O)[O-]
REMARK SMILES IDX 9 1 10 2 11 3 12 4 13 5 14 6 15 7 16 8 17 9 18 10 8 11 7 12
REMARK SMILES IDX 6 13 5 14 4 15 3 16 2 17 1 18
REMARK H PARENT
REMARK Flexibility Score: inf
ROOT
ATOM      1  C   UNL     1      15.528  -7.830   5.406  1.00  0.00     0.000 C 
ENDROOT
BRANCH   1   2
ATOM      2  C   UNL     1      14.238  -7.113   4.970  1.00  0.00     0.000 C 
BRANCH   2   3
ATOM      3  C   UNL     1      13.041  -8.068   4.814  1.00  0.00     0.000 C 
BRANCH   3   4
ATOM      4  C   UNL     1      11.698  -7.311   4.727  1.00  0.00     0.000 C 
BRANCH   4   5
ATOM      5  C   UNL     1      10.838  -7.425   5.998  1.00  0.00     0.000 C 
BRANCH   5   6
ATOM      6  C   UNL     1       9.391  -7.844   5.707  1.00  0.00     0.006 C 
BRANCH   6   7
ATOM      7  C   UNL     1       8.969  -9.024   6.585  1.00  0.00     0.053 C 
BRANCH   7   8
ATOM      8  C   UNL     1       7.502  -8.959   6.876  1.00  0.00     0.041 C 
ATOM      9  O   UNL     1       6.721  -8.383   6.074  1.00  0.00    -0.550 OA
ATOM     10  O   UNL     1       6.991  -9.581   8.010  1.00  0.00    -0.550 OA
ENDBRANCH   7   8
ENDBRANCH   6   7
ENDBRANCH   5   6
ENDBRANCH   4   5
ENDBRANCH   3   4
ENDBRANCH   2   3
ENDBRANCH   1   2
BRANCH   1  11
ATOM     11  C   UNL     1      16.420  -8.331   4.255  1.00  0.00     0.000 C 
BRANCH  11  12
ATOM     12  C   UNL     1      16.899  -9.776   4.451  1.00  0.00    -0.000 C 
BRANCH  12  13
ATOM     13  C   UNL     1      18.423  -9.882   4.291  1.00  0.00    -0.000 C 
BRANCH  13  14
ATOM     14  C   UNL     1      19.186  -9.291   5.486  1.00  0.00    -0.000 C 
BRANCH  14  15
ATOM     15  C   UNL     1      20.051  -8.078   5.101  1.00  0.00    -0.000 C 
BRANCH  15  16
ATOM     16  C   UNL     1      19.735  -6.839   5.965  1.00  0.00    -0.000 C 
BRANCH  16  17
ATOM     17  C   UNL     1      18.689  -7.107   7.061  1.00  0.00    -0.003 C 
ATOM     18  C   UNL     1      19.020  -6.416   8.383  1.00  0.00     0.004 C 
ENDBRANCH  16  17
ENDBRANCH  15  16
ENDBRANCH  14  15
ENDBRANCH  13  14
ENDBRANCH  12  13
ENDBRANCH  11  12
ENDBRANCH   1  11
TORSDOF 14
ENDMDL
