MODEL 1
REMARK VINA RESULT:    -5.139      0.000      0.000
REMARK INTER + INTRA:          -9.401
REMARK INTER:                  -8.143
REMARK INTRA:                  -1.258
REMARK UNBOUND:                -1.258
REMARK SMILES CCCCCCCCCCCC(=O)[O-]
REMARK SMILES IDX 7 1 8 2 9 3 10 4 11 5 12 6 13 7 14 8 6 9 5 10 4 11 3 12 2 13
REMARK SMILES IDX 1 14
REMARK H PARENT
REMARK Flexibility Score: inf
ROOT
ATOM      1  C   UNL     1      61.081   2.524  21.938  1.00  0.00     0.000 C 
ENDROOT
BRANCH   1   2
ATOM      2  C   UNL     1      61.983   3.211  22.979  1.00  0.00     0.000 C 
BRANCH   2   3
ATOM      3  C   UNL     1      62.861   4.316  22.376  1.00  0.00     0.000 C 
BRANCH   3   4
ATOM      4  C   UNL     1      64.268   4.298  22.992  1.00  0.00     0.006 C 
BRANCH   4   5
ATOM      5  C   UNL     1      65.147   3.187  22.400  1.00  0.00     0.053 C 
BRANCH   5   6
ATOM      6  C   UNL     1      65.398   2.092  23.391  1.00  0.00     0.041 C 
ATOM      7  O   UNL     1      65.300   0.886  23.042  1.00  0.00    -0.550 OA
ATOM      8  O   UNL     1      65.772   2.404  24.691  1.00  0.00    -0.550 OA
ENDBRANCH   5   6
ENDBRANCH   4   5
ENDBRANCH   3   4
ENDBRANCH   2   3
ENDBRANCH   1   2
BRANCH   1   9
ATOM      9  C   UNL     1      60.940   3.277  20.602  1.00  0.00     0.000 C 
BRANCH   9  10
ATOM     10  C   UNL     1      61.424   2.457  19.397  1.00  0.00    -0.000 C 
BRANCH  10  11
ATOM     11  C   UNL     1      62.509   1.456  19.815  1.00  0.00    -0.000 C 
BRANCH  11  12
ATOM     12  C   UNL     1      63.896   1.799  19.243  1.00  0.00    -0.000 C 
BRANCH  12  13
ATOM     13  C   UNL     1      64.135   3.298  18.985  1.00  0.00    -0.003 C 
ATOM     14  C   UNL     1      65.468   3.581  18.293  1.00  0.00     0.004 C 
ENDBRANCH  12  13
ENDBRANCH  11  12
ENDBRANCH  10  11
ENDBRANCH   9  10
ENDBRANCH   1   9
TORSDOF 10
ENDMDL
MODEL 2
REMARK VINA RESULT:    -4.971      1.415      1.741
REMARK INTER + INTRA:          -9.135
REMARK INTER:                  -7.740
REMARK INTRA:                  -1.395
REMARK UNBOUND:                -1.258
REMARK SMILES CCCCCCCCCCCC(=O)[O-]
REMARK SMILES IDX 7 1 8 2 9 3 10 4 11 5 12 6 13 7 14 8 6 9 5 10 4 11 3 12 2 13
REMARK SMILES IDX 1 14
REMARK H PARENT
REMARK Flexibility Score: inf
ROOT
ATOM      1  C   UNL     1      60.942   3.539  20.828  1.00  0.00     0.000 C 
ENDROOT
BRANCH   1   2
ATOM      2  C   UNL     1      61.488   3.027  22.173  1.00  0.00     0.000 C 
BRANCH   2   3
ATOM      3  C   UNL     1      62.383   4.050  22.885  1.00  0.00     0.000 C 
BRANCH   3   4
ATOM      4  C   UNL     1      63.828   3.539  22.986  1.00  0.00     0.006 C 
BRANCH   4   5
ATOM      5  C   UNL     1      64.841   4.546  22.424  1.00  0.00     0.053 C 
BRANCH   5   6
ATOM      6  C   UNL     1      66.222   3.970  22.365  1.00  0.00     0.041 C 
ATOM      7  O   UNL     1      66.563   3.056  23.161  1.00  0.00    -0.550 OA
ATOM      8  O   UNL     1      67.123   4.421  21.409  1.00  0.00    -0.550 OA
ENDBRANCH   5   6
ENDBRANCH   4   5
ENDBRANCH   3   4
ENDBRANCH   2   3
ENDBRANCH   1   2
BRANCH   1   9
ATOM      9  C   UNL     1      61.601   2.922  19.581  1.00  0.00     0.000 C 
BRANCH   9  10
ATOM     10  C   UNL     1      62.017   1.458  19.784  1.00  0.00    -0.000 C 
BRANCH  10  11
ATOM     11  C   UNL     1      63.397   1.188  19.168  1.00  0.00    -0.000 C 
BRANCH  11  12
ATOM     12  C   UNL     1      64.490   2.127  19.710  1.00  0.00    -0.000 C 
BRANCH  12  13
ATOM     13  C   UNL     1      65.250   2.922  18.633  1.00  0.00    -0.003 C 
ATOM     14  C   UNL     1      64.859   4.398  18.592  1.00  0.00     0.004 C 
ENDBRANCH  12  13
ENDBRANCH  11  12
ENDBRANCH  10  11
ENDBRANCH   9  10
ENDBRANCH   1   9
TORSDOF 10
ENDMDL
MODEL 3
REMARK VINA RESULT:    -4.847      1.728      2.954
REMARK INTER + INTRA:          -8.939
REMARK INTER:                  -7.765
REMARK INTRA:                  -1.174
REMARK UNBOUND:                -1.258
REMARK SMILES CCCCCCCCCCCC(=O)[O-]
REMARK SMILES IDX 7 1 8 2 9 3 10 4 11 5 12 6 13 7 14 8 6 9 5 10 4 11 3 12 2 13
REMARK SMILES IDX 1 14
REMARK H PARENT
REMARK Flexibility Score: inf
ROOT
ATOM      1  C   UNL     1      62.821   4.215  22.871  1.00  0.00     0.000 C 
ENDROOT
BRANCH   1   2
ATOM      2  C   UNL     1      64.304   3.963  22.542  1.00  0.00     0.000 C 
BRANCH   2   3
ATOM      3  C   UNL     1      64.754   2.530  22.861  1.00  0.00     0.000 C 
BRANCH   3   4
ATOM      4  C   UNL     1      65.700   2.508  24.071  1.00  0.00     0.006 C 
BRANCH   4   5
ATOM      5  C   UNL     1      66.299   3.891  24.364  1.00  0.00     0.053 C 
BRANCH   5   6
ATOM      6  C   UNL     1      67.736   3.972  23.949  1.00  0.00     0.041 C 
ATOM      7  O   UNL     1      68.231   3.088  23.201  1.00  0.00    -0.550 OA
ATOM      8  O   UNL     1      68.519   5.043  24.360  1.00  0.00    -0.550 OA
ENDBRANCH   5   6
ENDBRANCH   4   5
ENDBRANCH   3   4
ENDBRANCH   2   3
ENDBRANCH   1   2
BRANCH   1   9
ATOM      9  C   UNL     1      61.999   2.951  23.178  1.00  0.00     0.000 C 
BRANCH   9  10
ATOM     10  C   UNL     1      60.876   2.703  22.159  1.00  0.00    -0.000 C 
BRANCH  10  11
ATOM     11  C   UNL     1      60.956   3.705  21.000  1.00  0.00    -0.000 C 
BRANCH  11  12
ATOM     12  C   UNL     1      61.325   3.045  19.659  1.00  0.00    -0.000 C 
BRANCH  12  13
ATOM     13  C   UNL     1      61.808   1.588  19.769  1.00  0.00    -0.003 C 
ATOM     14  C   UNL     1      63.300   1.429  19.477  1.00  0.00     0.004 C 
ENDBRANCH  12  13
ENDBRANCH  11  12
ENDBRANCH  10  11
ENDBRANCH   9  10
ENDBRANCH   1   9
TORSDOF 10
ENDMDL
MODEL 4
REMARK VINA RESULT:    -4.730      2.076      3.945
REMARK INTER + INTRA:          -8.753
REMARK INTER:                  -7.406
REMARK INTRA:                  -1.347
REMARK UNBOUND:                -1.258
REMARK SMILES CCCCCCCCCCCC(=O)[O-]
REMARK SMILES IDX 7 1 8 2 9 3 10 4 11 5 12 6 13 7 14 8 6 9 5 10 4 11 3 12 2 13
REMARK SMILES IDX 1 14
REMARK H PARENT
REMARK Flexibility Score: inf
ROOT
ATOM      1  C   UNL     1      61.563   2.051  20.760  1.00  0.00     0.000 C 
ENDROOT
BRANCH   1   2
ATOM      2  C   UNL     1      62.387   1.608  19.537  1.00  0.00     0.000 C 
BRANCH   2   3
ATOM      3  C   UNL     1      63.884   1.918  19.678  1.00  0.00     0.000 C 
BRANCH   3   4
ATOM      4  C   UNL     1      64.250   3.206  18.927  1.00  0.00     0.006 C 
BRANCH   4   5
ATOM      5  C   UNL     1      65.732   3.572  19.089  1.00  0.00     0.053 C 
BRANCH   5   6
ATOM      6  C   UNL     1      65.943   4.551  20.202  1.00  0.00     0.041 C 
ATOM      7  O   UNL     1      66.933   4.434  20.972  1.00  0.00    -0.550 OA
ATOM      8  O   UNL     1      65.064   5.614  20.369  1.00  0.00    -0.550 OA
ENDBRANCH   5   6
ENDBRANCH   4   5
ENDBRANCH   3   4
ENDBRANCH   2   3
ENDBRANCH   1   2
BRANCH   1   9
ATOM      9  C   UNL     1      61.091   3.516  20.730  1.00  0.00     0.000 C 
BRANCH   9  10
ATOM     10  C   UNL     1      61.806   4.399  21.764  1.00  0.00    -0.000 C 
BRANCH  10  11
ATOM     11  C   UNL     1      62.308   3.560  22.948  1.00  0.00    -0.000 C 
BRANCH  11  12
ATOM     12  C   UNL     1      63.841   3.575  23.087  1.00  0.00    -0.000 C 
BRANCH  12  13
ATOM     13  C   UNL     1      64.481   2.196  23.329  1.00  0.00    -0.003 C 
ATOM     14  C   UNL     1      65.973   2.277  23.647  1.00  0.00     0.004 C 
ENDBRANCH  12  13
ENDBRANCH  11  12
ENDBRANCH  10  11
ENDBRANCH   9  10
ENDBRANCH   1   9
TORSDOF 10
ENDMDL
MODEL 5
REMARK VINA RESULT:    -4.721      1.020      3.026
REMARK INTER + INTRA:          -8.739
REMARK INTER:                  -7.458
REMARK INTRA:                  -1.281
REMARK UNBOUND:                -1.258
REMARK SMILES CCCCCCCCCCCC(=O)[O-]
REMARK SMILES IDX 7 1 8 2 9 3 10 4 11 5 12 6 13 7 14 8 6 9 5 10 4 11 3 12 2 13
REMARK SMILES IDX 1 14
REMARK H PARENT
REMARK Flexibility Score: inf
ROOT
ATOM      1  C   UNL     1      64.851   2.915  18.996  1.00  0.00     0.000 C 
ENDROOT
BRANCH   1   2
ATOM      2  C   UNL     1      65.511   4.004  19.861  1.00  0.00     0.000 C 
BRANCH   2   3
ATOM      3  C   UNL     1      64.582   4.543  20.958  1.00  0.00     0.000 C 
BRANCH   3   4
ATOM      4  C   UNL     1      65.326   4.670  22.295  1.00  0.00     0.006 C 
BRANCH   4   5
ATOM      5  C   UNL     1      66.303   3.509  22.528  1.00  0.00     0.053 C 
BRANCH   5   6
ATOM      6  C   UNL     1      65.780   2.538  23.542  1.00  0.00     0.041 C 
ATOM      7  O   UNL     1      65.182   1.494  23.171  1.00  0.00    -0.550 OA
ATOM      8  O   UNL     1      65.982   2.772  24.896  1.00  0.00    -0.550 OA
ENDBRANCH   5   6
ENDBRANCH   4   5
ENDBRANCH   3   4
ENDBRANCH   2   3
ENDBRANCH   1   2
BRANCH   1   9
ATOM      9  C   UNL     1      64.272   1.723  19.780  1.00  0.00     0.000 C 
BRANCH   9  10
ATOM     10  C   UNL     1      63.052   1.090  19.093  1.00  0.00    -0.000 C 
BRANCH  10  11
ATOM     11  C   UNL     1      61.762   1.414  19.859  1.00  0.00    -0.000 C 
BRANCH  11  12
ATOM     12  C   UNL     1      61.292   2.865  19.657  1.00  0.00    -0.000 C 
BRANCH  12  13
ATOM     13  C   UNL     1      60.964   3.624  20.955  1.00  0.00    -0.003 C 
ATOM     14  C   UNL     1      61.482   2.919  22.208  1.00  0.00     0.004 C 
ENDBRANCH  12  13
ENDBRANCH  11  12
ENDBRANCH  10  11
ENDBRANCH   9  10
ENDBRANCH   1   9
TORSDOF 10
ENDMDL
MODEL 6
REMARK VINA RESULT:    -4.687      1.758      3.752
REMARK INTER + INTRA:          -8.686
REMARK INTER:                  -7.453
REMARK INTRA:                  -1.233
REMARK UNBOUND:                -1.258
REMARK SMILES CCCCCCCCCCCC(=O)[O-]
REMARK SMILES IDX 7 1 8 2 9 3 10 4 11 5 12 6 13 7 14 8 6 9 5 10 4 11 3 12 2 13
REMARK SMILES IDX 1 14
REMARK H PARENT
REMARK Flexibility Score: inf
ROOT
ATOM      1  C   UNL     1      62.487   4.040  23.125  1.00  0.00     0.000 C 
ENDROOT
BRANCH   1   2
ATOM      2  C   UNL     1      61.506   3.144  22.347  1.00  0.00     0.000 C 
BRANCH   2   3
ATOM      3  C   UNL     1      60.995   3.796  21.053  1.00  0.00     0.000 C 
BRANCH   3   4
ATOM      4  C   UNL     1      61.465   3.010  19.820  1.00  0.00     0.006 C 
BRANCH   4   5
ATOM      5  C   UNL     1      61.639   1.514  20.117  1.00  0.00     0.053 C 
BRANCH   5   6
ATOM      6  C   UNL     1      63.034   1.050  19.831  1.00  0.00     0.041 C 
ATOM      7  O   UNL     1      63.906   1.068  20.739  1.00  0.00    -0.550 OA
ATOM      8  O   UNL     1      63.362   0.567  18.571  1.00  0.00    -0.550 OA
ENDBRANCH   5   6
ENDBRANCH   4   5
ENDBRANCH   3   4
ENDBRANCH   2   3
ENDBRANCH   1   2
BRANCH   1   9
ATOM      9  C   UNL     1      63.966   3.629  23.020  1.00  0.00     0.000 C 
BRANCH   9  10
ATOM     10  C   UNL     1      64.864   4.749  22.474  1.00  0.00    -0.000 C 
BRANCH  10  11
ATOM     11  C   UNL     1      65.469   4.356  21.119  1.00  0.00    -0.000 C 
BRANCH  11  12
ATOM     12  C   UNL     1      64.507   4.590  19.941  1.00  0.00    -0.000 C 
BRANCH  12  13
ATOM     13  C   UNL     1      65.137   4.416  18.548  1.00  0.00    -0.003 C 
ATOM     14  C   UNL     1      65.835   3.068  18.371  1.00  0.00     0.004 C 
ENDBRANCH  12  13
ENDBRANCH  11  12
ENDBRANCH  10  11
ENDBRANCH   9  10
ENDBRANCH   1   9
TORSDOF 10
ENDMDL
MODEL 7
REMARK VINA RESULT:    -4.664      2.229      4.825
REMARK INTER + INTRA:          -8.648
REMARK INTER:                  -7.663
REMARK INTRA:                  -0.985
REMARK UNBOUND:                -1.258
REMARK SMILES CCCCCCCCCCCC(=O)[O-]
REMARK SMILES IDX 7 1 8 2 9 3 10 4 11 5 12 6 13 7 14 8 6 9 5 10 4 11 3 12 2 13
REMARK SMILES IDX 1 14
REMARK H PARENT
REMARK Flexibility Score: inf
ROOT
ATOM      1  C   UNL     1      62.423   3.767  23.102  1.00  0.00     0.000 C 
ENDROOT
BRANCH   1   2
ATOM      2  C   UNL     1      61.687   4.653  22.080  1.00  0.00     0.000 C 
BRANCH   2   3
ATOM      3  C   UNL     1      60.876   3.842  21.059  1.00  0.00     0.000 C 
BRANCH   3   4
ATOM      4  C   UNL     1      61.139   2.337  21.219  1.00  0.00     0.006 C 
BRANCH   4   5
ATOM      5  C   UNL     1      61.736   1.714  19.949  1.00  0.00     0.053 C 
BRANCH   5   6
ATOM      6  C   UNL     1      63.233   1.685  19.997  1.00  0.00     0.041 C 
ATOM      7  O   UNL     1      63.839   0.610  20.244  1.00  0.00    -0.550 OA
ATOM      8  O   UNL     1      63.959   2.840  19.734  1.00  0.00    -0.550 OA
ENDBRANCH   5   6
ENDBRANCH   4   5
ENDBRANCH   3   4
ENDBRANCH   2   3
ENDBRANCH   1   2
BRANCH   1   9
ATOM      9  C   UNL     1      63.944   3.989  23.180  1.00  0.00     0.000 C 
BRANCH   9  10
ATOM     10  C   UNL     1      64.737   2.678  23.282  1.00  0.00    -0.000 C 
BRANCH  10  11
ATOM     11  C   UNL     1      66.198   2.949  23.667  1.00  0.00    -0.000 C 
BRANCH  11  12
ATOM     12  C   UNL     1      66.539   4.449  23.710  1.00  0.00    -0.000 C 
BRANCH  12  13
ATOM     13  C   UNL     1      67.473   4.866  24.860  1.00  0.00    -0.003 C 
ATOM     14  C   UNL     1      66.872   4.612  26.242  1.00  0.00     0.004 C 
ENDBRANCH  12  13
ENDBRANCH  11  12
ENDBRANCH  10  11
ENDBRANCH   9  10
ENDBRANCH   1   9
TORSDOF 10
ENDMDL
MODEL 8
REMARK VINA RESULT:    -4.617     12.094     13.863
REMARK INTER + INTRA:          -8.574
REMARK INTER:                  -7.252
REMARK INTRA:                  -1.322
REMARK UNBOUND:                -1.258
REMARK SMILES CCCCCCCCCCCC(=O)[O-]
REMARK SMILES IDX 7 1 8 2 9 3 10 4 11 5 12 6 13 7 14 8 6 9 5 10 4 11 3 12 2 13
REMARK SMILES IDX 1 14
REMARK H PARENT
REMARK Flexibility Score: inf
ROOT
ATOM      1  C   UNL     1      74.844   3.626  22.155  1.00  0.00     0.000 C 
ENDROOT
BRANCH   1   2
ATOM      2  C   UNL     1      76.074   2.792  21.755  1.00  0.00     0.000 C 
BRANCH   2   3
ATOM      3  C   UNL     1      77.340   3.179  22.533  1.00  0.00     0.000 C 
BRANCH   3   4
ATOM      4  C   UNL     1      78.527   3.390  21.581  1.00  0.00     0.006 C 
BRANCH   4   5
ATOM      5  C   UNL     1      78.996   4.852  21.554  1.00  0.00     0.053 C 
BRANCH   5   6
ATOM      6  C   UNL     1      79.843   5.184  22.743  1.00  0.00     0.041 C 
ATOM      7  O   UNL     1      80.745   4.391  23.122  1.00  0.00    -0.550 OA
ATOM      8  O   UNL     1      79.659   6.387  23.413  1.00  0.00    -0.550 OA
ENDBRANCH   5   6
ENDBRANCH   4   5
ENDBRANCH   3   4
ENDBRANCH   2   3
ENDBRANCH   1   2
BRANCH   1   9
ATOM      9  C   UNL     1      73.879   3.957  21.002  1.00  0.00     0.000 C 
BRANCH   9  10
ATOM     10  C   UNL     1      73.709   5.466  20.775  1.00  0.00    -0.000 C 
BRANCH  10  11
ATOM     11  C   UNL     1      75.065   6.137  20.515  1.00  0.00    -0.000 C 
BRANCH  11  12
ATOM     12  C   UNL     1      75.254   7.440  21.313  1.00  0.00    -0.000 C 
BRANCH  12  13
ATOM     13  C   UNL     1      76.456   7.440  22.273  1.00  0.00    -0.003 C 
ATOM     14  C   UNL     1      76.168   6.726  23.593  1.00  0.00     0.004 C 
ENDBRANCH  12  13
ENDBRANCH  11  12
ENDBRANCH  10  11
ENDBRANCH   9  10
ENDBRANCH   1   9
TORSDOF 10
ENDMDL
MODEL 9
REMARK VINA RESULT:    -4.607     11.710     13.515
REMARK INTER + INTRA:          -8.559
REMARK INTER:                  -7.296
REMARK INTRA:                  -1.263
REMARK UNBOUND:                -1.258
REMARK SMILES CCCCCCCCCCCC(=O)[O-]
REMARK SMILES IDX 7 1 8 2 9 3 10 4 11 5 12 6 13 7 14 8 6 9 5 10 4 11 3 12 2 13
REMARK SMILES IDX 1 14
REMARK H PARENT
REMARK Flexibility Score: inf
ROOT
ATOM      1  C   UNL     1      74.041   4.558  21.455  1.00  0.00     0.000 C 
ENDROOT
BRANCH   1   2
ATOM      2  C   UNL     1      74.409   5.814  20.644  1.00  0.00     0.000 C 
BRANCH   2   3
ATOM      3  C   UNL     1      75.796   6.370  20.997  1.00  0.00     0.000 C 
BRANCH   3   4
ATOM      4  C   UNL     1      75.678   7.710  21.738  1.00  0.00     0.006 C 
BRANCH   4   5
ATOM      5  C   UNL     1      76.821   7.922  22.740  1.00  0.00     0.053 C 
BRANCH   5   6
ATOM      6  C   UNL     1      76.511   7.314  24.073  1.00  0.00     0.041 C 
ATOM      7  O   UNL     1      75.506   7.698  24.727  1.00  0.00    -0.550 OA
ATOM      8  O   UNL     1      77.314   6.299  24.578  1.00  0.00    -0.550 OA
ENDBRANCH   5   6
ENDBRANCH   4   5
ENDBRANCH   3   4
ENDBRANCH   2   3
ENDBRANCH   1   2
BRANCH   1   9
ATOM      9  C   UNL     1      75.217   3.891  22.191  1.00  0.00     0.000 C 
BRANCH   9  10
ATOM     10  C   UNL     1      75.819   2.710  21.414  1.00  0.00    -0.000 C 
BRANCH  10  11
ATOM     11  C   UNL     1      77.348   2.827  21.338  1.00  0.00    -0.000 C 
BRANCH  11  12
ATOM     12  C   UNL     1      77.963   3.482  22.587  1.00  0.00    -0.000 C 
BRANCH  12  13
ATOM     13  C   UNL     1      79.196   4.361  22.314  1.00  0.00    -0.003 C 
ATOM     14  C   UNL     1      79.142   5.063  20.958  1.00  0.00     0.004 C 
ENDBRANCH  12  13
ENDBRANCH  11  12
ENDBRANCH  10  11
ENDBRANCH   9  10
ENDBRANCH   1   9
TORSDOF 10
ENDMDL
