MODEL 1
REMARK VINA RESULT:    -5.069      0.000      0.000
REMARK INTER + INTRA:         -10.287
REMARK INTER:                  -8.625
REMARK INTRA:                  -1.662
REMARK UNBOUND:                -1.662
REMARK SMILES CCCCCCCCCCCCCC(=O)[O-]
REMARK SMILES IDX 8 1 9 2 10 3 11 4 12 5 13 6 14 7 15 8 16 9 7 10 6 11 5 12
REMARK SMILES IDX 4 13 3 14 2 15 1 16
REMARK H PARENT
REMARK Flexibility Score: inf
ROOT
ATOM      1  C   UNL     1      -7.064  10.443 -10.485  1.00  0.00     0.000 C 
ENDROOT
BRANCH   1   2
ATOM      2  C   UNL     1      -6.014  11.056  -9.538  1.00  0.00     0.000 C 
BRANCH   2   3
ATOM      3  C   UNL     1      -6.251  10.790  -8.037  1.00  0.00     0.000 C 
BRANCH   3   4
ATOM      4  C   UNL     1      -5.342   9.713  -7.419  1.00  0.00     0.000 C 
BRANCH   4   5
ATOM      5  C   UNL     1      -4.122   9.385  -8.296  1.00  0.00     0.006 C 
BRANCH   5   6
ATOM      6  C   UNL     1      -3.828   7.880  -8.338  1.00  0.00     0.053 C 
BRANCH   6   7
ATOM      7  C   UNL     1      -3.412   7.361  -6.996  1.00  0.00     0.041 C 
ATOM      8  O   UNL     1      -2.442   7.882  -6.387  1.00  0.00    -0.550 OA
ATOM      9  O   UNL     1      -4.119   6.322  -6.404  1.00  0.00    -0.550 OA
ENDBRANCH   6   7
ENDBRANCH   5   6
ENDBRANCH   4   5
ENDBRANCH   3   4
ENDBRANCH   2   3
ENDBRANCH   1   2
BRANCH   1  10
ATOM     10  C   UNL     1      -6.533   9.328 -11.408  1.00  0.00     0.000 C 
BRANCH  10  11
ATOM     11  C   UNL     1      -6.579   7.911 -10.805  1.00  0.00    -0.000 C 
BRANCH  11  12
ATOM     12  C   UNL     1      -7.663   7.691  -9.731  1.00  0.00    -0.000 C 
BRANCH  12  13
ATOM     13  C   UNL     1      -7.381   6.547  -8.739  1.00  0.00    -0.000 C 
BRANCH  13  14
ATOM     14  C   UNL     1      -8.181   5.272  -9.057  1.00  0.00    -0.000 C 
BRANCH  14  15
ATOM     15  C   UNL     1      -9.657   5.565  -9.363  1.00  0.00    -0.003 C 
ATOM     16  C   UNL     1     -10.479   5.852  -8.105  1.00  0.00     0.004 C 
ENDBRANCH  14  15
ENDBRANCH  13  14
ENDBRANCH  12  13
ENDBRANCH  11  12
ENDBRANCH  10  11
ENDBRANCH   1  10
TORSDOF 12
ENDMDL
MODEL 2
REMARK VINA RESULT:    -5.063      2.237      4.830
REMARK INTER + INTRA:         -10.277
REMARK INTER:                  -8.488
REMARK INTRA:                  -1.788
REMARK UNBOUND:                -1.662
REMARK SMILES CCCCCCCCCCCCCC(=O)[O-]
REMARK SMILES IDX 8 1 9 2 10 3 11 4 12 5 13 6 14 7 15 8 16 9 7 10 6 11 5 12
REMARK SMILES IDX 4 13 3 14 2 15 1 16
REMARK H PARENT
REMARK Flexibility Score: inf
ROOT
ATOM      1  C   UNL     1      -7.646  11.021  -9.909  1.00  0.00     0.000 C 
ENDROOT
BRANCH   1   2
ATOM      2  C   UNL     1      -7.923   9.770 -10.767  1.00  0.00     0.000 C 
BRANCH   2   3
ATOM      3  C   UNL     1      -6.718   8.828 -10.960  1.00  0.00     0.000 C 
BRANCH   3   4
ATOM      4  C   UNL     1      -6.849   7.458 -10.271  1.00  0.00     0.000 C 
BRANCH   4   5
ATOM      5  C   UNL     1      -8.040   7.389  -9.302  1.00  0.00     0.006 C 
BRANCH   5   6
ATOM      6  C   UNL     1      -7.591   7.338  -7.836  1.00  0.00     0.053 C 
BRANCH   6   7
ATOM      7  C   UNL     1      -8.622   6.688  -6.964  1.00  0.00     0.041 C 
ATOM      8  O   UNL     1      -8.558   6.806  -5.712  1.00  0.00    -0.550 OA
ATOM      9  O   UNL     1      -9.672   5.982  -7.537  1.00  0.00    -0.550 OA
ENDBRANCH   6   7
ENDBRANCH   5   6
ENDBRANCH   4   5
ENDBRANCH   3   4
ENDBRANCH   2   3
ENDBRANCH   1   2
BRANCH   1  10
ATOM     10  C   UNL     1      -6.219  11.107  -9.332  1.00  0.00     0.000 C 
BRANCH  10  11
ATOM     11  C   UNL     1      -6.095  10.711  -7.848  1.00  0.00    -0.000 C 
BRANCH  11  12
ATOM     12  C   UNL     1      -4.829   9.907  -7.488  1.00  0.00    -0.000 C 
BRANCH  12  13
ATOM     13  C   UNL     1      -4.105   9.256  -8.680  1.00  0.00    -0.000 C 
BRANCH  13  14
ATOM     14  C   UNL     1      -3.741   7.784  -8.425  1.00  0.00    -0.000 C 
BRANCH  14  15
ATOM     15  C   UNL     1      -3.736   7.430  -6.930  1.00  0.00    -0.003 C 
ATOM     16  C   UNL     1      -2.341   7.498  -6.309  1.00  0.00     0.004 C 
ENDBRANCH  14  15
ENDBRANCH  13  14
ENDBRANCH  12  13
ENDBRANCH  11  12
ENDBRANCH  10  11
ENDBRANCH   1  10
TORSDOF 12
ENDMDL
MODEL 3
REMARK VINA RESULT:    -5.027      2.305      4.863
REMARK INTER + INTRA:         -10.215
REMARK INTER:                  -8.531
REMARK INTRA:                  -1.684
REMARK UNBOUND:                -1.662
REMARK SMILES CCCCCCCCCCCCCC(=O)[O-]
REMARK SMILES IDX 8 1 9 2 10 3 11 4 12 5 13 6 14 7 15 8 16 9 7 10 6 11 5 12
REMARK SMILES IDX 4 13 3 14 2 15 1 16
REMARK H PARENT
REMARK Flexibility Score: inf
ROOT
ATOM      1  C   UNL     1      -6.259   9.447 -11.359  1.00  0.00     0.000 C 
ENDROOT
BRANCH   1   2
ATOM      2  C   UNL     1      -7.722   9.598 -10.900  1.00  0.00     0.000 C 
BRANCH   2   3
ATOM      3  C   UNL     1      -8.223   8.501  -9.938  1.00  0.00     0.000 C 
BRANCH   3   4
ATOM      4  C   UNL     1      -7.292   7.282  -9.804  1.00  0.00     0.000 C 
BRANCH   4   5
ATOM      5  C   UNL     1      -7.655   6.381  -8.612  1.00  0.00     0.006 C 
BRANCH   5   6
ATOM      6  C   UNL     1      -7.796   7.176  -7.308  1.00  0.00     0.053 C 
BRANCH   6   7
ATOM      7  C   UNL     1      -8.878   6.619  -6.435  1.00  0.00     0.041 C 
ATOM      8  O   UNL     1      -9.972   6.250  -6.939  1.00  0.00    -0.550 OA
ATOM      9  O   UNL     1      -8.666   6.476  -5.070  1.00  0.00    -0.550 OA
ENDBRANCH   6   7
ENDBRANCH   5   6
ENDBRANCH   4   5
ENDBRANCH   3   4
ENDBRANCH   2   3
ENDBRANCH   1   2
BRANCH   1  10
ATOM     10  C   UNL     1      -5.219  10.129 -10.448  1.00  0.00     0.000 C 
BRANCH  10  11
ATOM     11  C   UNL     1      -5.744  11.349  -9.665  1.00  0.00    -0.000 C 
BRANCH  11  12
ATOM     12  C   UNL     1      -5.926  11.125  -8.150  1.00  0.00    -0.000 C 
BRANCH  12  13
ATOM     13  C   UNL     1      -5.486   9.743  -7.634  1.00  0.00    -0.000 C 
BRANCH  13  14
ATOM     14  C   UNL     1      -4.075   9.758  -7.021  1.00  0.00    -0.000 C 
BRANCH  14  15
ATOM     15  C   UNL     1      -3.380   8.391  -7.111  1.00  0.00    -0.003 C 
ATOM     16  C   UNL     1      -3.903   7.535  -8.266  1.00  0.00     0.004 C 
ENDBRANCH  14  15
ENDBRANCH  13  14
ENDBRANCH  12  13
ENDBRANCH  11  12
ENDBRANCH  10  11
ENDBRANCH   1  10
TORSDOF 12
ENDMDL
MODEL 4
REMARK VINA RESULT:    -4.984      2.684      3.912
REMARK INTER + INTRA:         -10.143
REMARK INTER:                  -8.727
REMARK INTRA:                  -1.416
REMARK UNBOUND:                -1.662
REMARK SMILES CCCCCCCCCCCCCC(=O)[O-]
REMARK SMILES IDX 8 1 9 2 10 3 11 4 12 5 13 6 14 7 15 8 16 9 7 10 6 11 5 12
REMARK SMILES IDX 4 13 3 14 2 15 1 16
REMARK H PARENT
REMARK Flexibility Score: inf
ROOT
ATOM      1  C   UNL     1      -4.079   7.457  -8.201  1.00  0.00     0.000 C 
ENDROOT
BRANCH   1   2
ATOM      2  C   UNL     1      -3.392   8.380  -7.175  1.00  0.00     0.000 C 
BRANCH   2   3
ATOM      3  C   UNL     1      -4.080   9.743  -6.957  1.00  0.00     0.000 C 
BRANCH   3   4
ATOM      4  C   UNL     1      -5.419   9.919  -7.697  1.00  0.00     0.000 C 
BRANCH   4   5
ATOM      5  C   UNL     1      -5.338  10.941  -8.843  1.00  0.00     0.006 C 
BRANCH   5   6
ATOM      6  C   UNL     1      -5.222  10.264 -10.214  1.00  0.00     0.053 C 
BRANCH   6   7
ATOM      7  C   UNL     1      -6.554  10.156 -10.892  1.00  0.00     0.041 C 
ATOM      8  O   UNL     1      -7.565  10.721 -10.397  1.00  0.00    -0.550 OA
ATOM      9  O   UNL     1      -6.672   9.459 -12.087  1.00  0.00    -0.550 OA
ENDBRANCH   6   7
ENDBRANCH   5   6
ENDBRANCH   4   5
ENDBRANCH   3   4
ENDBRANCH   2   3
ENDBRANCH   1   2
BRANCH   1  10
ATOM     10  C   UNL     1      -5.000   6.381  -7.591  1.00  0.00     0.000 C 
BRANCH  10  11
ATOM     11  C   UNL     1      -6.063   5.817  -8.554  1.00  0.00    -0.000 C 
BRANCH  11  12
ATOM     12  C   UNL     1      -6.587   6.814  -9.607  1.00  0.00    -0.000 C 
BRANCH  12  13
ATOM     13  C   UNL     1      -8.080   7.170  -9.488  1.00  0.00    -0.000 C 
BRANCH  13  14
ATOM     14  C   UNL     1      -8.847   6.217  -8.555  1.00  0.00    -0.000 C 
BRANCH  14  15
ATOM     15  C   UNL     1      -9.704   5.202  -9.326  1.00  0.00    -0.003 C 
ATOM     16  C   UNL     1      -9.128   3.786  -9.284  1.00  0.00     0.004 C 
ENDBRANCH  14  15
ENDBRANCH  13  14
ENDBRANCH  12  13
ENDBRANCH  11  12
ENDBRANCH  10  11
ENDBRANCH   1  10
TORSDOF 12
ENDMDL
MODEL 5
REMARK VINA RESULT:    -4.908      2.381      5.023
REMARK INTER + INTRA:         -10.013
REMARK INTER:                  -7.985
REMARK INTRA:                  -2.028
REMARK UNBOUND:                -1.662
REMARK SMILES CCCCCCCCCCCCCC(=O)[O-]
REMARK SMILES IDX 8 1 9 2 10 3 11 4 12 5 13 6 14 7 15 8 16 9 7 10 6 11 5 12
REMARK SMILES IDX 4 13 3 14 2 15 1 16
REMARK H PARENT
REMARK Flexibility Score: inf
ROOT
ATOM      1  C   UNL     1      -3.985   8.179  -8.368  1.00  0.00     0.000 C 
ENDROOT
BRANCH   1   2
ATOM      2  C   UNL     1      -4.882   7.265  -9.226  1.00  0.00     0.000 C 
BRANCH   2   3
ATOM      3  C   UNL     1      -5.855   6.371  -8.432  1.00  0.00     0.000 C 
BRANCH   3   4
ATOM      4  C   UNL     1      -7.190   6.077  -9.140  1.00  0.00     0.000 C 
BRANCH   4   5
ATOM      5  C   UNL     1      -8.389   6.760  -8.462  1.00  0.00     0.006 C 
BRANCH   5   6
ATOM      6  C   UNL     1      -8.089   7.145  -7.008  1.00  0.00     0.053 C 
BRANCH   6   7
ATOM      7  C   UNL     1      -8.958   6.393  -6.047  1.00  0.00     0.041 C 
ATOM      8  O   UNL     1      -9.980   5.784  -6.459  1.00  0.00    -0.550 OA
ATOM      9  O   UNL     1      -8.620   6.338  -4.701  1.00  0.00    -0.550 OA
ENDBRANCH   6   7
ENDBRANCH   5   6
ENDBRANCH   4   5
ENDBRANCH   3   4
ENDBRANCH   2   3
ENDBRANCH   1   2
BRANCH   1  10
ATOM     10  C   UNL     1      -4.701   8.872  -7.191  1.00  0.00     0.000 C 
BRANCH  10  11
ATOM     11  C   UNL     1      -5.637  10.029  -7.592  1.00  0.00    -0.000 C 
BRANCH  11  12
ATOM     12  C   UNL     1      -5.144  10.890  -8.772  1.00  0.00    -0.000 C 
BRANCH  12  13
ATOM     13  C   UNL     1      -6.205  11.205  -9.842  1.00  0.00    -0.000 C 
BRANCH  13  14
ATOM     14  C   UNL     1      -7.515  10.429  -9.629  1.00  0.00    -0.000 C 
BRANCH  14  15
ATOM     15  C   UNL     1      -7.851   9.507 -10.811  1.00  0.00    -0.003 C 
ATOM     16  C   UNL     1      -6.667   9.298 -11.756  1.00  0.00     0.004 C 
ENDBRANCH  14  15
ENDBRANCH  13  14
ENDBRANCH  12  13
ENDBRANCH  11  12
ENDBRANCH  10  11
ENDBRANCH   1  10
TORSDOF 12
ENDMDL
MODEL 6
REMARK VINA RESULT:    -4.883      2.706      5.601
REMARK INTER + INTRA:          -9.971
REMARK INTER:                  -8.281
REMARK INTRA:                  -1.690
REMARK UNBOUND:                -1.662
REMARK SMILES CCCCCCCCCCCCCC(=O)[O-]
REMARK SMILES IDX 8 1 9 2 10 3 11 4 12 5 13 6 14 7 15 8 16 9 7 10 6 11 5 12
REMARK SMILES IDX 4 13 3 14 2 15 1 16
REMARK H PARENT
REMARK Flexibility Score: inf
ROOT
ATOM      1  C   UNL     1      -4.296   7.607  -8.731  1.00  0.00     0.000 C 
ENDROOT
BRANCH   1   2
ATOM      2  C   UNL     1      -5.495   6.639  -8.728  1.00  0.00     0.000 C 
BRANCH   2   3
ATOM      3  C   UNL     1      -6.469   6.807  -7.543  1.00  0.00     0.000 C 
BRANCH   3   4
ATOM      4  C   UNL     1      -7.948   6.967  -7.938  1.00  0.00     0.000 C 
BRANCH   4   5
ATOM      5  C   UNL     1      -8.309   6.208  -9.226  1.00  0.00     0.006 C 
BRANCH   5   6
ATOM      6  C   UNL     1      -9.654   5.480  -9.110  1.00  0.00     0.053 C 
BRANCH   6   7
ATOM      7  C   UNL     1      -9.543   4.044  -9.522  1.00  0.00     0.041 C 
ATOM      8  O   UNL     1      -8.481   3.403  -9.304  1.00  0.00    -0.550 OA
ATOM      9  O   UNL     1     -10.624   3.405 -10.115  1.00  0.00    -0.550 OA
ENDBRANCH   6   7
ENDBRANCH   5   6
ENDBRANCH   4   5
ENDBRANCH   3   4
ENDBRANCH   2   3
ENDBRANCH   1   2
BRANCH   1  10
ATOM     10  C   UNL     1      -3.952   8.218  -7.358  1.00  0.00     0.000 C 
BRANCH  10  11
ATOM     11  C   UNL     1      -4.203   9.734  -7.241  1.00  0.00    -0.000 C 
BRANCH  11  12
ATOM     12  C   UNL     1      -4.814  10.394  -8.494  1.00  0.00    -0.000 C 
BRANCH  12  13
ATOM     13  C   UNL     1      -6.318  10.710  -8.401  1.00  0.00    -0.000 C 
BRANCH  13  14
ATOM     14  C   UNL     1      -6.987  10.838  -9.780  1.00  0.00    -0.000 C 
BRANCH  14  15
ATOM     15  C   UNL     1      -7.216   9.475 -10.451  1.00  0.00    -0.003 C 
ATOM     16  C   UNL     1      -6.458   9.330 -11.771  1.00  0.00     0.004 C 
ENDBRANCH  14  15
ENDBRANCH  13  14
ENDBRANCH  12  13
ENDBRANCH  11  12
ENDBRANCH  10  11
ENDBRANCH   1  10
TORSDOF 12
ENDMDL
MODEL 7
REMARK VINA RESULT:    -4.766      2.799      5.775
REMARK INTER + INTRA:          -9.771
REMARK INTER:                  -8.201
REMARK INTRA:                  -1.570
REMARK UNBOUND:                -1.662
REMARK SMILES CCCCCCCCCCCCCC(=O)[O-]
REMARK SMILES IDX 8 1 9 2 10 3 11 4 12 5 13 6 14 7 15 8 16 9 7 10 6 11 5 12
REMARK SMILES IDX 4 13 3 14 2 15 1 16
REMARK H PARENT
REMARK Flexibility Score: inf
ROOT
ATOM      1  C   UNL     1      -5.053   6.788  -7.688  1.00  0.00     0.000 C 
ENDROOT
BRANCH   1   2
ATOM      2  C   UNL     1      -5.636   6.524  -9.090  1.00  0.00     0.000 C 
BRANCH   2   3
ATOM      3  C   UNL     1      -7.072   5.961  -9.106  1.00  0.00     0.000 C 
BRANCH   3   4
ATOM      4  C   UNL     1      -8.183   7.022  -9.200  1.00  0.00     0.000 C 
BRANCH   4   5
ATOM      5  C   UNL     1      -9.573   6.411  -9.446  1.00  0.00     0.006 C 
BRANCH   5   6
ATOM      6  C   UNL     1      -9.617   4.917  -9.105  1.00  0.00     0.053 C 
BRANCH   6   7
ATOM      7  C   UNL     1     -10.304   4.668  -7.797  1.00  0.00     0.041 C 
ATOM      8  O   UNL     1     -10.566   3.492  -7.432  1.00  0.00    -0.550 OA
ATOM      9  O   UNL     1     -10.623   5.734  -6.966  1.00  0.00    -0.550 OA
ENDBRANCH   6   7
ENDBRANCH   5   6
ENDBRANCH   4   5
ENDBRANCH   3   4
ENDBRANCH   2   3
ENDBRANCH   1   2
BRANCH   1  10
ATOM     10  C   UNL     1      -3.742   7.601  -7.674  1.00  0.00     0.000 C 
BRANCH  10  11
ATOM     11  C   UNL     1      -3.918   9.117  -7.885  1.00  0.00    -0.000 C 
BRANCH  11  12
ATOM     12  C   UNL     1      -5.183   9.725  -7.247  1.00  0.00    -0.000 C 
BRANCH  12  13
ATOM     13  C   UNL     1      -6.161  10.388  -8.234  1.00  0.00    -0.000 C 
BRANCH  13  14
ATOM     14  C   UNL     1      -5.689  10.295  -9.694  1.00  0.00    -0.000 C 
BRANCH  14  15
ATOM     15  C   UNL     1      -6.845  10.030 -10.670  1.00  0.00    -0.003 C 
ATOM     16  C   UNL     1      -6.460   9.075 -11.801  1.00  0.00     0.004 C 
ENDBRANCH  14  15
ENDBRANCH  13  14
ENDBRANCH  12  13
ENDBRANCH  11  12
ENDBRANCH  10  11
ENDBRANCH   1  10
TORSDOF 12
ENDMDL
MODEL 8
REMARK VINA RESULT:    -4.765      2.656      5.294
REMARK INTER + INTRA:          -9.769
REMARK INTER:                  -8.374
REMARK INTRA:                  -1.396
REMARK UNBOUND:                -1.662
REMARK SMILES CCCCCCCCCCCCCC(=O)[O-]
REMARK SMILES IDX 8 1 9 2 10 3 11 4 12 5 13 6 14 7 15 8 16 9 7 10 6 11 5 12
REMARK SMILES IDX 4 13 3 14 2 15 1 16
REMARK H PARENT
REMARK Flexibility Score: inf
ROOT
ATOM      1  C   UNL     1      -5.663   9.822 -10.904  1.00  0.00     0.000 C 
ENDROOT
BRANCH   1   2
ATOM      2  C   UNL     1      -7.006   9.101 -10.680  1.00  0.00     0.000 C 
BRANCH   2   3
ATOM      3  C   UNL     1      -6.892   7.624 -10.249  1.00  0.00     0.000 C 
BRANCH   3   4
ATOM      4  C   UNL     1      -7.979   7.151  -9.266  1.00  0.00     0.000 C 
BRANCH   4   5
ATOM      5  C   UNL     1      -7.904   5.643  -8.974  1.00  0.00     0.006 C 
BRANCH   5   6
ATOM      6  C   UNL     1      -9.283   4.974  -9.026  1.00  0.00     0.053 C 
BRANCH   6   7
ATOM      7  C   UNL     1      -9.178   3.514  -9.344  1.00  0.00     0.041 C 
ATOM      8  O   UNL     1      -8.075   2.918  -9.227  1.00  0.00    -0.550 OA
ATOM      9  O   UNL     1     -10.306   2.805  -9.736  1.00  0.00    -0.550 OA
ENDBRANCH   6   7
ENDBRANCH   5   6
ENDBRANCH   4   5
ENDBRANCH   3   4
ENDBRANCH   2   3
ENDBRANCH   1   2
BRANCH   1  10
ATOM     10  C   UNL     1      -5.189  10.693  -9.722  1.00  0.00     0.000 C 
BRANCH  10  11
ATOM     11  C   UNL     1      -6.082  10.625  -8.468  1.00  0.00    -0.000 C 
BRANCH  11  12
ATOM     12  C   UNL     1      -5.490   9.834  -7.284  1.00  0.00    -0.000 C 
BRANCH  12  13
ATOM     13  C   UNL     1      -3.955   9.722  -7.273  1.00  0.00    -0.000 C 
BRANCH  13  14
ATOM     14  C   UNL     1      -3.464   8.267  -7.177  1.00  0.00    -0.000 C 
BRANCH  14  15
ATOM     15  C   UNL     1      -4.466   7.268  -7.776  1.00  0.00    -0.003 C 
ATOM     16  C   UNL     1      -4.760   6.092  -6.844  1.00  0.00     0.004 C 
ENDBRANCH  14  15
ENDBRANCH  13  14
ENDBRANCH  12  13
ENDBRANCH  11  12
ENDBRANCH  10  11
ENDBRANCH   1  10
TORSDOF 12
ENDMDL
MODEL 9
REMARK VINA RESULT:    -4.727     11.664     13.749
REMARK INTER + INTRA:          -9.705
REMARK INTER:                  -7.911
REMARK INTRA:                  -1.794
REMARK UNBOUND:                -1.662
REMARK SMILES CCCCCCCCCCCCCC(=O)[O-]
REMARK SMILES IDX 8 1 9 2 10 3 11 4 12 5 13 6 14 7 15 8 16 9 7 10 6 11 5 12
REMARK SMILES IDX 4 13 3 14 2 15 1 16
REMARK H PARENT
REMARK Flexibility Score: inf
ROOT
ATOM      1  C   UNL     1       5.122  13.636 -17.992  1.00  0.00     0.000 C 
ENDROOT
BRANCH   1   2
ATOM      2  C   UNL     1       4.476  14.479 -16.875  1.00  0.00     0.000 C 
BRANCH   2   3
ATOM      3  C   UNL     1       2.965  14.247 -16.671  1.00  0.00     0.000 C 
BRANCH   3   4
ATOM      4  C   UNL     1       2.384  13.044 -17.436  1.00  0.00     0.000 C 
BRANCH   4   5
ATOM      5  C   UNL     1       1.499  12.147 -16.555  1.00  0.00     0.006 C 
BRANCH   5   6
ATOM      6  C   UNL     1       1.751  10.656 -16.811  1.00  0.00     0.053 C 
BRANCH   6   7
ATOM      7  C   UNL     1       1.255   9.809 -15.679  1.00  0.00     0.041 C 
ATOM      8  O   UNL     1       0.843   8.639 -15.896  1.00  0.00    -0.550 OA
ATOM      9  O   UNL     1       1.279  10.300 -14.381  1.00  0.00    -0.550 OA
ENDBRANCH   6   7
ENDBRANCH   5   6
ENDBRANCH   4   5
ENDBRANCH   3   4
ENDBRANCH   2   3
ENDBRANCH   1   2
BRANCH   1  10
ATOM     10  C   UNL     1       6.548  13.137 -17.686  1.00  0.00     0.000 C 
BRANCH  10  11
ATOM     11  C   UNL     1       6.659  12.196 -16.470  1.00  0.00    -0.000 C 
BRANCH  11  12
ATOM     12  C   UNL     1       5.415  11.326 -16.200  1.00  0.00    -0.000 C 
BRANCH  12  13
ATOM     13  C   UNL     1       5.183  10.955 -14.724  1.00  0.00    -0.000 C 
BRANCH  13  14
ATOM     14  C   UNL     1       4.282  11.962 -13.990  1.00  0.00    -0.000 C 
BRANCH  14  15
ATOM     15  C   UNL     1       5.067  13.162 -13.439  1.00  0.00    -0.003 C 
ATOM     16  C   UNL     1       6.388  12.757 -12.786  1.00  0.00     0.004 C 
ENDBRANCH  14  15
ENDBRANCH  13  14
ENDBRANCH  12  13
ENDBRANCH  11  12
ENDBRANCH  10  11
ENDBRANCH   1  10
TORSDOF 12
ENDMDL
