MODEL 1
REMARK VINA RESULT:    -5.977      0.000      0.000
REMARK INTER + INTRA:          -6.811
REMARK INTER:                  -7.201
REMARK INTRA:                   0.390
REMARK UNBOUND:                 0.390
REMARK SMILES O=c1c(O)c(-c2ccc(O)c(O)c2)oc2cc(O)cc(O)c12
REMARK SMILES IDX 5 1 3 2 2 3 1 4 22 5 20 6 19 7 17 8 16 9 15 10 14 11 6 12
REMARK SMILES IDX 7 13 8 14 9 15 13 16 11 17 10 18 12 20 4 22 21 24 18 26
REMARK H PARENT 10 19 12 21 4 23 21 25 18 27
REMARK Flexibility Score: inf
ROOT
ATOM      1  C   UNL     1      -4.475 -14.000  49.219  1.00  0.00     0.180 A 
ATOM      2  C   UNL     1      -5.766 -13.476  49.030  1.00  0.00     0.208 A 
ATOM      3  C   UNL     1      -6.646 -13.421  50.122  1.00  0.00     0.238 A 
ATOM      4  O   UNL     1      -7.780 -12.900  49.959  1.00  0.00    -0.285 OA
ATOM      5  C   UNL     1      -6.232 -13.906  51.385  1.00  0.00     0.111 A 
ATOM      6  C   UNL     1      -7.055 -13.938  52.551  1.00  0.00     0.134 A 
ATOM      7  C   UNL     1      -6.500 -14.318  53.779  1.00  0.00     0.093 A 
ATOM      8  C   UNL     1      -5.168 -14.732  53.870  1.00  0.00     0.123 A 
ATOM      9  C   UNL     1      -4.374 -14.762  52.726  1.00  0.00     0.094 A 
ATOM     10  C   UNL     1      -4.890 -14.353  51.494  1.00  0.00     0.146 A 
ATOM     11  O   UNL     1      -4.095 -14.387  50.431  1.00  0.00    -0.452 OA
ENDROOT
BRANCH   1  12
ATOM     12  C   UNL     1      -3.500 -14.113  48.111  1.00  0.00     0.025 A 
ATOM     13  C   UNL     1      -2.448 -15.046  48.154  1.00  0.00     0.016 A 
ATOM     14  C   UNL     1      -1.526 -15.119  47.106  1.00  0.00     0.051 A 
ATOM     15  C   UNL     1      -1.632 -14.253  46.010  1.00  0.00     0.157 A 
ATOM     16  C   UNL     1      -3.589 -13.234  47.019  1.00  0.00     0.062 A 
ATOM     17  C   UNL     1      -2.667 -13.303  45.969  1.00  0.00     0.158 A 
BRANCH  15  18
ATOM     18  O   UNL     1      -0.711 -14.329  44.966  1.00  0.00    -0.504 OA
ATOM     19  H   UNL     1       0.282 -14.208  45.126  1.00  0.00     0.293 HD
ENDBRANCH  15  18
BRANCH  17  20
ATOM     20  O   UNL     1      -2.795 -12.424  44.895  1.00  0.00    -0.504 OA
ATOM     21  H   UNL     1      -3.170 -11.489  45.007  1.00  0.00     0.293 HD
ENDBRANCH  17  20
ENDBRANCH   1  12
BRANCH   2  22
ATOM     22  O   UNL     1      -6.147 -12.982  47.779  1.00  0.00    -0.502 OA
ATOM     23  H   UNL     1      -7.116 -12.849  47.519  1.00  0.00     0.293 HD
ENDBRANCH   2  22
BRANCH   6  24
ATOM     24  O   UNL     1      -8.420 -13.633  52.551  1.00  0.00    -0.507 OA
ATOM     25  H   UNL     1      -9.115 -14.107  53.108  1.00  0.00     0.293 HD
ENDBRANCH   6  24
BRANCH   8  26
ATOM     26  O   UNL     1      -4.628 -15.124  55.093  1.00  0.00    -0.508 OA
ATOM     27  H   UNL     1      -5.129 -15.742  55.720  1.00  0.00     0.293 HD
ENDBRANCH   8  26
TORSDOF 6
ENDMDL
MODEL 2
REMARK VINA RESULT:    -4.066      2.033      4.323
REMARK INTER + INTRA:          -4.508
REMARK INTER:                  -4.627
REMARK INTRA:                   0.119
REMARK UNBOUND:                 0.390
REMARK SMILES O=c1c(O)c(-c2ccc(O)c(O)c2)oc2cc(O)cc(O)c12
REMARK SMILES IDX 5 1 3 2 2 3 1 4 22 5 20 6 19 7 17 8 16 9 15 10 14 11 6 12
REMARK SMILES IDX 7 13 8 14 9 15 13 16 11 17 10 18 12 20 4 22 21 24 18 26
REMARK H PARENT 10 19 12 21 4 23 21 25 18 27
REMARK Flexibility Score: inf
ROOT
ATOM      1  C   UNL     1      -5.623 -14.569  52.091  1.00  0.00     0.180 A 
ATOM      2  C   UNL     1      -4.563 -14.740  52.998  1.00  0.00     0.208 A 
ATOM      3  C   UNL     1      -4.854 -14.914  54.361  1.00  0.00     0.238 A 
ATOM      4  O   UNL     1      -3.905 -15.122  55.160  1.00  0.00    -0.285 OA
ATOM      5  C   UNL     1      -6.199 -14.898  54.801  1.00  0.00     0.111 A 
ATOM      6  C   UNL     1      -6.608 -15.023  56.163  1.00  0.00     0.134 A 
ATOM      7  C   UNL     1      -7.971 -15.125  56.469  1.00  0.00     0.093 A 
ATOM      8  C   UNL     1      -8.942 -15.038  55.468  1.00  0.00     0.123 A 
ATOM      9  C   UNL     1      -8.555 -14.854  54.142  1.00  0.00     0.094 A 
ATOM     10  C   UNL     1      -7.202 -14.787  53.802  1.00  0.00     0.146 A 
ATOM     11  O   UNL     1      -6.876 -14.623  52.526  1.00  0.00    -0.452 OA
ENDROOT
BRANCH   1  12
ATOM     12  C   UNL     1      -5.394 -14.355  50.643  1.00  0.00     0.025 A 
ATOM     13  C   UNL     1      -4.431 -15.097  49.937  1.00  0.00     0.016 A 
ATOM     14  C   UNL     1      -4.216 -14.861  48.577  1.00  0.00     0.051 A 
ATOM     15  C   UNL     1      -4.948 -13.873  47.906  1.00  0.00     0.157 A 
ATOM     16  C   UNL     1      -6.110 -13.351  49.971  1.00  0.00     0.062 A 
ATOM     17  C   UNL     1      -5.898 -13.112  48.609  1.00  0.00     0.158 A 
BRANCH  15  18
ATOM     18  O   UNL     1      -4.733 -13.641  46.548  1.00  0.00    -0.504 OA
ATOM     19  H   UNL     1      -4.586 -14.403  45.897  1.00  0.00     0.293 HD
ENDBRANCH  15  18
BRANCH  17  20
ATOM     20  O   UNL     1      -6.638 -12.117  47.972  1.00  0.00    -0.504 OA
ATOM     21  H   UNL     1      -7.185 -12.302  47.139  1.00  0.00     0.293 HD
ENDBRANCH  17  20
ENDBRANCH   1  12
BRANCH   2  22
ATOM     22  O   UNL     1      -3.244 -14.775  52.540  1.00  0.00    -0.502 OA
ATOM     23  H   UNL     1      -2.964 -15.308  51.725  1.00  0.00     0.293 HD
ENDBRANCH   2  22
BRANCH   6  24
ATOM     24  O   UNL     1      -5.724 -15.027  57.246  1.00  0.00    -0.507 OA
ATOM     25  H   UNL     1      -5.268 -14.207  57.618  1.00  0.00     0.293 HD
ENDBRANCH   6  24
BRANCH   8  26
ATOM     26  O   UNL     1     -10.296 -15.123  55.783  1.00  0.00    -0.508 OA
ATOM     27  H   UNL     1     -10.708 -15.983  56.124  1.00  0.00     0.293 HD
ENDBRANCH   8  26
TORSDOF 6
ENDMDL
MODEL 3
REMARK VINA RESULT:    -3.915      1.578      6.967
REMARK INTER + INTRA:          -4.327
REMARK INTER:                  -4.760
REMARK INTRA:                   0.433
REMARK UNBOUND:                 0.390
REMARK SMILES O=c1c(O)c(-c2ccc(O)c(O)c2)oc2cc(O)cc(O)c12
REMARK SMILES IDX 5 1 3 2 2 3 1 4 22 5 20 6 19 7 17 8 16 9 15 10 14 11 6 12
REMARK SMILES IDX 7 13 8 14 9 15 13 16 11 17 10 18 12 20 4 22 21 24 18 26
REMARK H PARENT 10 19 12 21 4 23 21 25 18 27
REMARK Flexibility Score: inf
ROOT
ATOM      1  C   UNL     1      -5.910 -14.150  51.664  1.00  0.00     0.180 A 
ATOM      2  C   UNL     1      -6.903 -13.579  50.850  1.00  0.00     0.208 A 
ATOM      3  C   UNL     1      -6.630 -13.365  49.489  1.00  0.00     0.238 A 
ATOM      4  O   UNL     1      -7.541 -12.905  48.755  1.00  0.00    -0.285 OA
ATOM      5  C   UNL     1      -5.362 -13.711  48.964  1.00  0.00     0.111 A 
ATOM      6  C   UNL     1      -4.961 -13.501  47.610  1.00  0.00     0.134 A 
ATOM      7  C   UNL     1      -3.730 -14.001  47.168  1.00  0.00     0.093 A 
ATOM      8  C   UNL     1      -2.856 -14.644  48.049  1.00  0.00     0.123 A 
ATOM      9  C   UNL     1      -3.212 -14.800  49.386  1.00  0.00     0.094 A 
ATOM     10  C   UNL     1      -4.450 -14.345  49.847  1.00  0.00     0.146 A 
ATOM     11  O   UNL     1      -4.755 -14.523  51.127  1.00  0.00    -0.452 OA
ENDROOT
BRANCH   1  12
ATOM     12  C   UNL     1      -6.116 -14.382  53.112  1.00  0.00     0.025 A 
ATOM     13  C   UNL     1      -5.029 -14.558  53.987  1.00  0.00     0.016 A 
ATOM     14  C   UNL     1      -5.248 -14.799  55.345  1.00  0.00     0.051 A 
ATOM     15  C   UNL     1      -6.553 -14.883  55.847  1.00  0.00     0.157 A 
ATOM     16  C   UNL     1      -7.422 -14.489  53.617  1.00  0.00     0.062 A 
ATOM     17  C   UNL     1      -7.646 -14.731  54.977  1.00  0.00     0.158 A 
BRANCH  15  18
ATOM     18  O   UNL     1      -6.769 -15.123  57.204  1.00  0.00    -0.504 OA
ATOM     19  H   UNL     1      -6.049 -15.527  57.791  1.00  0.00     0.293 HD
ENDBRANCH  15  18
BRANCH  17  20
ATOM     20  O   UNL     1      -8.956 -14.816  55.444  1.00  0.00    -0.504 OA
ATOM     21  H   UNL     1      -9.746 -14.911  54.816  1.00  0.00     0.293 HD
ENDBRANCH  17  20
ENDBRANCH   1  12
BRANCH   2  22
ATOM     22  O   UNL     1      -8.156 -13.265  51.384  1.00  0.00    -0.502 OA
ATOM     23  H   UNL     1      -8.471 -12.311  51.511  1.00  0.00     0.293 HD
ENDBRANCH   2  22
BRANCH   6  24
ATOM     24  O   UNL     1      -5.718 -12.791  46.673  1.00  0.00    -0.507 OA
ATOM     25  H   UNL     1      -6.727 -12.756  46.657  1.00  0.00     0.293 HD
ENDBRANCH   6  24
BRANCH   8  26
ATOM     26  O   UNL     1      -1.626 -15.123  47.605  1.00  0.00    -0.508 OA
ATOM     27  H   UNL     1      -0.774 -14.963  48.128  1.00  0.00     0.293 HD
ENDBRANCH   8  26
TORSDOF 6
ENDMDL
