MODEL 1
REMARK VINA RESULT:     0.236      0.000      0.000
REMARK INTER + INTRA:          -1.547
REMARK INTER:                   0.621
REMARK INTRA:                  -2.168
REMARK UNBOUND:                -2.168
REMARK SMILES CCCCCCCCCCCCCCCCCCCCCCCCCCCCCC(=O)[O-]
REMARK SMILES IDX 16 1 17 2 18 3 19 4 20 5 21 6 22 7 23 8 24 9 25 10 26 11
REMARK SMILES IDX 27 12 28 13 29 14 30 15 31 16 32 17 15 18 14 19 13 20 12 21
REMARK SMILES IDX 11 22 10 23 9 24 8 25 7 26 6 27 5 28 4 29 3 30 2 31 1 32
REMARK H PARENT
REMARK Flexibility Score: inf
ROOT
ATOM      1  C   UNL     1      -2.915   5.597  -4.628  1.00  0.00     0.000 C 
ENDROOT
BRANCH   1   2
ATOM      2  C   UNL     1      -3.321   4.653  -3.483  1.00  0.00     0.000 C 
BRANCH   2   3
ATOM      3  C   UNL     1      -3.058   3.174  -3.814  1.00  0.00     0.000 C 
BRANCH   3   4
ATOM      4  C   UNL     1      -2.743   2.280  -2.598  1.00  0.00     0.000 C 
BRANCH   4   5
ATOM      5  C   UNL     1      -2.221   0.876  -2.975  1.00  0.00     0.000 C 
BRANCH   5   6
ATOM      6  C   UNL     1      -0.719   0.880  -3.315  1.00  0.00     0.000 C 
BRANCH   6   7
ATOM      7  C   UNL     1      -0.227   2.251  -3.804  1.00  0.00     0.000 C 
BRANCH   7   8
ATOM      8  C   UNL     1       0.656   2.965  -2.766  1.00  0.00     0.000 C 
BRANCH   8   9
ATOM      9  C   UNL     1       0.006   4.247  -2.223  1.00  0.00     0.000 C 
BRANCH   9  10
ATOM     10  C   UNL     1      -0.342   4.145  -0.727  1.00  0.00     0.000 C 
BRANCH  10  11
ATOM     11  C   UNL     1       0.358   2.968  -0.031  1.00  0.00     0.000 C 
BRANCH  11  12
ATOM     12  C   UNL     1       0.900   3.333   1.359  1.00  0.00     0.000 C 
BRANCH  12  13
ATOM     13  C   UNL     1       1.769   2.198   1.920  1.00  0.00     0.006 C 
BRANCH  13  14
ATOM     14  C   UNL     1       1.825   2.213   3.454  1.00  0.00     0.053 C 
BRANCH  14  15
ATOM     15  C   UNL     1       0.545   1.721   4.063  1.00  0.00     0.041 C 
ATOM     16  O   UNL     1      -0.104   2.454   4.853  1.00  0.00    -0.550 OA
ATOM     17  O   UNL     1       0.076   0.447   3.762  1.00  0.00    -0.550 OA
ENDBRANCH  14  15
ENDBRANCH  13  14
ENDBRANCH  12  13
ENDBRANCH  11  12
ENDBRANCH  10  11
ENDBRANCH   9  10
ENDBRANCH   8   9
ENDBRANCH   7   8
ENDBRANCH   6   7
ENDBRANCH   5   6
ENDBRANCH   4   5
ENDBRANCH   3   4
ENDBRANCH   2   3
ENDBRANCH   1   2
BRANCH   1  18
ATOM     18  C   UNL     1      -3.769   5.395  -5.890  1.00  0.00     0.000 C 
BRANCH  18  19
ATOM     19  C   UNL     1      -4.667   6.609  -6.191  1.00  0.00     0.000 C 
BRANCH  19  20
ATOM     20  C   UNL     1      -4.541   7.110  -7.642  1.00  0.00     0.000 C 
BRANCH  20  21
ATOM     21  C   UNL     1      -3.984   8.537  -7.808  1.00  0.00     0.000 C 
BRANCH  21  22
ATOM     22  C   UNL     1      -4.230   9.122  -9.209  1.00  0.00     0.000 C 
BRANCH  22  23
ATOM     23  C   UNL     1      -5.725   9.236  -9.560  1.00  0.00     0.000 C 
BRANCH  23  24
ATOM     24  C   UNL     1      -6.639   9.710  -8.416  1.00  0.00    -0.000 C 
BRANCH  24  25
ATOM     25  C   UNL     1      -7.852   8.789  -8.196  1.00  0.00    -0.000 C 
BRANCH  25  26
ATOM     26  C   UNL     1      -8.650   8.551  -9.488  1.00  0.00    -0.000 C 
BRANCH  26  27
ATOM     27  C   UNL     1      -8.780   7.059  -9.835  1.00  0.00    -0.000 C 
BRANCH  27  28
ATOM     28  C   UNL     1      -7.934   6.201  -8.882  1.00  0.00    -0.000 C 
BRANCH  28  29
ATOM     29  C   UNL     1      -8.704   4.994  -8.316  1.00  0.00    -0.000 C 
BRANCH  29  30
ATOM     30  C   UNL     1      -8.663   4.858  -6.783  1.00  0.00    -0.000 C 
BRANCH  30  31
ATOM     31  C   UNL     1      -9.974   4.318  -6.193  1.00  0.00    -0.003 C 
ATOM     32  C   UNL     1      -9.738   3.023  -5.421  1.00  0.00     0.004 C 
ENDBRANCH  30  31
ENDBRANCH  29  30
ENDBRANCH  28  29
ENDBRANCH  27  28
ENDBRANCH  26  27
ENDBRANCH  25  26
ENDBRANCH  24  25
ENDBRANCH  23  24
ENDBRANCH  22  23
ENDBRANCH  21  22
ENDBRANCH  20  21
ENDBRANCH  19  20
ENDBRANCH  18  19
ENDBRANCH   1  18
TORSDOF 28
ENDMDL
MODEL 2
REMARK VINA RESULT:     0.358      3.893     12.421
REMARK INTER + INTRA:          -1.225
REMARK INTER:                   0.086
REMARK INTRA:                  -1.311
REMARK UNBOUND:                -2.168
REMARK SMILES CCCCCCCCCCCCCCCCCCCCCCCCCCCCCC(=O)[O-]
REMARK SMILES IDX 16 1 17 2 18 3 19 4 20 5 21 6 22 7 23 8 24 9 25 10 26 11
REMARK SMILES IDX 27 12 28 13 29 14 30 15 31 16 32 17 15 18 14 19 13 20 12 21
REMARK SMILES IDX 11 22 10 23 9 24 8 25 7 26 6 27 5 28 4 29 3 30 2 31 1 32
REMARK H PARENT
REMARK Flexibility Score: inf
ROOT
ATOM      1  C   UNL     1      -3.121   6.199  -4.575  1.00  0.00     0.000 C 
ENDROOT
BRANCH   1   2
ATOM      2  C   UNL     1      -4.044   5.760  -5.725  1.00  0.00     0.000 C 
BRANCH   2   3
ATOM      3  C   UNL     1      -3.691   6.439  -7.060  1.00  0.00     0.000 C 
BRANCH   3   4
ATOM      4  C   UNL     1      -4.279   7.851  -7.248  1.00  0.00     0.000 C 
BRANCH   4   5
ATOM      5  C   UNL     1      -3.501   8.721  -8.259  1.00  0.00     0.000 C 
BRANCH   5   6
ATOM      6  C   UNL     1      -4.151   8.722  -9.655  1.00  0.00     0.000 C 
BRANCH   6   7
ATOM      7  C   UNL     1      -5.005   9.975  -9.909  1.00  0.00     0.000 C 
BRANCH   7   8
ATOM      8  C   UNL     1      -6.493   9.643 -10.111  1.00  0.00     0.000 C 
BRANCH   8   9
ATOM      9  C   UNL     1      -7.260   9.544  -8.784  1.00  0.00     0.000 C 
BRANCH   9  10
ATOM     10  C   UNL     1      -8.754   9.879  -8.936  1.00  0.00     0.000 C 
BRANCH  10  11
ATOM     11  C   UNL     1      -9.411   9.148 -10.119  1.00  0.00     0.000 C 
BRANCH  11  12
ATOM     12  C   UNL     1      -9.961   7.767  -9.735  1.00  0.00     0.000 C 
BRANCH  12  13
ATOM     13  C   UNL     1      -8.918   6.672 -10.002  1.00  0.00     0.006 C 
BRANCH  13  14
ATOM     14  C   UNL     1      -7.989   6.448  -8.801  1.00  0.00     0.053 C 
BRANCH  14  15
ATOM     15  C   UNL     1      -8.003   5.019  -8.345  1.00  0.00     0.041 C 
ATOM     16  O   UNL     1      -7.533   4.114  -9.084  1.00  0.00    -0.550 OA
ATOM     17  O   UNL     1      -8.541   4.687  -7.108  1.00  0.00    -0.550 OA
ENDBRANCH  14  15
ENDBRANCH  13  14
ENDBRANCH  12  13
ENDBRANCH  11  12
ENDBRANCH  10  11
ENDBRANCH   9  10
ENDBRANCH   8   9
ENDBRANCH   7   8
ENDBRANCH   6   7
ENDBRANCH   5   6
ENDBRANCH   4   5
ENDBRANCH   3   4
ENDBRANCH   2   3
ENDBRANCH   1   2
BRANCH   1  18
ATOM     18  C   UNL     1      -3.033   5.151  -3.455  1.00  0.00     0.000 C 
BRANCH  18  19
ATOM     19  C   UNL     1      -2.973   3.712  -4.001  1.00  0.00     0.000 C 
BRANCH  19  20
ATOM     20  C   UNL     1      -3.037   2.642  -2.895  1.00  0.00     0.000 C 
BRANCH  20  21
ATOM     21  C   UNL     1      -1.911   1.591  -2.920  1.00  0.00     0.000 C 
BRANCH  21  22
ATOM     22  C   UNL     1      -0.622   2.102  -3.587  1.00  0.00     0.000 C 
BRANCH  22  23
ATOM     23  C   UNL     1       0.083   3.200  -2.771  1.00  0.00     0.000 C 
BRANCH  23  24
ATOM     24  C   UNL     1      -0.397   3.357  -1.317  1.00  0.00    -0.000 C 
BRANCH  24  25
ATOM     25  C   UNL     1       0.255   2.345  -0.357  1.00  0.00    -0.000 C 
BRANCH  25  26
ATOM     26  C   UNL     1       0.697   2.992   0.965  1.00  0.00    -0.000 C 
BRANCH  26  27
ATOM     27  C   UNL     1       1.921   2.296   1.582  1.00  0.00    -0.000 C 
BRANCH  27  28
ATOM     28  C   UNL     1       1.950   2.490   3.106  1.00  0.00    -0.000 C 
BRANCH  28  29
ATOM     29  C   UNL     1       0.829   1.723   3.830  1.00  0.00    -0.000 C 
BRANCH  29  30
ATOM     30  C   UNL     1      -0.076   2.589   4.727  1.00  0.00    -0.000 C 
BRANCH  30  31
ATOM     31  C   UNL     1       0.713   3.589   5.586  1.00  0.00    -0.003 C 
ATOM     32  C   UNL     1      -0.224   4.562   6.296  1.00  0.00     0.004 C 
ENDBRANCH  30  31
ENDBRANCH  29  30
ENDBRANCH  28  29
ENDBRANCH  27  28
ENDBRANCH  26  27
ENDBRANCH  25  26
ENDBRANCH  24  25
ENDBRANCH  23  24
ENDBRANCH  22  23
ENDBRANCH  21  22
ENDBRANCH  20  21
ENDBRANCH  19  20
ENDBRANCH  18  19
ENDBRANCH   1  18
TORSDOF 28
ENDMDL
MODEL 3
REMARK VINA RESULT:     0.437      3.760     12.007
REMARK INTER + INTRA:          -1.017
REMARK INTER:                  -0.077
REMARK INTRA:                  -0.940
REMARK UNBOUND:                -2.168
REMARK SMILES CCCCCCCCCCCCCCCCCCCCCCCCCCCCCC(=O)[O-]
REMARK SMILES IDX 16 1 17 2 18 3 19 4 20 5 21 6 22 7 23 8 24 9 25 10 26 11
REMARK SMILES IDX 27 12 28 13 29 14 30 15 31 16 32 17 15 18 14 19 13 20 12 21
REMARK SMILES IDX 11 22 10 23 9 24 8 25 7 26 6 27 5 28 4 29 3 30 2 31 1 32
REMARK H PARENT
REMARK Flexibility Score: inf
ROOT
ATOM      1  C   UNL     1      -3.850   5.847  -4.886  1.00  0.00     0.000 C 
ENDROOT
BRANCH   1   2
ATOM      2  C   UNL     1      -3.960   6.095  -6.401  1.00  0.00     0.000 C 
BRANCH   2   3
ATOM      3  C   UNL     1      -3.753   7.573  -6.775  1.00  0.00     0.000 C 
BRANCH   3   4
ATOM      4  C   UNL     1      -4.036   7.918  -8.250  1.00  0.00     0.000 C 
BRANCH   4   5
ATOM      5  C   UNL     1      -3.623   9.352  -8.646  1.00  0.00     0.000 C 
BRANCH   5   6
ATOM      6  C   UNL     1      -4.765  10.123  -9.335  1.00  0.00     0.000 C 
BRANCH   6   7
ATOM      7  C   UNL     1      -6.081   9.329  -9.365  1.00  0.00     0.000 C 
BRANCH   7   8
ATOM      8  C   UNL     1      -7.211  10.086 -10.082  1.00  0.00     0.000 C 
BRANCH   8   9
ATOM      9  C   UNL     1      -8.563   9.941  -9.367  1.00  0.00     0.000 C 
BRANCH   9  10
ATOM     10  C   UNL     1      -9.471   8.888 -10.026  1.00  0.00     0.000 C 
BRANCH  10  11
ATOM     11  C   UNL     1      -8.883   7.469  -9.960  1.00  0.00     0.000 C 
BRANCH  11  12
ATOM     12  C   UNL     1      -9.963   6.377  -9.917  1.00  0.00     0.000 C 
BRANCH  12  13
ATOM     13  C   UNL     1      -9.338   5.005  -9.625  1.00  0.00     0.006 C 
BRANCH  13  14
ATOM     14  C   UNL     1      -9.049   4.803  -8.132  1.00  0.00     0.053 C 
BRANCH  14  15
ATOM     15  C   UNL     1      -7.642   5.185  -7.780  1.00  0.00     0.041 C 
ATOM     16  O   UNL     1      -6.675   4.484  -8.178  1.00  0.00    -0.550 OA
ATOM     17  O   UNL     1      -7.400   6.314  -7.006  1.00  0.00    -0.550 OA
ENDBRANCH  14  15
ENDBRANCH  13  14
ENDBRANCH  12  13
ENDBRANCH  11  12
ENDBRANCH  10  11
ENDBRANCH   9  10
ENDBRANCH   8   9
ENDBRANCH   7   8
ENDBRANCH   6   7
ENDBRANCH   5   6
ENDBRANCH   4   5
ENDBRANCH   3   4
ENDBRANCH   2   3
ENDBRANCH   1   2
BRANCH   1  18
ATOM     18  C   UNL     1      -2.706   4.885  -4.528  1.00  0.00     0.000 C 
BRANCH  18  19
ATOM     19  C   UNL     1      -3.220   3.512  -4.055  1.00  0.00     0.000 C 
BRANCH  19  20
ATOM     20  C   UNL     1      -2.919   3.232  -2.571  1.00  0.00     0.000 C 
BRANCH  20  21
ATOM     21  C   UNL     1      -2.836   1.744  -2.178  1.00  0.00     0.000 C 
BRANCH  21  22
ATOM     22  C   UNL     1      -2.411   0.834  -3.344  1.00  0.00     0.000 C 
BRANCH  22  23
ATOM     23  C   UNL     1      -0.892   0.587  -3.390  1.00  0.00     0.000 C 
BRANCH  23  24
ATOM     24  C   UNL     1      -0.016   1.852  -3.411  1.00  0.00    -0.000 C 
BRANCH  24  25
ATOM     25  C   UNL     1       0.410   2.312  -2.005  1.00  0.00    -0.000 C 
BRANCH  25  26
ATOM     26  C   UNL     1      -0.149   3.699  -1.647  1.00  0.00    -0.000 C 
BRANCH  26  27
ATOM     27  C   UNL     1       0.273   4.159  -0.242  1.00  0.00    -0.000 C 
BRANCH  27  28
ATOM     28  C   UNL     1       0.559   2.953   0.666  1.00  0.00    -0.000 C 
BRANCH  28  29
ATOM     29  C   UNL     1       1.577   3.266   1.777  1.00  0.00    -0.000 C 
BRANCH  29  30
ATOM     30  C   UNL     1       1.759   2.151   2.824  1.00  0.00    -0.000 C 
BRANCH  30  31
ATOM     31  C   UNL     1       0.425   1.619   3.370  1.00  0.00    -0.003 C 
ATOM     32  C   UNL     1       0.614   0.273   4.064  1.00  0.00     0.004 C 
ENDBRANCH  30  31
ENDBRANCH  29  30
ENDBRANCH  28  29
ENDBRANCH  27  28
ENDBRANCH  26  27
ENDBRANCH  25  26
ENDBRANCH  24  25
ENDBRANCH  23  24
ENDBRANCH  22  23
ENDBRANCH  21  22
ENDBRANCH  20  21
ENDBRANCH  19  20
ENDBRANCH  18  19
ENDBRANCH   1  18
TORSDOF 28
ENDMDL
MODEL 4
REMARK VINA RESULT:     0.785      4.100     12.602
REMARK INTER + INTRA:          -0.099
REMARK INTER:                   1.865
REMARK INTRA:                  -1.964
REMARK UNBOUND:                -2.168
REMARK SMILES CCCCCCCCCCCCCCCCCCCCCCCCCCCCCC(=O)[O-]
REMARK SMILES IDX 16 1 17 2 18 3 19 4 20 5 21 6 22 7 23 8 24 9 25 10 26 11
REMARK SMILES IDX 27 12 28 13 29 14 30 15 31 16 32 17 15 18 14 19 13 20 12 21
REMARK SMILES IDX 11 22 10 23 9 24 8 25 7 26 6 27 5 28 4 29 3 30 2 31 1 32
REMARK H PARENT
REMARK Flexibility Score: inf
ROOT
ATOM      1  C   UNL     1      -3.027   4.077  -3.929  1.00  0.00     0.000 C 
ENDROOT
BRANCH   1   2
ATOM      2  C   UNL     1      -3.323   5.519  -4.375  1.00  0.00     0.000 C 
BRANCH   2   3
ATOM      3  C   UNL     1      -3.717   5.611  -5.859  1.00  0.00     0.000 C 
BRANCH   3   4
ATOM      4  C   UNL     1      -4.445   6.909  -6.261  1.00  0.00     0.000 C 
BRANCH   4   5
ATOM      5  C   UNL     1      -4.454   7.173  -7.782  1.00  0.00     0.000 C 
BRANCH   5   6
ATOM      6  C   UNL     1      -3.407   8.221  -8.203  1.00  0.00     0.000 C 
BRANCH   6   7
ATOM      7  C   UNL     1      -4.045   9.508  -8.749  1.00  0.00     0.000 C 
BRANCH   7   8
ATOM      8  C   UNL     1      -5.345   9.239  -9.527  1.00  0.00     0.000 C 
BRANCH   8   9
ATOM      9  C   UNL     1      -6.510  10.117  -9.047  1.00  0.00     0.000 C 
BRANCH   9  10
ATOM     10  C   UNL     1      -7.819   9.325  -8.880  1.00  0.00     0.000 C 
BRANCH  10  11
ATOM     11  C   UNL     1      -8.087   8.363 -10.048  1.00  0.00     0.000 C 
BRANCH  11  12
ATOM     12  C   UNL     1      -8.219   6.900  -9.598  1.00  0.00     0.000 C 
BRANCH  12  13
ATOM     13  C   UNL     1      -8.678   6.820  -8.134  1.00  0.00     0.006 C 
BRANCH  13  14
ATOM     14  C   UNL     1      -8.053   5.630  -7.393  1.00  0.00     0.053 C 
BRANCH  14  15
ATOM     15  C   UNL     1      -9.035   4.511  -7.208  1.00  0.00     0.041 C 
ATOM     16  O   UNL     1      -9.211   4.003  -6.070  1.00  0.00    -0.550 OA
ATOM     17  O   UNL     1      -9.750   4.026  -8.297  1.00  0.00    -0.550 OA
ENDBRANCH  14  15
ENDBRANCH  13  14
ENDBRANCH  12  13
ENDBRANCH  11  12
ENDBRANCH  10  11
ENDBRANCH   9  10
ENDBRANCH   8   9
ENDBRANCH   7   8
ENDBRANCH   6   7
ENDBRANCH   5   6
ENDBRANCH   4   5
ENDBRANCH   3   4
ENDBRANCH   2   3
ENDBRANCH   1   2
BRANCH   1  18
ATOM     18  C   UNL     1      -1.837   3.459  -4.682  1.00  0.00     0.000 C 
BRANCH  18  19
ATOM     19  C   UNL     1      -0.861   2.732  -3.740  1.00  0.00     0.000 C 
BRANCH  19  20
ATOM     20  C   UNL     1      -1.572   1.897  -2.658  1.00  0.00     0.000 C 
BRANCH  20  21
ATOM     21  C   UNL     1      -1.661   2.549  -1.265  1.00  0.00     0.000 C 
BRANCH  21  22
ATOM     22  C   UNL     1      -0.797   3.816  -1.135  1.00  0.00     0.000 C 
BRANCH  22  23
ATOM     23  C   UNL     1       0.517   3.572  -0.372  1.00  0.00     0.000 C 
BRANCH  23  24
ATOM     24  C   UNL     1       0.419   2.607   0.823  1.00  0.00    -0.000 C 
BRANCH  24  25
ATOM     25  C   UNL     1       1.344   3.001   1.990  1.00  0.00    -0.000 C 
BRANCH  25  26
ATOM     26  C   UNL     1       1.663   1.812   2.911  1.00  0.00    -0.000 C 
BRANCH  26  27
ATOM     27  C   UNL     1       0.481   1.437   3.820  1.00  0.00    -0.000 C 
BRANCH  27  28
ATOM     28  C   UNL     1      -0.143   2.691   4.451  1.00  0.00    -0.000 C 
BRANCH  28  29
ATOM     29  C   UNL     1       0.862   3.508   5.283  1.00  0.00    -0.000 C 
BRANCH  29  30
ATOM     30  C   UNL     1       0.228   4.508   6.268  1.00  0.00    -0.000 C 
BRANCH  30  31
ATOM     31  C   UNL     1       0.443   4.118   7.738  1.00  0.00    -0.003 C 
ATOM     32  C   UNL     1      -0.693   4.635   8.616  1.00  0.00     0.004 C 
ENDBRANCH  30  31
ENDBRANCH  29  30
ENDBRANCH  28  29
ENDBRANCH  27  28
ENDBRANCH  26  27
ENDBRANCH  25  26
ENDBRANCH  24  25
ENDBRANCH  23  24
ENDBRANCH  22  23
ENDBRANCH  21  22
ENDBRANCH  20  21
ENDBRANCH  19  20
ENDBRANCH  18  19
ENDBRANCH   1  18
TORSDOF 28
ENDMDL
MODEL 5
REMARK VINA RESULT:     1.001      1.267      2.384
REMARK INTER + INTRA:           0.471
REMARK INTER:                   2.739
REMARK INTRA:                  -2.268
REMARK UNBOUND:                -2.168
REMARK SMILES CCCCCCCCCCCCCCCCCCCCCCCCCCCCCC(=O)[O-]
REMARK SMILES IDX 16 1 17 2 18 3 19 4 20 5 21 6 22 7 23 8 24 9 25 10 26 11
REMARK SMILES IDX 27 12 28 13 29 14 30 15 31 16 32 17 15 18 14 19 13 20 12 21
REMARK SMILES IDX 11 22 10 23 9 24 8 25 7 26 6 27 5 28 4 29 3 30 2 31 1 32
REMARK H PARENT
REMARK Flexibility Score: inf
ROOT
ATOM      1  C   UNL     1      -3.011   4.103  -3.011  1.00  0.00     0.000 C 
ENDROOT
BRANCH   1   2
ATOM      2  C   UNL     1      -3.156   2.622  -2.620  1.00  0.00     0.000 C 
BRANCH   2   3
ATOM      3  C   UNL     1      -2.491   1.675  -3.633  1.00  0.00     0.000 C 
BRANCH   3   4
ATOM      4  C   UNL     1      -1.572   0.602  -3.016  1.00  0.00     0.000 C 
BRANCH   4   5
ATOM      5  C   UNL     1      -0.160   1.117  -2.665  1.00  0.00     0.000 C 
BRANCH   5   6
ATOM      6  C   UNL     1       0.123   2.509  -3.261  1.00  0.00     0.000 C 
BRANCH   6   7
ATOM      7  C   UNL     1       0.371   3.575  -2.182  1.00  0.00     0.000 C 
BRANCH   7   8
ATOM      8  C   UNL     1      -0.288   3.219  -0.838  1.00  0.00     0.000 C 
BRANCH   8   9
ATOM      9  C   UNL     1       0.665   3.407   0.352  1.00  0.00     0.000 C 
BRANCH   9  10
ATOM     10  C   UNL     1       0.457   2.349   1.450  1.00  0.00     0.000 C 
BRANCH  10  11
ATOM     11  C   UNL     1       1.443   2.502   2.619  1.00  0.00     0.000 C 
BRANCH  11  12
ATOM     12  C   UNL     1       1.264   1.422   3.697  1.00  0.00     0.000 C 
BRANCH  12  13
ATOM     13  C   UNL     1       0.118   1.791   4.651  1.00  0.00     0.006 C 
BRANCH  13  14
ATOM     14  C   UNL     1      -0.150   3.302   4.682  1.00  0.00     0.053 C 
BRANCH  14  15
ATOM     15  C   UNL     1       0.459   3.951   5.889  1.00  0.00     0.041 C 
ATOM     16  O   UNL     1       1.709   4.061   5.987  1.00  0.00    -0.550 OA
ATOM     17  O   UNL     1      -0.356   4.428   6.909  1.00  0.00    -0.550 OA
ENDBRANCH  14  15
ENDBRANCH  13  14
ENDBRANCH  12  13
ENDBRANCH  11  12
ENDBRANCH  10  11
ENDBRANCH   9  10
ENDBRANCH   8   9
ENDBRANCH   7   8
ENDBRANCH   6   7
ENDBRANCH   5   6
ENDBRANCH   4   5
ENDBRANCH   3   4
ENDBRANCH   2   3
ENDBRANCH   1   2
BRANCH   1  18
ATOM     18  C   UNL     1      -2.910   4.305  -4.531  1.00  0.00     0.000 C 
BRANCH  18  19
ATOM     19  C   UNL     1      -3.458   5.673  -4.979  1.00  0.00     0.000 C 
BRANCH  19  20
ATOM     20  C   UNL     1      -4.132   5.630  -6.363  1.00  0.00     0.000 C 
BRANCH  20  21
ATOM     21  C   UNL     1      -5.020   6.841  -6.709  1.00  0.00     0.000 C 
BRANCH  21  22
ATOM     22  C   UNL     1      -4.214   8.070  -7.165  1.00  0.00     0.000 C 
BRANCH  22  23
ATOM     23  C   UNL     1      -3.707   7.952  -8.614  1.00  0.00     0.000 C 
BRANCH  23  24
ATOM     24  C   UNL     1      -4.759   8.214  -9.707  1.00  0.00    -0.000 C 
BRANCH  24  25
ATOM     25  C   UNL     1      -5.759   9.320  -9.325  1.00  0.00    -0.000 C 
BRANCH  25  26
ATOM     26  C   UNL     1      -7.151   9.088  -9.934  1.00  0.00    -0.000 C 
BRANCH  26  27
ATOM     27  C   UNL     1      -7.981   8.068  -9.137  1.00  0.00    -0.000 C 
BRANCH  27  28
ATOM     28  C   UNL     1      -8.289   6.827  -9.990  1.00  0.00    -0.000 C 
BRANCH  28  29
ATOM     29  C   UNL     1      -7.943   5.508  -9.277  1.00  0.00    -0.000 C 
BRANCH  29  30
ATOM     30  C   UNL     1      -8.304   5.465  -7.781  1.00  0.00    -0.000 C 
BRANCH  30  31
ATOM     31  C   UNL     1      -9.623   4.729  -7.502  1.00  0.00    -0.003 C 
ATOM     32  C   UNL     1      -9.636   4.137  -6.096  1.00  0.00     0.004 C 
ENDBRANCH  30  31
ENDBRANCH  29  30
ENDBRANCH  28  29
ENDBRANCH  27  28
ENDBRANCH  26  27
ENDBRANCH  25  26
ENDBRANCH  24  25
ENDBRANCH  23  24
ENDBRANCH  22  23
ENDBRANCH  21  22
ENDBRANCH  20  21
ENDBRANCH  19  20
ENDBRANCH  18  19
ENDBRANCH   1  18
TORSDOF 28
ENDMDL
MODEL 6
REMARK VINA RESULT:     1.248      3.959     11.970
REMARK INTER + INTRA:           1.123
REMARK INTER:                   2.313
REMARK INTRA:                  -1.190
REMARK UNBOUND:                -2.168
REMARK SMILES CCCCCCCCCCCCCCCCCCCCCCCCCCCCCC(=O)[O-]
REMARK SMILES IDX 16 1 17 2 18 3 19 4 20 5 21 6 22 7 23 8 24 9 25 10 26 11
REMARK SMILES IDX 27 12 28 13 29 14 30 15 31 16 32 17 15 18 14 19 13 20 12 21
REMARK SMILES IDX 11 22 10 23 9 24 8 25 7 26 6 27 5 28 4 29 3 30 2 31 1 32
REMARK H PARENT
REMARK Flexibility Score: inf
ROOT
ATOM      1  C   UNL     1      -1.232   2.956  -4.851  1.00  0.00     0.000 C 
ENDROOT
BRANCH   1   2
ATOM      2  C   UNL     1      -1.866   4.261  -4.338  1.00  0.00     0.000 C 
BRANCH   2   3
ATOM      3  C   UNL     1      -3.236   4.545  -4.978  1.00  0.00     0.000 C 
BRANCH   3   4
ATOM      4  C   UNL     1      -3.195   5.430  -6.240  1.00  0.00     0.000 C 
BRANCH   4   5
ATOM      5  C   UNL     1      -4.589   5.850  -6.752  1.00  0.00     0.000 C 
BRANCH   5   6
ATOM      6  C   UNL     1      -5.164   7.049  -5.975  1.00  0.00     0.000 C 
BRANCH   6   7
ATOM      7  C   UNL     1      -5.242   8.324  -6.829  1.00  0.00     0.000 C 
BRANCH   7   8
ATOM      8  C   UNL     1      -3.999   8.517  -7.716  1.00  0.00     0.000 C 
BRANCH   8   9
ATOM      9  C   UNL     1      -4.355   8.992  -9.132  1.00  0.00     0.000 C 
BRANCH   9  10
ATOM     10  C   UNL     1      -4.517   7.827 -10.124  1.00  0.00     0.000 C 
BRANCH  10  11
ATOM     11  C   UNL     1      -5.927   7.216 -10.102  1.00  0.00     0.000 C 
BRANCH  11  12
ATOM     12  C   UNL     1      -7.032   8.273  -9.956  1.00  0.00     0.000 C 
BRANCH  12  13
ATOM     13  C   UNL     1      -8.083   7.823  -8.930  1.00  0.00     0.006 C 
BRANCH  13  14
ATOM     14  C   UNL     1      -8.719   6.476  -9.302  1.00  0.00     0.053 C 
BRANCH  14  15
ATOM     15  C   UNL     1      -8.265   5.376  -8.390  1.00  0.00     0.041 C 
ATOM     16  O   UNL     1      -8.449   5.465  -7.148  1.00  0.00    -0.550 OA
ATOM     17  O   UNL     1      -7.632   4.255  -8.914  1.00  0.00    -0.550 OA
ENDBRANCH  14  15
ENDBRANCH  13  14
ENDBRANCH  12  13
ENDBRANCH  11  12
ENDBRANCH  10  11
ENDBRANCH   9  10
ENDBRANCH   8   9
ENDBRANCH   7   8
ENDBRANCH   6   7
ENDBRANCH   5   6
ENDBRANCH   4   5
ENDBRANCH   3   4
ENDBRANCH   2   3
ENDBRANCH   1   2
BRANCH   1  18
ATOM     18  C   UNL     1      -0.094   2.457  -3.946  1.00  0.00     0.000 C 
BRANCH  18  19
ATOM     19  C   UNL     1      -0.363   1.048  -3.388  1.00  0.00     0.000 C 
BRANCH  19  20
ATOM     20  C   UNL     1      -1.853   0.788  -3.096  1.00  0.00     0.000 C 
BRANCH  20  21
ATOM     21  C   UNL     1      -2.612   1.946  -2.421  1.00  0.00     0.000 C 
BRANCH  21  22
ATOM     22  C   UNL     1      -1.915   2.467  -1.153  1.00  0.00     0.000 C 
BRANCH  22  23
ATOM     23  C   UNL     1      -1.467   3.935  -1.272  1.00  0.00     0.000 C 
BRANCH  23  24
ATOM     24  C   UNL     1      -0.112   4.269  -0.622  1.00  0.00    -0.000 C 
BRANCH  24  25
ATOM     25  C   UNL     1       0.706   3.015  -0.263  1.00  0.00    -0.000 C 
BRANCH  25  26
ATOM     26  C   UNL     1       0.484   2.566   1.190  1.00  0.00    -0.000 C 
BRANCH  26  27
ATOM     27  C   UNL     1       1.746   2.721   2.055  1.00  0.00    -0.000 C 
BRANCH  27  28
ATOM     28  C   UNL     1       1.680   1.807   3.288  1.00  0.00    -0.000 C 
BRANCH  28  29
ATOM     29  C   UNL     1       0.241   1.567   3.780  1.00  0.00    -0.000 C 
BRANCH  29  30
ATOM     30  C   UNL     1      -0.140   2.328   5.064  1.00  0.00    -0.000 C 
BRANCH  30  31
ATOM     31  C   UNL     1       0.628   3.647   5.230  1.00  0.00    -0.003 C 
ATOM     32  C   UNL     1       0.137   4.420   6.450  1.00  0.00     0.004 C 
ENDBRANCH  30  31
ENDBRANCH  29  30
ENDBRANCH  28  29
ENDBRANCH  27  28
ENDBRANCH  26  27
ENDBRANCH  25  26
ENDBRANCH  24  25
ENDBRANCH  23  24
ENDBRANCH  22  23
ENDBRANCH  21  22
ENDBRANCH  20  21
ENDBRANCH  19  20
ENDBRANCH  18  19
ENDBRANCH   1  18
TORSDOF 28
ENDMDL
MODEL 7
REMARK VINA RESULT:     1.336      4.466     13.462
REMARK INTER + INTRA:           1.356
REMARK INTER:                   2.373
REMARK INTRA:                  -1.017
REMARK UNBOUND:                -2.168
REMARK SMILES CCCCCCCCCCCCCCCCCCCCCCCCCCCCCC(=O)[O-]
REMARK SMILES IDX 16 1 17 2 18 3 19 4 20 5 21 6 22 7 23 8 24 9 25 10 26 11
REMARK SMILES IDX 27 12 28 13 29 14 30 15 31 16 32 17 15 18 14 19 13 20 12 21
REMARK SMILES IDX 11 22 10 23 9 24 8 25 7 26 6 27 5 28 4 29 3 30 2 31 1 32
REMARK H PARENT
REMARK Flexibility Score: inf
ROOT
ATOM      1  C   UNL     1      -2.092   2.871  -3.098  1.00  0.00     0.000 C 
ENDROOT
BRANCH   1   2
ATOM      2  C   UNL     1      -3.067   4.039  -3.330  1.00  0.00     0.000 C 
BRANCH   2   3
ATOM      3  C   UNL     1      -2.980   4.608  -4.756  1.00  0.00     0.000 C 
BRANCH   3   4
ATOM      4  C   UNL     1      -3.611   6.003  -4.941  1.00  0.00     0.000 C 
BRANCH   4   5
ATOM      5  C   UNL     1      -3.989   6.327  -6.402  1.00  0.00     0.000 C 
BRANCH   5   6
ATOM      6  C   UNL     1      -3.573   7.752  -6.814  1.00  0.00     0.000 C 
BRANCH   6   7
ATOM      7  C   UNL     1      -3.876   8.052  -8.290  1.00  0.00     0.000 C 
BRANCH   7   8
ATOM      8  C   UNL     1      -3.786   9.553  -8.618  1.00  0.00     0.000 C 
BRANCH   8   9
ATOM      9  C   UNL     1      -5.071  10.092  -9.265  1.00  0.00     0.000 C 
BRANCH   9  10
ATOM     10  C   UNL     1      -6.344   9.597  -8.555  1.00  0.00     0.000 C 
BRANCH  10  11
ATOM     11  C   UNL     1      -7.507   9.344  -9.526  1.00  0.00     0.000 C 
BRANCH  11  12
ATOM     12  C   UNL     1      -8.248   8.029  -9.240  1.00  0.00     0.000 C 
BRANCH  12  13
ATOM     13  C   UNL     1      -7.752   7.398  -7.931  1.00  0.00     0.006 C 
BRANCH  13  14
ATOM     14  C   UNL     1      -8.357   6.008  -7.690  1.00  0.00     0.053 C 
BRANCH  14  15
ATOM     15  C   UNL     1      -7.639   4.945  -8.466  1.00  0.00     0.041 C 
ATOM     16  O   UNL     1      -8.214   4.357  -9.419  1.00  0.00    -0.550 OA
ATOM     17  O   UNL     1      -6.335   4.599  -8.132  1.00  0.00    -0.550 OA
ENDBRANCH  14  15
ENDBRANCH  13  14
ENDBRANCH  12  13
ENDBRANCH  11  12
ENDBRANCH  10  11
ENDBRANCH   9  10
ENDBRANCH   8   9
ENDBRANCH   7   8
ENDBRANCH   6   7
ENDBRANCH   5   6
ENDBRANCH   4   5
ENDBRANCH   3   4
ENDBRANCH   2   3
ENDBRANCH   1   2
BRANCH   1  18
ATOM     18  C   UNL     1      -1.569   2.816  -1.654  1.00  0.00     0.000 C 
BRANCH  18  19
ATOM     19  C   UNL     1      -0.514   3.901  -1.370  1.00  0.00     0.000 C 
BRANCH  19  20
ATOM     20  C   UNL     1       0.692   3.377  -0.569  1.00  0.00     0.000 C 
BRANCH  20  21
ATOM     21  C   UNL     1       0.383   2.895   0.862  1.00  0.00     0.000 C 
BRANCH  21  22
ATOM     22  C   UNL     1       1.601   2.276   1.568  1.00  0.00     0.000 C 
BRANCH  22  23
ATOM     23  C   UNL     1       1.423   2.169   3.093  1.00  0.00     0.000 C 
BRANCH  23  24
ATOM     24  C   UNL     1       0.168   1.411   3.561  1.00  0.00    -0.000 C 
BRANCH  24  25
ATOM     25  C   UNL     1       0.282   0.896   5.007  1.00  0.00    -0.000 C 
BRANCH  25  26
ATOM     26  C   UNL     1       0.357   2.038   6.032  1.00  0.00    -0.000 C 
BRANCH  26  27
ATOM     27  C   UNL     1       0.429   3.423   5.368  1.00  0.00    -0.000 C 
BRANCH  27  28
ATOM     28  C   UNL     1      -0.116   4.509   6.309  1.00  0.00    -0.000 C 
BRANCH  28  29
ATOM     29  C   UNL     1       0.495   4.443   7.720  1.00  0.00    -0.000 C 
BRANCH  29  30
ATOM     30  C   UNL     1      -0.468   4.814   8.862  1.00  0.00    -0.000 C 
BRANCH  30  31
ATOM     31  C   UNL     1      -0.256   3.966  10.125  1.00  0.00    -0.003 C 
ATOM     32  C   UNL     1       1.125   3.316  10.125  1.00  0.00     0.004 C 
ENDBRANCH  30  31
ENDBRANCH  29  30
ENDBRANCH  28  29
ENDBRANCH  27  28
ENDBRANCH  26  27
ENDBRANCH  25  26
ENDBRANCH  24  25
ENDBRANCH  23  24
ENDBRANCH  22  23
ENDBRANCH  21  22
ENDBRANCH  20  21
ENDBRANCH  19  20
ENDBRANCH  18  19
ENDBRANCH   1  18
TORSDOF 28
ENDMDL
MODEL 8
REMARK VINA RESULT:     1.422      3.811     12.457
REMARK INTER + INTRA:           1.582
REMARK INTER:                   2.997
REMARK INTRA:                  -1.415
REMARK UNBOUND:                -2.168
REMARK SMILES CCCCCCCCCCCCCCCCCCCCCCCCCCCCCC(=O)[O-]
REMARK SMILES IDX 16 1 17 2 18 3 19 4 20 5 21 6 22 7 23 8 24 9 25 10 26 11
REMARK SMILES IDX 27 12 28 13 29 14 30 15 31 16 32 17 15 18 14 19 13 20 12 21
REMARK SMILES IDX 11 22 10 23 9 24 8 25 7 26 6 27 5 28 4 29 3 30 2 31 1 32
REMARK H PARENT
REMARK Flexibility Score: inf
ROOT
ATOM      1  C   UNL     1      -2.942   6.111  -6.066  1.00  0.00     0.000 C 
ENDROOT
BRANCH   1   2
ATOM      2  C   UNL     1      -3.891   6.997  -6.891  1.00  0.00     0.000 C 
BRANCH   2   3
ATOM      3  C   UNL     1      -3.343   7.305  -8.295  1.00  0.00     0.000 C 
BRANCH   3   4
ATOM      4  C   UNL     1      -4.258   8.177  -9.176  1.00  0.00     0.000 C 
BRANCH   4   5
ATOM      5  C   UNL     1      -4.486   9.600  -8.622  1.00  0.00     0.000 C 
BRANCH   5   6
ATOM      6  C   UNL     1      -5.910  10.118  -8.900  1.00  0.00     0.000 C 
BRANCH   6   7
ATOM      7  C   UNL     1      -6.997   9.179  -8.354  1.00  0.00     0.000 C 
BRANCH   7   8
ATOM      8  C   UNL     1      -8.174   9.008  -9.331  1.00  0.00     0.000 C 
BRANCH   8   9
ATOM      9  C   UNL     1      -8.235   7.598  -9.937  1.00  0.00     0.000 C 
BRANCH   9  10
ATOM     10  C   UNL     1      -9.231   6.681  -9.205  1.00  0.00     0.000 C 
BRANCH  10  11
ATOM     11  C   UNL     1      -8.537   5.648  -8.303  1.00  0.00     0.000 C 
BRANCH  11  12
ATOM     12  C   UNL     1      -8.686   5.965  -6.807  1.00  0.00     0.000 C 
BRANCH  12  13
ATOM     13  C   UNL     1      -9.765   5.077  -6.168  1.00  0.00     0.006 C 
BRANCH  13  14
ATOM     14  C   UNL     1     -10.123   3.872  -7.048  1.00  0.00     0.053 C 
BRANCH  14  15
ATOM     15  C   UNL     1     -10.085   2.587  -6.275  1.00  0.00     0.041 C 
ATOM     16  O   UNL     1     -10.093   1.483  -6.879  1.00  0.00    -0.550 OA
ATOM     17  O   UNL     1     -10.050   2.611  -4.886  1.00  0.00    -0.550 OA
ENDBRANCH  14  15
ENDBRANCH  13  14
ENDBRANCH  12  13
ENDBRANCH  11  12
ENDBRANCH  10  11
ENDBRANCH   9  10
ENDBRANCH   8   9
ENDBRANCH   7   8
ENDBRANCH   6   7
ENDBRANCH   5   6
ENDBRANCH   4   5
ENDBRANCH   3   4
ENDBRANCH   2   3
ENDBRANCH   1   2
BRANCH   1  18
ATOM     18  C   UNL     1      -3.648   5.431  -4.882  1.00  0.00     0.000 C 
BRANCH  18  19
ATOM     19  C   UNL     1      -2.663   4.703  -3.950  1.00  0.00     0.000 C 
BRANCH  19  20
ATOM     20  C   UNL     1      -3.185   3.338  -3.464  1.00  0.00     0.000 C 
BRANCH  20  21
ATOM     21  C   UNL     1      -2.643   2.864  -2.102  1.00  0.00     0.000 C 
BRANCH  21  22
ATOM     22  C   UNL     1      -1.335   3.564  -1.696  1.00  0.00     0.000 C 
BRANCH  22  23
ATOM     23  C   UNL     1      -0.371   2.640  -0.929  1.00  0.00     0.000 C 
BRANCH  23  24
ATOM     24  C   UNL     1       0.678   3.354  -0.058  1.00  0.00    -0.000 C 
BRANCH  24  25
ATOM     25  C   UNL     1       1.456   2.391   0.856  1.00  0.00    -0.000 C 
BRANCH  25  26
ATOM     26  C   UNL     1       1.353   2.779   2.340  1.00  0.00    -0.000 C 
BRANCH  26  27
ATOM     27  C   UNL     1       1.087   1.568   3.249  1.00  0.00    -0.000 C 
BRANCH  27  28
ATOM     28  C   UNL     1      -0.200   1.770   4.065  1.00  0.00    -0.000 C 
BRANCH  28  29
ATOM     29  C   UNL     1       0.053   2.434   5.430  1.00  0.00    -0.000 C 
BRANCH  29  30
ATOM     30  C   UNL     1       0.870   3.738   5.376  1.00  0.00    -0.000 C 
BRANCH  30  31
ATOM     31  C   UNL     1       0.298   4.841   6.279  1.00  0.00    -0.003 C 
ATOM     32  C   UNL     1      -0.327   4.251   7.540  1.00  0.00     0.004 C 
ENDBRANCH  30  31
ENDBRANCH  29  30
ENDBRANCH  28  29
ENDBRANCH  27  28
ENDBRANCH  26  27
ENDBRANCH  25  26
ENDBRANCH  24  25
ENDBRANCH  23  24
ENDBRANCH  22  23
ENDBRANCH  21  22
ENDBRANCH  20  21
ENDBRANCH  19  20
ENDBRANCH  18  19
ENDBRANCH   1  18
TORSDOF 28
ENDMDL
