MODEL 1
REMARK VINA RESULT:     3.237      0.000      0.000
REMARK INTER + INTRA:           7.567
REMARK INTER:                   4.467
REMARK INTRA:                   3.100
REMARK UNBOUND:                 3.100
REMARK SMILES CC[C@H](CC[C@H](C)[C@H]1CC[C@H]2[C@@H]3CC=C4C[C@H](O)CC[C@@]4(C)[C@@H]3CC[C@@]12C)C(C)C
REMARK SMILES IDX 5 1 4 2 3 3 2 4 1 5 28 6 29 7 30 8 6 9 7 10 8 11 9 12 26 13
REMARK SMILES IDX 10 14 11 15 25 16 27 17 12 18 24 19 23 20 13 21 21 22 14 23
REMARK SMILES IDX 15 24 20 25 22 26 16 27 19 28 17 29 18 30
REMARK H PARENT 18 31
REMARK Flexibility Score: inf
ROOT
ATOM      1  C   UNL     1      12.756  16.601  23.615  1.00  0.00     0.004 C 
ENDROOT
BRANCH   1   2
ATOM      2  C   UNL     1      12.072  17.454  22.528  1.00  0.00     0.004 C 
BRANCH   2   3
ATOM      3  C   UNL     1      12.809  17.452  21.155  1.00  0.00    -0.009 C 
BRANCH   3   4
ATOM      4  C   UNL     1      11.887  18.101  20.085  1.00  0.00     0.000 C 
ATOM      5  C   UNL     1      10.396  17.984  20.419  1.00  0.00     0.004 C 
ENDBRANCH   3   4
BRANCH   3   6
ATOM      6  C   UNL     1      14.230  18.125  21.165  1.00  0.00    -0.014 C 
ATOM      7  C   UNL     1      15.055  17.840  22.429  1.00  0.00     0.007 C 
ATOM      8  C   UNL     1      15.046  17.815  19.898  1.00  0.00     0.007 C 
ENDBRANCH   3   6
ENDBRANCH   2   3
ENDBRANCH   1   2
BRANCH   1   9
ATOM      9  C   UNL     1      13.377  17.436  24.764  1.00  0.00    -0.011 C 
ATOM     10  C   UNL     1      14.905  17.193  24.808  1.00  0.00     0.008 C 
BRANCH   9  11
ATOM     11  C   UNL     1      12.725  17.114  26.161  1.00  0.00    -0.002 C 
ATOM     12  C   UNL     1      11.790  15.893  26.079  1.00  0.00     0.005 C 
ATOM     13  C   UNL     1      13.662  16.814  27.387  1.00  0.00    -0.026 C 
ATOM     14  C   UNL     1      11.808  15.199  27.431  1.00  0.00     0.005 C 
ATOM     15  C   UNL     1      12.734  16.010  28.343  1.00  0.00    -0.001 C 
ATOM     16  C   UNL     1      14.875  15.939  26.968  1.00  0.00     0.007 C 
ATOM     17  C   UNL     1      14.122  18.125  28.093  1.00  0.00     0.012 C 
ATOM     18  C   UNL     1      13.412  15.099  29.428  1.00  0.00     0.000 C 
ATOM     19  C   UNL     1      15.644  15.420  28.175  1.00  0.00     0.005 C 
ATOM     20  C   UNL     1      14.787  14.469  29.037  1.00  0.00     0.003 C 
ATOM     21  C   UNL     1      13.473  15.728  30.829  1.00  0.00     0.031 C 
ATOM     22  C   UNL     1      15.597  13.855  30.278  1.00  0.00    -0.008 C 
ATOM     23  C   UNL     1      13.779  14.630  31.811  1.00  0.00    -0.027 C 
ATOM     24  C   UNL     1      14.679  13.672  31.497  1.00  0.00    -0.065 C 
ATOM     25  C   UNL     1      16.214  12.484  29.860  1.00  0.00     0.014 C 
ATOM     26  C   UNL     1      16.763  14.765  30.754  1.00  0.00     0.016 C 
ATOM     27  C   UNL     1      14.835  12.462  32.399  1.00  0.00     0.063 C 
ATOM     28  C   UNL     1      15.246  11.326  30.117  1.00  0.00     0.033 C 
ATOM     29  C   UNL     1      15.017  11.129  31.628  1.00  0.00     0.118 C 
BRANCH  29  30
ATOM     30  O   UNL     1      16.095  10.425  32.194  1.00  0.00    -0.393 OA
ATOM     31  H   UNL     1      15.829   9.470  32.232  1.00  0.00     0.210 HD
ENDBRANCH  29  30
ENDBRANCH   9  11
ENDBRANCH   1   9
TORSDOF 7
ENDMDL
MODEL 2
REMARK VINA RESULT:     3.680      1.197      2.342
REMARK INTER + INTRA:           8.177
REMARK INTER:                   8.238
REMARK INTRA:                  -0.061
REMARK UNBOUND:                 3.100
REMARK SMILES CC[C@H](CC[C@H](C)[C@H]1CC[C@H]2[C@@H]3CC=C4C[C@H](O)CC[C@@]4(C)[C@@H]3CC[C@@]12C)C(C)C
REMARK SMILES IDX 5 1 4 2 3 3 2 4 1 5 28 6 29 7 30 8 6 9 7 10 8 11 9 12 26 13
REMARK SMILES IDX 10 14 11 15 25 16 27 17 12 18 24 19 23 20 13 21 21 22 14 23
REMARK SMILES IDX 15 24 20 25 22 26 16 27 19 28 17 29 18 30
REMARK H PARENT 18 31
REMARK Flexibility Score: inf
ROOT
ATOM      1  C   UNL     1      13.724  16.706  23.663  1.00  0.00     0.004 C 
ENDROOT
BRANCH   1   2
ATOM      2  C   UNL     1      14.256  18.114  23.333  1.00  0.00     0.004 C 
BRANCH   2   3
ATOM      3  C   UNL     1      15.508  18.125  22.407  1.00  0.00    -0.009 C 
BRANCH   3   4
ATOM      4  C   UNL     1      16.660  17.348  23.104  1.00  0.00     0.000 C 
ATOM      5  C   UNL     1      18.007  18.075  23.037  1.00  0.00     0.004 C 
ENDBRANCH   3   4
BRANCH   3   6
ATOM      6  C   UNL     1      15.259  17.586  20.950  1.00  0.00    -0.014 C 
ATOM      7  C   UNL     1      13.944  18.064  20.316  1.00  0.00     0.007 C 
ATOM      8  C   UNL     1      16.446  17.844  20.007  1.00  0.00     0.007 C 
ENDBRANCH   3   6
ENDBRANCH   2   3
ENDBRANCH   1   2
BRANCH   1   9
ATOM      9  C   UNL     1      12.179  16.636  23.788  1.00  0.00    -0.011 C 
ATOM     10  C   UNL     1      11.556  17.907  23.162  1.00  0.00     0.008 C 
BRANCH   9  11
ATOM     11  C   UNL     1      11.704  16.465  25.280  1.00  0.00    -0.002 C 
ATOM     12  C   UNL     1      10.983  15.121  25.491  1.00  0.00     0.005 C 
ATOM     13  C   UNL     1      12.774  16.526  26.431  1.00  0.00    -0.026 C 
ATOM     14  C   UNL     1      11.225  14.681  26.926  1.00  0.00     0.005 C 
ATOM     15  C   UNL     1      12.073  15.768  27.594  1.00  0.00    -0.001 C 
ATOM     16  C   UNL     1      14.078  15.786  26.027  1.00  0.00     0.007 C 
ATOM     17  C   UNL     1      13.063  17.993  26.868  1.00  0.00     0.012 C 
ATOM     18  C   UNL     1      12.978  15.171  28.731  1.00  0.00     0.000 C 
ATOM     19  C   UNL     1      15.018  15.605  27.211  1.00  0.00     0.005 C 
ATOM     20  C   UNL     1      14.403  14.698  28.299  1.00  0.00     0.003 C 
ATOM     21  C   UNL     1      13.046  16.033  30.000  1.00  0.00     0.031 C 
ATOM     22  C   UNL     1      15.402  14.436  29.527  1.00  0.00    -0.008 C 
ATOM     23  C   UNL     1      13.609  15.181  31.104  1.00  0.00    -0.027 C 
ATOM     24  C   UNL     1      14.628  14.330  30.850  1.00  0.00    -0.065 C 
ATOM     25  C   UNL     1      16.203  13.124  29.266  1.00  0.00     0.014 C 
ATOM     26  C   UNL     1      16.434  15.581  29.726  1.00  0.00     0.016 C 
ATOM     27  C   UNL     1      15.056  13.332  31.910  1.00  0.00     0.063 C 
ATOM     28  C   UNL     1      15.466  11.895  29.804  1.00  0.00     0.033 C 
ATOM     29  C   UNL     1      15.395  11.929  31.343  1.00  0.00     0.118 C 
BRANCH  29  30
ATOM     30  O   UNL     1      16.617  11.504  31.894  1.00  0.00    -0.393 OA
ATOM     31  H   UNL     1      17.252  11.391  31.139  1.00  0.00     0.210 HD
ENDBRANCH  29  30
ENDBRANCH   9  11
ENDBRANCH   1   9
TORSDOF 7
ENDMDL
MODEL 3
REMARK VINA RESULT:     3.964      0.607      1.626
REMARK INTER + INTRA:           8.570
REMARK INTER:                   7.676
REMARK INTRA:                   0.894
REMARK UNBOUND:                 3.100
REMARK SMILES CC[C@H](CC[C@H](C)[C@H]1CC[C@H]2[C@@H]3CC=C4C[C@H](O)CC[C@@]4(C)[C@@H]3CC[C@@]12C)C(C)C
REMARK SMILES IDX 5 1 4 2 3 3 2 4 1 5 28 6 29 7 30 8 6 9 7 10 8 11 9 12 26 13
REMARK SMILES IDX 10 14 11 15 25 16 27 17 12 18 24 19 23 20 13 21 21 22 14 23
REMARK SMILES IDX 15 24 20 25 22 26 16 27 19 28 17 29 18 30
REMARK H PARENT 18 31
REMARK Flexibility Score: inf
ROOT
ATOM      1  C   UNL     1      13.206  17.008  23.832  1.00  0.00     0.004 C 
ENDROOT
BRANCH   1   2
ATOM      2  C   UNL     1      14.059  17.415  22.615  1.00  0.00     0.004 C 
BRANCH   2   3
ATOM      3  C   UNL     1      13.260  18.125  21.481  1.00  0.00    -0.009 C 
BRANCH   3   4
ATOM      4  C   UNL     1      14.043  17.984  20.146  1.00  0.00     0.000 C 
ATOM      5  C   UNL     1      15.564  18.002  20.331  1.00  0.00     0.004 C 
ENDBRANCH   3   4
BRANCH   3   6
ATOM      6  C   UNL     1      11.771  17.645  21.320  1.00  0.00    -0.014 C 
ATOM      7  C   UNL     1      10.852  18.038  22.487  1.00  0.00     0.007 C 
ATOM      8  C   UNL     1      11.153  18.060  19.974  1.00  0.00     0.007 C 
ENDBRANCH   3   6
ENDBRANCH   2   3
ENDBRANCH   1   2
BRANCH   1   9
ATOM      9  C   UNL     1      13.520  17.822  25.115  1.00  0.00    -0.011 C 
ATOM     10  C   UNL     1      15.050  17.845  25.345  1.00  0.00     0.008 C 
BRANCH   9  11
ATOM     11  C   UNL     1      12.778  17.255  26.382  1.00  0.00    -0.002 C 
ATOM     12  C   UNL     1      11.990  15.974  26.049  1.00  0.00     0.005 C 
ATOM     13  C   UNL     1      13.621  16.883  27.655  1.00  0.00    -0.026 C 
ATOM     14  C   UNL     1      11.954  15.110  27.299  1.00  0.00     0.005 C 
ATOM     15  C   UNL     1      12.699  15.875  28.398  1.00  0.00    -0.001 C 
ATOM     16  C   UNL     1      14.955  16.190  27.263  1.00  0.00     0.007 C 
ATOM     17  C   UNL     1      13.870  18.125  28.563  1.00  0.00     0.012 C 
ATOM     18  C   UNL     1      13.364  14.894  29.429  1.00  0.00     0.000 C 
ATOM     19  C   UNL     1      15.658  15.588  28.472  1.00  0.00     0.005 C 
ATOM     20  C   UNL     1      14.829  14.453  29.113  1.00  0.00     0.003 C 
ATOM     21  C   UNL     1      13.226  15.332  30.895  1.00  0.00     0.031 C 
ATOM     22  C   UNL     1      15.580  13.756  30.348  1.00  0.00    -0.008 C 
ATOM     23  C   UNL     1      13.553  14.146  31.761  1.00  0.00    -0.027 C 
ATOM     24  C   UNL     1      14.575  13.327  31.429  1.00  0.00    -0.065 C 
ATOM     25  C   UNL     1      16.376  12.518  29.832  1.00  0.00     0.014 C 
ATOM     26  C   UNL     1      16.592  14.699  31.056  1.00  0.00     0.016 C 
ATOM     27  C   UNL     1      14.774  12.027  32.186  1.00  0.00     0.063 C 
ATOM     28  C   UNL     1      15.518  11.251  29.838  1.00  0.00     0.033 C 
ATOM     29  C   UNL     1      15.169  10.832  31.280  1.00  0.00     0.118 C 
BRANCH  29  30
ATOM     30  O   UNL     1      16.257  10.163  31.867  1.00  0.00    -0.393 OA
ATOM     31  H   UNL     1      16.945  10.850  32.069  1.00  0.00     0.210 HD
ENDBRANCH  29  30
ENDBRANCH   9  11
ENDBRANCH   1   9
TORSDOF 7
ENDMDL
