MODEL 1
REMARK VINA RESULT:    -3.332      0.000      0.000
REMARK INTER + INTRA:          -4.289
REMARK INTER:                  -4.111
REMARK INTRA:                  -0.177
REMARK UNBOUND:                -0.177
REMARK SMILES Oc1cc(O)c2cc(O)c(-c3cc(O)c(O)c(O)c3)[o+]c2c1
REMARK SMILES IDX 10 1 20 2 21 3 22 4 2 5 3 6 4 7 6 8 7 9 8 10 11 11 12 12
REMARK SMILES IDX 13 13 19 14 15 15 17 16 14 17 16 19 18 21 9 23 1 25 5 27
REMARK H PARENT 14 18 16 20 18 22 9 24 1 26 5 28
REMARK Flexibility Score: inf
ROOT
ATOM      1  C   UNL     1      -4.411 -13.431  32.328  1.00  0.00     0.402 A 
ATOM      2  O   UNL     1      -4.636 -12.345  33.063  1.00  0.00    -0.202 OA
ATOM      3  C   UNL     1      -5.507 -12.311  34.067  1.00  0.00     0.368 A 
ATOM      4  C   UNL     1      -5.671 -11.123  34.783  1.00  0.00     0.162 A 
ATOM      5  C   UNL     1      -6.579 -11.060  35.845  1.00  0.00     0.128 A 
ATOM      6  C   UNL     1      -7.322 -12.189  36.192  1.00  0.00     0.093 A 
ATOM      7  C   UNL     1      -7.175 -13.392  35.490  1.00  0.00     0.136 A 
ATOM      8  C   UNL     1      -6.258 -13.461  34.409  1.00  0.00     0.125 A 
ATOM      9  C   UNL     1      -6.054 -14.619  33.642  1.00  0.00     0.078 A 
ATOM     10  C   UNL     1      -5.135 -14.609  32.588  1.00  0.00     0.223 A 
ENDROOT
BRANCH   1  11
ATOM     11  C   UNL     1      -3.407 -13.347  31.243  1.00  0.00     0.091 A 
ATOM     12  C   UNL     1      -3.813 -13.523  29.913  1.00  0.00     0.068 A 
ATOM     13  C   UNL     1      -2.892 -13.431  28.866  1.00  0.00     0.162 A 
ATOM     14  C   UNL     1      -2.064 -13.037  31.509  1.00  0.00     0.068 A 
ATOM     15  C   UNL     1      -1.541 -13.143  29.134  1.00  0.00     0.200 A 
ATOM     16  C   UNL     1      -1.129 -12.936  30.473  1.00  0.00     0.162 A 
BRANCH  13  17
ATOM     17  O   UNL     1      -3.340 -13.630  27.560  1.00  0.00    -0.504 OA
ATOM     18  H   UNL     1      -4.170 -14.171  27.348  1.00  0.00     0.293 HD
ENDBRANCH  13  17
BRANCH  15  19
ATOM     19  O   UNL     1      -0.651 -13.069  28.061  1.00  0.00    -0.502 OA
ATOM     20  H   UNL     1      -0.897 -13.272  27.104  1.00  0.00     0.293 HD
ENDBRANCH  15  19
BRANCH  16  21
ATOM     21  O   UNL     1       0.188 -12.625  30.817  1.00  0.00    -0.504 OA
ATOM     22  H   UNL     1       0.825 -12.114  30.223  1.00  0.00     0.293 HD
ENDBRANCH  16  21
ENDBRANCH   1  11
BRANCH  10  23
ATOM     23  O   UNL     1      -4.969 -15.744  31.794  1.00  0.00    -0.500 OA
ATOM     24  H   UNL     1      -4.198 -15.830  31.142  1.00  0.00     0.294 HD
ENDBRANCH  10  23
BRANCH   5  25
ATOM     25  O   UNL     1      -6.749  -9.878  36.563  1.00  0.00    -0.507 OA
ATOM     26  H   UNL     1      -6.055  -9.140  36.542  1.00  0.00     0.293 HD
ENDBRANCH   5  25
BRANCH   7  27
ATOM     27  O   UNL     1      -7.954 -14.478  35.903  1.00  0.00    -0.507 OA
ATOM     28  H   UNL     1      -8.472 -14.511  36.768  1.00  0.00     0.293 HD
ENDBRANCH   7  27
TORSDOF 7
ENDMDL
MODEL 2
REMARK VINA RESULT:    -2.555      1.069      3.141
REMARK INTER + INTRA:          -3.330
REMARK INTER:                  -3.013
REMARK INTRA:                  -0.317
REMARK UNBOUND:                -0.177
REMARK SMILES Oc1cc(O)c2cc(O)c(-c3cc(O)c(O)c(O)c3)[o+]c2c1
REMARK SMILES IDX 10 1 20 2 21 3 22 4 2 5 3 6 4 7 6 8 7 9 8 10 11 11 12 12
REMARK SMILES IDX 13 13 19 14 15 15 17 16 14 17 16 19 18 21 9 23 1 25 5 27
REMARK H PARENT 14 18 16 20 18 22 9 24 1 26 5 28
REMARK Flexibility Score: inf
ROOT
ATOM      1  C   UNL     1      -4.273 -12.160  32.418  1.00  0.00     0.402 A 
ATOM      2  O   UNL     1      -5.001 -13.059  33.075  1.00  0.00    -0.202 OA
ATOM      3  C   UNL     1      -5.742 -12.762  34.138  1.00  0.00     0.368 A 
ATOM      4  C   UNL     1      -6.476 -13.775  34.759  1.00  0.00     0.162 A 
ATOM      5  C   UNL     1      -7.265 -13.490  35.878  1.00  0.00     0.128 A 
ATOM      6  C   UNL     1      -7.321 -12.186  36.375  1.00  0.00     0.093 A 
ATOM      7  C   UNL     1      -6.594 -11.153  35.770  1.00  0.00     0.136 A 
ATOM      8  C   UNL     1      -5.789 -11.438  34.636  1.00  0.00     0.125 A 
ATOM      9  C   UNL     1      -5.019 -10.469  33.974  1.00  0.00     0.078 A 
ATOM     10  C   UNL     1      -4.245 -10.826  32.865  1.00  0.00     0.223 A 
ENDROOT
BRANCH   1  11
ATOM     11  C   UNL     1      -3.497 -12.612  31.241  1.00  0.00     0.091 A 
ATOM     12  C   UNL     1      -2.114 -12.806  31.359  1.00  0.00     0.068 A 
ATOM     13  C   UNL     1      -1.359 -13.249  30.270  1.00  0.00     0.162 A 
ATOM     14  C   UNL     1      -4.124 -12.908  30.020  1.00  0.00     0.068 A 
ATOM     15  C   UNL     1      -1.984 -13.524  29.039  1.00  0.00     0.200 A 
ATOM     16  C   UNL     1      -3.385 -13.358  28.920  1.00  0.00     0.162 A 
BRANCH  13  17
ATOM     17  O   UNL     1       0.017 -13.412  30.431  1.00  0.00    -0.504 OA
ATOM     18  H   UNL     1       0.684 -13.113  29.729  1.00  0.00     0.293 HD
ENDBRANCH  13  17
BRANCH  15  19
ATOM     19  O   UNL     1      -1.192 -13.957  27.973  1.00  0.00    -0.502 OA
ATOM     20  H   UNL     1      -0.783 -13.344  27.284  1.00  0.00     0.293 HD
ENDBRANCH  15  19
BRANCH  16  21
ATOM     21  O   UNL     1      -4.079 -13.630  27.740  1.00  0.00    -0.504 OA
ATOM     22  H   UNL     1      -4.028 -14.506  27.241  1.00  0.00     0.293 HD
ENDBRANCH  16  21
ENDBRANCH   1  11
BRANCH  10  23
ATOM     23  O   UNL     1      -3.441  -9.875  32.237  1.00  0.00    -0.500 OA
ATOM     24  H   UNL     1      -3.473  -8.896  32.497  1.00  0.00     0.294 HD
ENDBRANCH  10  23
BRANCH   5  25
ATOM     25  O   UNL     1      -8.000 -14.495  36.503  1.00  0.00    -0.507 OA
ATOM     26  H   UNL     1      -8.247 -14.439  37.484  1.00  0.00     0.293 HD
ENDBRANCH   5  25
BRANCH   7  27
ATOM     27  O   UNL     1      -6.707  -9.875  36.327  1.00  0.00    -0.507 OA
ATOM     28  H   UNL     1      -7.012  -9.058  35.820  1.00  0.00     0.293 HD
ENDBRANCH   7  27
TORSDOF 7
ENDMDL
MODEL 3
REMARK VINA RESULT:    -1.905      3.802      5.404
REMARK INTER + INTRA:          -2.527
REMARK INTER:                  -2.166
REMARK INTRA:                  -0.362
REMARK UNBOUND:                -0.177
REMARK SMILES Oc1cc(O)c2cc(O)c(-c3cc(O)c(O)c(O)c3)[o+]c2c1
REMARK SMILES IDX 10 1 20 2 21 3 22 4 2 5 3 6 4 7 6 8 7 9 8 10 11 11 12 12
REMARK SMILES IDX 13 13 19 14 15 15 17 16 14 17 16 19 18 21 9 23 1 25 5 27
REMARK H PARENT 14 18 16 20 18 22 9 24 1 26 5 28
REMARK Flexibility Score: inf
ROOT
ATOM      1  C   UNL     1      -4.188 -13.552  29.745  1.00  0.00     0.402 A 
ATOM      2  O   UNL     1      -4.562 -14.693  30.317  1.00  0.00    -0.202 OA
ATOM      3  C   UNL     1      -5.663 -15.355  29.976  1.00  0.00     0.368 A 
ATOM      4  C   UNL     1      -5.969 -16.549  30.632  1.00  0.00     0.162 A 
ATOM      5  C   UNL     1      -7.121 -17.266  30.291  1.00  0.00     0.128 A 
ATOM      6  C   UNL     1      -7.966 -16.787  29.289  1.00  0.00     0.093 A 
ATOM      7  C   UNL     1      -7.681 -15.592  28.616  1.00  0.00     0.136 A 
ATOM      8  C   UNL     1      -6.515 -14.859  28.960  1.00  0.00     0.125 A 
ATOM      9  C   UNL     1      -6.157 -13.648  28.348  1.00  0.00     0.078 A 
ATOM     10  C   UNL     1      -4.994 -12.979  28.745  1.00  0.00     0.223 A 
ENDROOT
BRANCH   1  11
ATOM     11  C   UNL     1      -2.933 -12.915  30.206  1.00  0.00     0.091 A 
ATOM     12  C   UNL     1      -1.712 -13.313  29.645  1.00  0.00     0.068 A 
ATOM     13  C   UNL     1      -0.513 -12.717  30.047  1.00  0.00     0.162 A 
ATOM     14  C   UNL     1      -2.942 -11.878  31.153  1.00  0.00     0.068 A 
ATOM     15  C   UNL     1      -0.519 -11.694  31.013  1.00  0.00     0.200 A 
ATOM     16  C   UNL     1      -1.752 -11.267  31.564  1.00  0.00     0.162 A 
BRANCH  13  17
ATOM     17  O   UNL     1       0.679 -13.158  29.472  1.00  0.00    -0.504 OA
ATOM     18  H   UNL     1       1.578 -13.024  29.919  1.00  0.00     0.293 HD
ENDBRANCH  13  17
BRANCH  15  19
ATOM     19  O   UNL     1       0.701 -11.131  31.393  1.00  0.00    -0.502 OA
ATOM     20  H   UNL     1       0.811 -10.472  32.149  1.00  0.00     0.293 HD
ENDBRANCH  15  19
BRANCH  16  21
ATOM     21  O   UNL     1      -1.842 -10.244  32.509  1.00  0.00    -0.504 OA
ATOM     22  H   UNL     1      -2.590  -9.567  32.545  1.00  0.00     0.293 HD
ENDBRANCH  16  21
ENDBRANCH   1  11
BRANCH  10  23
ATOM     23  O   UNL     1      -4.664 -11.750  28.172  1.00  0.00    -0.500 OA
ATOM     24  H   UNL     1      -3.873 -11.650  27.548  1.00  0.00     0.294 HD
ENDBRANCH  10  23
BRANCH   5  25
ATOM     25  O   UNL     1      -7.433 -18.457  30.942  1.00  0.00    -0.507 OA
ATOM     26  H   UNL     1      -6.846 -18.828  31.680  1.00  0.00     0.293 HD
ENDBRANCH   5  25
BRANCH   7  27
ATOM     27  O   UNL     1      -8.576 -15.183  27.623  1.00  0.00    -0.507 OA
ATOM     28  H   UNL     1      -8.543 -15.493  26.663  1.00  0.00     0.293 HD
ENDBRANCH   7  27
TORSDOF 7
ENDMDL
MODEL 4
REMARK VINA RESULT:    -1.741      0.143      1.807
REMARK INTER + INTRA:          -2.326
REMARK INTER:                  -2.121
REMARK INTRA:                  -0.205
REMARK UNBOUND:                -0.177
REMARK SMILES Oc1cc(O)c2cc(O)c(-c3cc(O)c(O)c(O)c3)[o+]c2c1
REMARK SMILES IDX 10 1 20 2 21 3 22 4 2 5 3 6 4 7 6 8 7 9 8 10 11 11 12 12
REMARK SMILES IDX 13 13 19 14 15 15 17 16 14 17 16 19 18 21 9 23 1 25 5 27
REMARK H PARENT 14 18 16 20 18 22 9 24 1 26 5 28
REMARK Flexibility Score: inf
ROOT
ATOM      1  C   UNL     1      -4.446 -13.435  32.318  1.00  0.00     0.402 A 
ATOM      2  O   UNL     1      -4.620 -12.355  33.074  1.00  0.00    -0.202 OA
ATOM      3  C   UNL     1      -5.470 -12.307  34.095  1.00  0.00     0.368 A 
ATOM      4  C   UNL     1      -5.579 -11.126  34.834  1.00  0.00     0.162 A 
ATOM      5  C   UNL     1      -6.464 -11.049  35.914  1.00  0.00     0.128 A 
ATOM      6  C   UNL     1      -7.239 -12.159  36.258  1.00  0.00     0.093 A 
ATOM      7  C   UNL     1      -7.147 -13.354  35.534  1.00  0.00     0.136 A 
ATOM      8  C   UNL     1      -6.253 -13.436  34.434  1.00  0.00     0.125 A 
ATOM      9  C   UNL     1      -6.104 -14.588  33.645  1.00  0.00     0.078 A 
ATOM     10  C   UNL     1      -5.206 -14.592  32.573  1.00  0.00     0.223 A 
ENDROOT
BRANCH   1  11
ATOM     11  C   UNL     1      -3.462 -13.368  31.215  1.00  0.00     0.091 A 
ATOM     12  C   UNL     1      -2.100 -13.227  31.513  1.00  0.00     0.068 A 
ATOM     13  C   UNL     1      -1.145 -13.179  30.494  1.00  0.00     0.162 A 
ATOM     14  C   UNL     1      -3.854 -13.500  29.873  1.00  0.00     0.068 A 
ATOM     15  C   UNL     1      -1.541 -13.287  29.148  1.00  0.00     0.200 A 
ATOM     16  C   UNL     1      -2.913 -13.458  28.839  1.00  0.00     0.162 A 
BRANCH  13  17
ATOM     17  O   UNL     1       0.197 -13.021  30.839  1.00  0.00    -0.504 OA
ATOM     18  H   UNL     1       0.892 -12.696  30.178  1.00  0.00     0.293 HD
ENDBRANCH  13  17
BRANCH  15  19
ATOM     19  O   UNL     1      -0.557 -13.225  28.158  1.00  0.00    -0.502 OA
ATOM     20  H   UNL     1      -0.048 -12.389  27.915  1.00  0.00     0.293 HD
ENDBRANCH  15  19
BRANCH  16  21
ATOM     21  O   UNL     1      -3.380 -13.595  27.531  1.00  0.00    -0.504 OA
ATOM     22  H   UNL     1      -4.147 -13.065  27.143  1.00  0.00     0.293 HD
ENDBRANCH  16  21
ENDBRANCH   1  11
BRANCH  10  23
ATOM     23  O   UNL     1      -5.095 -15.719  31.758  1.00  0.00    -0.500 OA
ATOM     24  H   UNL     1      -5.897 -16.112  31.281  1.00  0.00     0.294 HD
ENDBRANCH  10  23
BRANCH   5  25
ATOM     25  O   UNL     1      -6.579  -9.875  36.654  1.00  0.00    -0.507 OA
ATOM     26  H   UNL     1      -5.903  -9.125  36.567  1.00  0.00     0.293 HD
ENDBRANCH   5  25
BRANCH   7  27
ATOM     27  O   UNL     1      -7.955 -14.419  35.944  1.00  0.00    -0.507 OA
ATOM     28  H   UNL     1      -8.954 -14.460  35.810  1.00  0.00     0.293 HD
ENDBRANCH   7  27
TORSDOF 7
ENDMDL
MODEL 5
REMARK VINA RESULT:    -1.616      3.815      5.466
REMARK INTER + INTRA:          -2.172
REMARK INTER:                  -1.804
REMARK INTRA:                  -0.368
REMARK UNBOUND:                -0.177
REMARK SMILES Oc1cc(O)c2cc(O)c(-c3cc(O)c(O)c(O)c3)[o+]c2c1
REMARK SMILES IDX 10 1 20 2 21 3 22 4 2 5 3 6 4 7 6 8 7 9 8 10 11 11 12 12
REMARK SMILES IDX 13 13 19 14 15 15 17 16 14 17 16 19 18 21 9 23 1 25 5 27
REMARK H PARENT 14 18 16 20 18 22 9 24 1 26 5 28
REMARK Flexibility Score: inf
ROOT
ATOM      1  C   UNL     1      -4.178 -13.539  29.671  1.00  0.00     0.402 A 
ATOM      2  O   UNL     1      -4.543 -14.680  30.250  1.00  0.00    -0.202 OA
ATOM      3  C   UNL     1      -5.651 -15.340  29.928  1.00  0.00     0.368 A 
ATOM      4  C   UNL     1      -5.948 -16.533  30.592  1.00  0.00     0.162 A 
ATOM      5  C   UNL     1      -7.106 -17.249  30.271  1.00  0.00     0.128 A 
ATOM      6  C   UNL     1      -7.967 -16.770  29.282  1.00  0.00     0.093 A 
ATOM      7  C   UNL     1      -7.691 -15.577  28.603  1.00  0.00     0.136 A 
ATOM      8  C   UNL     1      -6.520 -14.845  28.926  1.00  0.00     0.125 A 
ATOM      9  C   UNL     1      -6.170 -13.635  28.307  1.00  0.00     0.078 A 
ATOM     10  C   UNL     1      -5.000 -12.967  28.683  1.00  0.00     0.223 A 
ENDROOT
BRANCH   1  11
ATOM     11  C   UNL     1      -2.914 -12.904  30.109  1.00  0.00     0.091 A 
ATOM     12  C   UNL     1      -2.947 -11.920  31.107  1.00  0.00     0.068 A 
ATOM     13  C   UNL     1      -1.770 -11.316  31.554  1.00  0.00     0.162 A 
ATOM     14  C   UNL     1      -1.674 -13.305  29.589  1.00  0.00     0.068 A 
ATOM     15  C   UNL     1      -0.527 -11.701  31.017  1.00  0.00     0.200 A 
ATOM     16  C   UNL     1      -0.483 -12.714  30.028  1.00  0.00     0.162 A 
BRANCH  13  17
ATOM     17  O   UNL     1      -1.854 -10.330  32.538  1.00  0.00    -0.504 OA
ATOM     18  H   UNL     1      -2.725 -10.098  32.999  1.00  0.00     0.293 HD
ENDBRANCH  13  17
BRANCH  15  19
ATOM     19  O   UNL     1       0.625 -11.066  31.484  1.00  0.00    -0.502 OA
ATOM     20  H   UNL     1       0.964 -10.180  31.142  1.00  0.00     0.293 HD
ENDBRANCH  15  19
BRANCH  16  21
ATOM     21  O   UNL     1       0.711 -13.165  29.463  1.00  0.00    -0.504 OA
ATOM     22  H   UNL     1       0.801 -14.018  28.931  1.00  0.00     0.293 HD
ENDBRANCH  16  21
ENDBRANCH   1  11
BRANCH  10  23
ATOM     23  O   UNL     1      -4.677 -11.740  28.103  1.00  0.00    -0.500 OA
ATOM     24  H   UNL     1      -4.978 -10.863  28.512  1.00  0.00     0.294 HD
ENDBRANCH  10  23
BRANCH   5  25
ATOM     25  O   UNL     1      -7.409 -18.439  30.929  1.00  0.00    -0.507 OA
ATOM     26  H   UNL     1      -7.108 -18.609  31.881  1.00  0.00     0.293 HD
ENDBRANCH   5  25
BRANCH   7  27
ATOM     27  O   UNL     1      -8.603 -15.168  27.624  1.00  0.00    -0.507 OA
ATOM     28  H   UNL     1      -8.430 -14.430  26.957  1.00  0.00     0.293 HD
ENDBRANCH   7  27
TORSDOF 7
ENDMDL
MODEL 6
REMARK VINA RESULT:    -1.333      1.441      7.070
REMARK INTER + INTRA:          -1.822
REMARK INTER:                  -2.181
REMARK INTRA:                   0.359
REMARK UNBOUND:                -0.177
REMARK SMILES Oc1cc(O)c2cc(O)c(-c3cc(O)c(O)c(O)c3)[o+]c2c1
REMARK SMILES IDX 10 1 20 2 21 3 22 4 2 5 3 6 4 7 6 8 7 9 8 10 11 11 12 12
REMARK SMILES IDX 13 13 19 14 15 15 17 16 14 17 16 19 18 21 9 23 1 25 5 27
REMARK H PARENT 14 18 16 20 18 22 9 24 1 26 5 28
REMARK Flexibility Score: inf
ROOT
ATOM      1  C   UNL     1      -5.173 -12.838  33.332  1.00  0.00     0.402 A 
ATOM      2  O   UNL     1      -4.309 -11.883  32.997  1.00  0.00    -0.202 OA
ATOM      3  C   UNL     1      -3.536 -11.943  31.918  1.00  0.00     0.368 A 
ATOM      4  C   UNL     1      -2.661 -10.887  31.648  1.00  0.00     0.162 A 
ATOM      5  C   UNL     1      -1.838 -10.924  30.519  1.00  0.00     0.128 A 
ATOM      6  C   UNL     1      -1.892 -12.020  29.655  1.00  0.00     0.093 A 
ATOM      7  C   UNL     1      -2.760 -13.091  29.903  1.00  0.00     0.136 A 
ATOM      8  C   UNL     1      -3.595 -13.060  31.050  1.00  0.00     0.125 A 
ATOM      9  C   UNL     1      -4.486 -14.092  31.384  1.00  0.00     0.078 A 
ATOM     10  C   UNL     1      -5.274 -13.993  32.535  1.00  0.00     0.223 A 
ENDROOT
BRANCH   1  11
ATOM     11  C   UNL     1      -5.987 -12.650  34.554  1.00  0.00     0.091 A 
ATOM     12  C   UNL     1      -6.097 -11.373  35.120  1.00  0.00     0.068 A 
ATOM     13  C   UNL     1      -6.873 -11.161  36.262  1.00  0.00     0.162 A 
ATOM     14  C   UNL     1      -6.701 -13.713  35.129  1.00  0.00     0.068 A 
ATOM     15  C   UNL     1      -7.570 -12.231  36.853  1.00  0.00     0.200 A 
ATOM     16  C   UNL     1      -7.486 -13.520  36.271  1.00  0.00     0.162 A 
BRANCH  13  17
ATOM     17  O   UNL     1      -6.939  -9.875  36.799  1.00  0.00    -0.504 OA
ATOM     18  H   UNL     1      -7.704  -9.573  37.390  1.00  0.00     0.293 HD
ENDBRANCH  13  17
BRANCH  15  19
ATOM     19  O   UNL     1      -8.327 -11.980  38.000  1.00  0.00    -0.502 OA
ATOM     20  H   UNL     1      -8.173 -11.202  38.623  1.00  0.00     0.293 HD
ENDBRANCH  15  19
BRANCH  16  21
ATOM     21  O   UNL     1      -8.166 -14.625  36.785  1.00  0.00    -0.504 OA
ATOM     22  H   UNL     1      -7.930 -15.083  37.654  1.00  0.00     0.293 HD
ENDBRANCH  16  21
ENDBRANCH   1  11
BRANCH  10  23
ATOM     23  O   UNL     1      -6.122 -15.041  32.895  1.00  0.00    -0.500 OA
ATOM     24  H   UNL     1      -5.768 -15.894  33.312  1.00  0.00     0.294 HD
ENDBRANCH  10  23
BRANCH   5  25
ATOM     25  O   UNL     1      -0.964  -9.875  30.244  1.00  0.00    -0.507 OA
ATOM     26  H   UNL     1       0.024  -9.938  30.462  1.00  0.00     0.293 HD
ENDBRANCH   5  25
BRANCH   7  27
ATOM     27  O   UNL     1      -2.755 -14.148  28.988  1.00  0.00    -0.507 OA
ATOM     28  H   UNL     1      -2.916 -14.045  27.998  1.00  0.00     0.293 HD
ENDBRANCH   7  27
TORSDOF 7
ENDMDL
MODEL 7
REMARK VINA RESULT:    -0.812      3.067      6.569
REMARK INTER + INTRA:          -1.179
REMARK INTER:                  -0.861
REMARK INTRA:                  -0.318
REMARK UNBOUND:                -0.177
REMARK SMILES Oc1cc(O)c2cc(O)c(-c3cc(O)c(O)c(O)c3)[o+]c2c1
REMARK SMILES IDX 10 1 20 2 21 3 22 4 2 5 3 6 4 7 6 8 7 9 8 10 11 11 12 12
REMARK SMILES IDX 13 13 19 14 15 15 17 16 14 17 16 19 18 21 9 23 1 25 5 27
REMARK H PARENT 14 18 16 20 18 22 9 24 1 26 5 28
REMARK Flexibility Score: inf
ROOT
ATOM      1  C   UNL     1      -4.245 -14.182  30.527  1.00  0.00     0.402 A 
ATOM      2  O   UNL     1      -3.168 -14.124  29.747  1.00  0.00    -0.202 OA
ATOM      3  C   UNL     1      -2.069 -13.449  30.068  1.00  0.00     0.368 A 
ATOM      4  C   UNL     1      -0.988 -13.451  29.184  1.00  0.00     0.162 A 
ATOM      5  C   UNL     1       0.181 -12.751  29.498  1.00  0.00     0.128 A 
ATOM      6  C   UNL     1       0.268 -12.049  30.702  1.00  0.00     0.093 A 
ATOM      7  C   UNL     1      -0.802 -12.032  31.605  1.00  0.00     0.136 A 
ATOM      8  C   UNL     1      -1.992 -12.738  31.289  1.00  0.00     0.125 A 
ATOM      9  C   UNL     1      -3.117 -12.767  32.128  1.00  0.00     0.078 A 
ATOM     10  C   UNL     1      -4.258 -13.481  31.747  1.00  0.00     0.223 A 
ENDROOT
BRANCH   1  11
ATOM     11  C   UNL     1      -5.405 -14.977  30.063  1.00  0.00     0.091 A 
ATOM     12  C   UNL     1      -6.147 -14.533  28.960  1.00  0.00     0.068 A 
ATOM     13  C   UNL     1      -7.236 -15.271  28.488  1.00  0.00     0.162 A 
ATOM     14  C   UNL     1      -5.745 -16.198  30.667  1.00  0.00     0.068 A 
ATOM     15  C   UNL     1      -7.592 -16.484  29.108  1.00  0.00     0.200 A 
ATOM     16  C   UNL     1      -6.829 -16.952  30.205  1.00  0.00     0.162 A 
BRANCH  13  17
ATOM     17  O   UNL     1      -7.955 -14.782  27.398  1.00  0.00    -0.504 OA
ATOM     18  H   UNL     1      -8.581 -15.365  26.856  1.00  0.00     0.293 HD
ENDBRANCH  13  17
BRANCH  15  19
ATOM     19  O   UNL     1      -8.692 -17.187  28.611  1.00  0.00    -0.502 OA
ATOM     20  H   UNL     1      -9.521 -16.752  28.236  1.00  0.00     0.293 HD
ENDBRANCH  15  19
BRANCH  16  21
ATOM     21  O   UNL     1      -7.106 -18.155  30.858  1.00  0.00    -0.504 OA
ATOM     22  H   UNL     1      -6.497 -18.585  31.539  1.00  0.00     0.293 HD
ENDBRANCH  16  21
ENDBRANCH   1  11
BRANCH  10  23
ATOM     23  O   UNL     1      -5.394 -13.469  32.556  1.00  0.00    -0.500 OA
ATOM     24  H   UNL     1      -5.630 -14.251  33.155  1.00  0.00     0.294 HD
ENDBRANCH  10  23
BRANCH   5  25
ATOM     25  O   UNL     1       1.263 -12.748  28.621  1.00  0.00    -0.507 OA
ATOM     26  H   UNL     1       1.501 -13.563  28.069  1.00  0.00     0.293 HD
ENDBRANCH   5  25
BRANCH   7  27
ATOM     27  O   UNL     1      -0.633 -11.308  32.789  1.00  0.00    -0.507 OA
ATOM     28  H   UNL     1       0.088 -10.617  32.936  1.00  0.00     0.293 HD
ENDBRANCH   7  27
TORSDOF 7
ENDMDL
