MODEL 1
REMARK VINA RESULT:    -2.907      0.000      0.000
REMARK INTER + INTRA:         -13.227
REMARK INTER:                  -7.326
REMARK INTRA:                  -5.901
REMARK UNBOUND:                -5.901
REMARK SMILES CCCCCCCCCCCCCCCCCCCCCCCCCCCC(=O)[O-]
REMARK SMILES IDX 15 1 16 2 17 3 18 4 19 5 20 6 21 7 22 8 23 9 24 10 25 11
REMARK SMILES IDX 26 12 27 13 28 14 29 15 30 16 14 17 13 18 12 19 11 20 10 21
REMARK SMILES IDX 9 22 8 23 7 24 6 25 5 26 4 27 3 28 2 29 1 30
REMARK H PARENT
REMARK Flexibility Score: inf
ROOT
ATOM      1  C   UNL     1      12.094  43.023 154.038  1.00  0.00     0.000 C 
ENDROOT
BRANCH   1   2
ATOM      2  C   UNL     1      10.669  43.502 154.388  1.00  0.00     0.000 C 
BRANCH   2   3
ATOM      3  C   UNL     1      10.050  42.753 155.579  1.00  0.00     0.000 C 
BRANCH   3   4
ATOM      4  C   UNL     1       8.674  43.309 155.981  1.00  0.00     0.000 C 
BRANCH   4   5
ATOM      5  C   UNL     1       8.461  44.766 155.527  1.00  0.00     0.000 C 
BRANCH   5   6
ATOM      6  C   UNL     1       8.678  45.824 156.626  1.00  0.00     0.000 C 
BRANCH   6   7
ATOM      7  C   UNL     1       9.155  47.176 156.066  1.00  0.00     0.000 C 
BRANCH   7   8
ATOM      8  C   UNL     1      10.131  47.024 154.889  1.00  0.00     0.000 C 
BRANCH   8   9
ATOM      9  C   UNL     1       9.661  47.757 153.623  1.00  0.00     0.000 C 
BRANCH   9  10
ATOM     10  C   UNL     1       9.752  46.837 152.396  1.00  0.00     0.000 C 
BRANCH  10  11
ATOM     11  C   UNL     1       8.415  46.158 152.049  1.00  0.00     0.000 C 
BRANCH  11  12
ATOM     12  C   UNL     1       8.252  45.749 150.572  1.00  0.00     0.006 C 
BRANCH  12  13
ATOM     13  C   UNL     1       9.234  46.470 149.638  1.00  0.00     0.053 C 
BRANCH  13  14
ATOM     14  C   UNL     1       9.372  45.731 148.343  1.00  0.00     0.041 C 
ATOM     15  O   UNL     1       8.459  44.952 147.960  1.00  0.00    -0.550 OA
ATOM     16  O   UNL     1      10.503  45.908 147.555  1.00  0.00    -0.550 OA
ENDBRANCH  13  14
ENDBRANCH  12  13
ENDBRANCH  11  12
ENDBRANCH  10  11
ENDBRANCH   9  10
ENDBRANCH   8   9
ENDBRANCH   7   8
ENDBRANCH   6   7
ENDBRANCH   5   6
ENDBRANCH   4   5
ENDBRANCH   3   4
ENDBRANCH   2   3
ENDBRANCH   1   2
BRANCH   1  17
ATOM     17  C   UNL     1      12.392  43.132 152.532  1.00  0.00     0.000 C 
BRANCH  17  18
ATOM     18  C   UNL     1      11.190  43.651 151.728  1.00  0.00     0.000 C 
BRANCH  18  19
ATOM     19  C   UNL     1      11.214  43.182 150.264  1.00  0.00     0.000 C 
BRANCH  19  20
ATOM     20  C   UNL     1      12.393  42.240 149.969  1.00  0.00     0.000 C 
BRANCH  20  21
ATOM     21  C   UNL     1      12.004  41.093 149.019  1.00  0.00     0.000 C 
BRANCH  21  22
ATOM     22  C   UNL     1      12.189  39.702 149.655  1.00  0.00    -0.000 C 
BRANCH  22  23
ATOM     23  C   UNL     1      11.906  39.634 151.167  1.00  0.00    -0.000 C 
BRANCH  23  24
ATOM     24  C   UNL     1      10.406  39.518 151.490  1.00  0.00    -0.000 C 
BRANCH  24  25
ATOM     25  C   UNL     1      10.020  40.223 152.803  1.00  0.00    -0.000 C 
BRANCH  25  26
ATOM     26  C   UNL     1       8.509  40.465 153.006  1.00  0.00    -0.000 C 
BRANCH  26  27
ATOM     27  C   UNL     1       7.982  41.814 152.485  1.00  0.00    -0.000 C 
BRANCH  27  28
ATOM     28  C   UNL     1       7.070  41.666 151.256  1.00  0.00    -0.000 C 
BRANCH  28  29
ATOM     29  C   UNL     1       7.758  42.110 149.956  1.00  0.00    -0.003 C 
ATOM     30  C   UNL     1       8.176  40.933 149.075  1.00  0.00     0.004 C 
ENDBRANCH  28  29
ENDBRANCH  27  28
ENDBRANCH  26  27
ENDBRANCH  25  26
ENDBRANCH  24  25
ENDBRANCH  23  24
ENDBRANCH  22  23
ENDBRANCH  21  22
ENDBRANCH  20  21
ENDBRANCH  19  20
ENDBRANCH  18  19
ENDBRANCH  17  18
ENDBRANCH   1  17
TORSDOF 26
ENDMDL
MODEL 2
REMARK VINA RESULT:    -2.894      2.840      4.886
REMARK INTER + INTRA:         -13.192
REMARK INTER:                  -7.804
REMARK INTRA:                  -5.388
REMARK UNBOUND:                -5.901
REMARK SMILES CCCCCCCCCCCCCCCCCCCCCCCCCCCC(=O)[O-]
REMARK SMILES IDX 15 1 16 2 17 3 18 4 19 5 20 6 21 7 22 8 23 9 24 10 25 11
REMARK SMILES IDX 26 12 27 13 28 14 29 15 30 16 14 17 13 18 12 19 11 20 10 21
REMARK SMILES IDX 9 22 8 23 7 24 6 25 5 26 4 27 3 28 2 29 1 30
REMARK H PARENT
REMARK Flexibility Score: inf
ROOT
ATOM      1  C   UNL     1       8.826  44.295 155.524  1.00  0.00     0.000 C 
ENDROOT
BRANCH   1   2
ATOM      2  C   UNL     1       8.672  45.469 156.514  1.00  0.00     0.000 C 
BRANCH   2   3
ATOM      3  C   UNL     1       9.198  46.805 155.963  1.00  0.00     0.000 C 
BRANCH   3   4
ATOM      4  C   UNL     1      10.049  46.631 154.694  1.00  0.00     0.000 C 
BRANCH   4   5
ATOM      5  C   UNL     1       9.716  47.665 153.602  1.00  0.00     0.000 C 
BRANCH   5   6
ATOM      6  C   UNL     1       9.590  47.085 152.180  1.00  0.00     0.000 C 
BRANCH   6   7
ATOM      7  C   UNL     1       9.080  45.634 152.171  1.00  0.00     0.000 C 
BRANCH   7   8
ATOM      8  C   UNL     1       9.274  44.941 150.813  1.00  0.00     0.000 C 
BRANCH   8   9
ATOM      9  C   UNL     1       8.626  43.550 150.753  1.00  0.00     0.000 C 
BRANCH   9  10
ATOM     10  C   UNL     1       8.078  43.143 152.130  1.00  0.00     0.000 C 
BRANCH  10  11
ATOM     11  C   UNL     1       8.226  41.638 152.419  1.00  0.00     0.000 C 
BRANCH  11  12
ATOM     12  C   UNL     1       7.386  41.113 153.598  1.00  0.00     0.006 C 
BRANCH  12  13
ATOM     13  C   UNL     1       6.037  41.831 153.741  1.00  0.00     0.053 C 
BRANCH  13  14
ATOM     14  C   UNL     1       5.248  41.254 154.875  1.00  0.00     0.041 C 
ATOM     15  O   UNL     1       4.929  41.977 155.857  1.00  0.00    -0.550 OA
ATOM     16  O   UNL     1       4.857  39.921 154.846  1.00  0.00    -0.550 OA
ENDBRANCH  13  14
ENDBRANCH  12  13
ENDBRANCH  11  12
ENDBRANCH  10  11
ENDBRANCH   9  10
ENDBRANCH   8   9
ENDBRANCH   7   8
ENDBRANCH   6   7
ENDBRANCH   5   6
ENDBRANCH   4   5
ENDBRANCH   3   4
ENDBRANCH   2   3
ENDBRANCH   1   2
BRANCH   1  17
ATOM     17  C   UNL     1       9.359  43.024 156.206  1.00  0.00     0.000 C 
BRANCH  17  18
ATOM     18  C   UNL     1      10.494  42.358 155.411  1.00  0.00     0.000 C 
BRANCH  18  19
ATOM     19  C   UNL     1      11.021  43.252 154.276  1.00  0.00     0.000 C 
BRANCH  19  20
ATOM     20  C   UNL     1      12.189  42.605 153.514  1.00  0.00     0.000 C 
BRANCH  20  21
ATOM     21  C   UNL     1      12.256  43.061 152.046  1.00  0.00     0.000 C 
BRANCH  21  22
ATOM     22  C   UNL     1      11.868  41.946 151.056  1.00  0.00    -0.000 C 
BRANCH  22  23
ATOM     23  C   UNL     1      11.590  40.574 151.695  1.00  0.00    -0.000 C 
BRANCH  23  24
ATOM     24  C   UNL     1      12.213  39.409 150.906  1.00  0.00    -0.000 C 
BRANCH  24  25
ATOM     25  C   UNL     1      11.208  38.712 149.972  1.00  0.00    -0.000 C 
BRANCH  25  26
ATOM     26  C   UNL     1       9.745  38.699 150.464  1.00  0.00    -0.000 C 
BRANCH  26  27
ATOM     27  C   UNL     1       8.678  38.811 149.361  1.00  0.00    -0.000 C 
BRANCH  27  28
ATOM     28  C   UNL     1       8.340  40.267 149.001  1.00  0.00    -0.000 C 
BRANCH  28  29
ATOM     29  C   UNL     1       6.830  40.546 149.036  1.00  0.00    -0.003 C 
ATOM     30  C   UNL     1       6.121  39.830 150.185  1.00  0.00     0.004 C 
ENDBRANCH  28  29
ENDBRANCH  27  28
ENDBRANCH  26  27
ENDBRANCH  25  26
ENDBRANCH  24  25
ENDBRANCH  23  24
ENDBRANCH  22  23
ENDBRANCH  21  22
ENDBRANCH  20  21
ENDBRANCH  19  20
ENDBRANCH  18  19
ENDBRANCH  17  18
ENDBRANCH   1  17
TORSDOF 26
ENDMDL
MODEL 3
REMARK VINA RESULT:    -2.788      2.547      6.758
REMARK INTER + INTRA:         -12.927
REMARK INTER:                  -7.360
REMARK INTRA:                  -5.567
REMARK UNBOUND:                -5.901
REMARK SMILES CCCCCCCCCCCCCCCCCCCCCCCCCCCC(=O)[O-]
REMARK SMILES IDX 15 1 16 2 17 3 18 4 19 5 20 6 21 7 22 8 23 9 24 10 25 11
REMARK SMILES IDX 26 12 27 13 28 14 29 15 30 16 14 17 13 18 12 19 11 20 10 21
REMARK SMILES IDX 9 22 8 23 7 24 6 25 5 26 4 27 3 28 2 29 1 30
REMARK H PARENT
REMARK Flexibility Score: inf
ROOT
ATOM      1  C   UNL     1      10.459  39.141 150.768  1.00  0.00     0.000 C 
ENDROOT
BRANCH   1   2
ATOM      2  C   UNL     1      10.737  38.992 149.257  1.00  0.00     0.000 C 
BRANCH   2   3
ATOM      3  C   UNL     1      12.159  39.417 148.855  1.00  0.00     0.000 C 
BRANCH   3   4
ATOM      4  C   UNL     1      12.171  40.454 147.720  1.00  0.00     0.000 C 
BRANCH   4   5
ATOM      5  C   UNL     1      12.862  41.772 148.119  1.00  0.00     0.000 C 
BRANCH   5   6
ATOM      6  C   UNL     1      12.055  42.658 149.088  1.00  0.00     0.000 C 
BRANCH   6   7
ATOM      7  C   UNL     1      10.610  42.897 148.614  1.00  0.00     0.000 C 
BRANCH   7   8
ATOM      8  C   UNL     1       9.571  42.653 149.720  1.00  0.00     0.000 C 
BRANCH   8   9
ATOM      9  C   UNL     1       8.370  41.825 149.240  1.00  0.00     0.000 C 
BRANCH   9  10
ATOM     10  C   UNL     1       7.460  41.449 150.421  1.00  0.00     0.000 C 
BRANCH  10  11
ATOM     11  C   UNL     1       7.892  42.101 151.747  1.00  0.00     0.000 C 
BRANCH  11  12
ATOM     12  C   UNL     1       6.736  42.570 152.651  1.00  0.00     0.006 C 
BRANCH  12  13
ATOM     13  C   UNL     1       6.632  41.770 153.957  1.00  0.00     0.053 C 
BRANCH  13  14
ATOM     14  C   UNL     1       5.400  40.920 153.960  1.00  0.00     0.041 C 
ATOM     15  O   UNL     1       4.577  41.002 154.910  1.00  0.00    -0.550 OA
ATOM     16  O   UNL     1       5.154  40.043 152.910  1.00  0.00    -0.550 OA
ENDBRANCH  13  14
ENDBRANCH  12  13
ENDBRANCH  11  12
ENDBRANCH  10  11
ENDBRANCH   9  10
ENDBRANCH   8   9
ENDBRANCH   7   8
ENDBRANCH   6   7
ENDBRANCH   5   6
ENDBRANCH   4   5
ENDBRANCH   3   4
ENDBRANCH   2   3
ENDBRANCH   1   2
BRANCH   1  17
ATOM     17  C   UNL     1      11.597  39.871 151.501  1.00  0.00     0.000 C 
BRANCH  17  18
ATOM     18  C   UNL     1      11.081  40.857 152.562  1.00  0.00     0.000 C 
BRANCH  18  19
ATOM     19  C   UNL     1      11.999  42.078 152.727  1.00  0.00     0.000 C 
BRANCH  19  20
ATOM     20  C   UNL     1      11.601  42.953 153.927  1.00  0.00     0.000 C 
BRANCH  20  21
ATOM     21  C   UNL     1      10.202  42.608 154.468  1.00  0.00     0.000 C 
BRANCH  21  22
ATOM     22  C   UNL     1      10.167  42.496 156.004  1.00  0.00    -0.000 C 
BRANCH  22  23
ATOM     23  C   UNL     1       9.046  43.298 156.690  1.00  0.00    -0.000 C 
BRANCH  23  24
ATOM     24  C   UNL     1       8.503  44.438 155.811  1.00  0.00    -0.000 C 
BRANCH  24  25
ATOM     25  C   UNL     1       8.621  45.819 156.480  1.00  0.00    -0.000 C 
BRANCH  25  26
ATOM     26  C   UNL     1       9.471  46.856 155.715  1.00  0.00    -0.000 C 
BRANCH  26  27
ATOM     27  C   UNL     1      10.228  46.312 154.490  1.00  0.00    -0.000 C 
BRANCH  27  28
ATOM     28  C   UNL     1       9.559  46.688 153.158  1.00  0.00    -0.000 C 
BRANCH  28  29
ATOM     29  C   UNL     1       9.664  45.569 152.111  1.00  0.00    -0.003 C 
ATOM     30  C   UNL     1      10.321  46.032 150.811  1.00  0.00     0.004 C 
ENDBRANCH  28  29
ENDBRANCH  27  28
ENDBRANCH  26  27
ENDBRANCH  25  26
ENDBRANCH  24  25
ENDBRANCH  23  24
ENDBRANCH  22  23
ENDBRANCH  21  22
ENDBRANCH  20  21
ENDBRANCH  19  20
ENDBRANCH  18  19
ENDBRANCH  17  18
ENDBRANCH   1  17
TORSDOF 26
ENDMDL
MODEL 4
REMARK VINA RESULT:    -2.768      2.639      7.041
REMARK INTER + INTRA:         -12.876
REMARK INTER:                  -7.801
REMARK INTRA:                  -5.076
REMARK UNBOUND:                -5.901
REMARK SMILES CCCCCCCCCCCCCCCCCCCCCCCCCCCC(=O)[O-]
REMARK SMILES IDX 15 1 16 2 17 3 18 4 19 5 20 6 21 7 22 8 23 9 24 10 25 11
REMARK SMILES IDX 26 12 27 13 28 14 29 15 30 16 14 17 13 18 12 19 11 20 10 21
REMARK SMILES IDX 9 22 8 23 7 24 6 25 5 26 4 27 3 28 2 29 1 30
REMARK H PARENT
REMARK Flexibility Score: inf
ROOT
ATOM      1  C   UNL     1      11.052  43.960 152.342  1.00  0.00     0.000 C 
ENDROOT
BRANCH   1   2
ATOM      2  C   UNL     1      11.389  44.133 150.845  1.00  0.00     0.000 C 
BRANCH   2   3
ATOM      3  C   UNL     1      12.388  43.088 150.320  1.00  0.00     0.000 C 
BRANCH   3   4
ATOM      4  C   UNL     1      11.745  41.709 150.102  1.00  0.00     0.000 C 
BRANCH   4   5
ATOM      5  C   UNL     1      12.090  40.704 151.217  1.00  0.00     0.000 C 
BRANCH   5   6
ATOM      6  C   UNL     1      11.576  39.271 150.977  1.00  0.00     0.000 C 
BRANCH   6   7
ATOM      7  C   UNL     1      10.682  39.159 149.730  1.00  0.00     0.000 C 
BRANCH   7   8
ATOM      8  C   UNL     1       9.277  38.625 150.049  1.00  0.00     0.000 C 
BRANCH   8   9
ATOM      9  C   UNL     1       8.279  39.739 150.401  1.00  0.00     0.000 C 
BRANCH   9  10
ATOM     10  C   UNL     1       8.380  40.110 151.889  1.00  0.00     0.000 C 
BRANCH  10  11
ATOM     11  C   UNL     1       8.108  41.601 152.160  1.00  0.00     0.000 C 
BRANCH  11  12
ATOM     12  C   UNL     1       6.653  41.944 152.530  1.00  0.00     0.006 C 
BRANCH  12  13
ATOM     13  C   UNL     1       6.222  41.360 153.882  1.00  0.00     0.053 C 
BRANCH  13  14
ATOM     14  C   UNL     1       5.305  40.192 153.686  1.00  0.00     0.041 C 
ATOM     15  O   UNL     1       4.755  40.002 152.569  1.00  0.00    -0.550 OA
ATOM     16  O   UNL     1       5.064  39.311 154.733  1.00  0.00    -0.550 OA
ENDBRANCH  13  14
ENDBRANCH  12  13
ENDBRANCH  11  12
ENDBRANCH  10  11
ENDBRANCH   9  10
ENDBRANCH   8   9
ENDBRANCH   7   8
ENDBRANCH   6   7
ENDBRANCH   5   6
ENDBRANCH   4   5
ENDBRANCH   3   4
ENDBRANCH   2   3
ENDBRANCH   1   2
BRANCH   1  17
ATOM     17  C   UNL     1      12.313  43.894 153.219  1.00  0.00     0.000 C 
BRANCH  17  18
ATOM     18  C   UNL     1      12.163  42.918 154.398  1.00  0.00     0.000 C 
BRANCH  18  19
ATOM     19  C   UNL     1      10.750  42.320 154.491  1.00  0.00     0.000 C 
BRANCH  19  20
ATOM     20  C   UNL     1      10.161  42.424 155.907  1.00  0.00     0.000 C 
BRANCH  20  21
ATOM     21  C   UNL     1       8.790  43.123 155.923  1.00  0.00     0.000 C 
BRANCH  21  22
ATOM     22  C   UNL     1       8.817  44.506 155.245  1.00  0.00    -0.000 C 
BRANCH  22  23
ATOM     23  C   UNL     1       8.586  45.700 156.190  1.00  0.00    -0.000 C 
BRANCH  23  24
ATOM     24  C   UNL     1       9.361  46.958 155.762  1.00  0.00    -0.000 C 
BRANCH  24  25
ATOM     25  C   UNL     1      10.225  46.733 154.508  1.00  0.00    -0.000 C 
BRANCH  25  26
ATOM     26  C   UNL     1       9.805  47.538 153.260  1.00  0.00    -0.000 C 
BRANCH  26  27
ATOM     27  C   UNL     1       8.348  48.035 153.256  1.00  0.00    -0.000 C 
BRANCH  27  28
ATOM     28  C   UNL     1       7.536  47.496 152.066  1.00  0.00    -0.000 C 
BRANCH  28  29
ATOM     29  C   UNL     1       7.315  45.979 152.143  1.00  0.00    -0.003 C 
ATOM     30  C   UNL     1       6.188  45.591 153.100  1.00  0.00     0.004 C 
ENDBRANCH  28  29
ENDBRANCH  27  28
ENDBRANCH  26  27
ENDBRANCH  25  26
ENDBRANCH  24  25
ENDBRANCH  23  24
ENDBRANCH  22  23
ENDBRANCH  21  22
ENDBRANCH  20  21
ENDBRANCH  19  20
ENDBRANCH  18  19
ENDBRANCH  17  18
ENDBRANCH   1  17
TORSDOF 26
ENDMDL
MODEL 5
REMARK VINA RESULT:    -2.728      2.110      6.480
REMARK INTER + INTRA:         -12.776
REMARK INTER:                  -7.011
REMARK INTRA:                  -5.765
REMARK UNBOUND:                -5.901
REMARK SMILES CCCCCCCCCCCCCCCCCCCCCCCCCCCC(=O)[O-]
REMARK SMILES IDX 15 1 16 2 17 3 18 4 19 5 20 6 21 7 22 8 23 9 24 10 25 11
REMARK SMILES IDX 26 12 27 13 28 14 29 15 30 16 14 17 13 18 12 19 11 20 10 21
REMARK SMILES IDX 9 22 8 23 7 24 6 25 5 26 4 27 3 28 2 29 1 30
REMARK H PARENT
REMARK Flexibility Score: inf
ROOT
ATOM      1  C   UNL     1       9.502  44.431 150.281  1.00  0.00     0.000 C 
ENDROOT
BRANCH   1   2
ATOM      2  C   UNL     1       9.919  43.035 149.770  1.00  0.00     0.000 C 
BRANCH   2   3
ATOM      3  C   UNL     1      11.206  43.052 148.929  1.00  0.00     0.000 C 
BRANCH   3   4
ATOM      4  C   UNL     1      12.178  41.922 149.306  1.00  0.00     0.000 C 
BRANCH   4   5
ATOM      5  C   UNL     1      12.203  41.633 150.819  1.00  0.00     0.000 C 
BRANCH   5   6
ATOM      6  C   UNL     1      11.999  40.153 151.198  1.00  0.00     0.000 C 
BRANCH   6   7
ATOM      7  C   UNL     1      10.652  39.897 151.895  1.00  0.00     0.000 C 
BRANCH   7   8
ATOM      8  C   UNL     1       9.592  39.309 150.949  1.00  0.00     0.000 C 
BRANCH   8   9
ATOM      9  C   UNL     1       8.228  40.004 151.074  1.00  0.00     0.000 C 
BRANCH   9  10
ATOM     10  C   UNL     1       8.214  40.968 152.271  1.00  0.00     0.000 C 
BRANCH  10  11
ATOM     11  C   UNL     1       7.277  40.510 153.404  1.00  0.00     0.000 C 
BRANCH  11  12
ATOM     12  C   UNL     1       5.850  41.088 153.346  1.00  0.00     0.006 C 
BRANCH  12  13
ATOM     13  C   UNL     1       5.798  42.503 152.753  1.00  0.00     0.053 C 
BRANCH  13  14
ATOM     14  C   UNL     1       4.891  42.545 151.563  1.00  0.00     0.041 C 
ATOM     15  O   UNL     1       5.175  41.886 150.528  1.00  0.00    -0.550 OA
ATOM     16  O   UNL     1       3.729  43.306 151.598  1.00  0.00    -0.550 OA
ENDBRANCH  13  14
ENDBRANCH  12  13
ENDBRANCH  11  12
ENDBRANCH  10  11
ENDBRANCH   9  10
ENDBRANCH   8   9
ENDBRANCH   7   8
ENDBRANCH   6   7
ENDBRANCH   5   6
ENDBRANCH   4   5
ENDBRANCH   3   4
ENDBRANCH   2   3
ENDBRANCH   1   2
BRANCH   1  17
ATOM     17  C   UNL     1      10.400  44.922 151.429  1.00  0.00     0.000 C 
BRANCH  17  18
ATOM     18  C   UNL     1      10.332  44.011 152.665  1.00  0.00     0.000 C 
BRANCH  18  19
ATOM     19  C   UNL     1      11.638  44.019 153.475  1.00  0.00     0.000 C 
BRANCH  19  20
ATOM     20  C   UNL     1      11.742  42.823 154.435  1.00  0.00     0.000 C 
BRANCH  20  21
ATOM     21  C   UNL     1      10.362  42.271 154.836  1.00  0.00     0.000 C 
BRANCH  21  22
ATOM     22  C   UNL     1      10.091  42.384 156.348  1.00  0.00    -0.000 C 
BRANCH  22  23
ATOM     23  C   UNL     1       8.938  43.328 156.734  1.00  0.00    -0.000 C 
BRANCH  23  24
ATOM     24  C   UNL     1       7.981  43.613 155.563  1.00  0.00    -0.000 C 
BRANCH  24  25
ATOM     25  C   UNL     1       7.942  45.101 155.169  1.00  0.00    -0.000 C 
BRANCH  25  26
ATOM     26  C   UNL     1       9.061  45.976 155.774  1.00  0.00    -0.000 C 
BRANCH  26  27
ATOM     27  C   UNL     1       9.772  46.914 154.781  1.00  0.00    -0.000 C 
BRANCH  27  28
ATOM     28  C   UNL     1       8.961  48.184 154.473  1.00  0.00    -0.000 C 
BRANCH  28  29
ATOM     29  C   UNL     1       8.826  48.444 152.965  1.00  0.00    -0.003 C 
ATOM     30  C   UNL     1       7.945  47.412 152.262  1.00  0.00     0.004 C 
ENDBRANCH  28  29
ENDBRANCH  27  28
ENDBRANCH  26  27
ENDBRANCH  25  26
ENDBRANCH  24  25
ENDBRANCH  23  24
ENDBRANCH  22  23
ENDBRANCH  21  22
ENDBRANCH  20  21
ENDBRANCH  19  20
ENDBRANCH  18  19
ENDBRANCH  17  18
ENDBRANCH   1  17
TORSDOF 26
ENDMDL
MODEL 6
REMARK VINA RESULT:    -2.721      3.103      7.473
REMARK INTER + INTRA:         -12.757
REMARK INTER:                  -7.517
REMARK INTRA:                  -5.239
REMARK UNBOUND:                -5.901
REMARK SMILES CCCCCCCCCCCCCCCCCCCCCCCCCCCC(=O)[O-]
REMARK SMILES IDX 15 1 16 2 17 3 18 4 19 5 20 6 21 7 22 8 23 9 24 10 25 11
REMARK SMILES IDX 26 12 27 13 28 14 29 15 30 16 14 17 13 18 12 19 11 20 10 21
REMARK SMILES IDX 9 22 8 23 7 24 6 25 5 26 4 27 3 28 2 29 1 30
REMARK H PARENT
REMARK Flexibility Score: inf
ROOT
ATOM      1  C   UNL     1      10.877  42.682 151.746  1.00  0.00     0.000 C 
ENDROOT
BRANCH   1   2
ATOM      2  C   UNL     1      11.887  41.779 151.006  1.00  0.00     0.000 C 
BRANCH   2   3
ATOM      3  C   UNL     1      12.029  40.382 151.631  1.00  0.00     0.000 C 
BRANCH   3   4
ATOM      4  C   UNL     1      11.819  39.250 150.612  1.00  0.00     0.000 C 
BRANCH   4   5
ATOM      5  C   UNL     1      11.285  39.754 149.258  1.00  0.00     0.000 C 
BRANCH   5   6
ATOM      6  C   UNL     1       9.796  39.457 148.999  1.00  0.00     0.000 C 
BRANCH   6   7
ATOM      7  C   UNL     1       9.074  38.903 150.239  1.00  0.00     0.000 C 
BRANCH   7   8
ATOM      8  C   UNL     1       8.195  39.952 150.938  1.00  0.00     0.000 C 
BRANCH   8   9
ATOM      9  C   UNL     1       8.410  39.997 152.458  1.00  0.00     0.000 C 
BRANCH   9  10
ATOM     10  C   UNL     1       7.524  41.075 153.103  1.00  0.00     0.000 C 
BRANCH  10  11
ATOM     11  C   UNL     1       6.214  41.320 152.331  1.00  0.00     0.000 C 
BRANCH  11  12
ATOM     12  C   UNL     1       4.941  41.354 153.198  1.00  0.00     0.006 C 
BRANCH  12  13
ATOM     13  C   UNL     1       4.013  40.158 152.949  1.00  0.00     0.053 C 
BRANCH  13  14
ATOM     14  C   UNL     1       4.061  39.202 154.101  1.00  0.00     0.041 C 
ATOM     15  O   UNL     1       4.892  39.375 155.032  1.00  0.00    -0.550 OA
ATOM     16  O   UNL     1       3.184  38.125 154.151  1.00  0.00    -0.550 OA
ENDBRANCH  13  14
ENDBRANCH  12  13
ENDBRANCH  11  12
ENDBRANCH  10  11
ENDBRANCH   9  10
ENDBRANCH   8   9
ENDBRANCH   7   8
ENDBRANCH   6   7
ENDBRANCH   5   6
ENDBRANCH   4   5
ENDBRANCH   3   4
ENDBRANCH   2   3
ENDBRANCH   1   2
BRANCH   1  17
ATOM     17  C   UNL     1      11.563  43.856 152.465  1.00  0.00     0.000 C 
BRANCH  17  18
ATOM     18  C   UNL     1      11.315  43.846 153.982  1.00  0.00     0.000 C 
BRANCH  18  19
ATOM     19  C   UNL     1      10.807  42.486 154.487  1.00  0.00     0.000 C 
BRANCH  19  20
ATOM     20  C   UNL     1       9.655  42.628 155.495  1.00  0.00     0.000 C 
BRANCH  20  21
ATOM     21  C   UNL     1       9.055  44.045 155.505  1.00  0.00     0.000 C 
BRANCH  21  22
ATOM     22  C   UNL     1       7.526  44.048 155.312  1.00  0.00    -0.000 C 
BRANCH  22  23
ATOM     23  C   UNL     1       7.025  44.842 154.093  1.00  0.00    -0.000 C 
BRANCH  23  24
ATOM     24  C   UNL     1       7.896  44.630 152.843  1.00  0.00    -0.000 C 
BRANCH  24  25
ATOM     25  C   UNL     1       8.090  45.918 152.022  1.00  0.00    -0.000 C 
BRANCH  25  26
ATOM     26  C   UNL     1       9.336  46.754 152.385  1.00  0.00    -0.000 C 
BRANCH  26  27
ATOM     27  C   UNL     1       9.046  48.153 152.959  1.00  0.00    -0.000 C 
BRANCH  27  28
ATOM     28  C   UNL     1       9.957  48.513 154.144  1.00  0.00    -0.000 C 
BRANCH  28  29
ATOM     29  C   UNL     1       9.875  47.486 155.283  1.00  0.00    -0.003 C 
ATOM     30  C   UNL     1       8.587  47.604 156.097  1.00  0.00     0.004 C 
ENDBRANCH  28  29
ENDBRANCH  27  28
ENDBRANCH  26  27
ENDBRANCH  25  26
ENDBRANCH  24  25
ENDBRANCH  23  24
ENDBRANCH  22  23
ENDBRANCH  21  22
ENDBRANCH  20  21
ENDBRANCH  19  20
ENDBRANCH  18  19
ENDBRANCH  17  18
ENDBRANCH   1  17
TORSDOF 26
ENDMDL
MODEL 7
REMARK VINA RESULT:    -2.694      1.964      3.428
REMARK INTER + INTRA:         -12.689
REMARK INTER:                  -7.798
REMARK INTRA:                  -4.892
REMARK UNBOUND:                -5.901
REMARK SMILES CCCCCCCCCCCCCCCCCCCCCCCCCCCC(=O)[O-]
REMARK SMILES IDX 15 1 16 2 17 3 18 4 19 5 20 6 21 7 22 8 23 9 24 10 25 11
REMARK SMILES IDX 26 12 27 13 28 14 29 15 30 16 14 17 13 18 12 19 11 20 10 21
REMARK SMILES IDX 9 22 8 23 7 24 6 25 5 26 4 27 3 28 2 29 1 30
REMARK H PARENT
REMARK Flexibility Score: inf
ROOT
ATOM      1  C   UNL     1      10.813  43.804 152.060  1.00  0.00     0.000 C 
ENDROOT
BRANCH   1   2
ATOM      2  C   UNL     1      12.121  43.670 152.869  1.00  0.00     0.000 C 
BRANCH   2   3
ATOM      3  C   UNL     1      11.925  43.002 154.240  1.00  0.00     0.000 C 
BRANCH   3   4
ATOM      4  C   UNL     1      10.487  42.505 154.459  1.00  0.00     0.000 C 
BRANCH   4   5
ATOM      5  C   UNL     1      10.059  42.540 155.939  1.00  0.00     0.000 C 
BRANCH   5   6
ATOM      6  C   UNL     1       8.930  43.537 156.262  1.00  0.00     0.000 C 
BRANCH   6   7
ATOM      7  C   UNL     1       8.724  44.584 155.153  1.00  0.00     0.000 C 
BRANCH   7   8
ATOM      8  C   UNL     1       9.250  45.975 155.540  1.00  0.00     0.000 C 
BRANCH   8   9
ATOM      9  C   UNL     1      10.180  46.579 154.477  1.00  0.00     0.000 C 
BRANCH   9  10
ATOM     10  C   UNL     1      10.169  48.114 154.552  1.00  0.00     0.000 C 
BRANCH  10  11
ATOM     11  C   UNL     1       8.774  48.720 154.313  1.00  0.00     0.000 C 
BRANCH  11  12
ATOM     12  C   UNL     1       8.356  48.837 152.835  1.00  0.00     0.006 C 
BRANCH  12  13
ATOM     13  C   UNL     1       7.377  47.739 152.399  1.00  0.00     0.053 C 
BRANCH  13  14
ATOM     14  C   UNL     1       7.957  46.925 151.284  1.00  0.00     0.041 C 
ATOM     15  O   UNL     1       8.596  47.488 150.356  1.00  0.00    -0.550 OA
ATOM     16  O   UNL     1       7.799  45.544 151.273  1.00  0.00    -0.550 OA
ENDBRANCH  13  14
ENDBRANCH  12  13
ENDBRANCH  11  12
ENDBRANCH  10  11
ENDBRANCH   9  10
ENDBRANCH   8   9
ENDBRANCH   7   8
ENDBRANCH   6   7
ENDBRANCH   5   6
ENDBRANCH   4   5
ENDBRANCH   3   4
ENDBRANCH   2   3
ENDBRANCH   1   2
BRANCH   1  17
ATOM     17  C   UNL     1      10.886  43.071 150.710  1.00  0.00     0.000 C 
BRANCH  17  18
ATOM     18  C   UNL     1      12.249  42.400 150.474  1.00  0.00     0.000 C 
BRANCH  18  19
ATOM     19  C   UNL     1      12.138  40.874 150.328  1.00  0.00     0.000 C 
BRANCH  19  20
ATOM     20  C   UNL     1      11.624  40.198 151.609  1.00  0.00     0.000 C 
BRANCH  20  21
ATOM     21  C   UNL     1      10.283  39.474 151.394  1.00  0.00     0.000 C 
BRANCH  21  22
ATOM     22  C   UNL     1       9.128  40.107 152.193  1.00  0.00    -0.000 C 
BRANCH  22  23
ATOM     23  C   UNL     1       7.777  40.157 151.457  1.00  0.00    -0.000 C 
BRANCH  23  24
ATOM     24  C   UNL     1       7.207  41.582 151.350  1.00  0.00    -0.000 C 
BRANCH  24  25
ATOM     25  C   UNL     1       7.352  42.385 152.655  1.00  0.00    -0.000 C 
BRANCH  25  26
ATOM     26  C   UNL     1       6.396  41.975 153.796  1.00  0.00    -0.000 C 
BRANCH  26  27
ATOM     27  C   UNL     1       4.897  42.030 153.451  1.00  0.00    -0.000 C 
BRANCH  27  28
ATOM     28  C   UNL     1       4.232  40.644 153.448  1.00  0.00    -0.000 C 
BRANCH  28  29
ATOM     29  C   UNL     1       5.070  39.588 154.184  1.00  0.00    -0.003 C 
ATOM     30  C   UNL     1       4.216  38.607 154.987  1.00  0.00     0.004 C 
ENDBRANCH  28  29
ENDBRANCH  27  28
ENDBRANCH  26  27
ENDBRANCH  25  26
ENDBRANCH  24  25
ENDBRANCH  23  24
ENDBRANCH  22  23
ENDBRANCH  21  22
ENDBRANCH  20  21
ENDBRANCH  19  20
ENDBRANCH  18  19
ENDBRANCH  17  18
ENDBRANCH   1  17
TORSDOF 26
ENDMDL
MODEL 8
REMARK VINA RESULT:    -2.684      2.474      5.821
REMARK INTER + INTRA:         -12.664
REMARK INTER:                  -7.660
REMARK INTRA:                  -5.003
REMARK UNBOUND:                -5.901
REMARK SMILES CCCCCCCCCCCCCCCCCCCCCCCCCCCC(=O)[O-]
REMARK SMILES IDX 15 1 16 2 17 3 18 4 19 5 20 6 21 7 22 8 23 9 24 10 25 11
REMARK SMILES IDX 26 12 27 13 28 14 29 15 30 16 14 17 13 18 12 19 11 20 10 21
REMARK SMILES IDX 9 22 8 23 7 24 6 25 5 26 4 27 3 28 2 29 1 30
REMARK H PARENT
REMARK Flexibility Score: inf
ROOT
ATOM      1  C   UNL     1      11.646  40.617 151.873  1.00  0.00     0.000 C 
ENDROOT
BRANCH   1   2
ATOM      2  C   UNL     1      12.094  39.374 151.075  1.00  0.00     0.000 C 
BRANCH   2   3
ATOM      3  C   UNL     1      11.397  39.240 149.712  1.00  0.00     0.000 C 
BRANCH   3   4
ATOM      4  C   UNL     1      10.018  38.567 149.813  1.00  0.00     0.000 C 
BRANCH   4   5
ATOM      5  C   UNL     1       8.863  39.504 149.408  1.00  0.00     0.000 C 
BRANCH   5   6
ATOM      6  C   UNL     1       7.529  39.233 150.130  1.00  0.00     0.000 C 
BRANCH   6   7
ATOM      7  C   UNL     1       7.046  40.435 150.960  1.00  0.00     0.000 C 
BRANCH   7   8
ATOM      8  C   UNL     1       7.914  40.692 152.201  1.00  0.00     0.000 C 
BRANCH   8   9
ATOM      9  C   UNL     1       8.398  42.147 152.302  1.00  0.00     0.000 C 
BRANCH   9  10
ATOM     10  C   UNL     1       7.854  42.985 151.135  1.00  0.00     0.000 C 
BRANCH  10  11
ATOM     11  C   UNL     1       8.503  44.378 151.037  1.00  0.00     0.000 C 
BRANCH  11  12
ATOM     12  C   UNL     1       8.565  45.164 152.360  1.00  0.00     0.006 C 
BRANCH  12  13
ATOM     13  C   UNL     1       9.776  46.104 152.444  1.00  0.00     0.053 C 
BRANCH  13  14
ATOM     14  C   UNL     1       9.334  47.521 152.639  1.00  0.00     0.041 C 
ATOM     15  O   UNL     1       9.892  48.244 153.507  1.00  0.00    -0.550 OA
ATOM     16  O   UNL     1       8.311  48.047 151.858  1.00  0.00    -0.550 OA
ENDBRANCH  13  14
ENDBRANCH  12  13
ENDBRANCH  11  12
ENDBRANCH  10  11
ENDBRANCH   9  10
ENDBRANCH   8   9
ENDBRANCH   7   8
ENDBRANCH   6   7
ENDBRANCH   5   6
ENDBRANCH   4   5
ENDBRANCH   3   4
ENDBRANCH   2   3
ENDBRANCH   1   2
BRANCH   1  17
ATOM     17  C   UNL     1      11.996  41.929 151.151  1.00  0.00     0.000 C 
BRANCH  17  18
ATOM     18  C   UNL     1      12.028  43.137 152.101  1.00  0.00     0.000 C 
BRANCH  18  19
ATOM     19  C   UNL     1      12.141  42.722 153.577  1.00  0.00     0.000 C 
BRANCH  19  20
ATOM     20  C   UNL     1      11.054  43.366 154.453  1.00  0.00     0.000 C 
BRANCH  20  21
ATOM     21  C   UNL     1      10.389  42.354 155.403  1.00  0.00     0.000 C 
BRANCH  21  22
ATOM     22  C   UNL     1       9.379  43.011 156.363  1.00  0.00    -0.000 C 
BRANCH  22  23
ATOM     23  C   UNL     1       8.129  43.603 155.688  1.00  0.00    -0.000 C 
BRANCH  23  24
ATOM     24  C   UNL     1       6.957  43.797 156.666  1.00  0.00    -0.000 C 
BRANCH  24  25
ATOM     25  C   UNL     1       5.690  43.033 156.243  1.00  0.00    -0.000 C 
BRANCH  25  26
ATOM     26  C   UNL     1       5.858  42.090 155.032  1.00  0.00    -0.000 C 
BRANCH  26  27
ATOM     27  C   UNL     1       4.832  42.283 153.900  1.00  0.00    -0.000 C 
BRANCH  27  28
ATOM     28  C   UNL     1       4.067  40.992 153.560  1.00  0.00    -0.000 C 
BRANCH  28  29
ATOM     29  C   UNL     1       4.852  39.727 153.938  1.00  0.00    -0.003 C 
ATOM     30  C   UNL     1       4.081  38.813 154.890  1.00  0.00     0.004 C 
ENDBRANCH  28  29
ENDBRANCH  27  28
ENDBRANCH  26  27
ENDBRANCH  25  26
ENDBRANCH  24  25
ENDBRANCH  23  24
ENDBRANCH  22  23
ENDBRANCH  21  22
ENDBRANCH  20  21
ENDBRANCH  19  20
ENDBRANCH  18  19
ENDBRANCH  17  18
ENDBRANCH   1  17
TORSDOF 26
ENDMDL
MODEL 9
REMARK VINA RESULT:    -2.681      3.364      6.878
REMARK INTER + INTRA:         -12.656
REMARK INTER:                  -6.867
REMARK INTRA:                  -5.789
REMARK UNBOUND:                -5.901
REMARK SMILES CCCCCCCCCCCCCCCCCCCCCCCCCCCC(=O)[O-]
REMARK SMILES IDX 15 1 16 2 17 3 18 4 19 5 20 6 21 7 22 8 23 9 24 10 25 11
REMARK SMILES IDX 26 12 27 13 28 14 29 15 30 16 14 17 13 18 12 19 11 20 10 21
REMARK SMILES IDX 9 22 8 23 7 24 6 25 5 26 4 27 3 28 2 29 1 30
REMARK H PARENT
REMARK Flexibility Score: inf
ROOT
ATOM      1  C   UNL     1       7.848  43.828 156.204  1.00  0.00     0.000 C 
ENDROOT
BRANCH   1   2
ATOM      2  C   UNL     1       8.911  43.522 155.127  1.00  0.00     0.000 C 
BRANCH   2   3
ATOM      3  C   UNL     1       9.996  42.542 155.602  1.00  0.00     0.000 C 
BRANCH   3   4
ATOM      4  C   UNL     1      11.322  42.708 154.842  1.00  0.00     0.000 C 
BRANCH   4   5
ATOM      5  C   UNL     1      11.209  43.668 153.642  1.00  0.00     0.000 C 
BRANCH   5   6
ATOM      6  C   UNL     1      11.234  42.984 152.262  1.00  0.00     0.000 C 
BRANCH   6   7
ATOM      7  C   UNL     1      11.802  41.555 152.315  1.00  0.00     0.000 C 
BRANCH   7   8
ATOM      8  C   UNL     1      10.826  40.503 151.767  1.00  0.00     0.000 C 
BRANCH   8   9
ATOM      9  C   UNL     1       9.754  40.092 152.788  1.00  0.00     0.000 C 
BRANCH   9  10
ATOM     10  C   UNL     1       8.354  40.498 152.302  1.00  0.00     0.000 C 
BRANCH  10  11
ATOM     11  C   UNL     1       7.349  40.694 153.452  1.00  0.00     0.000 C 
BRANCH  11  12
ATOM     12  C   UNL     1       5.898  40.287 153.129  1.00  0.00     0.006 C 
BRANCH  12  13
ATOM     13  C   UNL     1       5.163  39.678 154.331  1.00  0.00     0.053 C 
BRANCH  13  14
ATOM     14  C   UNL     1       3.805  39.192 153.930  1.00  0.00     0.041 C 
ATOM     15  O   UNL     1       3.370  39.418 152.769  1.00  0.00    -0.550 OA
ATOM     16  O   UNL     1       3.022  38.485 154.834  1.00  0.00    -0.550 OA
ENDBRANCH  13  14
ENDBRANCH  12  13
ENDBRANCH  11  12
ENDBRANCH  10  11
ENDBRANCH   9  10
ENDBRANCH   8   9
ENDBRANCH   7   8
ENDBRANCH   6   7
ENDBRANCH   5   6
ENDBRANCH   4   5
ENDBRANCH   3   4
ENDBRANCH   2   3
ENDBRANCH   1   2
BRANCH   1  17
ATOM     17  C   UNL     1       7.557  45.333 156.323  1.00  0.00     0.000 C 
BRANCH  17  18
ATOM     18  C   UNL     1       8.793  46.144 156.743  1.00  0.00     0.000 C 
BRANCH  18  19
ATOM     19  C   UNL     1       9.068  47.329 155.803  1.00  0.00     0.000 C 
BRANCH  19  20
ATOM     20  C   UNL     1      10.197  47.035 154.802  1.00  0.00     0.000 C 
BRANCH  20  21
ATOM     21  C   UNL     1       9.755  47.238 153.341  1.00  0.00     0.000 C 
BRANCH  21  22
ATOM     22  C   UNL     1       8.244  47.507 153.207  1.00  0.00    -0.000 C 
BRANCH  22  23
ATOM     23  C   UNL     1       7.501  46.580 152.228  1.00  0.00    -0.000 C 
BRANCH  23  24
ATOM     24  C   UNL     1       8.268  45.277 151.940  1.00  0.00    -0.000 C 
BRANCH  24  25
ATOM     25  C   UNL     1       7.348  44.046 151.858  1.00  0.00    -0.000 C 
BRANCH  25  26
ATOM     26  C   UNL     1       5.942  44.306 151.275  1.00  0.00    -0.000 C 
BRANCH  26  27
ATOM     27  C   UNL     1       4.768  43.836 152.152  1.00  0.00    -0.000 C 
BRANCH  27  28
ATOM     28  C   UNL     1       5.111  43.820 153.651  1.00  0.00    -0.000 C 
BRANCH  28  29
ATOM     29  C   UNL     1       3.991  43.206 154.504  1.00  0.00    -0.003 C 
ATOM     30  C   UNL     1       4.209  43.407 156.003  1.00  0.00     0.004 C 
ENDBRANCH  28  29
ENDBRANCH  27  28
ENDBRANCH  26  27
ENDBRANCH  25  26
ENDBRANCH  24  25
ENDBRANCH  23  24
ENDBRANCH  22  23
ENDBRANCH  21  22
ENDBRANCH  20  21
ENDBRANCH  19  20
ENDBRANCH  18  19
ENDBRANCH  17  18
ENDBRANCH   1  17
TORSDOF 26
ENDMDL
