MODEL 1
REMARK VINA RESULT:    -4.310      0.000      0.000
REMARK INTER + INTRA:          -5.358
REMARK INTER:                  -5.066
REMARK INTRA:                  -0.292
REMARK UNBOUND:                -0.292
REMARK SMILES O=c1cc(-c2ccc(O)c(O)c2)oc2cc(O)cc(O)c12
REMARK SMILES IDX 4 1 3 2 2 3 1 4 21 5 19 6 18 7 16 8 15 9 14 10 13 11 5 12
REMARK SMILES IDX 6 13 7 14 8 15 12 16 10 17 9 18 11 20 20 22 17 24
REMARK H PARENT 9 19 11 21 20 23 17 25
REMARK Flexibility Score: inf
ROOT
ATOM      1  C   UNL     1     -21.140 -26.090   1.684  1.00  0.00     0.138 A 
ATOM      2  C   UNL     1     -21.228 -27.399   2.177  1.00  0.00     0.100 A 
ATOM      3  C   UNL     1     -21.470 -28.454   1.296  1.00  0.00     0.197 A 
ATOM      4  O   UNL     1     -21.598 -29.609   1.776  1.00  0.00    -0.289 OA
ATOM      5  C   UNL     1     -21.587 -28.199  -0.092  1.00  0.00     0.107 A 
ATOM      6  C   UNL     1     -21.800 -29.200  -1.088  1.00  0.00     0.134 A 
ATOM      7  C   UNL     1     -21.999 -28.815  -2.420  1.00  0.00     0.093 A 
ATOM      8  C   UNL     1     -21.937 -27.476  -2.802  1.00  0.00     0.123 A 
ATOM      9  C   UNL     1     -21.680 -26.494  -1.844  1.00  0.00     0.094 A 
ATOM     10  C   UNL     1     -21.511 -26.842  -0.502  1.00  0.00     0.146 A 
ATOM     11  O   UNL     1     -21.286 -25.873   0.381  1.00  0.00    -0.456 OA
ENDROOT
BRANCH   1  12
ATOM     12  C   UNL     1     -20.882 -24.931   2.575  1.00  0.00     0.021 A 
ATOM     13  C   UNL     1     -19.855 -25.012   3.532  1.00  0.00     0.016 A 
ATOM     14  C   UNL     1     -19.585 -23.934   4.378  1.00  0.00     0.051 A 
ATOM     15  C   UNL     1     -20.330 -22.753   4.278  1.00  0.00     0.157 A 
ATOM     16  C   UNL     1     -21.619 -23.735   2.471  1.00  0.00     0.062 A 
ATOM     17  C   UNL     1     -21.350 -22.654   3.317  1.00  0.00     0.158 A 
BRANCH  15  18
ATOM     18  O   UNL     1     -20.060 -21.679   5.125  1.00  0.00    -0.504 OA
ATOM     19  H   UNL     1     -19.190 -21.616   5.641  1.00  0.00     0.293 HD
ENDBRANCH  15  18
BRANCH  17  20
ATOM     20  O   UNL     1     -22.103 -21.487   3.184  1.00  0.00    -0.504 OA
ATOM     21  H   UNL     1     -21.763 -20.683   2.668  1.00  0.00     0.293 HD
ENDBRANCH  17  20
ENDBRANCH   1  12
BRANCH   6  22
ATOM     22  O   UNL     1     -21.802 -30.575  -0.830  1.00  0.00    -0.507 OA
ATOM     23  H   UNL     1     -21.524 -31.002   0.039  1.00  0.00     0.293 HD
ENDBRANCH   6  22
BRANCH   8  24
ATOM     24  O   UNL     1     -22.125 -27.133  -4.138  1.00  0.00    -0.508 OA
ATOM     25  H   UNL     1     -22.264 -27.838  -4.852  1.00  0.00     0.293 HD
ENDBRANCH   8  24
TORSDOF 5
ENDMDL
MODEL 2
REMARK VINA RESULT:    -4.278      1.250      2.749
REMARK INTER + INTRA:          -5.320
REMARK INTER:                  -5.036
REMARK INTRA:                  -0.285
REMARK UNBOUND:                -0.292
REMARK SMILES O=c1cc(-c2ccc(O)c(O)c2)oc2cc(O)cc(O)c12
REMARK SMILES IDX 4 1 3 2 2 3 1 4 21 5 19 6 18 7 16 8 15 9 14 10 13 11 5 12
REMARK SMILES IDX 6 13 7 14 8 15 12 16 10 17 9 18 11 20 20 22 17 24
REMARK H PARENT 9 19 11 21 20 23 17 25
REMARK Flexibility Score: inf
ROOT
ATOM      1  C   UNL     1     -21.083 -26.130   1.280  1.00  0.00     0.138 A 
ATOM      2  C   UNL     1     -21.367 -25.854  -0.066  1.00  0.00     0.100 A 
ATOM      3  C   UNL     1     -21.556 -26.908  -0.961  1.00  0.00     0.197 A 
ATOM      4  O   UNL     1     -21.755 -26.628  -2.171  1.00  0.00    -0.289 OA
ATOM      5  C   UNL     1     -21.495 -28.244  -0.498  1.00  0.00     0.107 A 
ATOM      6  C   UNL     1     -21.704 -29.398  -1.313  1.00  0.00     0.134 A 
ATOM      7  C   UNL     1     -21.520 -30.673  -0.763  1.00  0.00     0.093 A 
ATOM      8  C   UNL     1     -21.192 -30.839   0.581  1.00  0.00     0.123 A 
ATOM      9  C   UNL     1     -21.034 -29.719   1.399  1.00  0.00     0.094 A 
ATOM     10  C   UNL     1     -21.176 -28.433   0.873  1.00  0.00     0.146 A 
ATOM     11  O   UNL     1     -20.999 -27.393   1.682  1.00  0.00    -0.456 OA
ENDROOT
BRANCH   1  12
ATOM     12  C   UNL     1     -20.877 -25.048   2.276  1.00  0.00     0.021 A 
ATOM     13  C   UNL     1     -19.936 -25.228   3.305  1.00  0.00     0.016 A 
ATOM     14  C   UNL     1     -19.716 -24.223   4.250  1.00  0.00     0.051 A 
ATOM     15  C   UNL     1     -20.425 -23.018   4.179  1.00  0.00     0.157 A 
ATOM     16  C   UNL     1     -21.577 -23.828   2.202  1.00  0.00     0.062 A 
ATOM     17  C   UNL     1     -21.357 -22.820   3.148  1.00  0.00     0.158 A 
BRANCH  15  18
ATOM     18  O   UNL     1     -20.205 -22.018   5.125  1.00  0.00    -0.504 OA
ATOM     19  H   UNL     1     -20.803 -21.202   5.184  1.00  0.00     0.293 HD
ENDBRANCH  15  18
BRANCH  17  20
ATOM     20  O   UNL     1     -22.071 -21.626   3.042  1.00  0.00    -0.504 OA
ATOM     21  H   UNL     1     -22.412 -21.129   3.857  1.00  0.00     0.293 HD
ENDBRANCH  17  20
ENDBRANCH   1  12
BRANCH   6  22
ATOM     22  O   UNL     1     -22.112 -29.350  -2.650  1.00  0.00    -0.507 OA
ATOM     23  H   UNL     1     -23.021 -29.055  -2.967  1.00  0.00     0.293 HD
ENDBRANCH   6  22
BRANCH   8  24
ATOM     24  O   UNL     1     -21.031 -32.123   1.097  1.00  0.00    -0.508 OA
ATOM     25  H   UNL     1     -20.978 -32.290   2.095  1.00  0.00     0.293 HD
ENDBRANCH   8  24
TORSDOF 5
ENDMDL
MODEL 3
REMARK VINA RESULT:    -4.031      5.962      7.251
REMARK INTER + INTRA:          -5.029
REMARK INTER:                  -4.735
REMARK INTRA:                  -0.294
REMARK UNBOUND:                -0.292
REMARK SMILES O=c1cc(-c2ccc(O)c(O)c2)oc2cc(O)cc(O)c12
REMARK SMILES IDX 4 1 3 2 2 3 1 4 21 5 19 6 18 7 16 8 15 9 14 10 13 11 5 12
REMARK SMILES IDX 6 13 7 14 8 15 12 16 10 17 9 18 11 20 20 22 17 24
REMARK H PARENT 9 19 11 21 20 23 17 25
REMARK Flexibility Score: inf
ROOT
ATOM      1  C   UNL     1     -17.170 -30.630   1.821  1.00  0.00     0.138 A 
ATOM      2  C   UNL     1     -17.840 -30.731   3.049  1.00  0.00     0.100 A 
ATOM      3  C   UNL     1     -19.204 -31.025   3.069  1.00  0.00     0.197 A 
ATOM      4  O   UNL     1     -19.786 -31.054   4.183  1.00  0.00    -0.289 OA
ATOM      5  C   UNL     1     -19.892 -31.257   1.854  1.00  0.00     0.107 A 
ATOM      6  C   UNL     1     -21.275 -31.597   1.755  1.00  0.00     0.134 A 
ATOM      7  C   UNL     1     -21.869 -31.706   0.491  1.00  0.00     0.093 A 
ATOM      8  C   UNL     1     -21.122 -31.542  -0.675  1.00  0.00     0.123 A 
ATOM      9  C   UNL     1     -19.758 -31.258  -0.589  1.00  0.00     0.094 A 
ATOM     10  C   UNL     1     -19.143 -31.109   0.656  1.00  0.00     0.146 A 
ATOM     11  O   UNL     1     -17.847 -30.820   0.693  1.00  0.00    -0.456 OA
ENDROOT
BRANCH   1  12
ATOM     12  C   UNL     1     -15.720 -30.322   1.740  1.00  0.00     0.021 A 
ATOM     13  C   UNL     1     -15.172 -29.894   0.519  1.00  0.00     0.016 A 
ATOM     14  C   UNL     1     -13.812 -29.590   0.417  1.00  0.00     0.051 A 
ATOM     15  C   UNL     1     -12.978 -29.699   1.536  1.00  0.00     0.157 A 
ATOM     16  C   UNL     1     -14.877 -30.417   2.865  1.00  0.00     0.062 A 
ATOM     17  C   UNL     1     -13.515 -30.112   2.766  1.00  0.00     0.158 A 
BRANCH  15  18
ATOM     18  O   UNL     1     -11.622 -29.397   1.431  1.00  0.00    -0.504 OA
ATOM     19  H   UNL     1     -11.118 -29.509   0.558  1.00  0.00     0.293 HD
ENDBRANCH  15  18
BRANCH  17  20
ATOM     20  O   UNL     1     -12.713 -30.220   3.902  1.00  0.00    -0.504 OA
ATOM     21  H   UNL     1     -11.746 -29.916   3.909  1.00  0.00     0.293 HD
ENDBRANCH  17  20
ENDBRANCH   1  12
BRANCH   6  22
ATOM     22  O   UNL     1     -22.099 -31.862   2.854  1.00  0.00    -0.507 OA
ATOM     23  H   UNL     1     -22.549 -32.744   3.041  1.00  0.00     0.293 HD
ENDBRANCH   6  22
BRANCH   8  24
ATOM     24  O   UNL     1     -21.744 -31.671  -1.914  1.00  0.00    -0.508 OA
ATOM     25  H   UNL     1     -22.205 -30.887  -2.360  1.00  0.00     0.293 HD
ENDBRANCH   8  24
TORSDOF 5
ENDMDL
MODEL 4
REMARK VINA RESULT:    -3.908      5.110      7.810
REMARK INTER + INTRA:          -4.885
REMARK INTER:                  -4.622
REMARK INTRA:                  -0.263
REMARK UNBOUND:                -0.292
REMARK SMILES O=c1cc(-c2ccc(O)c(O)c2)oc2cc(O)cc(O)c12
REMARK SMILES IDX 4 1 3 2 2 3 1 4 21 5 19 6 18 7 16 8 15 9 14 10 13 11 5 12
REMARK SMILES IDX 6 13 7 14 8 15 12 16 10 17 9 18 11 20 20 22 17 24
REMARK H PARENT 9 19 11 21 20 23 17 25
REMARK Flexibility Score: inf
ROOT
ATOM      1  C   UNL     1     -17.415 -29.093   3.040  1.00  0.00     0.138 A 
ATOM      2  C   UNL     1     -18.666 -29.621   2.689  1.00  0.00     0.100 A 
ATOM      3  C   UNL     1     -19.815 -28.847   2.860  1.00  0.00     0.197 A 
ATOM      4  O   UNL     1     -20.926 -29.368   2.588  1.00  0.00    -0.289 OA
ATOM      5  C   UNL     1     -19.705 -27.523   3.350  1.00  0.00     0.107 A 
ATOM      6  C   UNL     1     -20.803 -26.630   3.533  1.00  0.00     0.134 A 
ATOM      7  C   UNL     1     -20.582 -25.376   4.119  1.00  0.00     0.093 A 
ATOM      8  C   UNL     1     -19.300 -24.962   4.475  1.00  0.00     0.123 A 
ATOM      9  C   UNL     1     -18.213 -25.808   4.255  1.00  0.00     0.094 A 
ATOM     10  C   UNL     1     -18.404 -27.078   3.704  1.00  0.00     0.146 A 
ATOM     11  O   UNL     1     -17.343 -27.859   3.528  1.00  0.00    -0.456 OA
ENDROOT
BRANCH   1  12
ATOM     12  C   UNL     1     -16.161 -29.871   2.877  1.00  0.00     0.021 A 
ATOM     13  C   UNL     1     -15.565 -30.463   4.004  1.00  0.00     0.016 A 
ATOM     14  C   UNL     1     -14.390 -31.207   3.878  1.00  0.00     0.051 A 
ATOM     15  C   UNL     1     -13.794 -31.381   2.623  1.00  0.00     0.157 A 
ATOM     16  C   UNL     1     -15.564 -30.061   1.616  1.00  0.00     0.062 A 
ATOM     17  C   UNL     1     -14.387 -30.807   1.487  1.00  0.00     0.158 A 
BRANCH  15  18
ATOM     18  O   UNL     1     -12.620 -32.122   2.501  1.00  0.00    -0.504 OA
ATOM     19  H   UNL     1     -12.152 -32.513   3.311  1.00  0.00     0.293 HD
ENDBRANCH  15  18
BRANCH  17  20
ATOM     20  O   UNL     1     -13.826 -30.971   0.221  1.00  0.00    -0.504 OA
ATOM     21  H   UNL     1     -13.023 -30.433  -0.086  1.00  0.00     0.293 HD
ENDBRANCH  17  20
ENDBRANCH   1  12
BRANCH   6  22
ATOM     22  O   UNL     1     -22.116 -26.909   3.140  1.00  0.00    -0.507 OA
ATOM     23  H   UNL     1     -22.505 -26.702   2.233  1.00  0.00     0.293 HD
ENDBRANCH   6  22
BRANCH   8  24
ATOM     24  O   UNL     1     -19.117 -23.703   5.042  1.00  0.00    -0.508 OA
ATOM     25  H   UNL     1     -19.892 -23.180   5.434  1.00  0.00     0.293 HD
ENDBRANCH   8  24
TORSDOF 5
ENDMDL
MODEL 5
REMARK VINA RESULT:    -3.855      2.897      4.403
REMARK INTER + INTRA:          -4.823
REMARK INTER:                  -4.542
REMARK INTRA:                  -0.281
REMARK UNBOUND:                -0.292
REMARK SMILES O=c1cc(-c2ccc(O)c(O)c2)oc2cc(O)cc(O)c12
REMARK SMILES IDX 4 1 3 2 2 3 1 4 21 5 19 6 18 7 16 8 15 9 14 10 13 11 5 12
REMARK SMILES IDX 6 13 7 14 8 15 12 16 10 17 9 18 11 20 20 22 17 24
REMARK H PARENT 9 19 11 21 20 23 17 25
REMARK Flexibility Score: inf
ROOT
ATOM      1  C   UNL     1     -20.146 -26.598   3.084  1.00  0.00     0.138 A 
ATOM      2  C   UNL     1     -21.030 -27.447   2.401  1.00  0.00     0.100 A 
ATOM      3  C   UNL     1     -20.671 -28.776   2.170  1.00  0.00     0.197 A 
ATOM      4  O   UNL     1     -21.461 -29.496   1.507  1.00  0.00    -0.289 OA
ATOM      5  C   UNL     1     -19.436 -29.266   2.657  1.00  0.00     0.107 A 
ATOM      6  C   UNL     1     -18.980 -30.611   2.511  1.00  0.00     0.134 A 
ATOM      7  C   UNL     1     -17.695 -30.955   2.950  1.00  0.00     0.093 A 
ATOM      8  C   UNL     1     -16.873 -30.021   3.580  1.00  0.00     0.123 A 
ATOM      9  C   UNL     1     -17.329 -28.716   3.772  1.00  0.00     0.094 A 
ATOM     10  C   UNL     1     -18.592 -28.333   3.315  1.00  0.00     0.146 A 
ATOM     11  O   UNL     1     -18.979 -27.075   3.503  1.00  0.00    -0.456 OA
ENDROOT
BRANCH   1  12
ATOM     12  C   UNL     1     -20.478 -25.178   3.359  1.00  0.00     0.021 A 
ATOM     13  C   UNL     1     -20.141 -24.619   4.604  1.00  0.00     0.016 A 
ATOM     14  C   UNL     1     -20.434 -23.283   4.887  1.00  0.00     0.051 A 
ATOM     15  C   UNL     1     -21.061 -22.479   3.928  1.00  0.00     0.157 A 
ATOM     16  C   UNL     1     -21.097 -24.359   2.394  1.00  0.00     0.062 A 
ATOM     17  C   UNL     1     -21.391 -23.020   2.675  1.00  0.00     0.158 A 
BRANCH  15  18
ATOM     18  O   UNL     1     -21.354 -21.147   4.214  1.00  0.00    -0.504 OA
ATOM     19  H   UNL     1     -21.192 -20.753   5.134  1.00  0.00     0.293 HD
ENDBRANCH  15  18
BRANCH  17  20
ATOM     20  O   UNL     1     -22.005 -22.242   1.693  1.00  0.00    -0.504 OA
ATOM     21  H   UNL     1     -22.277 -21.280   1.862  1.00  0.00     0.293 HD
ENDBRANCH  17  20
ENDBRANCH   1  12
BRANCH   6  22
ATOM     22  O   UNL     1     -19.749 -31.646   1.968  1.00  0.00    -0.507 OA
ATOM     23  H   UNL     1     -19.600 -32.628   2.137  1.00  0.00     0.293 HD
ENDBRANCH   6  22
BRANCH   8  24
ATOM     24  O   UNL     1     -15.607 -30.403   4.016  1.00  0.00    -0.508 OA
ATOM     25  H   UNL     1     -15.122 -29.894   4.746  1.00  0.00     0.293 HD
ENDBRANCH   8  24
TORSDOF 5
ENDMDL
MODEL 6
REMARK VINA RESULT:    -3.855      5.384      7.797
REMARK INTER + INTRA:          -4.823
REMARK INTER:                  -4.559
REMARK INTRA:                  -0.264
REMARK UNBOUND:                -0.292
REMARK SMILES O=c1cc(-c2ccc(O)c(O)c2)oc2cc(O)cc(O)c12
REMARK SMILES IDX 4 1 3 2 2 3 1 4 21 5 19 6 18 7 16 8 15 9 14 10 13 11 5 12
REMARK SMILES IDX 6 13 7 14 8 15 12 16 10 17 9 18 11 20 20 22 17 24
REMARK H PARENT 9 19 11 21 20 23 17 25
REMARK Flexibility Score: inf
ROOT
ATOM      1  C   UNL     1     -17.179 -29.182   2.900  1.00  0.00     0.138 A 
ATOM      2  C   UNL     1     -18.194 -30.140   3.034  1.00  0.00     0.100 A 
ATOM      3  C   UNL     1     -19.450 -29.754   3.504  1.00  0.00     0.197 A 
ATOM      4  O   UNL     1     -20.321 -30.646   3.665  1.00  0.00    -0.289 OA
ATOM      5  C   UNL     1     -19.701 -28.395   3.807  1.00  0.00     0.107 A 
ATOM      6  C   UNL     1     -20.952 -27.880   4.261  1.00  0.00     0.134 A 
ATOM      7  C   UNL     1     -21.052 -26.530   4.623  1.00  0.00     0.093 A 
ATOM      8  C   UNL     1     -19.966 -25.666   4.495  1.00  0.00     0.123 A 
ATOM      9  C   UNL     1     -18.752 -26.148   4.004  1.00  0.00     0.094 A 
ATOM     10  C   UNL     1     -18.610 -27.496   3.667  1.00  0.00     0.146 A 
ATOM     11  O   UNL     1     -17.431 -27.917   3.221  1.00  0.00    -0.456 OA
ENDROOT
BRANCH   1  12
ATOM     12  C   UNL     1     -15.825 -29.536   2.402  1.00  0.00     0.021 A 
ATOM     13  C   UNL     1     -15.434 -29.125   1.116  1.00  0.00     0.016 A 
ATOM     14  C   UNL     1     -14.164 -29.438   0.625  1.00  0.00     0.051 A 
ATOM     15  C   UNL     1     -13.260 -30.159   1.413  1.00  0.00     0.157 A 
ATOM     16  C   UNL     1     -14.906 -30.250   3.195  1.00  0.00     0.062 A 
ATOM     17  C   UNL     1     -13.633 -30.564   2.706  1.00  0.00     0.158 A 
BRANCH  15  18
ATOM     18  O   UNL     1     -11.994 -30.471   0.921  1.00  0.00    -0.504 OA
ATOM     19  H   UNL     1     -11.688 -30.158   0.007  1.00  0.00     0.293 HD
ENDBRANCH  15  18
BRANCH  17  20
ATOM     20  O   UNL     1     -12.751 -31.273   3.521  1.00  0.00    -0.504 OA
ATOM     21  H   UNL     1     -12.469 -32.224   3.310  1.00  0.00     0.293 HD
ENDBRANCH  17  20
ENDBRANCH   1  12
BRANCH   6  22
ATOM     22  O   UNL     1     -22.125 -28.636   4.353  1.00  0.00    -0.507 OA
ATOM     23  H   UNL     1     -22.164 -29.621   4.562  1.00  0.00     0.293 HD
ENDBRANCH   6  22
BRANCH   8  24
ATOM     24  O   UNL     1     -20.107 -24.327   4.851  1.00  0.00    -0.508 OA
ATOM     25  H   UNL     1     -20.953 -23.809   4.644  1.00  0.00     0.293 HD
ENDBRANCH   8  24
TORSDOF 5
ENDMDL
MODEL 7
REMARK VINA RESULT:    -3.771      2.637      3.548
REMARK INTER + INTRA:          -4.724
REMARK INTER:                  -4.418
REMARK INTRA:                  -0.306
REMARK UNBOUND:                -0.292
REMARK SMILES O=c1cc(-c2ccc(O)c(O)c2)oc2cc(O)cc(O)c12
REMARK SMILES IDX 4 1 3 2 2 3 1 4 21 5 19 6 18 7 16 8 15 9 14 10 13 11 5 12
REMARK SMILES IDX 6 13 7 14 8 15 12 16 10 17 9 18 11 20 20 22 17 24
REMARK H PARENT 9 19 11 21 20 23 17 25
REMARK Flexibility Score: inf
ROOT
ATOM      1  C   UNL     1     -19.835 -26.365   3.336  1.00  0.00     0.138 A 
ATOM      2  C   UNL     1     -18.646 -26.892   3.861  1.00  0.00     0.100 A 
ATOM      3  C   UNL     1     -18.314 -28.225   3.615  1.00  0.00     0.197 A 
ATOM      4  O   UNL     1     -17.269 -28.682   4.145  1.00  0.00    -0.289 OA
ATOM      5  C   UNL     1     -19.158 -29.023   2.807  1.00  0.00     0.107 A 
ATOM      6  C   UNL     1     -18.904 -30.384   2.460  1.00  0.00     0.134 A 
ATOM      7  C   UNL     1     -19.863 -31.102   1.735  1.00  0.00     0.093 A 
ATOM      8  C   UNL     1     -21.039 -30.496   1.296  1.00  0.00     0.123 A 
ATOM      9  C   UNL     1     -21.275 -29.152   1.587  1.00  0.00     0.094 A 
ATOM     10  C   UNL     1     -20.354 -28.418   2.337  1.00  0.00     0.146 A 
ATOM     11  O   UNL     1     -20.627 -27.145   2.607  1.00  0.00    -0.456 OA
ENDROOT
BRANCH   1  12
ATOM     12  C   UNL     1     -20.237 -24.954   3.564  1.00  0.00     0.021 A 
ATOM     13  C   UNL     1     -19.816 -24.298   4.734  1.00  0.00     0.016 A 
ATOM     14  C   UNL     1     -20.172 -22.968   4.971  1.00  0.00     0.051 A 
ATOM     15  C   UNL     1     -20.948 -22.267   4.039  1.00  0.00     0.157 A 
ATOM     16  C   UNL     1     -21.005 -24.239   2.625  1.00  0.00     0.062 A 
ATOM     17  C   UNL     1     -21.362 -22.907   2.859  1.00  0.00     0.158 A 
BRANCH  15  18
ATOM     18  O   UNL     1     -21.303 -20.942   4.278  1.00  0.00    -0.504 OA
ATOM     19  H   UNL     1     -20.740 -20.339   4.867  1.00  0.00     0.293 HD
ENDBRANCH  15  18
BRANCH  17  20
ATOM     20  O   UNL     1     -22.125 -22.233   1.905  1.00  0.00    -0.504 OA
ATOM     21  H   UNL     1     -22.068 -21.228   1.782  1.00  0.00     0.293 HD
ENDBRANCH  17  20
ENDBRANCH   1  12
BRANCH   6  22
ATOM     22  O   UNL     1     -17.726 -31.068   2.779  1.00  0.00    -0.507 OA
ATOM     23  H   UNL     1     -17.599 -31.657   3.586  1.00  0.00     0.293 HD
ENDBRANCH   6  22
BRANCH   8  24
ATOM     24  O   UNL     1     -21.964 -31.238   0.565  1.00  0.00    -0.508 OA
ATOM     25  H   UNL     1     -22.199 -32.190   0.818  1.00  0.00     0.293 HD
ENDBRANCH   8  24
TORSDOF 5
ENDMDL
MODEL 8
REMARK VINA RESULT:    -3.751      5.672      7.639
REMARK INTER + INTRA:          -4.700
REMARK INTER:                  -4.425
REMARK INTRA:                  -0.276
REMARK UNBOUND:                -0.292
REMARK SMILES O=c1cc(-c2ccc(O)c(O)c2)oc2cc(O)cc(O)c12
REMARK SMILES IDX 4 1 3 2 2 3 1 4 21 5 19 6 18 7 16 8 15 9 14 10 13 11 5 12
REMARK SMILES IDX 6 13 7 14 8 15 12 16 10 17 9 18 11 20 20 22 17 24
REMARK H PARENT 9 19 11 21 20 23 17 25
REMARK Flexibility Score: inf
ROOT
ATOM      1  C   UNL     1     -17.012 -30.087   2.078  1.00  0.00     0.138 A 
ATOM      2  C   UNL     1     -17.759 -31.076   1.422  1.00  0.00     0.100 A 
ATOM      3  C   UNL     1     -19.140 -31.138   1.614  1.00  0.00     0.197 A 
ATOM      4  O   UNL     1     -19.774 -32.069   1.055  1.00  0.00    -0.289 OA
ATOM      5  C   UNL     1     -19.780 -30.182   2.439  1.00  0.00     0.107 A 
ATOM      6  C   UNL     1     -21.186 -30.127   2.681  1.00  0.00     0.134 A 
ATOM      7  C   UNL     1     -21.692 -29.194   3.595  1.00  0.00     0.093 A 
ATOM      8  C   UNL     1     -20.855 -28.279   4.232  1.00  0.00     0.123 A 
ATOM      9  C   UNL     1     -19.485 -28.292   3.965  1.00  0.00     0.094 A 
ATOM     10  C   UNL     1     -18.945 -29.232   3.084  1.00  0.00     0.146 A 
ATOM     11  O   UNL     1     -17.632 -29.221   2.873  1.00  0.00    -0.456 OA
ENDROOT
BRANCH   1  12
ATOM     12  C   UNL     1     -15.541 -29.973   1.908  1.00  0.00     0.021 A 
ATOM     13  C   UNL     1     -15.014 -29.688   0.637  1.00  0.00     0.016 A 
ATOM     14  C   UNL     1     -13.635 -29.568   0.450  1.00  0.00     0.051 A 
ATOM     15  C   UNL     1     -12.759 -29.721   1.531  1.00  0.00     0.157 A 
ATOM     16  C   UNL     1     -14.655 -30.112   2.994  1.00  0.00     0.062 A 
ATOM     17  C   UNL     1     -13.274 -29.991   2.810  1.00  0.00     0.158 A 
BRANCH  15  18
ATOM     18  O   UNL     1     -11.383 -29.602   1.341  1.00  0.00    -0.504 OA
ATOM     19  H   UNL     1     -10.922 -30.003   0.533  1.00  0.00     0.293 HD
ENDBRANCH  15  18
BRANCH  17  20
ATOM     20  O   UNL     1     -12.429 -30.137   3.910  1.00  0.00    -0.504 OA
ATOM     21  H   UNL     1     -11.797 -29.401   4.205  1.00  0.00     0.293 HD
ENDBRANCH  17  20
ENDBRANCH   1  12
BRANCH   6  22
ATOM     22  O   UNL     1     -22.125 -30.940   2.038  1.00  0.00    -0.507 OA
ATOM     23  H   UNL     1     -22.114 -31.175   1.058  1.00  0.00     0.293 HD
ENDBRANCH   6  22
BRANCH   8  24
ATOM     24  O   UNL     1     -21.396 -27.357   5.124  1.00  0.00    -0.508 OA
ATOM     25  H   UNL     1     -22.290 -27.516   5.574  1.00  0.00     0.293 HD
ENDBRANCH   8  24
TORSDOF 5
ENDMDL
MODEL 9
REMARK VINA RESULT:    -3.736      6.128      8.756
REMARK INTER + INTRA:          -4.683
REMARK INTER:                  -4.370
REMARK INTRA:                  -0.312
REMARK UNBOUND:                -0.292
REMARK SMILES O=c1cc(-c2ccc(O)c(O)c2)oc2cc(O)cc(O)c12
REMARK SMILES IDX 4 1 3 2 2 3 1 4 21 5 19 6 18 7 16 8 15 9 14 10 13 11 5 12
REMARK SMILES IDX 6 13 7 14 8 15 12 16 10 17 9 18 11 20 20 22 17 24
REMARK H PARENT 9 19 11 21 20 23 17 25
REMARK Flexibility Score: inf
ROOT
ATOM      1  C   UNL     1     -17.513 -30.965   1.367  1.00  0.00     0.138 A 
ATOM      2  C   UNL     1     -17.576 -31.326   2.720  1.00  0.00     0.100 A 
ATOM      3  C   UNL     1     -16.431 -31.235   3.513  1.00  0.00     0.197 A 
ATOM      4  O   UNL     1     -16.506 -31.618   4.708  1.00  0.00    -0.289 OA
ATOM      5  C   UNL     1     -15.226 -30.745   2.954  1.00  0.00     0.107 A 
ATOM      6  C   UNL     1     -14.005 -30.577   3.674  1.00  0.00     0.134 A 
ATOM      7  C   UNL     1     -12.850 -30.177   2.990  1.00  0.00     0.093 A 
ATOM      8  C   UNL     1     -12.883 -29.884   1.628  1.00  0.00     0.123 A 
ATOM      9  C   UNL     1     -14.083 -29.998   0.924  1.00  0.00     0.094 A 
ATOM     10  C   UNL     1     -15.245 -30.427   1.570  1.00  0.00     0.146 A 
ATOM     11  O   UNL     1     -16.362 -30.539   0.859  1.00  0.00    -0.456 OA
ENDROOT
BRANCH   1  12
ATOM     12  C   UNL     1     -18.702 -31.040   0.479  1.00  0.00     0.021 A 
ATOM     13  C   UNL     1     -19.797 -31.834   0.858  1.00  0.00     0.016 A 
ATOM     14  C   UNL     1     -20.931 -31.916   0.046  1.00  0.00     0.051 A 
ATOM     15  C   UNL     1     -20.994 -31.199  -1.155  1.00  0.00     0.157 A 
ATOM     16  C   UNL     1     -18.776 -30.311  -0.723  1.00  0.00     0.062 A 
ATOM     17  C   UNL     1     -19.911 -30.390  -1.538  1.00  0.00     0.158 A 
BRANCH  15  18
ATOM     18  O   UNL     1     -22.125 -31.284  -1.964  1.00  0.00    -0.504 OA
ATOM     19  H   UNL     1     -22.493 -32.177  -2.270  1.00  0.00     0.293 HD
ENDBRANCH  15  18
BRANCH  17  20
ATOM     20  O   UNL     1     -19.947 -29.654  -2.722  1.00  0.00    -0.504 OA
ATOM     21  H   UNL     1     -19.300 -29.826  -3.483  1.00  0.00     0.293 HD
ENDBRANCH  17  20
ENDBRANCH   1  12
BRANCH   6  22
ATOM     22  O   UNL     1     -13.876 -30.765   5.054  1.00  0.00    -0.507 OA
ATOM     23  H   UNL     1     -13.051 -30.551   5.593  1.00  0.00     0.293 HD
ENDBRANCH   6  22
BRANCH   8  24
ATOM     24  O   UNL     1     -11.718 -29.475   0.983  1.00  0.00    -0.508 OA
ATOM     25  H   UNL     1     -11.010 -30.140   0.697  1.00  0.00     0.293 HD
ENDBRANCH   8  24
TORSDOF 5
ENDMDL
