MODEL 1
REMARK VINA RESULT:    -2.810      0.000      0.000
REMARK INTER + INTRA:         -10.844
REMARK INTER:                  -6.424
REMARK INTRA:                  -4.420
REMARK UNBOUND:                -4.420
REMARK SMILES CCCCCCCCCCCCCCCCCCCCCCCC(=O)[O-]
REMARK SMILES IDX 13 1 14 2 15 3 16 4 17 5 18 6 19 7 20 8 21 9 22 10 23 11
REMARK SMILES IDX 24 12 25 13 26 14 12 15 11 16 10 17 9 18 8 19 7 20 6 21 5 22
REMARK SMILES IDX 4 23 3 24 2 25 1 26
REMARK H PARENT
REMARK Flexibility Score: inf
ROOT
ATOM      1  C   UNL     1    -108.999 -48.633 -58.664  1.00  0.00     0.000 C 
ENDROOT
BRANCH   1   2
ATOM      2  C   UNL     1    -110.396 -48.041 -58.406  1.00  0.00     0.000 C 
BRANCH   2   3
ATOM      3  C   UNL     1    -110.358 -46.529 -58.129  1.00  0.00     0.000 C 
BRANCH   3   4
ATOM      4  C   UNL     1    -111.081 -45.709 -59.213  1.00  0.00     0.000 C 
BRANCH   4   5
ATOM      5  C   UNL     1    -110.112 -44.860 -60.052  1.00  0.00     0.000 C 
BRANCH   5   6
ATOM      6  C   UNL     1    -109.370 -45.688 -61.119  1.00  0.00     0.000 C 
BRANCH   6   7
ATOM      7  C   UNL     1    -110.329 -46.345 -62.124  1.00  0.00     0.000 C 
BRANCH   7   8
ATOM      8  C   UNL     1    -110.181 -47.877 -62.163  1.00  0.00     0.000 C 
BRANCH   8   9
ATOM      9  C   UNL     1    -108.976 -48.330 -63.001  1.00  0.00     0.000 C 
BRANCH   9  10
ATOM     10  C   UNL     1    -107.924 -49.080 -62.163  1.00  0.00     0.006 C 
BRANCH  10  11
ATOM     11  C   UNL     1    -108.107 -50.602 -62.233  1.00  0.00     0.053 C 
BRANCH  11  12
ATOM     12  C   UNL     1    -107.796 -51.136 -63.597  1.00  0.00     0.041 C 
ATOM     13  O   UNL     1    -108.719 -51.580 -64.330  1.00  0.00    -0.550 OA
ATOM     14  O   UNL     1    -106.491 -51.112 -64.073  1.00  0.00    -0.550 OA
ENDBRANCH  11  12
ENDBRANCH  10  11
ENDBRANCH   9  10
ENDBRANCH   8   9
ENDBRANCH   7   8
ENDBRANCH   6   7
ENDBRANCH   5   6
ENDBRANCH   4   5
ENDBRANCH   3   4
ENDBRANCH   2   3
ENDBRANCH   1   2
BRANCH   1  15
ATOM     15  C   UNL     1    -107.871 -47.628 -58.383  1.00  0.00     0.000 C 
BRANCH  15  16
ATOM     16  C   UNL     1    -107.065 -47.973 -57.119  1.00  0.00     0.000 C 
BRANCH  16  17
ATOM     17  C   UNL     1    -107.417 -47.046 -55.935  1.00  0.00     0.000 C 
BRANCH  17  18
ATOM     18  C   UNL     1    -108.351 -47.695 -54.899  1.00  0.00    -0.000 C 
BRANCH  18  19
ATOM     19  C   UNL     1    -108.293 -49.231 -54.921  1.00  0.00    -0.000 C 
BRANCH  19  20
ATOM     20  C   UNL     1    -109.657 -49.868 -55.234  1.00  0.00    -0.000 C 
BRANCH  20  21
ATOM     21  C   UNL     1    -109.527 -51.273 -55.848  1.00  0.00    -0.000 C 
BRANCH  21  22
ATOM     22  C   UNL     1    -108.238 -51.444 -56.664  1.00  0.00    -0.000 C 
BRANCH  22  23
ATOM     23  C   UNL     1    -108.259 -52.704 -57.548  1.00  0.00    -0.000 C 
BRANCH  23  24
ATOM     24  C   UNL     1    -108.699 -52.392 -58.995  1.00  0.00    -0.000 C 
BRANCH  24  25
ATOM     25  C   UNL     1    -110.187 -52.678 -59.260  1.00  0.00    -0.003 C 
ATOM     26  C   UNL     1    -110.929 -51.485 -59.859  1.00  0.00     0.004 C 
ENDBRANCH  24  25
ENDBRANCH  23  24
ENDBRANCH  22  23
ENDBRANCH  21  22
ENDBRANCH  20  21
ENDBRANCH  19  20
ENDBRANCH  18  19
ENDBRANCH  17  18
ENDBRANCH  16  17
ENDBRANCH  15  16
ENDBRANCH   1  15
TORSDOF 22
ENDMDL
MODEL 2
REMARK VINA RESULT:    -2.754      1.247      2.564
REMARK INTER + INTRA:         -10.716
REMARK INTER:                  -6.452
REMARK INTRA:                  -4.264
REMARK UNBOUND:                -4.420
REMARK SMILES CCCCCCCCCCCCCCCCCCCCCCCC(=O)[O-]
REMARK SMILES IDX 13 1 14 2 15 3 16 4 17 5 18 6 19 7 20 8 21 9 22 10 23 11
REMARK SMILES IDX 24 12 25 13 26 14 12 15 11 16 10 17 9 18 8 19 7 20 6 21 5 22
REMARK SMILES IDX 4 23 3 24 2 25 1 26
REMARK H PARENT
REMARK Flexibility Score: inf
ROOT
ATOM      1  C   UNL     1    -109.588 -45.441 -55.430  1.00  0.00     0.000 C 
ENDROOT
BRANCH   1   2
ATOM      2  C   UNL     1    -111.003 -45.895 -55.830  1.00  0.00     0.000 C 
BRANCH   2   3
ATOM      3  C   UNL     1    -111.349 -45.550 -57.288  1.00  0.00     0.000 C 
BRANCH   3   4
ATOM      4  C   UNL     1    -110.191 -44.853 -58.024  1.00  0.00     0.000 C 
BRANCH   4   5
ATOM      5  C   UNL     1    -110.557 -44.470 -59.467  1.00  0.00     0.000 C 
BRANCH   5   6
ATOM      6  C   UNL     1    -109.602 -45.089 -60.505  1.00  0.00     0.000 C 
BRANCH   6   7
ATOM      7  C   UNL     1    -110.336 -45.568 -61.767  1.00  0.00     0.000 C 
BRANCH   7   8
ATOM      8  C   UNL     1    -110.382 -47.103 -61.874  1.00  0.00     0.000 C 
BRANCH   8   9
ATOM      9  C   UNL     1    -109.103 -47.688 -62.491  1.00  0.00     0.000 C 
BRANCH   9  10
ATOM     10  C   UNL     1    -109.185 -49.214 -62.680  1.00  0.00     0.006 C 
BRANCH  10  11
ATOM     11  C   UNL     1    -107.818 -49.891 -62.514  1.00  0.00     0.053 C 
BRANCH  11  12
ATOM     12  C   UNL     1    -107.288 -50.398 -63.820  1.00  0.00     0.041 C 
ATOM     13  O   UNL     1    -107.123 -49.607 -64.787  1.00  0.00    -0.550 OA
ATOM     14  O   UNL     1    -106.943 -51.737 -63.960  1.00  0.00    -0.550 OA
ENDBRANCH  11  12
ENDBRANCH  10  11
ENDBRANCH   9  10
ENDBRANCH   8   9
ENDBRANCH   7   8
ENDBRANCH   6   7
ENDBRANCH   5   6
ENDBRANCH   4   5
ENDBRANCH   3   4
ENDBRANCH   2   3
ENDBRANCH   1   2
BRANCH   1  15
ATOM     15  C   UNL     1    -108.782 -46.559 -54.750  1.00  0.00     0.000 C 
BRANCH  15  16
ATOM     16  C   UNL     1    -107.451 -46.854 -55.463  1.00  0.00     0.000 C 
BRANCH  16  17
ATOM     17  C   UNL     1    -107.566 -48.043 -56.441  1.00  0.00     0.000 C 
BRANCH  17  18
ATOM     18  C   UNL     1    -107.431 -47.644 -57.919  1.00  0.00    -0.000 C 
BRANCH  18  19
ATOM     19  C   UNL     1    -108.607 -48.134 -58.781  1.00  0.00    -0.000 C 
BRANCH  19  20
ATOM     20  C   UNL     1    -109.758 -48.707 -57.937  1.00  0.00    -0.000 C 
BRANCH  20  21
ATOM     21  C   UNL     1    -111.042 -48.923 -58.756  1.00  0.00    -0.000 C 
BRANCH  21  22
ATOM     22  C   UNL     1    -110.967 -50.167 -59.655  1.00  0.00    -0.000 C 
BRANCH  22  23
ATOM     23  C   UNL     1    -110.448 -51.408 -58.907  1.00  0.00    -0.000 C 
BRANCH  23  24
ATOM     24  C   UNL     1    -109.145 -51.958 -59.525  1.00  0.00    -0.000 C 
BRANCH  24  25
ATOM     25  C   UNL     1    -108.247 -52.692 -58.515  1.00  0.00    -0.003 C 
ATOM     26  C   UNL     1    -108.080 -51.932 -57.200  1.00  0.00     0.004 C 
ENDBRANCH  24  25
ENDBRANCH  23  24
ENDBRANCH  22  23
ENDBRANCH  21  22
ENDBRANCH  20  21
ENDBRANCH  19  20
ENDBRANCH  18  19
ENDBRANCH  17  18
ENDBRANCH  16  17
ENDBRANCH  15  16
ENDBRANCH   1  15
TORSDOF 22
ENDMDL
MODEL 3
REMARK VINA RESULT:    -2.745     13.522     16.466
REMARK INTER + INTRA:         -10.695
REMARK INTER:                  -8.334
REMARK INTRA:                  -2.361
REMARK UNBOUND:                -4.420
REMARK SMILES CCCCCCCCCCCCCCCCCCCCCCCC(=O)[O-]
REMARK SMILES IDX 13 1 14 2 15 3 16 4 17 5 18 6 19 7 20 8 21 9 22 10 23 11
REMARK SMILES IDX 24 12 25 13 26 14 12 15 11 16 10 17 9 18 8 19 7 20 6 21 5 22
REMARK SMILES IDX 4 23 3 24 2 25 1 26
REMARK H PARENT
REMARK Flexibility Score: inf
ROOT
ATOM      1  C   UNL     1     -98.859 -48.032 -71.885  1.00  0.00     0.000 C 
ENDROOT
BRANCH   1   2
ATOM      2  C   UNL     1     -99.174 -47.576 -73.320  1.00  0.00     0.000 C 
BRANCH   2   3
ATOM      3  C   UNL     1    -100.678 -47.610 -73.639  1.00  0.00     0.000 C 
BRANCH   3   4
ATOM      4  C   UNL     1    -101.548 -47.186 -72.443  1.00  0.00     0.000 C 
BRANCH   4   5
ATOM      5  C   UNL     1    -102.885 -47.942 -72.391  1.00  0.00     0.000 C 
BRANCH   5   6
ATOM      6  C   UNL     1    -103.192 -48.695 -73.699  1.00  0.00     0.000 C 
BRANCH   6   7
ATOM      7  C   UNL     1    -104.291 -49.755 -73.524  1.00  0.00     0.000 C 
BRANCH   7   8
ATOM      8  C   UNL     1    -104.600 -50.043 -72.044  1.00  0.00     0.000 C 
BRANCH   8   9
ATOM      9  C   UNL     1    -106.026 -50.575 -71.834  1.00  0.00     0.000 C 
BRANCH   9  10
ATOM     10  C   UNL     1    -106.125 -52.097 -72.047  1.00  0.00     0.006 C 
BRANCH  10  11
ATOM     11  C   UNL     1    -104.854 -52.828 -71.595  1.00  0.00     0.053 C 
BRANCH  11  12
ATOM     12  C   UNL     1    -104.394 -53.822 -72.616  1.00  0.00     0.041 C 
ATOM     13  O   UNL     1    -103.480 -53.519 -73.429  1.00  0.00    -0.550 OA
ATOM     14  O   UNL     1    -104.950 -55.095 -72.650  1.00  0.00    -0.550 OA
ENDBRANCH  11  12
ENDBRANCH  10  11
ENDBRANCH   9  10
ENDBRANCH   8   9
ENDBRANCH   7   8
ENDBRANCH   6   7
ENDBRANCH   5   6
ENDBRANCH   4   5
ENDBRANCH   3   4
ENDBRANCH   2   3
ENDBRANCH   1   2
BRANCH   1  15
ATOM     15  C   UNL     1     -98.071 -46.977 -71.092  1.00  0.00     0.000 C 
BRANCH  15  16
ATOM     16  C   UNL     1     -98.488 -46.909 -69.612  1.00  0.00     0.000 C 
BRANCH  16  17
ATOM     17  C   UNL     1     -97.692 -45.840 -68.832  1.00  0.00     0.000 C 
BRANCH  17  18
ATOM     18  C   UNL     1     -96.688 -45.063 -69.700  1.00  0.00    -0.000 C 
BRANCH  18  19
ATOM     19  C   UNL     1     -95.352 -44.804 -68.983  1.00  0.00    -0.000 C 
BRANCH  19  20
ATOM     20  C   UNL     1     -94.905 -45.998 -68.123  1.00  0.00    -0.000 C 
BRANCH  20  21
ATOM     21  C   UNL     1     -93.992 -46.971 -68.889  1.00  0.00    -0.000 C 
BRANCH  21  22
ATOM     22  C   UNL     1     -93.213 -46.283 -70.020  1.00  0.00    -0.000 C 
BRANCH  22  23
ATOM     23  C   UNL     1     -93.442 -46.951 -71.388  1.00  0.00    -0.000 C 
BRANCH  23  24
ATOM     24  C   UNL     1     -94.533 -48.042 -71.328  1.00  0.00    -0.000 C 
BRANCH  24  25
ATOM     25  C   UNL     1     -95.047 -48.474 -72.712  1.00  0.00    -0.003 C 
ATOM     26  C   UNL     1     -94.033 -49.304 -73.495  1.00  0.00     0.004 C 
ENDBRANCH  24  25
ENDBRANCH  23  24
ENDBRANCH  22  23
ENDBRANCH  21  22
ENDBRANCH  20  21
ENDBRANCH  19  20
ENDBRANCH  18  19
ENDBRANCH  17  18
ENDBRANCH  16  17
ENDBRANCH  15  16
ENDBRANCH   1  15
TORSDOF 22
ENDMDL
MODEL 4
REMARK VINA RESULT:    -2.742      1.255      2.200
REMARK INTER + INTRA:         -10.689
REMARK INTER:                  -6.221
REMARK INTRA:                  -4.468
REMARK UNBOUND:                -4.420
REMARK SMILES CCCCCCCCCCCCCCCCCCCCCCCC(=O)[O-]
REMARK SMILES IDX 13 1 14 2 15 3 16 4 17 5 18 6 19 7 20 8 21 9 22 10 23 11
REMARK SMILES IDX 24 12 25 13 26 14 12 15 11 16 10 17 9 18 8 19 7 20 6 21 5 22
REMARK SMILES IDX 4 23 3 24 2 25 1 26
REMARK H PARENT
REMARK Flexibility Score: inf
ROOT
ATOM      1  C   UNL     1    -107.135 -47.961 -57.238  1.00  0.00     0.000 C 
ENDROOT
BRANCH   1   2
ATOM      2  C   UNL     1    -108.041 -47.253 -58.261  1.00  0.00     0.000 C 
BRANCH   2   3
ATOM      3  C   UNL     1    -109.191 -46.475 -57.599  1.00  0.00     0.000 C 
BRANCH   3   4
ATOM      4  C   UNL     1    -110.325 -46.140 -58.584  1.00  0.00     0.000 C 
BRANCH   4   5
ATOM      5  C   UNL     1    -109.844 -45.284 -59.766  1.00  0.00     0.000 C 
BRANCH   5   6
ATOM      6  C   UNL     1    -110.670 -45.521 -61.044  1.00  0.00     0.000 C 
BRANCH   6   7
ATOM      7  C   UNL     1    -109.854 -46.203 -62.154  1.00  0.00     0.000 C 
BRANCH   7   8
ATOM      8  C   UNL     1    -109.624 -47.699 -61.880  1.00  0.00     0.000 C 
BRANCH   8   9
ATOM      9  C   UNL     1    -108.135 -48.050 -61.739  1.00  0.00     0.000 C 
BRANCH   9  10
ATOM     10  C   UNL     1    -107.795 -49.429 -62.333  1.00  0.00     0.006 C 
BRANCH  10  11
ATOM     11  C   UNL     1    -108.902 -49.948 -63.259  1.00  0.00     0.053 C 
BRANCH  11  12
ATOM     12  C   UNL     1    -108.423 -50.089 -64.671  1.00  0.00     0.041 C 
ATOM     13  O   UNL     1    -107.588 -49.273 -65.142  1.00  0.00    -0.550 OA
ATOM     14  O   UNL     1    -108.872 -51.144 -65.457  1.00  0.00    -0.550 OA
ENDBRANCH  11  12
ENDBRANCH  10  11
ENDBRANCH   9  10
ENDBRANCH   8   9
ENDBRANCH   7   8
ENDBRANCH   6   7
ENDBRANCH   5   6
ENDBRANCH   4   5
ENDBRANCH   3   4
ENDBRANCH   2   3
ENDBRANCH   1   2
BRANCH   1  15
ATOM     15  C   UNL     1    -107.417 -47.516 -55.794  1.00  0.00     0.000 C 
BRANCH  15  16
ATOM     16  C   UNL     1    -107.656 -48.700 -54.840  1.00  0.00     0.000 C 
BRANCH  16  17
ATOM     17  C   UNL     1    -107.856 -50.028 -55.602  1.00  0.00     0.000 C 
BRANCH  17  18
ATOM     18  C   UNL     1    -109.228 -50.679 -55.359  1.00  0.00    -0.000 C 
BRANCH  18  19
ATOM     19  C   UNL     1    -110.328 -49.653 -55.041  1.00  0.00    -0.000 C 
BRANCH  19  20
ATOM     20  C   UNL     1    -111.166 -49.285 -56.277  1.00  0.00    -0.000 C 
BRANCH  20  21
ATOM     21  C   UNL     1    -111.167 -50.394 -57.343  1.00  0.00    -0.000 C 
BRANCH  21  22
ATOM     22  C   UNL     1    -110.747 -49.882 -58.729  1.00  0.00    -0.000 C 
BRANCH  22  23
ATOM     23  C   UNL     1    -109.338 -50.351 -59.132  1.00  0.00    -0.000 C 
BRANCH  23  24
ATOM     24  C   UNL     1    -109.291 -51.867 -59.425  1.00  0.00    -0.000 C 
BRANCH  24  25
ATOM     25  C   UNL     1    -108.351 -52.645 -58.489  1.00  0.00    -0.003 C 
ATOM     26  C   UNL     1    -109.087 -53.644 -57.598  1.00  0.00     0.004 C 
ENDBRANCH  24  25
ENDBRANCH  23  24
ENDBRANCH  22  23
ENDBRANCH  21  22
ENDBRANCH  20  21
ENDBRANCH  19  20
ENDBRANCH  18  19
ENDBRANCH  17  18
ENDBRANCH  16  17
ENDBRANCH  15  16
ENDBRANCH   1  15
TORSDOF 22
ENDMDL
MODEL 5
REMARK VINA RESULT:    -2.713     13.421     16.465
REMARK INTER + INTRA:         -10.621
REMARK INTER:                  -7.458
REMARK INTRA:                  -3.163
REMARK UNBOUND:                -4.420
REMARK SMILES CCCCCCCCCCCCCCCCCCCCCCCC(=O)[O-]
REMARK SMILES IDX 13 1 14 2 15 3 16 4 17 5 18 6 19 7 20 8 21 9 22 10 23 11
REMARK SMILES IDX 24 12 25 13 26 14 12 15 11 16 10 17 9 18 8 19 7 20 6 21 5 22
REMARK SMILES IDX 4 23 3 24 2 25 1 26
REMARK H PARENT
REMARK Flexibility Score: inf
ROOT
ATOM      1  C   UNL     1     -98.680 -48.031 -71.988  1.00  0.00     0.000 C 
ENDROOT
BRANCH   1   2
ATOM      2  C   UNL     1     -99.610 -47.634 -73.147  1.00  0.00     0.000 C 
BRANCH   2   3
ATOM      3  C   UNL     1    -101.084 -47.537 -72.721  1.00  0.00     0.000 C 
BRANCH   3   4
ATOM      4  C   UNL     1    -101.274 -46.734 -71.422  1.00  0.00     0.000 C 
BRANCH   4   5
ATOM      5  C   UNL     1    -102.680 -46.907 -70.823  1.00  0.00     0.000 C 
BRANCH   5   6
ATOM      6  C   UNL     1    -103.665 -47.566 -71.806  1.00  0.00     0.000 C 
BRANCH   6   7
ATOM      7  C   UNL     1    -104.242 -48.884 -71.265  1.00  0.00     0.000 C 
BRANCH   7   8
ATOM      8  C   UNL     1    -105.032 -49.663 -72.332  1.00  0.00     0.000 C 
BRANCH   8   9
ATOM      9  C   UNL     1    -104.187 -49.977 -73.576  1.00  0.00     0.000 C 
BRANCH   9  10
ATOM     10  C   UNL     1    -104.191 -51.475 -73.929  1.00  0.00     0.006 C 
BRANCH  10  11
ATOM     11  C   UNL     1    -104.805 -52.330 -72.813  1.00  0.00     0.053 C 
BRANCH  11  12
ATOM     12  C   UNL     1    -104.131 -53.664 -72.703  1.00  0.00     0.041 C 
ATOM     13  O   UNL     1    -102.874 -53.741 -72.693  1.00  0.00    -0.550 OA
ATOM     14  O   UNL     1    -104.893 -54.820 -72.576  1.00  0.00    -0.550 OA
ENDBRANCH  11  12
ENDBRANCH  10  11
ENDBRANCH   9  10
ENDBRANCH   8   9
ENDBRANCH   7   8
ENDBRANCH   6   7
ENDBRANCH   5   6
ENDBRANCH   4   5
ENDBRANCH   3   4
ENDBRANCH   2   3
ENDBRANCH   1   2
BRANCH   1  15
ATOM     15  C   UNL     1     -97.227 -47.584 -72.219  1.00  0.00     0.000 C 
BRANCH  15  16
ATOM     16  C   UNL     1     -97.122 -46.133 -72.720  1.00  0.00     0.000 C 
BRANCH  16  17
ATOM     17  C   UNL     1     -95.655 -45.676 -72.873  1.00  0.00     0.000 C 
BRANCH  17  18
ATOM     18  C   UNL     1     -94.634 -46.815 -72.720  1.00  0.00    -0.000 C 
BRANCH  18  19
ATOM     19  C   UNL     1     -93.672 -46.600 -71.539  1.00  0.00    -0.000 C 
BRANCH  19  20
ATOM     20  C   UNL     1     -94.001 -47.503 -70.339  1.00  0.00    -0.000 C 
BRANCH  20  21
ATOM     21  C   UNL     1     -94.397 -46.701 -69.086  1.00  0.00    -0.000 C 
BRANCH  21  22
ATOM     22  C   UNL     1     -94.587 -45.205 -69.378  1.00  0.00    -0.000 C 
BRANCH  22  23
ATOM     23  C   UNL     1     -96.061 -44.769 -69.298  1.00  0.00    -0.000 C 
BRANCH  23  24
ATOM     24  C   UNL     1     -96.982 -45.915 -68.826  1.00  0.00    -0.000 C 
BRANCH  24  25
ATOM     25  C   UNL     1     -98.469 -45.676 -69.139  1.00  0.00    -0.003 C 
ATOM     26  C   UNL     1     -98.758 -44.258 -69.627  1.00  0.00     0.004 C 
ENDBRANCH  24  25
ENDBRANCH  23  24
ENDBRANCH  22  23
ENDBRANCH  21  22
ENDBRANCH  20  21
ENDBRANCH  19  20
ENDBRANCH  18  19
ENDBRANCH  17  18
ENDBRANCH  16  17
ENDBRANCH  15  16
ENDBRANCH   1  15
TORSDOF 22
ENDMDL
MODEL 6
REMARK VINA RESULT:    -2.676      1.709      2.593
REMARK INTER + INTRA:         -10.538
REMARK INTER:                  -6.166
REMARK INTRA:                  -4.372
REMARK UNBOUND:                -4.420
REMARK SMILES CCCCCCCCCCCCCCCCCCCCCCCC(=O)[O-]
REMARK SMILES IDX 13 1 14 2 15 3 16 4 17 5 18 6 19 7 20 8 21 9 22 10 23 11
REMARK SMILES IDX 24 12 25 13 26 14 12 15 11 16 10 17 9 18 8 19 7 20 6 21 5 22
REMARK SMILES IDX 4 23 3 24 2 25 1 26
REMARK H PARENT
REMARK Flexibility Score: inf
ROOT
ATOM      1  C   UNL     1    -107.512 -48.668 -56.339  1.00  0.00     0.000 C 
ENDROOT
BRANCH   1   2
ATOM      2  C   UNL     1    -107.239 -47.631 -57.442  1.00  0.00     0.000 C 
BRANCH   2   3
ATOM      3  C   UNL     1    -108.157 -47.806 -58.663  1.00  0.00     0.000 C 
BRANCH   3   4
ATOM      4  C   UNL     1    -109.068 -46.588 -58.901  1.00  0.00     0.000 C 
BRANCH   4   5
ATOM      5  C   UNL     1    -110.460 -46.986 -59.417  1.00  0.00     0.000 C 
BRANCH   5   6
ATOM      6  C   UNL     1    -110.617 -46.758 -60.932  1.00  0.00     0.000 C 
BRANCH   6   7
ATOM      7  C   UNL     1    -110.230 -47.995 -61.757  1.00  0.00     0.000 C 
BRANCH   7   8
ATOM      8  C   UNL     1    -108.857 -47.845 -62.435  1.00  0.00     0.000 C 
BRANCH   8   9
ATOM      9  C   UNL     1    -107.917 -49.021 -62.128  1.00  0.00     0.000 C 
BRANCH   9  10
ATOM     10  C   UNL     1    -108.074 -50.178 -63.132  1.00  0.00     0.006 C 
BRANCH  10  11
ATOM     11  C   UNL     1    -108.525 -49.687 -64.514  1.00  0.00     0.053 C 
BRANCH  11  12
ATOM     12  C   UNL     1    -107.485 -49.947 -65.561  1.00  0.00     0.041 C 
ATOM     13  O   UNL     1    -106.348 -50.376 -65.232  1.00  0.00    -0.550 OA
ATOM     14  O   UNL     1    -107.784 -49.747 -66.903  1.00  0.00    -0.550 OA
ENDBRANCH  11  12
ENDBRANCH  10  11
ENDBRANCH   9  10
ENDBRANCH   8   9
ENDBRANCH   7   8
ENDBRANCH   6   7
ENDBRANCH   5   6
ENDBRANCH   4   5
ENDBRANCH   3   4
ENDBRANCH   2   3
ENDBRANCH   1   2
BRANCH   1  15
ATOM     15  C   UNL     1    -107.442 -48.059 -54.929  1.00  0.00     0.000 C 
BRANCH  15  16
ATOM     16  C   UNL     1    -107.598 -46.528 -54.931  1.00  0.00     0.000 C 
BRANCH  16  17
ATOM     17  C   UNL     1    -109.003 -46.087 -54.466  1.00  0.00     0.000 C 
BRANCH  17  18
ATOM     18  C   UNL     1    -109.835 -45.411 -55.568  1.00  0.00    -0.000 C 
BRANCH  18  19
ATOM     19  C   UNL     1    -111.125 -46.180 -55.899  1.00  0.00    -0.000 C 
BRANCH  19  20
ATOM     20  C   UNL     1    -111.116 -47.614 -55.344  1.00  0.00    -0.000 C 
BRANCH  20  21
ATOM     21  C   UNL     1    -111.686 -48.639 -56.340  1.00  0.00    -0.000 C 
BRANCH  21  22
ATOM     22  C   UNL     1    -110.762 -49.851 -56.533  1.00  0.00    -0.000 C 
BRANCH  22  23
ATOM     23  C   UNL     1    -110.718 -50.335 -57.994  1.00  0.00    -0.000 C 
BRANCH  23  24
ATOM     24  C   UNL     1    -109.471 -51.197 -58.284  1.00  0.00    -0.000 C 
BRANCH  24  25
ATOM     25  C   UNL     1    -109.308 -51.562 -59.769  1.00  0.00    -0.003 C 
ATOM     26  C   UNL     1    -110.604 -51.425 -60.565  1.00  0.00     0.004 C 
ENDBRANCH  24  25
ENDBRANCH  23  24
ENDBRANCH  22  23
ENDBRANCH  21  22
ENDBRANCH  20  21
ENDBRANCH  19  20
ENDBRANCH  18  19
ENDBRANCH  17  18
ENDBRANCH  16  17
ENDBRANCH  15  16
ENDBRANCH   1  15
TORSDOF 22
ENDMDL
MODEL 7
REMARK VINA RESULT:    -2.657      1.464      2.053
REMARK INTER + INTRA:         -10.495
REMARK INTER:                  -6.010
REMARK INTRA:                  -4.484
REMARK UNBOUND:                -4.420
REMARK SMILES CCCCCCCCCCCCCCCCCCCCCCCC(=O)[O-]
REMARK SMILES IDX 13 1 14 2 15 3 16 4 17 5 18 6 19 7 20 8 21 9 22 10 23 11
REMARK SMILES IDX 24 12 25 13 26 14 12 15 11 16 10 17 9 18 8 19 7 20 6 21 5 22
REMARK SMILES IDX 4 23 3 24 2 25 1 26
REMARK H PARENT
REMARK Flexibility Score: inf
ROOT
ATOM      1  C   UNL     1    -107.984 -47.411 -58.256  1.00  0.00     0.000 C 
ENDROOT
BRANCH   1   2
ATOM      2  C   UNL     1    -109.144 -46.545 -57.734  1.00  0.00     0.000 C 
BRANCH   2   3
ATOM      3  C   UNL     1    -109.974 -45.917 -58.866  1.00  0.00     0.000 C 
BRANCH   3   4
ATOM      4  C   UNL     1    -111.175 -46.788 -59.274  1.00  0.00     0.000 C 
BRANCH   4   5
ATOM      5  C   UNL     1    -110.972 -47.467 -60.639  1.00  0.00     0.000 C 
BRANCH   5   6
ATOM      6  C   UNL     1    -109.886 -46.779 -61.487  1.00  0.00     0.000 C 
BRANCH   6   7
ATOM      7  C   UNL     1    -109.148 -47.763 -62.409  1.00  0.00     0.000 C 
BRANCH   7   8
ATOM      8  C   UNL     1    -108.174 -48.672 -61.640  1.00  0.00     0.000 C 
BRANCH   8   9
ATOM      9  C   UNL     1    -107.566 -49.769 -62.528  1.00  0.00     0.000 C 
BRANCH   9  10
ATOM     10  C   UNL     1    -107.754 -49.483 -64.029  1.00  0.00     0.006 C 
BRANCH  10  11
ATOM     11  C   UNL     1    -107.859 -50.771 -64.855  1.00  0.00     0.053 C 
BRANCH  11  12
ATOM     12  C   UNL     1    -109.279 -51.086 -65.213  1.00  0.00     0.041 C 
ATOM     13  O   UNL     1    -110.139 -50.167 -65.263  1.00  0.00    -0.550 OA
ATOM     14  O   UNL     1    -109.646 -52.390 -65.525  1.00  0.00    -0.550 OA
ENDBRANCH  11  12
ENDBRANCH  10  11
ENDBRANCH   9  10
ENDBRANCH   8   9
ENDBRANCH   7   8
ENDBRANCH   6   7
ENDBRANCH   5   6
ENDBRANCH   4   5
ENDBRANCH   3   4
ENDBRANCH   2   3
ENDBRANCH   1   2
BRANCH   1  15
ATOM     15  C   UNL     1    -107.134 -48.003 -57.121  1.00  0.00     0.000 C 
BRANCH  15  16
ATOM     16  C   UNL     1    -107.256 -47.211 -55.808  1.00  0.00     0.000 C 
BRANCH  16  17
ATOM     17  C   UNL     1    -107.525 -48.130 -54.597  1.00  0.00     0.000 C 
BRANCH  17  18
ATOM     18  C   UNL     1    -108.498 -49.282 -54.900  1.00  0.00    -0.000 C 
BRANCH  18  19
ATOM     19  C   UNL     1    -109.955 -48.942 -54.544  1.00  0.00    -0.000 C 
BRANCH  19  20
ATOM     20  C   UNL     1    -110.896 -49.038 -55.756  1.00  0.00    -0.000 C 
BRANCH  20  21
ATOM     21  C   UNL     1    -110.704 -50.340 -56.553  1.00  0.00    -0.000 C 
BRANCH  21  22
ATOM     22  C   UNL     1    -110.510 -50.089 -58.056  1.00  0.00    -0.000 C 
BRANCH  22  23
ATOM     23  C   UNL     1    -109.285 -50.827 -58.627  1.00  0.00    -0.000 C 
BRANCH  23  24
ATOM     24  C   UNL     1    -109.617 -51.582 -59.932  1.00  0.00    -0.000 C 
BRANCH  24  25
ATOM     25  C   UNL     1    -111.029 -51.291 -60.468  1.00  0.00    -0.003 C 
ATOM     26  C   UNL     1    -111.064 -51.086 -61.982  1.00  0.00     0.004 C 
ENDBRANCH  24  25
ENDBRANCH  23  24
ENDBRANCH  22  23
ENDBRANCH  21  22
ENDBRANCH  20  21
ENDBRANCH  19  20
ENDBRANCH  18  19
ENDBRANCH  17  18
ENDBRANCH  16  17
ENDBRANCH  15  16
ENDBRANCH   1  15
TORSDOF 22
ENDMDL
MODEL 8
REMARK VINA RESULT:    -2.636      1.289      3.911
REMARK INTER + INTRA:         -10.446
REMARK INTER:                  -6.161
REMARK INTRA:                  -4.285
REMARK UNBOUND:                -4.420
REMARK SMILES CCCCCCCCCCCCCCCCCCCCCCCC(=O)[O-]
REMARK SMILES IDX 13 1 14 2 15 3 16 4 17 5 18 6 19 7 20 8 21 9 22 10 23 11
REMARK SMILES IDX 24 12 25 13 26 14 12 15 11 16 10 17 9 18 8 19 7 20 6 21 5 22
REMARK SMILES IDX 4 23 3 24 2 25 1 26
REMARK H PARENT
REMARK Flexibility Score: inf
ROOT
ATOM      1  C   UNL     1    -109.919 -52.119 -59.351  1.00  0.00     0.000 C 
ENDROOT
BRANCH   1   2
ATOM      2  C   UNL     1    -109.724 -50.868 -60.225  1.00  0.00     0.000 C 
BRANCH   2   3
ATOM      3  C   UNL     1    -110.026 -49.563 -59.471  1.00  0.00     0.000 C 
BRANCH   3   4
ATOM      4  C   UNL     1    -108.759 -48.893 -58.912  1.00  0.00     0.000 C 
BRANCH   4   5
ATOM      5  C   UNL     1    -108.375 -47.621 -59.687  1.00  0.00     0.000 C 
BRANCH   5   6
ATOM      6  C   UNL     1    -109.587 -46.718 -59.981  1.00  0.00     0.000 C 
BRANCH   6   7
ATOM      7  C   UNL     1    -109.647 -46.276 -61.452  1.00  0.00     0.000 C 
BRANCH   7   8
ATOM      8  C   UNL     1    -110.197 -47.378 -62.375  1.00  0.00     0.000 C 
BRANCH   8   9
ATOM      9  C   UNL     1    -109.131 -47.927 -63.336  1.00  0.00     0.000 C 
BRANCH   9  10
ATOM     10  C   UNL     1    -109.000 -49.459 -63.259  1.00  0.00     0.006 C 
BRANCH  10  11
ATOM     11  C   UNL     1    -107.554 -49.904 -63.008  1.00  0.00     0.053 C 
BRANCH  11  12
ATOM     12  C   UNL     1    -107.088 -50.882 -64.043  1.00  0.00     0.041 C 
ATOM     13  O   UNL     1    -107.352 -52.108 -63.922  1.00  0.00    -0.550 OA
ATOM     14  O   UNL     1    -106.391 -50.436 -65.159  1.00  0.00    -0.550 OA
ENDBRANCH  11  12
ENDBRANCH  10  11
ENDBRANCH   9  10
ENDBRANCH   8   9
ENDBRANCH   7   8
ENDBRANCH   6   7
ENDBRANCH   5   6
ENDBRANCH   4   5
ENDBRANCH   3   4
ENDBRANCH   2   3
ENDBRANCH   1   2
BRANCH   1  15
ATOM     15  C   UNL     1    -108.606 -52.606 -58.718  1.00  0.00     0.000 C 
BRANCH  15  16
ATOM     16  C   UNL     1    -108.651 -52.611 -57.180  1.00  0.00     0.000 C 
BRANCH  16  17
ATOM     17  C   UNL     1    -107.632 -51.628 -56.565  1.00  0.00     0.000 C 
BRANCH  17  18
ATOM     18  C   UNL     1    -108.274 -50.545 -55.681  1.00  0.00    -0.000 C 
BRANCH  18  19
ATOM     19  C   UNL     1    -109.800 -50.692 -55.569  1.00  0.00    -0.000 C 
BRANCH  19  20
ATOM     20  C   UNL     1    -110.500 -49.358 -55.261  1.00  0.00    -0.000 C 
BRANCH  20  21
ATOM     21  C   UNL     1    -111.579 -49.002 -56.298  1.00  0.00    -0.000 C 
BRANCH  21  22
ATOM     22  C   UNL     1    -111.469 -47.551 -56.791  1.00  0.00    -0.000 C 
BRANCH  22  23
ATOM     23  C   UNL     1    -110.821 -46.620 -55.751  1.00  0.00    -0.000 C 
BRANCH  23  24
ATOM     24  C   UNL     1    -109.504 -46.000 -56.265  1.00  0.00    -0.000 C 
BRANCH  24  25
ATOM     25  C   UNL     1    -108.291 -46.303 -55.370  1.00  0.00    -0.003 C 
ATOM     26  C   UNL     1    -107.238 -47.167 -56.060  1.00  0.00     0.004 C 
ENDBRANCH  24  25
ENDBRANCH  23  24
ENDBRANCH  22  23
ENDBRANCH  21  22
ENDBRANCH  20  21
ENDBRANCH  19  20
ENDBRANCH  18  19
ENDBRANCH  17  18
ENDBRANCH  16  17
ENDBRANCH  15  16
ENDBRANCH   1  15
TORSDOF 22
ENDMDL
MODEL 9
REMARK VINA RESULT:    -2.618     12.567     16.077
REMARK INTER + INTRA:         -10.404
REMARK INTER:                  -7.164
REMARK INTRA:                  -3.240
REMARK UNBOUND:                -4.420
REMARK SMILES CCCCCCCCCCCCCCCCCCCCCCCC(=O)[O-]
REMARK SMILES IDX 13 1 14 2 15 3 16 4 17 5 18 6 19 7 20 8 21 9 22 10 23 11
REMARK SMILES IDX 24 12 25 13 26 14 12 15 11 16 10 17 9 18 8 19 7 20 6 21 5 22
REMARK SMILES IDX 4 23 3 24 2 25 1 26
REMARK H PARENT
REMARK Flexibility Score: inf
ROOT
ATOM      1  C   UNL     1     -98.709 -48.000 -71.873  1.00  0.00     0.000 C 
ENDROOT
BRANCH   1   2
ATOM      2  C   UNL     1     -99.027 -47.310 -73.211  1.00  0.00     0.000 C 
BRANCH   2   3
ATOM      3  C   UNL     1    -100.401 -46.620 -73.212  1.00  0.00     0.000 C 
BRANCH   3   4
ATOM      4  C   UNL     1    -101.343 -47.171 -72.128  1.00  0.00     0.000 C 
BRANCH   4   5
ATOM      5  C   UNL     1    -101.808 -46.085 -71.144  1.00  0.00     0.000 C 
BRANCH   5   6
ATOM      6  C   UNL     1    -103.341 -45.943 -71.098  1.00  0.00     0.000 C 
BRANCH   6   7
ATOM      7  C   UNL     1    -103.931 -46.383 -69.748  1.00  0.00     0.000 C 
BRANCH   7   8
ATOM      8  C   UNL     1    -104.011 -47.913 -69.611  1.00  0.00     0.000 C 
BRANCH   8   9
ATOM      9  C   UNL     1    -105.446 -48.443 -69.757  1.00  0.00     0.000 C 
BRANCH   9  10
ATOM     10  C   UNL     1    -105.667 -49.188 -71.086  1.00  0.00     0.006 C 
BRANCH  10  11
ATOM     11  C   UNL     1    -104.353 -49.425 -71.841  1.00  0.00     0.053 C 
BRANCH  11  12
ATOM     12  C   UNL     1    -104.493 -50.504 -72.872  1.00  0.00     0.041 C 
ATOM     13  O   UNL     1    -104.707 -50.206 -74.076  1.00  0.00    -0.550 OA
ATOM     14  O   UNL     1    -104.354 -51.838 -72.506  1.00  0.00    -0.550 OA
ENDBRANCH  11  12
ENDBRANCH  10  11
ENDBRANCH   9  10
ENDBRANCH   8   9
ENDBRANCH   7   8
ENDBRANCH   6   7
ENDBRANCH   5   6
ENDBRANCH   4   5
ENDBRANCH   3   4
ENDBRANCH   2   3
ENDBRANCH   1   2
BRANCH   1  15
ATOM     15  C   UNL     1     -97.829 -47.134 -70.958  1.00  0.00     0.000 C 
BRANCH  15  16
ATOM     16  C   UNL     1     -98.493 -46.833 -69.602  1.00  0.00     0.000 C 
BRANCH  16  17
ATOM     17  C   UNL     1     -98.340 -45.352 -69.196  1.00  0.00     0.000 C 
BRANCH  17  18
ATOM     18  C   UNL     1     -97.300 -44.586 -70.031  1.00  0.00    -0.000 C 
BRANCH  18  19
ATOM     19  C   UNL     1     -96.108 -44.092 -69.194  1.00  0.00    -0.000 C 
BRANCH  19  20
ATOM     20  C   UNL     1     -94.818 -44.876 -69.485  1.00  0.00    -0.000 C 
BRANCH  20  21
ATOM     21  C   UNL     1     -94.803 -46.262 -68.817  1.00  0.00    -0.000 C 
BRANCH  21  22
ATOM     22  C   UNL     1     -94.051 -47.311 -69.649  1.00  0.00    -0.000 C 
BRANCH  22  23
ATOM     23  C   UNL     1     -94.151 -47.049 -71.163  1.00  0.00    -0.000 C 
BRANCH  23  24
ATOM     24  C   UNL     1     -94.463 -48.336 -71.957  1.00  0.00    -0.000 C 
BRANCH  24  25
ATOM     25  C   UNL     1     -95.159 -48.074 -73.303  1.00  0.00    -0.003 C 
ATOM     26  C   UNL     1     -95.307 -46.588 -73.621  1.00  0.00     0.004 C 
ENDBRANCH  24  25
ENDBRANCH  23  24
ENDBRANCH  22  23
ENDBRANCH  21  22
ENDBRANCH  20  21
ENDBRANCH  19  20
ENDBRANCH  18  19
ENDBRANCH  17  18
ENDBRANCH  16  17
ENDBRANCH  15  16
ENDBRANCH   1  15
TORSDOF 22
ENDMDL
