MODEL 1
REMARK VINA RESULT:     2.843      0.000      0.000
REMARK INTER + INTRA:           8.541
REMARK INTER:                   7.498
REMARK INTRA:                   1.043
REMARK UNBOUND:                 1.043
REMARK SMILES CCCCCCCCCCCCCCCCCCCCCCCCCCCCCC(=O)[O-]
REMARK SMILES IDX 16 1 17 2 18 3 19 4 20 5 21 6 22 7 23 8 24 9 25 10 26 11
REMARK SMILES IDX 27 12 28 13 29 14 30 15 31 16 32 17 15 18 14 19 13 20 12 21
REMARK SMILES IDX 11 22 10 23 9 24 8 25 7 26 6 27 5 28 4 29 3 30 2 31 1 32
REMARK H PARENT
REMARK Flexibility Score: inf
ROOT
ATOM      1  C   UNL     1       4.903 -36.232  21.646  1.00  0.00     0.000 C 
ENDROOT
BRANCH   1   2
ATOM      2  C   UNL     1       6.117 -35.449  22.176  1.00  0.00     0.000 C 
BRANCH   2   3
ATOM      3  C   UNL     1       5.902 -34.898  23.599  1.00  0.00     0.000 C 
BRANCH   3   4
ATOM      4  C   UNL     1       5.989 -35.943  24.727  1.00  0.00     0.000 C 
BRANCH   4   5
ATOM      5  C   UNL     1       5.452 -37.322  24.309  1.00  0.00     0.000 C 
BRANCH   5   6
ATOM      6  C   UNL     1       5.027 -38.182  25.512  1.00  0.00     0.000 C 
BRANCH   6   7
ATOM      7  C   UNL     1       4.927 -39.677  25.174  1.00  0.00     0.000 C 
BRANCH   7   8
ATOM      8  C   UNL     1       5.882 -40.049  24.028  1.00  0.00     0.000 C 
BRANCH   8   9
ATOM      9  C   UNL     1       5.141 -40.535  22.772  1.00  0.00     0.000 C 
BRANCH   9  10
ATOM     10  C   UNL     1       4.526 -39.381  21.962  1.00  0.00     0.000 C 
BRANCH  10  11
ATOM     11  C   UNL     1       5.457 -38.876  20.844  1.00  0.00     0.000 C 
BRANCH  11  12
ATOM     12  C   UNL     1       4.763 -38.558  19.504  1.00  0.00     0.000 C 
BRANCH  12  13
ATOM     13  C   UNL     1       3.470 -37.732  19.619  1.00  0.00     0.006 C 
BRANCH  13  14
ATOM     14  C   UNL     1       2.205 -38.597  19.547  1.00  0.00     0.053 C 
BRANCH  14  15
ATOM     15  C   UNL     1       1.079 -37.824  18.937  1.00  0.00     0.041 C 
ATOM     16  O   UNL     1       1.040 -37.636  17.692  1.00  0.00    -0.550 OA
ATOM     17  O   UNL     1       0.098 -37.267  19.747  1.00  0.00    -0.550 OA
ENDBRANCH  14  15
ENDBRANCH  13  14
ENDBRANCH  12  13
ENDBRANCH  11  12
ENDBRANCH  10  11
ENDBRANCH   9  10
ENDBRANCH   8   9
ENDBRANCH   7   8
ENDBRANCH   6   7
ENDBRANCH   5   6
ENDBRANCH   4   5
ENDBRANCH   3   4
ENDBRANCH   2   3
ENDBRANCH   1   2
BRANCH   1  18
ATOM     18  C   UNL     1       3.649 -35.347  21.474  1.00  0.00     0.000 C 
BRANCH  18  19
ATOM     19  C   UNL     1       3.902 -34.053  20.681  1.00  0.00     0.000 C 
BRANCH  19  20
ATOM     20  C   UNL     1       4.855 -34.262  19.494  1.00  0.00     0.000 C 
BRANCH  20  21
ATOM     21  C   UNL     1       4.125 -34.608  18.182  1.00  0.00     0.000 C 
BRANCH  21  22
ATOM     22  C   UNL     1       4.702 -35.801  17.397  1.00  0.00     0.000 C 
BRANCH  22  23
ATOM     23  C   UNL     1       3.624 -36.669  16.731  1.00  0.00     0.000 C 
BRANCH  23  24
ATOM     24  C   UNL     1       3.350 -36.197  15.298  1.00  0.00    -0.000 C 
BRANCH  24  25
ATOM     25  C   UNL     1       2.979 -37.378  14.388  1.00  0.00    -0.000 C 
BRANCH  25  26
ATOM     26  C   UNL     1       4.203 -38.204  13.958  1.00  0.00    -0.000 C 
BRANCH  26  27
ATOM     27  C   UNL     1       4.185 -39.632  14.524  1.00  0.00    -0.000 C 
BRANCH  27  28
ATOM     28  C   UNL     1       5.438 -40.408  14.086  1.00  0.00    -0.000 C 
BRANCH  28  29
ATOM     29  C   UNL     1       5.168 -41.907  13.876  1.00  0.00    -0.000 C 
BRANCH  29  30
ATOM     30  C   UNL     1       6.013 -42.846  14.759  1.00  0.00    -0.000 C 
BRANCH  30  31
ATOM     31  C   UNL     1       5.393 -43.124  16.145  1.00  0.00    -0.003 C 
ATOM     32  C   UNL     1       6.117 -42.384  17.269  1.00  0.00     0.004 C 
ENDBRANCH  30  31
ENDBRANCH  29  30
ENDBRANCH  28  29
ENDBRANCH  27  28
ENDBRANCH  26  27
ENDBRANCH  25  26
ENDBRANCH  24  25
ENDBRANCH  23  24
ENDBRANCH  22  23
ENDBRANCH  21  22
ENDBRANCH  20  21
ENDBRANCH  19  20
ENDBRANCH  18  19
ENDBRANCH   1  18
TORSDOF 28
ENDMDL
MODEL 2
REMARK VINA RESULT:     4.499      3.204      9.205
REMARK INTER + INTRA:          12.906
REMARK INTER:                  11.032
REMARK INTRA:                   1.874
REMARK UNBOUND:                 1.043
REMARK SMILES CCCCCCCCCCCCCCCCCCCCCCCCCCCCCC(=O)[O-]
REMARK SMILES IDX 16 1 17 2 18 3 19 4 20 5 21 6 22 7 23 8 24 9 25 10 26 11
REMARK SMILES IDX 27 12 28 13 29 14 30 15 31 16 32 17 15 18 14 19 13 20 12 21
REMARK SMILES IDX 11 22 10 23 9 24 8 25 7 26 6 27 5 28 4 29 3 30 2 31 1 32
REMARK H PARENT
REMARK Flexibility Score: inf
ROOT
ATOM      1  C   UNL     1       3.839 -37.854  19.943  1.00  0.00     0.000 C 
ENDROOT
BRANCH   1   2
ATOM      2  C   UNL     1       2.586 -37.066  20.365  1.00  0.00     0.000 C 
BRANCH   2   3
ATOM      3  C   UNL     1       1.284 -37.875  20.203  1.00  0.00     0.000 C 
BRANCH   3   4
ATOM      4  C   UNL     1       0.774 -38.013  18.756  1.00  0.00     0.000 C 
BRANCH   4   5
ATOM      5  C   UNL     1       1.777 -37.488  17.715  1.00  0.00     0.000 C 
BRANCH   5   6
ATOM      6  C   UNL     1       1.111 -36.612  16.640  1.00  0.00     0.000 C 
BRANCH   6   7
ATOM      7  C   UNL     1       2.037 -36.316  15.450  1.00  0.00     0.000 C 
BRANCH   7   8
ATOM      8  C   UNL     1       3.514 -36.413  15.863  1.00  0.00     0.000 C 
BRANCH   8   9
ATOM      9  C   UNL     1       3.771 -35.871  17.279  1.00  0.00     0.000 C 
BRANCH   9  10
ATOM     10  C   UNL     1       4.630 -34.595  17.279  1.00  0.00     0.000 C 
BRANCH  10  11
ATOM     11  C   UNL     1       5.403 -34.398  18.595  1.00  0.00     0.000 C 
BRANCH  11  12
ATOM     12  C   UNL     1       5.514 -35.652  19.487  1.00  0.00     0.000 C 
BRANCH  12  13
ATOM     13  C   UNL     1       6.125 -35.410  20.878  1.00  0.00     0.006 C 
BRANCH  13  14
ATOM     14  C   UNL     1       5.071 -35.058  21.936  1.00  0.00     0.053 C 
BRANCH  14  15
ATOM     15  C   UNL     1       5.688 -35.031  23.298  1.00  0.00     0.041 C 
ATOM     16  O   UNL     1       5.874 -33.934  23.887  1.00  0.00    -0.550 OA
ATOM     17  O   UNL     1       6.105 -36.212  23.897  1.00  0.00    -0.550 OA
ENDBRANCH  14  15
ENDBRANCH  13  14
ENDBRANCH  12  13
ENDBRANCH  11  12
ENDBRANCH  10  11
ENDBRANCH   9  10
ENDBRANCH   8   9
ENDBRANCH   7   8
ENDBRANCH   6   7
ENDBRANCH   5   6
ENDBRANCH   4   5
ENDBRANCH   3   4
ENDBRANCH   2   3
ENDBRANCH   1   2
BRANCH   1  18
ATOM     18  C   UNL     1       4.156 -39.028  20.896  1.00  0.00     0.000 C 
BRANCH  18  19
ATOM     19  C   UNL     1       5.547 -39.648  20.680  1.00  0.00     0.000 C 
BRANCH  19  20
ATOM     20  C   UNL     1       6.124 -40.270  21.961  1.00  0.00     0.000 C 
BRANCH  20  21
ATOM     21  C   UNL     1       6.070 -41.810  21.967  1.00  0.00     0.000 C 
BRANCH  21  22
ATOM     22  C   UNL     1       5.523 -42.449  23.257  1.00  0.00     0.000 C 
BRANCH  22  23
ATOM     23  C   UNL     1       6.069 -41.798  24.537  1.00  0.00     0.000 C 
BRANCH  23  24
ATOM     24  C   UNL     1       5.093 -40.747  25.077  1.00  0.00    -0.000 C 
BRANCH  24  25
ATOM     25  C   UNL     1       5.170 -39.448  24.258  1.00  0.00    -0.000 C 
BRANCH  25  26
ATOM     26  C   UNL     1       5.430 -38.210  25.132  1.00  0.00    -0.000 C 
BRANCH  26  27
ATOM     27  C   UNL     1       4.769 -38.309  26.515  1.00  0.00    -0.000 C 
BRANCH  27  28
ATOM     28  C   UNL     1       3.706 -37.214  26.692  1.00  0.00    -0.000 C 
BRANCH  28  29
ATOM     29  C   UNL     1       2.305 -37.782  26.974  1.00  0.00    -0.000 C 
BRANCH  29  30
ATOM     30  C   UNL     1       1.471 -36.972  27.985  1.00  0.00    -0.000 C 
BRANCH  30  31
ATOM     31  C   UNL     1       2.041 -35.568  28.281  1.00  0.00    -0.003 C 
ATOM     32  C   UNL     1       1.172 -34.777  29.258  1.00  0.00     0.004 C 
ENDBRANCH  30  31
ENDBRANCH  29  30
ENDBRANCH  28  29
ENDBRANCH  27  28
ENDBRANCH  26  27
ENDBRANCH  25  26
ENDBRANCH  24  25
ENDBRANCH  23  24
ENDBRANCH  22  23
ENDBRANCH  21  22
ENDBRANCH  20  21
ENDBRANCH  19  20
ENDBRANCH  18  19
ENDBRANCH   1  18
TORSDOF 28
ENDMDL
MODEL 3
REMARK VINA RESULT:     4.779      1.735      3.961
REMARK INTER + INTRA:          13.645
REMARK INTER:                  12.488
REMARK INTRA:                   1.157
REMARK UNBOUND:                 1.043
REMARK SMILES CCCCCCCCCCCCCCCCCCCCCCCCCCCCCC(=O)[O-]
REMARK SMILES IDX 16 1 17 2 18 3 19 4 20 5 21 6 22 7 23 8 24 9 25 10 26 11
REMARK SMILES IDX 27 12 28 13 29 14 30 15 31 16 32 17 15 18 14 19 13 20 12 21
REMARK SMILES IDX 11 22 10 23 9 24 8 25 7 26 6 27 5 28 4 29 3 30 2 31 1 32
REMARK H PARENT
REMARK Flexibility Score: inf
ROOT
ATOM      1  C   UNL     1       5.369 -37.165  20.266  1.00  0.00     0.000 C 
ENDROOT
BRANCH   1   2
ATOM      2  C   UNL     1       5.829 -38.355  21.129  1.00  0.00     0.000 C 
BRANCH   2   3
ATOM      3  C   UNL     1       5.410 -39.718  20.544  1.00  0.00     0.000 C 
BRANCH   3   4
ATOM      4  C   UNL     1       6.107 -40.941  21.170  1.00  0.00     0.000 C 
BRANCH   4   5
ATOM      5  C   UNL     1       6.057 -40.938  22.707  1.00  0.00     0.000 C 
BRANCH   5   6
ATOM      6  C   UNL     1       4.621 -40.859  23.253  1.00  0.00     0.000 C 
BRANCH   6   7
ATOM      7  C   UNL     1       4.361 -39.585  24.071  1.00  0.00     0.000 C 
BRANCH   7   8
ATOM      8  C   UNL     1       5.320 -39.493  25.269  1.00  0.00     0.000 C 
BRANCH   8   9
ATOM      9  C   UNL     1       5.297 -38.111  25.942  1.00  0.00     0.000 C 
BRANCH   9  10
ATOM     10  C   UNL     1       6.049 -37.043  25.131  1.00  0.00     0.000 C 
BRANCH  10  11
ATOM     11  C   UNL     1       5.166 -35.833  24.776  1.00  0.00     0.000 C 
BRANCH  11  12
ATOM     12  C   UNL     1       5.027 -35.542  23.268  1.00  0.00     0.000 C 
BRANCH  12  13
ATOM     13  C   UNL     1       6.042 -34.532  22.702  1.00  0.00     0.006 C 
BRANCH  13  14
ATOM     14  C   UNL     1       6.120 -34.564  21.171  1.00  0.00     0.053 C 
BRANCH  14  15
ATOM     15  C   UNL     1       4.752 -34.466  20.576  1.00  0.00     0.041 C 
ATOM     16  O   UNL     1       3.739 -34.416  21.322  1.00  0.00    -0.550 OA
ATOM     17  O   UNL     1       4.590 -34.481  19.197  1.00  0.00    -0.550 OA
ENDBRANCH  14  15
ENDBRANCH  13  14
ENDBRANCH  12  13
ENDBRANCH  11  12
ENDBRANCH  10  11
ENDBRANCH   9  10
ENDBRANCH   8   9
ENDBRANCH   7   8
ENDBRANCH   6   7
ENDBRANCH   5   6
ENDBRANCH   4   5
ENDBRANCH   3   4
ENDBRANCH   2   3
ENDBRANCH   1   2
BRANCH   1  18
ATOM     18  C   UNL     1       4.256 -37.546  19.267  1.00  0.00     0.000 C 
BRANCH  18  19
ATOM     19  C   UNL     1       2.832 -37.388  19.828  1.00  0.00     0.000 C 
BRANCH  19  20
ATOM     20  C   UNL     1       1.863 -38.454  19.295  1.00  0.00     0.000 C 
BRANCH  20  21
ATOM     21  C   UNL     1       0.673 -37.860  18.518  1.00  0.00     0.000 C 
BRANCH  21  22
ATOM     22  C   UNL     1       0.938 -37.558  17.031  1.00  0.00     0.000 C 
BRANCH  22  23
ATOM     23  C   UNL     1       0.758 -36.075  16.670  1.00  0.00     0.000 C 
BRANCH  23  24
ATOM     24  C   UNL     1       2.112 -35.357  16.618  1.00  0.00    -0.000 C 
BRANCH  24  25
ATOM     25  C   UNL     1       3.212 -36.288  16.083  1.00  0.00    -0.000 C 
BRANCH  25  26
ATOM     26  C   UNL     1       2.646 -37.546  15.403  1.00  0.00    -0.000 C 
BRANCH  26  27
ATOM     27  C   UNL     1       3.304 -37.835  14.045  1.00  0.00    -0.000 C 
BRANCH  27  28
ATOM     28  C   UNL     1       4.808 -37.521  14.090  1.00  0.00    -0.000 C 
BRANCH  28  29
ATOM     29  C   UNL     1       5.684 -38.766  13.877  1.00  0.00    -0.000 C 
BRANCH  29  30
ATOM     30  C   UNL     1       4.919 -40.104  13.886  1.00  0.00    -0.000 C 
BRANCH  30  31
ATOM     31  C   UNL     1       5.444 -41.116  14.927  1.00  0.00    -0.003 C 
ATOM     32  C   UNL     1       5.142 -42.563  14.540  1.00  0.00     0.004 C 
ENDBRANCH  30  31
ENDBRANCH  29  30
ENDBRANCH  28  29
ENDBRANCH  27  28
ENDBRANCH  26  27
ENDBRANCH  25  26
ENDBRANCH  24  25
ENDBRANCH  23  24
ENDBRANCH  22  23
ENDBRANCH  21  22
ENDBRANCH  20  21
ENDBRANCH  19  20
ENDBRANCH  18  19
ENDBRANCH   1  18
TORSDOF 28
ENDMDL
MODEL 4
REMARK VINA RESULT:     4.782      2.387      4.721
REMARK INTER + INTRA:          13.652
REMARK INTER:                  14.783
REMARK INTRA:                  -1.130
REMARK UNBOUND:                 1.043
REMARK SMILES CCCCCCCCCCCCCCCCCCCCCCCCCCCCCC(=O)[O-]
REMARK SMILES IDX 16 1 17 2 18 3 19 4 20 5 21 6 22 7 23 8 24 9 25 10 26 11
REMARK SMILES IDX 27 12 28 13 29 14 30 15 31 16 32 17 15 18 14 19 13 20 12 21
REMARK SMILES IDX 11 22 10 23 9 24 8 25 7 26 6 27 5 28 4 29 3 30 2 31 1 32
REMARK H PARENT
REMARK Flexibility Score: inf
ROOT
ATOM      1  C   UNL     1       1.044 -36.851  20.787  1.00  0.00     0.000 C 
ENDROOT
BRANCH   1   2
ATOM      2  C   UNL     1       1.622 -37.892  19.811  1.00  0.00     0.000 C 
BRANCH   2   3
ATOM      3  C   UNL     1       3.120 -37.676  19.520  1.00  0.00     0.000 C 
BRANCH   3   4
ATOM      4  C   UNL     1       4.076 -38.631  20.259  1.00  0.00     0.000 C 
BRANCH   4   5
ATOM      5  C   UNL     1       5.365 -38.917  19.471  1.00  0.00     0.000 C 
BRANCH   5   6
ATOM      6  C   UNL     1       6.125 -40.144  20.002  1.00  0.00     0.000 C 
BRANCH   6   7
ATOM      7  C   UNL     1       5.894 -40.390  21.501  1.00  0.00     0.000 C 
BRANCH   7   8
ATOM      8  C   UNL     1       6.042 -41.881  21.846  1.00  0.00     0.000 C 
BRANCH   8   9
ATOM      9  C   UNL     1       5.155 -42.308  23.026  1.00  0.00     0.000 C 
BRANCH   9  10
ATOM     10  C   UNL     1       5.970 -42.765  24.247  1.00  0.00     0.000 C 
BRANCH  10  11
ATOM     11  C   UNL     1       5.883 -41.779  25.425  1.00  0.00     0.000 C 
BRANCH  11  12
ATOM     12  C   UNL     1       5.742 -40.295  25.032  1.00  0.00     0.000 C 
BRANCH  12  13
ATOM     13  C   UNL     1       5.248 -39.366  26.155  1.00  0.00     0.006 C 
BRANCH  13  14
ATOM     14  C   UNL     1       4.274 -38.292  25.652  1.00  0.00     0.053 C 
BRANCH  14  15
ATOM     15  C   UNL     1       5.007 -37.024  25.350  1.00  0.00     0.041 C 
ATOM     16  O   UNL     1       4.644 -35.941  25.877  1.00  0.00    -0.550 OA
ATOM     17  O   UNL     1       6.062 -37.029  24.446  1.00  0.00    -0.550 OA
ENDBRANCH  14  15
ENDBRANCH  13  14
ENDBRANCH  12  13
ENDBRANCH  11  12
ENDBRANCH  10  11
ENDBRANCH   9  10
ENDBRANCH   8   9
ENDBRANCH   7   8
ENDBRANCH   6   7
ENDBRANCH   5   6
ENDBRANCH   4   5
ENDBRANCH   3   4
ENDBRANCH   2   3
ENDBRANCH   1   2
BRANCH   1  18
ATOM     18  C   UNL     1       2.104 -36.289  21.759  1.00  0.00     0.000 C 
BRANCH  18  19
ATOM     19  C   UNL     1       2.589 -34.873  21.402  1.00  0.00     0.000 C 
BRANCH  19  20
ATOM     20  C   UNL     1       4.050 -34.627  21.810  1.00  0.00     0.000 C 
BRANCH  20  21
ATOM     21  C   UNL     1       5.025 -35.675  21.240  1.00  0.00     0.000 C 
BRANCH  21  22
ATOM     22  C   UNL     1       6.038 -35.146  20.208  1.00  0.00     0.000 C 
BRANCH  22  23
ATOM     23  C   UNL     1       5.678 -35.511  18.760  1.00  0.00     0.000 C 
BRANCH  23  24
ATOM     24  C   UNL     1       4.162 -35.446  18.540  1.00  0.00    -0.000 C 
BRANCH  24  25
ATOM     25  C   UNL     1       3.827 -35.221  17.057  1.00  0.00    -0.000 C 
BRANCH  25  26
ATOM     26  C   UNL     1       3.537 -36.533  16.309  1.00  0.00    -0.000 C 
BRANCH  26  27
ATOM     27  C   UNL     1       3.085 -36.303  14.859  1.00  0.00    -0.000 C 
BRANCH  27  28
ATOM     28  C   UNL     1       3.884 -37.190  13.891  1.00  0.00    -0.000 C 
BRANCH  28  29
ATOM     29  C   UNL     1       3.641 -38.691  14.119  1.00  0.00    -0.000 C 
BRANCH  29  30
ATOM     30  C   UNL     1       4.889 -39.581  13.952  1.00  0.00    -0.000 C 
BRANCH  30  31
ATOM     31  C   UNL     1       4.851 -40.873  14.797  1.00  0.00    -0.003 C 
ATOM     32  C   UNL     1       5.685 -41.996  14.184  1.00  0.00     0.004 C 
ENDBRANCH  30  31
ENDBRANCH  29  30
ENDBRANCH  28  29
ENDBRANCH  27  28
ENDBRANCH  26  27
ENDBRANCH  25  26
ENDBRANCH  24  25
ENDBRANCH  23  24
ENDBRANCH  22  23
ENDBRANCH  21  22
ENDBRANCH  20  21
ENDBRANCH  19  20
ENDBRANCH  18  19
ENDBRANCH   1  18
TORSDOF 28
ENDMDL
MODEL 5
REMARK VINA RESULT:     4.991      3.550      6.135
REMARK INTER + INTRA:          14.203
REMARK INTER:                  14.976
REMARK INTRA:                  -0.773
REMARK UNBOUND:                 1.043
REMARK SMILES CCCCCCCCCCCCCCCCCCCCCCCCCCCCCC(=O)[O-]
REMARK SMILES IDX 16 1 17 2 18 3 19 4 20 5 21 6 22 7 23 8 24 9 25 10 26 11
REMARK SMILES IDX 27 12 28 13 29 14 30 15 31 16 32 17 15 18 14 19 13 20 12 21
REMARK SMILES IDX 11 22 10 23 9 24 8 25 7 26 6 27 5 28 4 29 3 30 2 31 1 32
REMARK H PARENT
REMARK Flexibility Score: inf
ROOT
ATOM      1  C   UNL     1       5.905 -37.226  22.300  1.00  0.00     0.000 C 
ENDROOT
BRANCH   1   2
ATOM      2  C   UNL     1       5.890 -38.681  22.803  1.00  0.00     0.000 C 
BRANCH   2   3
ATOM      3  C   UNL     1       5.666 -39.705  21.672  1.00  0.00     0.000 C 
BRANCH   3   4
ATOM      4  C   UNL     1       6.025 -41.161  22.026  1.00  0.00     0.000 C 
BRANCH   4   5
ATOM      5  C   UNL     1       5.083 -41.772  23.076  1.00  0.00     0.000 C 
BRANCH   5   6
ATOM      6  C   UNL     1       5.823 -42.221  24.347  1.00  0.00     0.000 C 
BRANCH   6   7
ATOM      7  C   UNL     1       5.522 -41.330  25.563  1.00  0.00     0.000 C 
BRANCH   7   8
ATOM      8  C   UNL     1       4.704 -40.095  25.152  1.00  0.00     0.000 C 
BRANCH   8   9
ATOM      9  C   UNL     1       5.360 -38.777  25.594  1.00  0.00     0.000 C 
BRANCH   9  10
ATOM     10  C   UNL     1       4.330 -37.683  25.924  1.00  0.00     0.000 C 
BRANCH  10  11
ATOM     11  C   UNL     1       3.158 -38.205  26.774  1.00  0.00     0.000 C 
BRANCH  11  12
ATOM     12  C   UNL     1       2.035 -37.184  27.045  1.00  0.00     0.000 C 
BRANCH  12  13
ATOM     13  C   UNL     1       2.294 -36.227  28.222  1.00  0.00     0.006 C 
BRANCH  13  14
ATOM     14  C   UNL     1       1.038 -35.455  28.646  1.00  0.00     0.053 C 
BRANCH  14  15
ATOM     15  C   UNL     1       1.403 -34.325  29.556  1.00  0.00     0.041 C 
ATOM     16  O   UNL     1       2.047 -34.547  30.615  1.00  0.00    -0.550 OA
ATOM     17  O   UNL     1       0.989 -33.033  29.261  1.00  0.00    -0.550 OA
ENDBRANCH  14  15
ENDBRANCH  13  14
ENDBRANCH  12  13
ENDBRANCH  11  12
ENDBRANCH  10  11
ENDBRANCH   9  10
ENDBRANCH   8   9
ENDBRANCH   7   8
ENDBRANCH   6   7
ENDBRANCH   5   6
ENDBRANCH   4   5
ENDBRANCH   3   4
ENDBRANCH   2   3
ENDBRANCH   1   2
BRANCH   1  18
ATOM     18  C   UNL     1       6.121 -36.204  23.437  1.00  0.00     0.000 C 
BRANCH  18  19
ATOM     19  C   UNL     1       5.783 -34.754  23.045  1.00  0.00     0.000 C 
BRANCH  19  20
ATOM     20  C   UNL     1       5.110 -34.655  21.668  1.00  0.00     0.000 C 
BRANCH  20  21
ATOM     21  C   UNL     1       6.082 -34.893  20.497  1.00  0.00     0.000 C 
BRANCH  21  22
ATOM     22  C   UNL     1       5.443 -35.436  19.205  1.00  0.00     0.000 C 
BRANCH  22  23
ATOM     23  C   UNL     1       4.573 -36.681  19.434  1.00  0.00     0.000 C 
BRANCH  23  24
ATOM     24  C   UNL     1       3.138 -36.285  19.803  1.00  0.00    -0.000 C 
BRANCH  24  25
ATOM     25  C   UNL     1       2.316 -37.513  20.224  1.00  0.00    -0.000 C 
BRANCH  25  26
ATOM     26  C   UNL     1       1.291 -37.934  19.158  1.00  0.00    -0.000 C 
BRANCH  26  27
ATOM     27  C   UNL     1       1.939 -38.254  17.802  1.00  0.00    -0.000 C 
BRANCH  27  28
ATOM     28  C   UNL     1       1.269 -37.454  16.674  1.00  0.00    -0.000 C 
BRANCH  28  29
ATOM     29  C   UNL     1       1.974 -36.116  16.393  1.00  0.00    -0.000 C 
BRANCH  29  30
ATOM     30  C   UNL     1       3.386 -36.244  15.789  1.00  0.00    -0.000 C 
BRANCH  30  31
ATOM     31  C   UNL     1       3.413 -36.927  14.405  1.00  0.00    -0.003 C 
ATOM     32  C   UNL     1       3.845 -38.391  14.485  1.00  0.00     0.004 C 
ENDBRANCH  30  31
ENDBRANCH  29  30
ENDBRANCH  28  29
ENDBRANCH  27  28
ENDBRANCH  26  27
ENDBRANCH  25  26
ENDBRANCH  24  25
ENDBRANCH  23  24
ENDBRANCH  22  23
ENDBRANCH  21  22
ENDBRANCH  20  21
ENDBRANCH  19  20
ENDBRANCH  18  19
ENDBRANCH   1  18
TORSDOF 28
ENDMDL
MODEL 6
REMARK VINA RESULT:     5.548      2.108      5.245
REMARK INTER + INTRA:          15.672
REMARK INTER:                  15.855
REMARK INTRA:                  -0.183
REMARK UNBOUND:                 1.043
REMARK SMILES CCCCCCCCCCCCCCCCCCCCCCCCCCCCCC(=O)[O-]
REMARK SMILES IDX 16 1 17 2 18 3 19 4 20 5 21 6 22 7 23 8 24 9 25 10 26 11
REMARK SMILES IDX 27 12 28 13 29 14 30 15 31 16 32 17 15 18 14 19 13 20 12 21
REMARK SMILES IDX 11 22 10 23 9 24 8 25 7 26 6 27 5 28 4 29 3 30 2 31 1 32
REMARK H PARENT
REMARK Flexibility Score: inf
ROOT
ATOM      1  C   UNL     1       5.823 -39.840  25.503  1.00  0.00     0.000 C 
ENDROOT
BRANCH   1   2
ATOM      2  C   UNL     1       4.946 -39.123  26.546  1.00  0.00     0.000 C 
BRANCH   2   3
ATOM      3  C   UNL     1       4.526 -37.707  26.106  1.00  0.00     0.000 C 
BRANCH   3   4
ATOM      4  C   UNL     1       5.472 -36.575  26.550  1.00  0.00     0.000 C 
BRANCH   4   5
ATOM      5  C   UNL     1       6.116 -35.834  25.367  1.00  0.00     0.000 C 
BRANCH   5   6
ATOM      6  C   UNL     1       5.393 -36.101  24.036  1.00  0.00     0.000 C 
BRANCH   6   7
ATOM      7  C   UNL     1       6.125 -35.499  22.826  1.00  0.00     0.000 C 
BRANCH   7   8
ATOM      8  C   UNL     1       5.437 -35.899  21.510  1.00  0.00     0.000 C 
BRANCH   8   9
ATOM      9  C   UNL     1       5.338 -34.733  20.514  1.00  0.00     0.000 C 
BRANCH   9  10
ATOM     10  C   UNL     1       3.920 -34.142  20.432  1.00  0.00     0.000 C 
BRANCH  10  11
ATOM     11  C   UNL     1       3.119 -34.333  21.732  1.00  0.00     0.000 C 
BRANCH  11  12
ATOM     12  C   UNL     1       1.886 -35.253  21.615  1.00  0.00     0.000 C 
BRANCH  12  13
ATOM     13  C   UNL     1       2.006 -36.374  20.568  1.00  0.00     0.006 C 
BRANCH  13  14
ATOM     14  C   UNL     1       0.671 -37.081  20.300  1.00  0.00     0.053 C 
BRANCH  14  15
ATOM     15  C   UNL     1       0.796 -38.006  19.131  1.00  0.00     0.041 C 
ATOM     16  O   UNL     1      -0.182 -38.188  18.360  1.00  0.00    -0.550 OA
ATOM     17  O   UNL     1       1.977 -38.705  18.922  1.00  0.00    -0.550 OA
ENDBRANCH  14  15
ENDBRANCH  13  14
ENDBRANCH  12  13
ENDBRANCH  11  12
ENDBRANCH  10  11
ENDBRANCH   9  10
ENDBRANCH   8   9
ENDBRANCH   7   8
ENDBRANCH   6   7
ENDBRANCH   5   6
ENDBRANCH   4   5
ENDBRANCH   3   4
ENDBRANCH   2   3
ENDBRANCH   1   2
BRANCH   1  18
ATOM     18  C   UNL     1       5.040 -40.884  24.678  1.00  0.00     0.000 C 
BRANCH  18  19
ATOM     19  C   UNL     1       5.917 -42.006  24.097  1.00  0.00     0.000 C 
BRANCH  19  20
ATOM     20  C   UNL     1       5.788 -42.129  22.571  1.00  0.00     0.000 C 
BRANCH  20  21
ATOM     21  C   UNL     1       6.125 -40.824  21.826  1.00  0.00     0.000 C 
BRANCH  21  22
ATOM     22  C   UNL     1       5.180 -39.639  22.104  1.00  0.00     0.000 C 
BRANCH  22  23
ATOM     23  C   UNL     1       4.389 -39.190  20.866  1.00  0.00     0.000 C 
BRANCH  23  24
ATOM     24  C   UNL     1       5.280 -38.394  19.905  1.00  0.00    -0.000 C 
BRANCH  24  25
ATOM     25  C   UNL     1       4.468 -37.849  18.720  1.00  0.00    -0.000 C 
BRANCH  25  26
ATOM     26  C   UNL     1       4.888 -36.426  18.318  1.00  0.00    -0.000 C 
BRANCH  26  27
ATOM     27  C   UNL     1       3.989 -35.827  17.226  1.00  0.00    -0.000 C 
BRANCH  27  28
ATOM     28  C   UNL     1       2.815 -36.766  16.909  1.00  0.00    -0.000 C 
BRANCH  28  29
ATOM     29  C   UNL     1       1.958 -36.274  15.731  1.00  0.00    -0.000 C 
BRANCH  29  30
ATOM     30  C   UNL     1       2.558 -36.544  14.338  1.00  0.00    -0.000 C 
BRANCH  30  31
ATOM     31  C   UNL     1       3.257 -37.915  14.215  1.00  0.00    -0.003 C 
ATOM     32  C   UNL     1       4.768 -37.786  14.027  1.00  0.00     0.004 C 
ENDBRANCH  30  31
ENDBRANCH  29  30
ENDBRANCH  28  29
ENDBRANCH  27  28
ENDBRANCH  26  27
ENDBRANCH  25  26
ENDBRANCH  24  25
ENDBRANCH  23  24
ENDBRANCH  22  23
ENDBRANCH  21  22
ENDBRANCH  20  21
ENDBRANCH  19  20
ENDBRANCH  18  19
ENDBRANCH   1  18
TORSDOF 28
ENDMDL
MODEL 7
REMARK VINA RESULT:     5.597      2.502      8.383
REMARK INTER + INTRA:          15.803
REMARK INTER:                  15.476
REMARK INTRA:                   0.327
REMARK UNBOUND:                 1.043
REMARK SMILES CCCCCCCCCCCCCCCCCCCCCCCCCCCCCC(=O)[O-]
REMARK SMILES IDX 16 1 17 2 18 3 19 4 20 5 21 6 22 7 23 8 24 9 25 10 26 11
REMARK SMILES IDX 27 12 28 13 29 14 30 15 31 16 32 17 15 18 14 19 13 20 12 21
REMARK SMILES IDX 11 22 10 23 9 24 8 25 7 26 6 27 5 28 4 29 3 30 2 31 1 32
REMARK H PARENT
REMARK Flexibility Score: inf
ROOT
ATOM      1  C   UNL     1       4.269 -38.277  21.233  1.00  0.00     0.000 C 
ENDROOT
BRANCH   1   2
ATOM      2  C   UNL     1       5.255 -37.138  21.552  1.00  0.00     0.000 C 
BRANCH   2   3
ATOM      3  C   UNL     1       5.476 -36.939  23.064  1.00  0.00     0.000 C 
BRANCH   3   4
ATOM      4  C   UNL     1       5.987 -35.546  23.474  1.00  0.00     0.000 C 
BRANCH   4   5
ATOM      5  C   UNL     1       5.522 -34.432  22.521  1.00  0.00     0.000 C 
BRANCH   5   6
ATOM      6  C   UNL     1       4.072 -34.626  22.045  1.00  0.00     0.000 C 
BRANCH   6   7
ATOM      7  C   UNL     1       3.961 -34.814  20.524  1.00  0.00     0.000 C 
BRANCH   7   8
ATOM      8  C   UNL     1       5.303 -35.261  19.923  1.00  0.00     0.000 C 
BRANCH   8   9
ATOM      9  C   UNL     1       5.403 -34.977  18.416  1.00  0.00     0.000 C 
BRANCH   9  10
ATOM     10  C   UNL     1       4.030 -34.960  17.723  1.00  0.00     0.000 C 
BRANCH  10  11
ATOM     11  C   UNL     1       3.928 -35.982  16.577  1.00  0.00     0.000 C 
BRANCH  11  12
ATOM     12  C   UNL     1       2.504 -36.229  16.040  1.00  0.00     0.000 C 
BRANCH  12  13
ATOM     13  C   UNL     1       1.626 -37.140  16.916  1.00  0.00     0.006 C 
BRANCH  13  14
ATOM     14  C   UNL     1       2.089 -37.184  18.377  1.00  0.00     0.053 C 
BRANCH  14  15
ATOM     15  C   UNL     1       1.102 -37.933  19.215  1.00  0.00     0.041 C 
ATOM     16  O   UNL     1       0.751 -37.480  20.337  1.00  0.00    -0.550 OA
ATOM     17  O   UNL     1       0.607 -39.155  18.781  1.00  0.00    -0.550 OA
ENDBRANCH  14  15
ENDBRANCH  13  14
ENDBRANCH  12  13
ENDBRANCH  11  12
ENDBRANCH  10  11
ENDBRANCH   9  10
ENDBRANCH   8   9
ENDBRANCH   7   8
ENDBRANCH   6   7
ENDBRANCH   5   6
ENDBRANCH   4   5
ENDBRANCH   3   4
ENDBRANCH   2   3
ENDBRANCH   1   2
BRANCH   1  18
ATOM     18  C   UNL     1       4.786 -39.223  20.127  1.00  0.00     0.000 C 
BRANCH  18  19
ATOM     19  C   UNL     1       6.125 -39.902  20.463  1.00  0.00     0.000 C 
BRANCH  19  20
ATOM     20  C   UNL     1       6.036 -41.436  20.431  1.00  0.00     0.000 C 
BRANCH  20  21
ATOM     21  C   UNL     1       6.109 -42.079  21.829  1.00  0.00     0.000 C 
BRANCH  21  22
ATOM     22  C   UNL     1       5.827 -41.131  23.010  1.00  0.00     0.000 C 
BRANCH  22  23
ATOM     23  C   UNL     1       5.871 -41.832  24.376  1.00  0.00     0.000 C 
BRANCH  23  24
ATOM     24  C   UNL     1       5.381 -40.897  25.487  1.00  0.00    -0.000 C 
BRANCH  24  25
ATOM     25  C   UNL     1       5.013 -39.514  24.925  1.00  0.00    -0.000 C 
BRANCH  25  26
ATOM     26  C   UNL     1       5.327 -38.372  25.905  1.00  0.00    -0.000 C 
BRANCH  26  27
ATOM     27  C   UNL     1       4.105 -37.490  26.202  1.00  0.00    -0.000 C 
BRANCH  27  28
ATOM     28  C   UNL     1       2.909 -38.347  26.648  1.00  0.00    -0.000 C 
BRANCH  28  29
ATOM     29  C   UNL     1       1.872 -37.548  27.455  1.00  0.00    -0.000 C 
BRANCH  29  30
ATOM     30  C   UNL     1       2.201 -36.053  27.630  1.00  0.00    -0.000 C 
BRANCH  30  31
ATOM     31  C   UNL     1       1.208 -35.299  28.542  1.00  0.00    -0.003 C 
ATOM     32  C   UNL     1       1.906 -34.580  29.695  1.00  0.00     0.004 C 
ENDBRANCH  30  31
ENDBRANCH  29  30
ENDBRANCH  28  29
ENDBRANCH  27  28
ENDBRANCH  26  27
ENDBRANCH  25  26
ENDBRANCH  24  25
ENDBRANCH  23  24
ENDBRANCH  22  23
ENDBRANCH  21  22
ENDBRANCH  20  21
ENDBRANCH  19  20
ENDBRANCH  18  19
ENDBRANCH   1  18
TORSDOF 28
ENDMDL
MODEL 8
REMARK VINA RESULT:     5.788      3.579      6.784
REMARK INTER + INTRA:          16.304
REMARK INTER:                  15.948
REMARK INTRA:                   0.356
REMARK UNBOUND:                 1.043
REMARK SMILES CCCCCCCCCCCCCCCCCCCCCCCCCCCCCC(=O)[O-]
REMARK SMILES IDX 16 1 17 2 18 3 19 4 20 5 21 6 22 7 23 8 24 9 25 10 26 11
REMARK SMILES IDX 27 12 28 13 29 14 30 15 31 16 32 17 15 18 14 19 13 20 12 21
REMARK SMILES IDX 11 22 10 23 9 24 8 25 7 26 6 27 5 28 4 29 3 30 2 31 1 32
REMARK H PARENT
REMARK Flexibility Score: inf
ROOT
ATOM      1  C   UNL     1       1.221 -37.655  19.898  1.00  0.00     0.000 C 
ENDROOT
BRANCH   1   2
ATOM      2  C   UNL     1       2.388 -38.654  19.995  1.00  0.00     0.000 C 
BRANCH   2   3
ATOM      3  C   UNL     1       3.762 -37.964  20.109  1.00  0.00     0.000 C 
BRANCH   3   4
ATOM      4  C   UNL     1       4.963 -38.917  20.253  1.00  0.00     0.000 C 
BRANCH   4   5
ATOM      5  C   UNL     1       5.398 -39.118  21.714  1.00  0.00     0.000 C 
BRANCH   5   6
ATOM      6  C   UNL     1       5.374 -40.595  22.142  1.00  0.00     0.000 C 
BRANCH   6   7
ATOM      7  C   UNL     1       4.870 -40.794  23.580  1.00  0.00     0.000 C 
BRANCH   7   8
ATOM      8  C   UNL     1       5.585 -39.842  24.552  1.00  0.00     0.000 C 
BRANCH   8   9
ATOM      9  C   UNL     1       4.610 -39.094  25.476  1.00  0.00     0.000 C 
BRANCH   9  10
ATOM     10  C   UNL     1       5.104 -37.685  25.844  1.00  0.00     0.000 C 
BRANCH  10  11
ATOM     11  C   UNL     1       4.012 -36.827  26.509  1.00  0.00     0.000 C 
BRANCH  11  12
ATOM     12  C   UNL     1       2.689 -37.560  26.807  1.00  0.00     0.000 C 
BRANCH  12  13
ATOM     13  C   UNL     1       1.772 -36.862  27.826  1.00  0.00     0.006 C 
BRANCH  13  14
ATOM     14  C   UNL     1       2.134 -35.386  28.037  1.00  0.00     0.053 C 
BRANCH  14  15
ATOM     15  C   UNL     1       1.488 -34.863  29.279  1.00  0.00     0.041 C 
ATOM     16  O   UNL     1       0.279 -35.119  29.521  1.00  0.00    -0.550 OA
ATOM     17  O   UNL     1       2.205 -34.050  30.147  1.00  0.00    -0.550 OA
ENDBRANCH  14  15
ENDBRANCH  13  14
ENDBRANCH  12  13
ENDBRANCH  11  12
ENDBRANCH  10  11
ENDBRANCH   9  10
ENDBRANCH   8   9
ENDBRANCH   7   8
ENDBRANCH   6   7
ENDBRANCH   5   6
ENDBRANCH   4   5
ENDBRANCH   3   4
ENDBRANCH   2   3
ENDBRANCH   1   2
BRANCH   1  18
ATOM     18  C   UNL     1       0.550 -37.653  18.506  1.00  0.00     0.000 C 
BRANCH  18  19
ATOM     19  C   UNL     1       1.515 -37.340  17.350  1.00  0.00     0.000 C 
BRANCH  19  20
ATOM     20  C   UNL     1       0.896 -36.407  16.297  1.00  0.00     0.000 C 
BRANCH  20  21
ATOM     21  C   UNL     1       1.532 -36.557  14.902  1.00  0.00     0.000 C 
BRANCH  21  22
ATOM     22  C   UNL     1       3.072 -36.582  14.875  1.00  0.00     0.000 C 
BRANCH  22  23
ATOM     23  C   UNL     1       3.681 -37.575  15.876  1.00  0.00     0.000 C 
BRANCH  23  24
ATOM     24  C   UNL     1       4.203 -36.846  17.121  1.00  0.00    -0.000 C 
BRANCH  24  25
ATOM     25  C   UNL     1       3.961 -35.332  17.018  1.00  0.00    -0.000 C 
BRANCH  25  26
ATOM     26  C   UNL     1       4.630 -34.545  18.157  1.00  0.00    -0.000 C 
BRANCH  26  27
ATOM     27  C   UNL     1       5.724 -35.351  18.874  1.00  0.00    -0.000 C 
BRANCH  27  28
ATOM     28  C   UNL     1       5.602 -35.200  20.398  1.00  0.00    -0.000 C 
BRANCH  28  29
ATOM     29  C   UNL     1       4.163 -34.909  20.856  1.00  0.00    -0.000 C 
BRANCH  29  30
ATOM     30  C   UNL     1       3.914 -35.097  22.365  1.00  0.00    -0.000 C 
BRANCH  30  31
ATOM     31  C   UNL     1       5.202 -35.082  23.216  1.00  0.00    -0.003 C 
ATOM     32  C   UNL     1       6.124 -36.260  22.902  1.00  0.00     0.004 C 
ENDBRANCH  30  31
ENDBRANCH  29  30
ENDBRANCH  28  29
ENDBRANCH  27  28
ENDBRANCH  26  27
ENDBRANCH  25  26
ENDBRANCH  24  25
ENDBRANCH  23  24
ENDBRANCH  22  23
ENDBRANCH  21  22
ENDBRANCH  20  21
ENDBRANCH  19  20
ENDBRANCH  18  19
ENDBRANCH   1  18
TORSDOF 28
ENDMDL
