MODEL 1
REMARK VINA RESULT:    -5.997      0.000      0.000
REMARK INTER + INTRA:         -13.146
REMARK INTER:                 -11.606
REMARK INTRA:                  -1.541
REMARK UNBOUND:                -1.541
REMARK SMILES CCCCCCCCCCCCCCCCCC(=O)[O-]
REMARK SMILES IDX 10 1 11 2 12 3 13 4 14 5 15 6 16 7 17 8 18 9 19 10 20 11
REMARK SMILES IDX 9 12 8 13 7 14 6 15 5 16 4 17 3 18 2 19 1 20
REMARK H PARENT
REMARK Flexibility Score: inf
ROOT
ATOM      1  C   UNL     1       7.520 -29.735  22.320  1.00  0.00     0.000 C 
ENDROOT
BRANCH   1   2
ATOM      2  C   UNL     1       6.758 -30.841  23.073  1.00  0.00     0.000 C 
BRANCH   2   3
ATOM      3  C   UNL     1       6.880 -30.708  24.600  1.00  0.00     0.000 C 
BRANCH   3   4
ATOM      4  C   UNL     1       6.284 -29.391  25.128  1.00  0.00     0.000 C 
BRANCH   4   5
ATOM      5  C   UNL     1       5.095 -29.619  26.076  1.00  0.00     0.000 C 
BRANCH   5   6
ATOM      6  C   UNL     1       3.792 -28.989  25.555  1.00  0.00     0.000 C 
BRANCH   6   7
ATOM      7  C   UNL     1       3.467 -29.410  24.113  1.00  0.00     0.006 C 
BRANCH   7   8
ATOM      8  C   UNL     1       2.080 -28.938  23.656  1.00  0.00     0.053 C 
BRANCH   8   9
ATOM      9  C   UNL     1       1.046 -29.969  23.979  1.00  0.00     0.041 C 
ATOM     10  O   UNL     1       0.446 -29.939  25.086  1.00  0.00    -0.550 OA
ATOM     11  O   UNL     1       0.708 -30.935  23.040  1.00  0.00    -0.550 OA
ENDBRANCH   8   9
ENDBRANCH   7   8
ENDBRANCH   6   7
ENDBRANCH   5   6
ENDBRANCH   4   5
ENDBRANCH   3   4
ENDBRANCH   2   3
ENDBRANCH   1   2
BRANCH   1  12
ATOM     12  C   UNL     1       8.388 -30.288  21.179  1.00  0.00     0.000 C 
BRANCH  12  13
ATOM     13  C   UNL     1       9.818 -30.625  21.629  1.00  0.00    -0.000 C 
BRANCH  13  14
ATOM     14  C   UNL     1       9.924 -32.095  22.062  1.00  0.00    -0.000 C 
BRANCH  14  15
ATOM     15  C   UNL     1      10.711 -32.281  23.373  1.00  0.00    -0.000 C 
BRANCH  15  16
ATOM     16  C   UNL     1      10.742 -31.047  24.292  1.00  0.00    -0.000 C 
BRANCH  16  17
ATOM     17  C   UNL     1      12.158 -30.687  24.766  1.00  0.00    -0.000 C 
BRANCH  17  18
ATOM     18  C   UNL     1      13.044 -30.270  23.586  1.00  0.00    -0.000 C 
BRANCH  18  19
ATOM     19  C   UNL     1      13.719 -28.920  23.855  1.00  0.00    -0.003 C 
ATOM     20  C   UNL     1      13.871 -28.669  25.353  1.00  0.00     0.004 C 
ENDBRANCH  18  19
ENDBRANCH  17  18
ENDBRANCH  16  17
ENDBRANCH  15  16
ENDBRANCH  14  15
ENDBRANCH  13  14
ENDBRANCH  12  13
ENDBRANCH   1  12
TORSDOF 16
ENDMDL
MODEL 2
REMARK VINA RESULT:    -5.936      4.820      6.642
REMARK INTER + INTRA:         -13.030
REMARK INTER:                 -10.321
REMARK INTRA:                  -2.708
REMARK UNBOUND:                -1.541
REMARK SMILES CCCCCCCCCCCCCCCCCC(=O)[O-]
REMARK SMILES IDX 10 1 11 2 12 3 13 4 14 5 15 6 16 7 17 8 18 9 19 10 20 11
REMARK SMILES IDX 9 12 8 13 7 14 6 15 5 16 4 17 3 18 2 19 1 20
REMARK H PARENT
REMARK Flexibility Score: inf
ROOT
ATOM      1  C   UNL     1       8.062 -29.489  21.774  1.00  0.00     0.000 C 
ENDROOT
BRANCH   1   2
ATOM      2  C   UNL     1       7.291 -30.119  22.947  1.00  0.00     0.000 C 
BRANCH   2   3
ATOM      3  C   UNL     1       7.426 -29.308  24.247  1.00  0.00     0.000 C 
BRANCH   3   4
ATOM      4  C   UNL     1       8.315 -30.008  25.290  1.00  0.00     0.000 C 
BRANCH   4   5
ATOM      5  C   UNL     1       8.810 -31.384  24.816  1.00  0.00     0.000 C 
BRANCH   5   6
ATOM      6  C   UNL     1      10.319 -31.582  25.045  1.00  0.00     0.000 C 
BRANCH   6   7
ATOM      7  C   UNL     1      11.155 -30.399  24.531  1.00  0.00     0.006 C 
BRANCH   7   8
ATOM      8  C   UNL     1      12.640 -30.517  24.902  1.00  0.00     0.053 C 
BRANCH   8   9
ATOM      9  C   UNL     1      13.357 -29.243  24.593  1.00  0.00     0.041 C 
ATOM     10  O   UNL     1      13.434 -28.831  23.405  1.00  0.00    -0.550 OA
ATOM     11  O   UNL     1      13.899 -28.481  25.620  1.00  0.00    -0.550 OA
ENDBRANCH   8   9
ENDBRANCH   7   8
ENDBRANCH   6   7
ENDBRANCH   5   6
ENDBRANCH   4   5
ENDBRANCH   3   4
ENDBRANCH   2   3
ENDBRANCH   1   2
BRANCH   1  12
ATOM     12  C   UNL     1       9.286 -30.320  21.356  1.00  0.00     0.000 C 
BRANCH  12  13
ATOM     13  C   UNL     1       8.904 -31.694  20.784  1.00  0.00    -0.000 C 
BRANCH  13  14
ATOM     14  C   UNL     1       9.948 -32.755  21.165  1.00  0.00    -0.000 C 
BRANCH  14  15
ATOM     15  C   UNL     1      11.357 -32.167  21.366  1.00  0.00    -0.000 C 
BRANCH  15  16
ATOM     16  C   UNL     1      12.302 -33.025  22.226  1.00  0.00    -0.000 C 
BRANCH  16  17
ATOM     17  C   UNL     1      11.572 -34.138  22.993  1.00  0.00    -0.000 C 
BRANCH  17  18
ATOM     18  C   UNL     1      12.361 -34.556  24.239  1.00  0.00    -0.000 C 
BRANCH  18  19
ATOM     19  C   UNL     1      13.814 -34.071  24.158  1.00  0.00    -0.003 C 
ATOM     20  C   UNL     1      14.663 -34.689  25.266  1.00  0.00     0.004 C 
ENDBRANCH  18  19
ENDBRANCH  17  18
ENDBRANCH  16  17
ENDBRANCH  15  16
ENDBRANCH  14  15
ENDBRANCH  13  14
ENDBRANCH  12  13
ENDBRANCH   1  12
TORSDOF 16
ENDMDL
MODEL 3
REMARK VINA RESULT:    -5.859      4.252      8.666
REMARK INTER + INTRA:         -12.881
REMARK INTER:                 -11.253
REMARK INTRA:                  -1.628
REMARK UNBOUND:                -1.541
REMARK SMILES CCCCCCCCCCCCCCCCCC(=O)[O-]
REMARK SMILES IDX 10 1 11 2 12 3 13 4 14 5 15 6 16 7 17 8 18 9 19 10 20 11
REMARK SMILES IDX 9 12 8 13 7 14 6 15 5 16 4 17 3 18 2 19 1 20
REMARK H PARENT
REMARK Flexibility Score: inf
ROOT
ATOM      1  C   UNL     1       7.643 -30.038  21.612  1.00  0.00     0.000 C 
ENDROOT
BRANCH   1   2
ATOM      2  C   UNL     1       7.647 -31.536  21.964  1.00  0.00     0.000 C 
BRANCH   2   3
ATOM      3  C   UNL     1       8.396 -32.386  20.925  1.00  0.00     0.000 C 
BRANCH   3   4
ATOM      4  C   UNL     1       9.797 -31.832  20.609  1.00  0.00     0.000 C 
BRANCH   4   5
ATOM      5  C   UNL     1      10.921 -32.791  21.037  1.00  0.00     0.000 C 
BRANCH   5   6
ATOM      6  C   UNL     1      11.924 -32.134  22.001  1.00  0.00     0.000 C 
BRANCH   6   7
ATOM      7  C   UNL     1      11.522 -30.701  22.387  1.00  0.00     0.006 C 
BRANCH   7   8
ATOM      8  C   UNL     1      11.611 -30.447  23.898  1.00  0.00     0.053 C 
BRANCH   8   9
ATOM      9  C   UNL     1      12.836 -29.653  24.222  1.00  0.00     0.041 C 
ATOM     10  O   UNL     1      13.344 -29.713  25.373  1.00  0.00    -0.550 OA
ATOM     11  O   UNL     1      13.448 -28.886  23.239  1.00  0.00    -0.550 OA
ENDBRANCH   8   9
ENDBRANCH   7   8
ENDBRANCH   6   7
ENDBRANCH   5   6
ENDBRANCH   4   5
ENDBRANCH   3   4
ENDBRANCH   2   3
ENDBRANCH   1   2
BRANCH   1  12
ATOM     12  C   UNL     1       8.156 -29.159  22.764  1.00  0.00     0.000 C 
BRANCH  12  13
ATOM     13  C   UNL     1       8.022 -29.838  24.135  1.00  0.00    -0.000 C 
BRANCH  13  14
ATOM     14  C   UNL     1       7.112 -29.021  25.065  1.00  0.00    -0.000 C 
BRANCH  14  15
ATOM     15  C   UNL     1       5.931 -29.839  25.622  1.00  0.00    -0.000 C 
BRANCH  15  16
ATOM     16  C   UNL     1       4.563 -29.137  25.549  1.00  0.00    -0.000 C 
BRANCH  16  17
ATOM     17  C   UNL     1       3.785 -29.469  24.267  1.00  0.00    -0.000 C 
BRANCH  17  18
ATOM     18  C   UNL     1       2.297 -29.138  24.425  1.00  0.00    -0.000 C 
BRANCH  18  19
ATOM     19  C   UNL     1       1.422 -30.213  23.769  1.00  0.00    -0.003 C 
ATOM     20  C   UNL     1       0.389 -29.588  22.836  1.00  0.00     0.004 C 
ENDBRANCH  18  19
ENDBRANCH  17  18
ENDBRANCH  16  17
ENDBRANCH  15  16
ENDBRANCH  14  15
ENDBRANCH  13  14
ENDBRANCH  12  13
ENDBRANCH   1  12
TORSDOF 16
ENDMDL
MODEL 4
REMARK VINA RESULT:    -5.850      5.289      7.474
REMARK INTER + INTRA:         -12.863
REMARK INTER:                 -10.455
REMARK INTRA:                  -2.409
REMARK UNBOUND:                -1.541
REMARK SMILES CCCCCCCCCCCCCCCCCC(=O)[O-]
REMARK SMILES IDX 10 1 11 2 12 3 13 4 14 5 15 6 16 7 17 8 18 9 19 10 20 11
REMARK SMILES IDX 9 12 8 13 7 14 6 15 5 16 4 17 3 18 2 19 1 20
REMARK H PARENT
REMARK Flexibility Score: inf
ROOT
ATOM      1  C   UNL     1       6.833 -30.723  23.810  1.00  0.00     0.000 C 
ENDROOT
BRANCH   1   2
ATOM      2  C   UNL     1       7.559 -31.170  25.092  1.00  0.00     0.000 C 
BRANCH   2   3
ATOM      3  C   UNL     1       9.062 -31.405  24.868  1.00  0.00     0.000 C 
BRANCH   3   4
ATOM      4  C   UNL     1       9.666 -32.382  25.893  1.00  0.00     0.000 C 
BRANCH   4   5
ATOM      5  C   UNL     1      10.887 -33.136  25.340  1.00  0.00     0.000 C 
BRANCH   5   6
ATOM      6  C   UNL     1      10.948 -34.596  25.821  1.00  0.00     0.000 C 
BRANCH   6   7
ATOM      7  C   UNL     1      11.577 -35.536  24.780  1.00  0.00     0.006 C 
BRANCH   7   8
ATOM      8  C   UNL     1      12.812 -34.927  24.101  1.00  0.00     0.053 C 
BRANCH   8   9
ATOM      9  C   UNL     1      14.057 -35.344  24.816  1.00  0.00     0.041 C 
ATOM     10  O   UNL     1      14.600 -34.568  25.646  1.00  0.00    -0.550 OA
ATOM     11  O   UNL     1      14.592 -36.608  24.603  1.00  0.00    -0.550 OA
ENDBRANCH   8   9
ENDBRANCH   7   8
ENDBRANCH   6   7
ENDBRANCH   5   6
ENDBRANCH   4   5
ENDBRANCH   3   4
ENDBRANCH   2   3
ENDBRANCH   1   2
BRANCH   1  12
ATOM     12  C   UNL     1       7.706 -30.875  22.554  1.00  0.00     0.000 C 
BRANCH  12  13
ATOM     13  C   UNL     1       7.224 -32.002  21.627  1.00  0.00    -0.000 C 
BRANCH  13  14
ATOM     14  C   UNL     1       8.411 -32.683  20.931  1.00  0.00    -0.000 C 
BRANCH  14  15
ATOM     15  C   UNL     1       9.718 -31.874  21.039  1.00  0.00    -0.000 C 
BRANCH  15  16
ATOM     16  C   UNL     1      10.941 -32.675  21.518  1.00  0.00    -0.000 C 
BRANCH  16  17
ATOM     17  C   UNL     1      12.001 -31.801  22.204  1.00  0.00    -0.000 C 
BRANCH  17  18
ATOM     18  C   UNL     1      11.513 -30.355  22.346  1.00  0.00    -0.000 C 
BRANCH  18  19
ATOM     19  C   UNL     1      12.539 -29.500  23.100  1.00  0.00    -0.003 C 
ATOM     20  C   UNL     1      12.745 -30.013  24.522  1.00  0.00     0.004 C 
ENDBRANCH  18  19
ENDBRANCH  17  18
ENDBRANCH  16  17
ENDBRANCH  15  16
ENDBRANCH  14  15
ENDBRANCH  13  14
ENDBRANCH  12  13
ENDBRANCH   1  12
TORSDOF 16
ENDMDL
MODEL 5
REMARK VINA RESULT:    -5.850      4.881      7.687
REMARK INTER + INTRA:         -12.862
REMARK INTER:                  -9.990
REMARK INTRA:                  -2.872
REMARK UNBOUND:                -1.541
REMARK SMILES CCCCCCCCCCCCCCCCCC(=O)[O-]
REMARK SMILES IDX 10 1 11 2 12 3 13 4 14 5 15 6 16 7 17 8 18 9 19 10 20 11
REMARK SMILES IDX 9 12 8 13 7 14 6 15 5 16 4 17 3 18 2 19 1 20
REMARK H PARENT
REMARK Flexibility Score: inf
ROOT
ATOM      1  C   UNL     1      13.138 -33.887  23.528  1.00  0.00     0.000 C 
ENDROOT
BRANCH   1   2
ATOM      2  C   UNL     1      13.772 -33.974  24.929  1.00  0.00     0.000 C 
BRANCH   2   3
ATOM      3  C   UNL     1      12.737 -33.823  26.056  1.00  0.00     0.000 C 
BRANCH   3   4
ATOM      4  C   UNL     1      11.299 -33.691  25.523  1.00  0.00     0.000 C 
BRANCH   4   5
ATOM      5  C   UNL     1      10.676 -32.320  25.838  1.00  0.00     0.000 C 
BRANCH   5   6
ATOM      6  C   UNL     1      10.201 -31.582  24.575  1.00  0.00     0.000 C 
BRANCH   6   7
ATOM      7  C   UNL     1      11.176 -30.477  24.134  1.00  0.00     0.006 C 
BRANCH   7   8
ATOM      8  C   UNL     1      12.382 -30.342  25.073  1.00  0.00     0.053 C 
BRANCH   8   9
ATOM      9  C   UNL     1      13.273 -29.230  24.619  1.00  0.00     0.041 C 
ATOM     10  O   UNL     1      13.347 -28.935  23.397  1.00  0.00    -0.550 OA
ATOM     11  O   UNL     1      13.986 -28.485  25.550  1.00  0.00    -0.550 OA
ENDBRANCH   8   9
ENDBRANCH   7   8
ENDBRANCH   6   7
ENDBRANCH   5   6
ENDBRANCH   4   5
ENDBRANCH   3   4
ENDBRANCH   2   3
ENDBRANCH   1   2
BRANCH   1  12
ATOM     12  C   UNL     1      13.771 -32.787  22.662  1.00  0.00     0.000 C 
BRANCH  12  13
ATOM     13  C   UNL     1      12.906 -32.413  21.449  1.00  0.00    -0.000 C 
BRANCH  13  14
ATOM     14  C   UNL     1      11.508 -33.041  21.559  1.00  0.00    -0.000 C 
BRANCH  14  15
ATOM     15  C   UNL     1      10.426 -32.234  20.816  1.00  0.00    -0.000 C 
BRANCH  15  16
ATOM     16  C   UNL     1       8.984 -32.719  21.042  1.00  0.00    -0.000 C 
BRANCH  16  17
ATOM     17  C   UNL     1       8.036 -31.597  21.491  1.00  0.00    -0.000 C 
BRANCH  17  18
ATOM     18  C   UNL     1       8.694 -30.223  21.328  1.00  0.00    -0.000 C 
BRANCH  18  19
ATOM     19  C   UNL     1       7.863 -29.130  22.010  1.00  0.00    -0.003 C 
ATOM     20  C   UNL     1       7.526 -29.511  23.449  1.00  0.00     0.004 C 
ENDBRANCH  18  19
ENDBRANCH  17  18
ENDBRANCH  16  17
ENDBRANCH  15  16
ENDBRANCH  14  15
ENDBRANCH  13  14
ENDBRANCH  12  13
ENDBRANCH   1  12
TORSDOF 16
ENDMDL
MODEL 6
REMARK VINA RESULT:    -5.847      3.576      5.312
REMARK INTER + INTRA:         -12.857
REMARK INTER:                 -10.424
REMARK INTRA:                  -2.433
REMARK UNBOUND:                -1.541
REMARK SMILES CCCCCCCCCCCCCCCCCC(=O)[O-]
REMARK SMILES IDX 10 1 11 2 12 3 13 4 14 5 15 6 16 7 17 8 18 9 19 10 20 11
REMARK SMILES IDX 9 12 8 13 7 14 6 15 5 16 4 17 3 18 2 19 1 20
REMARK H PARENT
REMARK Flexibility Score: inf
ROOT
ATOM      1  C   UNL     1      11.759 -31.859  21.487  1.00  0.00     0.000 C 
ENDROOT
BRANCH   1   2
ATOM      2  C   UNL     1      10.563 -32.783  21.197  1.00  0.00     0.000 C 
BRANCH   2   3
ATOM      3  C   UNL     1       9.367 -32.031  20.590  1.00  0.00     0.000 C 
BRANCH   3   4
ATOM      4  C   UNL     1       8.016 -32.547  21.114  1.00  0.00     0.000 C 
BRANCH   4   5
ATOM      5  C   UNL     1       7.218 -31.464  21.858  1.00  0.00     0.000 C 
BRANCH   5   6
ATOM      6  C   UNL     1       7.801 -30.055  21.655  1.00  0.00     0.000 C 
BRANCH   6   7
ATOM      7  C   UNL     1       8.112 -29.347  22.984  1.00  0.00     0.006 C 
BRANCH   7   8
ATOM      8  C   UNL     1       8.698 -30.296  24.038  1.00  0.00     0.053 C 
BRANCH   8   9
ATOM      9  C   UNL     1       7.879 -30.254  25.289  1.00  0.00     0.041 C 
ATOM     10  O   UNL     1       7.169 -31.242  25.615  1.00  0.00    -0.550 OA
ATOM     11  O   UNL     1       7.938 -29.145  26.123  1.00  0.00    -0.550 OA
ENDBRANCH   8   9
ENDBRANCH   7   8
ENDBRANCH   6   7
ENDBRANCH   5   6
ENDBRANCH   4   5
ENDBRANCH   3   4
ENDBRANCH   2   3
ENDBRANCH   1   2
BRANCH   1  12
ATOM     12  C   UNL     1      11.366 -30.372  21.499  1.00  0.00     0.000 C 
BRANCH  12  13
ATOM     13  C   UNL     1      12.016 -29.595  22.654  1.00  0.00    -0.000 C 
BRANCH  13  14
ATOM     14  C   UNL     1      12.953 -30.502  23.466  1.00  0.00    -0.000 C 
BRANCH  14  15
ATOM     15  C   UNL     1      12.462 -30.737  24.907  1.00  0.00    -0.000 C 
BRANCH  15  16
ATOM     16  C   UNL     1      12.365 -32.214  25.328  1.00  0.00    -0.000 C 
BRANCH  16  17
ATOM     17  C   UNL     1      13.326 -33.125  24.549  1.00  0.00    -0.000 C 
BRANCH  17  18
ATOM     18  C   UNL     1      13.122 -34.595  24.934  1.00  0.00    -0.000 C 
BRANCH  18  19
ATOM     19  C   UNL     1      11.952 -35.210  24.156  1.00  0.00    -0.003 C 
ATOM     20  C   UNL     1      11.322 -36.363  24.931  1.00  0.00     0.004 C 
ENDBRANCH  18  19
ENDBRANCH  17  18
ENDBRANCH  16  17
ENDBRANCH  15  16
ENDBRANCH  14  15
ENDBRANCH  13  14
ENDBRANCH  12  13
ENDBRANCH   1  12
TORSDOF 16
ENDMDL
MODEL 7
REMARK VINA RESULT:    -5.812      4.872      6.955
REMARK INTER + INTRA:         -12.789
REMARK INTER:                 -10.442
REMARK INTRA:                  -2.348
REMARK UNBOUND:                -1.541
REMARK SMILES CCCCCCCCCCCCCCCCCC(=O)[O-]
REMARK SMILES IDX 10 1 11 2 12 3 13 4 14 5 15 6 16 7 17 8 18 9 19 10 20 11
REMARK SMILES IDX 9 12 8 13 7 14 6 15 5 16 4 17 3 18 2 19 1 20
REMARK H PARENT
REMARK Flexibility Score: inf
ROOT
ATOM      1  C   UNL     1       6.501 -30.674  23.752  1.00  0.00     0.000 C 
ENDROOT
BRANCH   1   2
ATOM      2  C   UNL     1       7.071 -30.865  22.335  1.00  0.00     0.000 C 
BRANCH   2   3
ATOM      3  C   UNL     1       8.108 -29.792  21.966  1.00  0.00     0.000 C 
BRANCH   3   4
ATOM      4  C   UNL     1       9.429 -30.397  21.458  1.00  0.00     0.000 C 
BRANCH   4   5
ATOM      5  C   UNL     1       9.208 -31.638  20.575  1.00  0.00     0.000 C 
BRANCH   5   6
ATOM      6  C   UNL     1       9.888 -32.896  21.142  1.00  0.00     0.000 C 
BRANCH   6   7
ATOM      7  C   UNL     1      11.395 -32.699  21.376  1.00  0.00     0.006 C 
BRANCH   7   8
ATOM      8  C   UNL     1      11.896 -33.408  22.642  1.00  0.00     0.053 C 
BRANCH   8   9
ATOM      9  C   UNL     1      13.373 -33.229  22.790  1.00  0.00     0.041 C 
ATOM     10  O   UNL     1      14.056 -32.783  21.831  1.00  0.00    -0.550 OA
ATOM     11  O   UNL     1      13.990 -33.507  24.003  1.00  0.00    -0.550 OA
ENDBRANCH   8   9
ENDBRANCH   7   8
ENDBRANCH   6   7
ENDBRANCH   5   6
ENDBRANCH   4   5
ENDBRANCH   3   4
ENDBRANCH   2   3
ENDBRANCH   1   2
BRANCH   1  12
ATOM     12  C   UNL     1       7.248 -29.593  24.549  1.00  0.00     0.000 C 
BRANCH  12  13
ATOM     13  C   UNL     1       7.920 -30.144  25.815  1.00  0.00    -0.000 C 
BRANCH  13  14
ATOM     14  C   UNL     1       8.393 -31.590  25.599  1.00  0.00    -0.000 C 
BRANCH  14  15
ATOM     15  C   UNL     1       9.903 -31.692  25.314  1.00  0.00    -0.000 C 
BRANCH  15  16
ATOM     16  C   UNL     1      10.540 -30.421  24.725  1.00  0.00    -0.000 C 
BRANCH  16  17
ATOM     17  C   UNL     1      12.075 -30.475  24.700  1.00  0.00    -0.000 C 
BRANCH  17  18
ATOM     18  C   UNL     1      12.634 -29.681  23.514  1.00  0.00    -0.000 C 
BRANCH  18  19
ATOM     19  C   UNL     1      13.926 -28.951  23.900  1.00  0.00    -0.003 C 
ATOM     20  C   UNL     1      13.951 -28.626  25.390  1.00  0.00     0.004 C 
ENDBRANCH  18  19
ENDBRANCH  17  18
ENDBRANCH  16  17
ENDBRANCH  15  16
ENDBRANCH  14  15
ENDBRANCH  13  14
ENDBRANCH  12  13
ENDBRANCH   1  12
TORSDOF 16
ENDMDL
MODEL 8
REMARK VINA RESULT:    -5.798      1.493      3.436
REMARK INTER + INTRA:         -12.762
REMARK INTER:                 -10.525
REMARK INTRA:                  -2.237
REMARK UNBOUND:                -1.541
REMARK SMILES CCCCCCCCCCCCCCCCCC(=O)[O-]
REMARK SMILES IDX 10 1 11 2 12 3 13 4 14 5 15 6 16 7 17 8 18 9 19 10 20 11
REMARK SMILES IDX 9 12 8 13 7 14 6 15 5 16 4 17 3 18 2 19 1 20
REMARK H PARENT
REMARK Flexibility Score: inf
ROOT
ATOM      1  C   UNL     1       8.863 -30.002  25.376  1.00  0.00     0.000 C 
ENDROOT
BRANCH   1   2
ATOM      2  C   UNL     1       7.452 -29.479  25.699  1.00  0.00     0.000 C 
BRANCH   2   3
ATOM      3  C   UNL     1       6.344 -30.433  25.224  1.00  0.00     0.000 C 
BRANCH   3   4
ATOM      4  C   UNL     1       5.164 -29.691  24.572  1.00  0.00     0.000 C 
BRANCH   4   5
ATOM      5  C   UNL     1       4.073 -29.311  25.587  1.00  0.00     0.000 C 
BRANCH   5   6
ATOM      6  C   UNL     1       2.942 -28.479  24.957  1.00  0.00     0.000 C 
BRANCH   6   7
ATOM      7  C   UNL     1       2.562 -28.967  23.549  1.00  0.00     0.006 C 
BRANCH   7   8
ATOM      8  C   UNL     1       1.051 -28.911  23.290  1.00  0.00     0.053 C 
BRANCH   8   9
ATOM      9  C   UNL     1       0.404 -30.195  23.701  1.00  0.00     0.041 C 
ATOM     10  O   UNL     1      -0.119 -30.305  24.841  1.00  0.00    -0.550 OA
ATOM     11  O   UNL     1       0.333 -31.255  22.806  1.00  0.00    -0.550 OA
ENDBRANCH   8   9
ENDBRANCH   7   8
ENDBRANCH   6   7
ENDBRANCH   5   6
ENDBRANCH   4   5
ENDBRANCH   3   4
ENDBRANCH   2   3
ENDBRANCH   1   2
BRANCH   1  12
ATOM     12  C   UNL     1       8.916 -31.535  25.278  1.00  0.00     0.000 C 
BRANCH  12  13
ATOM     13  C   UNL     1      10.159 -32.041  24.531  1.00  0.00    -0.000 C 
BRANCH  13  14
ATOM     14  C   UNL     1      11.064 -30.871  24.118  1.00  0.00    -0.000 C 
BRANCH  14  15
ATOM     15  C   UNL     1      11.615 -31.012  22.687  1.00  0.00    -0.000 C 
BRANCH  15  16
ATOM     16  C   UNL     1      10.596 -30.733  21.568  1.00  0.00    -0.000 C 
BRANCH  16  17
ATOM     17  C   UNL     1       9.669 -29.550  21.882  1.00  0.00    -0.000 C 
BRANCH  17  18
ATOM     18  C   UNL     1       8.196 -29.960  21.769  1.00  0.00    -0.000 C 
BRANCH  18  19
ATOM     19  C   UNL     1       8.062 -31.470  21.538  1.00  0.00    -0.003 C 
ATOM     20  C   UNL     1       6.705 -31.981  22.013  1.00  0.00     0.004 C 
ENDBRANCH  18  19
ENDBRANCH  17  18
ENDBRANCH  16  17
ENDBRANCH  15  16
ENDBRANCH  14  15
ENDBRANCH  13  14
ENDBRANCH  12  13
ENDBRANCH   1  12
TORSDOF 16
ENDMDL
MODEL 9
REMARK VINA RESULT:    -5.738      4.455      7.456
REMARK INTER + INTRA:         -12.645
REMARK INTER:                  -9.785
REMARK INTRA:                  -2.860
REMARK UNBOUND:                -1.541
REMARK SMILES CCCCCCCCCCCCCCCCCC(=O)[O-]
REMARK SMILES IDX 10 1 11 2 12 3 13 4 14 5 15 6 16 7 17 8 18 9 19 10 20 11
REMARK SMILES IDX 9 12 8 13 7 14 6 15 5 16 4 17 3 18 2 19 1 20
REMARK H PARENT
REMARK Flexibility Score: inf
ROOT
ATOM      1  C   UNL     1       7.359 -31.689  21.687  1.00  0.00     0.000 C 
ENDROOT
BRANCH   1   2
ATOM      2  C   UNL     1       8.194 -30.439  21.356  1.00  0.00     0.000 C 
BRANCH   2   3
ATOM      3  C   UNL     1       9.613 -30.786  20.876  1.00  0.00     0.000 C 
BRANCH   3   4
ATOM      4  C   UNL     1      10.007 -32.239  21.199  1.00  0.00     0.000 C 
BRANCH   4   5
ATOM      5  C   UNL     1      11.529 -32.427  21.309  1.00  0.00     0.000 C 
BRANCH   5   6
ATOM      6  C   UNL     1      11.922 -33.473  22.366  1.00  0.00     0.000 C 
BRANCH   6   7
ATOM      7  C   UNL     1      13.302 -33.198  22.986  1.00  0.00     0.006 C 
BRANCH   7   8
ATOM      8  C   UNL     1      13.363 -33.556  24.477  1.00  0.00     0.053 C 
BRANCH   8   9
ATOM      9  C   UNL     1      12.940 -34.974  24.691  1.00  0.00     0.041 C 
ATOM     10  O   UNL     1      13.755 -35.914  24.501  1.00  0.00    -0.550 OA
ATOM     11  O   UNL     1      11.659 -35.256  25.149  1.00  0.00    -0.550 OA
ENDBRANCH   8   9
ENDBRANCH   7   8
ENDBRANCH   6   7
ENDBRANCH   5   6
ENDBRANCH   4   5
ENDBRANCH   3   4
ENDBRANCH   2   3
ENDBRANCH   1   2
BRANCH   1  12
ATOM     12  C   UNL     1       6.613 -31.564  23.025  1.00  0.00     0.000 C 
BRANCH  12  13
ATOM     13  C   UNL     1       6.580 -30.122  23.554  1.00  0.00    -0.000 C 
BRANCH  13  14
ATOM     14  C   UNL     1       6.726 -30.096  25.083  1.00  0.00    -0.000 C 
BRANCH  14  15
ATOM     15  C   UNL     1       8.188 -29.953  25.545  1.00  0.00    -0.000 C 
BRANCH  15  16
ATOM     16  C   UNL     1       8.884 -31.275  25.917  1.00  0.00    -0.000 C 
BRANCH  16  17
ATOM     17  C   UNL     1      10.032 -31.638  24.963  1.00  0.00    -0.000 C 
BRANCH  17  18
ATOM     18  C   UNL     1      10.617 -30.384  24.303  1.00  0.00    -0.000 C 
BRANCH  18  19
ATOM     19  C   UNL     1      12.090 -30.199  24.684  1.00  0.00    -0.003 C 
ATOM     20  C   UNL     1      12.875 -29.546  23.550  1.00  0.00     0.004 C 
ENDBRANCH  18  19
ENDBRANCH  17  18
ENDBRANCH  16  17
ENDBRANCH  15  16
ENDBRANCH  14  15
ENDBRANCH  13  14
ENDBRANCH  12  13
ENDBRANCH   1  12
TORSDOF 16
ENDMDL
