MODEL 1
REMARK VINA RESULT:    -4.258      0.000      0.000
REMARK INTER + INTRA:          -5.149
REMARK INTER:                  -5.254
REMARK INTRA:                   0.105
REMARK UNBOUND:                 0.105
REMARK SMILES Oc1cc(O)c2cc(O)c(-c3cc(O)c(O)c(O)c3)[o+]c2c1.[Cl-]
REMARK SMILES IDX 10 1 20 2 21 3 22 4 2 5 3 6 4 7 6 8 7 9 8 10 11 11 12 12
REMARK SMILES IDX 13 13 19 14 15 15 17 16 14 17 16 19 18 21 9 23 1 25 5 27
REMARK H PARENT 14 18 16 20 18 22 9 24 1 26 5 28
REMARK Flexibility Score: inf
ROOT
ATOM      1  C   UNL     1      28.693  30.879  34.625  1.00  0.00     0.402 A 
ATOM      2  O   UNL     1      27.620  31.083  35.384  1.00  0.00    -0.202 OA
ATOM      3  C   UNL     1      26.953  32.232  35.413  1.00  0.00     0.368 A 
ATOM      4  C   UNL     1      25.834  32.349  36.241  1.00  0.00     0.162 A 
ATOM      5  C   UNL     1      25.113  33.542  36.289  1.00  0.00     0.128 A 
ATOM      6  C   UNL     1      25.513  34.630  35.503  1.00  0.00     0.093 A 
ATOM      7  C   UNL     1      26.631  34.538  34.664  1.00  0.00     0.136 A 
ATOM      8  C   UNL     1      27.367  33.326  34.615  1.00  0.00     0.125 A 
ATOM      9  C   UNL     1      28.508  33.148  33.815  1.00  0.00     0.078 A 
ATOM     10  C   UNL     1      29.185  31.925  33.823  1.00  0.00     0.223 A 
ENDROOT
BRANCH   1  11
ATOM     11  C   UNL     1      29.343  29.550  34.673  1.00  0.00     0.091 A 
ATOM     12  C   UNL     1      29.939  28.984  33.533  1.00  0.00     0.068 A 
ATOM     13  C   UNL     1      30.530  27.715  33.593  1.00  0.00     0.162 A 
ATOM     14  C   UNL     1      29.316  28.811  35.867  1.00  0.00     0.068 A 
ATOM     15  C   UNL     1      30.517  26.993  34.798  1.00  0.00     0.200 A 
ATOM     16  C   UNL     1      29.906  27.542  35.934  1.00  0.00     0.162 A 
BRANCH  13  17
ATOM     17  O   UNL     1      31.124  27.165  32.457  1.00  0.00    -0.504 OA
ATOM     18  H   UNL     1      30.640  26.490  31.878  1.00  0.00     0.293 HD
ENDBRANCH  13  17
BRANCH  15  19
ATOM     19  O   UNL     1      31.103  25.729  34.885  1.00  0.00    -0.502 OA
ATOM     20  H   UNL     1      30.741  24.932  34.374  1.00  0.00     0.293 HD
ENDBRANCH  15  19
BRANCH  16  21
ATOM     21  O   UNL     1      29.889  26.820  37.125  1.00  0.00    -0.504 OA
ATOM     22  H   UNL     1      29.395  27.156  37.942  1.00  0.00     0.293 HD
ENDBRANCH  16  21
ENDBRANCH   1  11
BRANCH  10  23
ATOM     23  O   UNL     1      30.346  31.763  33.066  1.00  0.00    -0.500 OA
ATOM     24  H   UNL     1      30.324  31.754  32.053  1.00  0.00     0.294 HD
ENDBRANCH  10  23
BRANCH   5  25
ATOM     25  O   UNL     1      24.000  33.639  37.121  1.00  0.00    -0.507 OA
ATOM     26  H   UNL     1      23.334  34.397  37.029  1.00  0.00     0.293 HD
ENDBRANCH   5  25
BRANCH   7  27
ATOM     27  O   UNL     1      26.962  35.666  33.910  1.00  0.00    -0.507 OA
ATOM     28  H   UNL     1      26.517  35.922  33.040  1.00  0.00     0.293 HD
ENDBRANCH   7  27
TORSDOF 7
ENDMDL
MODEL 2
REMARK VINA RESULT:    -3.701      1.472      7.412
REMARK INTER + INTRA:          -4.461
REMARK INTER:                  -4.485
REMARK INTRA:                   0.024
REMARK UNBOUND:                 0.105
REMARK SMILES Oc1cc(O)c2cc(O)c(-c3cc(O)c(O)c(O)c3)[o+]c2c1.[Cl-]
REMARK SMILES IDX 10 1 20 2 21 3 22 4 2 5 3 6 4 7 6 8 7 9 8 10 11 11 12 12
REMARK SMILES IDX 13 13 19 14 15 15 17 16 14 17 16 19 18 21 9 23 1 25 5 27
REMARK H PARENT 14 18 16 20 18 22 9 24 1 26 5 28
REMARK Flexibility Score: inf
ROOT
ATOM      1  C   UNL     1      28.933  31.681  34.779  1.00  0.00     0.402 A 
ATOM      2  O   UNL     1      29.280  30.799  33.845  1.00  0.00    -0.202 OA
ATOM      3  C   UNL     1      29.869  29.640  34.119  1.00  0.00     0.368 A 
ATOM      4  C   UNL     1      30.193  28.777  33.069  1.00  0.00     0.162 A 
ATOM      5  C   UNL     1      30.809  27.552  33.327  1.00  0.00     0.128 A 
ATOM      6  C   UNL     1      31.106  27.185  34.646  1.00  0.00     0.093 A 
ATOM      7  C   UNL     1      30.791  28.033  35.715  1.00  0.00     0.136 A 
ATOM      8  C   UNL     1      30.166  29.280  35.456  1.00  0.00     0.125 A 
ATOM      9  C   UNL     1      29.827  30.198  36.463  1.00  0.00     0.078 A 
ATOM     10  C   UNL     1      29.217  31.411  36.130  1.00  0.00     0.223 A 
ENDROOT
BRANCH   1  11
ATOM     11  C   UNL     1      28.272  32.934  34.347  1.00  0.00     0.091 A 
ATOM     12  C   UNL     1      27.196  33.480  35.069  1.00  0.00     0.068 A 
ATOM     13  C   UNL     1      26.569  34.655  34.632  1.00  0.00     0.162 A 
ATOM     14  C   UNL     1      28.689  33.563  33.164  1.00  0.00     0.068 A 
ATOM     15  C   UNL     1      27.008  35.288  33.457  1.00  0.00     0.200 A 
ATOM     16  C   UNL     1      28.066  34.738  32.722  1.00  0.00     0.162 A 
BRANCH  13  17
ATOM     17  O   UNL     1      25.506  35.192  35.358  1.00  0.00    -0.504 OA
ATOM     18  H   UNL     1      24.836  34.600  35.836  1.00  0.00     0.293 HD
ENDBRANCH  13  17
BRANCH  15  19
ATOM     19  O   UNL     1      26.402  36.461  33.005  1.00  0.00    -0.502 OA
ATOM     20  H   UNL     1      26.282  37.270  33.603  1.00  0.00     0.293 HD
ENDBRANCH  15  19
BRANCH  16  21
ATOM     21  O   UNL     1      28.494  35.365  31.554  1.00  0.00    -0.504 OA
ATOM     22  H   UNL     1      28.640  34.847  30.696  1.00  0.00     0.293 HD
ENDBRANCH  16  21
ENDBRANCH   1  11
BRANCH  10  23
ATOM     23  O   UNL     1      28.924  32.344  37.125  1.00  0.00    -0.500 OA
ATOM     24  H   UNL     1      29.558  33.103  37.347  1.00  0.00     0.294 HD
ENDBRANCH  10  23
BRANCH   5  25
ATOM     25  O   UNL     1      31.125  26.706  32.267  1.00  0.00    -0.507 OA
ATOM     26  H   UNL     1      30.592  25.863  32.086  1.00  0.00     0.293 HD
ENDBRANCH   5  25
BRANCH   7  27
ATOM     27  O   UNL     1      31.116  27.593  37.001  1.00  0.00    -0.507 OA
ATOM     28  H   UNL     1      32.038  27.651  37.408  1.00  0.00     0.293 HD
ENDBRANCH   7  27
TORSDOF 7
ENDMDL
MODEL 3
REMARK VINA RESULT:    -3.675      4.028      6.621
REMARK INTER + INTRA:          -4.429
REMARK INTER:                  -4.853
REMARK INTRA:                   0.424
REMARK UNBOUND:                 0.105
REMARK SMILES Oc1cc(O)c2cc(O)c(-c3cc(O)c(O)c(O)c3)[o+]c2c1.[Cl-]
REMARK SMILES IDX 10 1 20 2 21 3 22 4 2 5 3 6 4 7 6 8 7 9 8 10 11 11 12 12
REMARK SMILES IDX 13 13 19 14 15 15 17 16 14 17 16 19 18 21 9 23 1 25 5 27
REMARK H PARENT 14 18 16 20 18 22 9 24 1 26 5 28
REMARK Flexibility Score: inf
ROOT
ATOM      1  C   UNL     1      30.797  29.363  31.703  1.00  0.00     0.402 A 
ATOM      2  O   UNL     1      30.847  28.636  30.590  1.00  0.00    -0.202 OA
ATOM      3  C   UNL     1      30.933  29.166  29.375  1.00  0.00     0.368 A 
ATOM      4  C   UNL     1      30.982  28.318  28.265  1.00  0.00     0.162 A 
ATOM      5  C   UNL     1      31.076  28.847  26.978  1.00  0.00     0.128 A 
ATOM      6  C   UNL     1      31.120  30.235  26.795  1.00  0.00     0.093 A 
ATOM      7  C   UNL     1      31.072  31.105  27.892  1.00  0.00     0.136 A 
ATOM      8  C   UNL     1      30.975  30.571  29.202  1.00  0.00     0.125 A 
ATOM      9  C   UNL     1      30.907  31.367  30.358  1.00  0.00     0.078 A 
ATOM     10  C   UNL     1      30.808  30.767  31.616  1.00  0.00     0.223 A 
ENDROOT
BRANCH   1  11
ATOM     11  C   UNL     1      30.714  28.654  33.000  1.00  0.00     0.091 A 
ATOM     12  C   UNL     1      30.947  27.271  33.095  1.00  0.00     0.068 A 
ATOM     13  C   UNL     1      30.842  26.614  34.328  1.00  0.00     0.162 A 
ATOM     14  C   UNL     1      30.341  29.364  34.152  1.00  0.00     0.068 A 
ATOM     15  C   UNL     1      30.488  27.337  35.479  1.00  0.00     0.200 A 
ATOM     16  C   UNL     1      30.234  28.712  35.388  1.00  0.00     0.162 A 
BRANCH  13  17
ATOM     17  O   UNL     1      31.081  25.242  34.413  1.00  0.00    -0.504 OA
ATOM     18  H   UNL     1      31.397  24.810  35.273  1.00  0.00     0.293 HD
ENDBRANCH  13  17
BRANCH  15  19
ATOM     19  O   UNL     1      30.382  26.706  36.720  1.00  0.00    -0.502 OA
ATOM     20  H   UNL     1      31.181  26.289  37.182  1.00  0.00     0.293 HD
ENDBRANCH  15  19
BRANCH  16  21
ATOM     21  O   UNL     1      29.877  29.425  36.531  1.00  0.00    -0.504 OA
ATOM     22  H   UNL     1      29.075  29.163  37.091  1.00  0.00     0.293 HD
ENDBRANCH  16  21
ENDBRANCH   1  11
BRANCH  10  23
ATOM     23  O   UNL     1      30.692  31.558  32.760  1.00  0.00    -0.500 OA
ATOM     24  H   UNL     1      30.171  32.427  32.757  1.00  0.00     0.294 HD
ENDBRANCH  10  23
BRANCH   5  25
ATOM     25  O   UNL     1      31.124  27.986  25.884  1.00  0.00    -0.507 OA
ATOM     26  H   UNL     1      30.285  27.559  25.509  1.00  0.00     0.293 HD
ENDBRANCH   5  25
BRANCH   7  27
ATOM     27  O   UNL     1      31.125  32.476  27.626  1.00  0.00    -0.507 OA
ATOM     28  H   UNL     1      31.353  33.182  28.312  1.00  0.00     0.293 HD
ENDBRANCH   7  27
TORSDOF 7
ENDMDL
MODEL 4
REMARK VINA RESULT:    -3.554      1.458      7.206
REMARK INTER + INTRA:          -4.280
REMARK INTER:                  -4.375
REMARK INTRA:                   0.094
REMARK UNBOUND:                 0.105
REMARK SMILES Oc1cc(O)c2cc(O)c(-c3cc(O)c(O)c(O)c3)[o+]c2c1.[Cl-]
REMARK SMILES IDX 10 1 20 2 21 3 22 4 2 5 3 6 4 7 6 8 7 9 8 10 11 11 12 12
REMARK SMILES IDX 13 13 19 14 15 15 17 16 14 17 16 19 18 21 9 23 1 25 5 27
REMARK H PARENT 14 18 16 20 18 22 9 24 1 26 5 28
REMARK Flexibility Score: inf
ROOT
ATOM      1  C   UNL     1      28.918  31.675  34.757  1.00  0.00     0.402 A 
ATOM      2  O   UNL     1      29.267  30.762  33.855  1.00  0.00    -0.202 OA
ATOM      3  C   UNL     1      29.860  29.615  34.169  1.00  0.00     0.368 A 
ATOM      4  C   UNL     1      30.187  28.716  33.150  1.00  0.00     0.162 A 
ATOM      5  C   UNL     1      30.807  27.504  33.451  1.00  0.00     0.128 A 
ATOM      6  C   UNL     1      31.104  27.184  34.781  1.00  0.00     0.093 A 
ATOM      7  C   UNL     1      30.787  28.067  35.821  1.00  0.00     0.136 A 
ATOM      8  C   UNL     1      30.158  29.302  35.517  1.00  0.00     0.125 A 
ATOM      9  C   UNL     1      29.816  30.255  36.492  1.00  0.00     0.078 A 
ATOM     10  C   UNL     1      29.202  31.453  36.117  1.00  0.00     0.223 A 
ENDROOT
BRANCH   1  11
ATOM     11  C   UNL     1      28.252  32.909  34.282  1.00  0.00     0.091 A 
ATOM     12  C   UNL     1      28.683  33.573  33.120  1.00  0.00     0.068 A 
ATOM     13  C   UNL     1      28.053  34.752  32.698  1.00  0.00     0.162 A 
ATOM     14  C   UNL     1      27.205  33.462  35.035  1.00  0.00     0.068 A 
ATOM     15  C   UNL     1      26.992  35.286  33.448  1.00  0.00     0.200 A 
ATOM     16  C   UNL     1      26.571  34.640  34.619  1.00  0.00     0.162 A 
BRANCH  13  17
ATOM     17  O   UNL     1      28.485  35.399  31.541  1.00  0.00    -0.504 OA
ATOM     18  H   UNL     1      27.953  35.358  30.680  1.00  0.00     0.293 HD
ENDBRANCH  13  17
BRANCH  15  19
ATOM     19  O   UNL     1      26.347  36.456  33.046  1.00  0.00    -0.502 OA
ATOM     20  H   UNL     1      26.392  36.796  32.093  1.00  0.00     0.293 HD
ENDBRANCH  15  19
BRANCH  16  21
ATOM     21  O   UNL     1      25.522  35.177  35.363  1.00  0.00    -0.504 OA
ATOM     22  H   UNL     1      25.691  35.770  36.166  1.00  0.00     0.293 HD
ENDBRANCH  16  21
ENDBRANCH   1  11
BRANCH  10  23
ATOM     23  O   UNL     1      28.907  32.419  37.079  1.00  0.00    -0.500 OA
ATOM     24  H   UNL     1      29.078  33.404  36.914  1.00  0.00     0.294 HD
ENDBRANCH  10  23
BRANCH   5  25
ATOM     25  O   UNL     1      31.125  26.621  32.421  1.00  0.00    -0.507 OA
ATOM     26  H   UNL     1      32.083  26.475  32.125  1.00  0.00     0.293 HD
ENDBRANCH   5  25
BRANCH   7  27
ATOM     27  O   UNL     1      31.113  27.674  37.121  1.00  0.00    -0.507 OA
ATOM     28  H   UNL     1      31.716  26.895  37.347  1.00  0.00     0.293 HD
ENDBRANCH   7  27
TORSDOF 7
ENDMDL
MODEL 5
REMARK VINA RESULT:    -3.428      4.035      7.119
REMARK INTER + INTRA:          -4.125
REMARK INTER:                  -4.509
REMARK INTRA:                   0.385
REMARK UNBOUND:                 0.105
REMARK SMILES Oc1cc(O)c2cc(O)c(-c3cc(O)c(O)c(O)c3)[o+]c2c1.[Cl-]
REMARK SMILES IDX 10 1 20 2 21 3 22 4 2 5 3 6 4 7 6 8 7 9 8 10 11 11 12 12
REMARK SMILES IDX 13 13 19 14 15 15 17 16 14 17 16 19 18 21 9 23 1 25 5 27
REMARK H PARENT 14 18 16 20 18 22 9 24 1 26 5 28
REMARK Flexibility Score: inf
ROOT
ATOM      1  C   UNL     1      30.942  29.320  31.259  1.00  0.00     0.402 A 
ATOM      2  O   UNL     1      31.021  28.158  31.901  1.00  0.00    -0.202 OA
ATOM      3  C   UNL     1      30.962  28.050  33.224  1.00  0.00     0.368 A 
ATOM      4  C   UNL     1      31.051  26.783  33.808  1.00  0.00     0.162 A 
ATOM      5  C   UNL     1      30.989  26.640  35.194  1.00  0.00     0.128 A 
ATOM      6  C   UNL     1      30.837  27.771  36.006  1.00  0.00     0.093 A 
ATOM      7  C   UNL     1      30.746  29.051  35.445  1.00  0.00     0.136 A 
ATOM      8  C   UNL     1      30.810  29.200  34.036  1.00  0.00     0.125 A 
ATOM      9  C   UNL     1      30.742  30.445  33.388  1.00  0.00     0.078 A 
ATOM     10  C   UNL     1      30.817  30.513  31.993  1.00  0.00     0.223 A 
ENDROOT
BRANCH   1  11
ATOM     11  C   UNL     1      31.009  29.308  29.780  1.00  0.00     0.091 A 
ATOM     12  C   UNL     1      31.044  30.502  29.038  1.00  0.00     0.068 A 
ATOM     13  C   UNL     1      31.085  30.470  27.638  1.00  0.00     0.162 A 
ATOM     14  C   UNL     1      30.983  28.082  29.097  1.00  0.00     0.068 A 
ATOM     15  C   UNL     1      31.080  29.237  26.965  1.00  0.00     0.200 A 
ATOM     16  C   UNL     1      31.025  28.043  27.697  1.00  0.00     0.162 A 
BRANCH  13  17
ATOM     17  O   UNL     1      31.125  31.660  26.912  1.00  0.00    -0.504 OA
ATOM     18  H   UNL     1      30.554  32.457  27.167  1.00  0.00     0.293 HD
ENDBRANCH  13  17
BRANCH  15  19
ATOM     19  O   UNL     1      31.125  29.179  25.571  1.00  0.00    -0.502 OA
ATOM     20  H   UNL     1      30.764  29.926  24.989  1.00  0.00     0.293 HD
ENDBRANCH  15  19
BRANCH  16  21
ATOM     21  O   UNL     1      31.012  26.822  27.026  1.00  0.00    -0.504 OA
ATOM     22  H   UNL     1      31.697  26.102  27.222  1.00  0.00     0.293 HD
ENDBRANCH  16  21
ENDBRANCH   1  11
BRANCH  10  23
ATOM     23  O   UNL     1      30.797  31.752  31.352  1.00  0.00    -0.500 OA
ATOM     24  H   UNL     1      31.412  32.507  31.632  1.00  0.00     0.294 HD
ENDBRANCH  10  23
BRANCH   5  25
ATOM     25  O   UNL     1      31.079  25.369  35.758  1.00  0.00    -0.507 OA
ATOM     26  H   UNL     1      30.381  25.026  36.406  1.00  0.00     0.293 HD
ENDBRANCH   5  25
BRANCH   7  27
ATOM     27  O   UNL     1      30.593  30.127  36.323  1.00  0.00    -0.507 OA
ATOM     28  H   UNL     1      30.217  30.053  37.257  1.00  0.00     0.293 HD
ENDBRANCH   7  27
TORSDOF 7
ENDMDL
MODEL 6
REMARK VINA RESULT:    -3.369      1.199      2.635
REMARK INTER + INTRA:          -4.051
REMARK INTER:                  -4.447
REMARK INTRA:                   0.396
REMARK UNBOUND:                 0.105
REMARK SMILES Oc1cc(O)c2cc(O)c(-c3cc(O)c(O)c(O)c3)[o+]c2c1.[Cl-]
REMARK SMILES IDX 10 1 20 2 21 3 22 4 2 5 3 6 4 7 6 8 7 9 8 10 11 11 12 12
REMARK SMILES IDX 13 13 19 14 15 15 17 16 14 17 16 19 18 21 9 23 1 25 5 27
REMARK H PARENT 14 18 16 20 18 22 9 24 1 26 5 28
REMARK Flexibility Score: inf
ROOT
ATOM      1  C   UNL     1      28.335  31.134  35.052  1.00  0.00     0.402 A 
ATOM      2  O   UNL     1      28.494  32.035  34.086  1.00  0.00    -0.202 OA
ATOM      3  C   UNL     1      27.882  33.215  34.079  1.00  0.00     0.368 A 
ATOM      4  C   UNL     1      28.116  34.097  33.020  1.00  0.00     0.162 A 
ATOM      5  C   UNL     1      27.490  35.343  32.989  1.00  0.00     0.128 A 
ATOM      6  C   UNL     1      26.622  35.713  34.024  1.00  0.00     0.093 A 
ATOM      7  C   UNL     1      26.372  34.847  35.096  1.00  0.00     0.136 A 
ATOM      8  C   UNL     1      27.006  33.578  35.130  1.00  0.00     0.125 A 
ATOM      9  C   UNL     1      26.803  32.641  36.157  1.00  0.00     0.078 A 
ATOM     10  C   UNL     1      27.460  31.408  36.119  1.00  0.00     0.223 A 
ENDROOT
BRANCH   1  11
ATOM     11  C   UNL     1      29.082  29.860  34.950  1.00  0.00     0.091 A 
ATOM     12  C   UNL     1      29.654  29.440  33.737  1.00  0.00     0.068 A 
ATOM     13  C   UNL     1      30.338  28.220  33.656  1.00  0.00     0.162 A 
ATOM     14  C   UNL     1      29.175  29.024  36.074  1.00  0.00     0.068 A 
ATOM     15  C   UNL     1      30.444  27.400  34.792  1.00  0.00     0.200 A 
ATOM     16  C   UNL     1      29.859  27.803  36.000  1.00  0.00     0.162 A 
BRANCH  13  17
ATOM     17  O   UNL     1      30.907  27.816  32.449  1.00  0.00    -0.504 OA
ATOM     18  H   UNL     1      31.909  27.830  32.303  1.00  0.00     0.293 HD
ENDBRANCH  13  17
BRANCH  15  19
ATOM     19  O   UNL     1      31.125  26.183  34.738  1.00  0.00    -0.502 OA
ATOM     20  H   UNL     1      31.974  26.017  35.266  1.00  0.00     0.293 HD
ENDBRANCH  15  19
BRANCH  16  21
ATOM     21  O   UNL     1      29.961  26.984  37.122  1.00  0.00    -0.504 OA
ATOM     22  H   UNL     1      30.286  26.027  37.053  1.00  0.00     0.293 HD
ENDBRANCH  16  21
ENDBRANCH   1  11
BRANCH  10  23
ATOM     23  O   UNL     1      27.222  30.458  37.113  1.00  0.00    -0.500 OA
ATOM     24  H   UNL     1      26.813  30.711  38.005  1.00  0.00     0.294 HD
ENDBRANCH  10  23
BRANCH   5  25
ATOM     25  O   UNL     1      27.735  36.207  31.925  1.00  0.00    -0.507 OA
ATOM     26  H   UNL     1      27.197  36.159  31.068  1.00  0.00     0.293 HD
ENDBRANCH   5  25
BRANCH   7  27
ATOM     27  O   UNL     1      25.497  35.292  36.090  1.00  0.00    -0.507 OA
ATOM     28  H   UNL     1      24.559  34.941  36.224  1.00  0.00     0.293 HD
ENDBRANCH   7  27
TORSDOF 7
ENDMDL
MODEL 7
REMARK VINA RESULT:    -3.343      3.958      6.800
REMARK INTER + INTRA:          -4.020
REMARK INTER:                  -4.481
REMARK INTRA:                   0.461
REMARK UNBOUND:                 0.105
REMARK SMILES Oc1cc(O)c2cc(O)c(-c3cc(O)c(O)c(O)c3)[o+]c2c1.[Cl-]
REMARK SMILES IDX 10 1 20 2 21 3 22 4 2 5 3 6 4 7 6 8 7 9 8 10 11 11 12 12
REMARK SMILES IDX 13 13 19 14 15 15 17 16 14 17 16 19 18 21 9 23 1 25 5 27
REMARK H PARENT 14 18 16 20 18 22 9 24 1 26 5 28
REMARK Flexibility Score: inf
ROOT
ATOM      1  C   UNL     1      31.020  29.817  31.426  1.00  0.00     0.402 A 
ATOM      2  O   UNL     1      30.913  30.809  32.307  1.00  0.00    -0.202 OA
ATOM      3  C   UNL     1      30.879  30.618  33.621  1.00  0.00     0.368 A 
ATOM      4  C   UNL     1      30.767  31.725  34.467  1.00  0.00     0.162 A 
ATOM      5  C   UNL     1      30.732  31.554  35.851  1.00  0.00     0.128 A 
ATOM      6  C   UNL     1      30.809  30.267  36.397  1.00  0.00     0.093 A 
ATOM      7  C   UNL     1      30.921  29.141  35.570  1.00  0.00     0.136 A 
ATOM      8  C   UNL     1      30.956  29.312  34.162  1.00  0.00     0.125 A 
ATOM      9  C   UNL     1      31.052  28.241  33.257  1.00  0.00     0.078 A 
ATOM     10  C   UNL     1      31.075  28.487  31.881  1.00  0.00     0.223 A 
ENDROOT
BRANCH   1  11
ATOM     11  C   UNL     1      31.059  30.160  29.986  1.00  0.00     0.091 A 
ATOM     12  C   UNL     1      31.031  31.496  29.550  1.00  0.00     0.068 A 
ATOM     13  C   UNL     1      31.047  31.800  28.182  1.00  0.00     0.162 A 
ATOM     14  C   UNL     1      31.069  29.131  29.032  1.00  0.00     0.068 A 
ATOM     15  C   UNL     1      31.078  30.763  27.235  1.00  0.00     0.200 A 
ATOM     16  C   UNL     1      31.086  29.428  27.663  1.00  0.00     0.162 A 
BRANCH  13  17
ATOM     17  O   UNL     1      31.024  33.129  27.761  1.00  0.00    -0.504 OA
ATOM     18  H   UNL     1      31.528  33.853  28.259  1.00  0.00     0.293 HD
ENDBRANCH  13  17
BRANCH  15  19
ATOM     19  O   UNL     1      31.099  31.040  25.868  1.00  0.00    -0.502 OA
ATOM     20  H   UNL     1      30.355  31.555  25.411  1.00  0.00     0.293 HD
ENDBRANCH  15  19
BRANCH  16  21
ATOM     21  O   UNL     1      31.110  28.403  26.720  1.00  0.00    -0.504 OA
ATOM     22  H   UNL     1      31.554  27.513  26.915  1.00  0.00     0.293 HD
ENDBRANCH  16  21
ENDBRANCH   1  11
BRANCH  10  23
ATOM     23  O   UNL     1      31.123  27.422  30.981  1.00  0.00    -0.500 OA
ATOM     24  H   UNL     1      30.473  27.350  30.207  1.00  0.00     0.294 HD
ENDBRANCH  10  23
BRANCH   5  25
ATOM     25  O   UNL     1      30.620  32.669  36.677  1.00  0.00    -0.507 OA
ATOM     26  H   UNL     1      29.777  32.854  37.207  1.00  0.00     0.293 HD
ENDBRANCH   5  25
BRANCH   7  27
ATOM     27  O   UNL     1      30.996  27.893  36.192  1.00  0.00    -0.507 OA
ATOM     28  H   UNL     1      30.303  27.164  36.096  1.00  0.00     0.293 HD
ENDBRANCH   7  27
TORSDOF 7
ENDMDL
MODEL 8
REMARK VINA RESULT:    -3.172      0.937      2.078
REMARK INTER + INTRA:          -3.808
REMARK INTER:                  -4.077
REMARK INTRA:                   0.268
REMARK UNBOUND:                 0.105
REMARK SMILES Oc1cc(O)c2cc(O)c(-c3cc(O)c(O)c(O)c3)[o+]c2c1.[Cl-]
REMARK SMILES IDX 10 1 20 2 21 3 22 4 2 5 3 6 4 7 6 8 7 9 8 10 11 11 12 12
REMARK SMILES IDX 13 13 19 14 15 15 17 16 14 17 16 19 18 21 9 23 1 25 5 27
REMARK H PARENT 14 18 16 20 18 22 9 24 1 26 5 28
REMARK Flexibility Score: inf
ROOT
ATOM      1  C   UNL     1      29.084  31.163  34.016  1.00  0.00     0.402 A 
ATOM      2  O   UNL     1      28.154  31.660  34.827  1.00  0.00    -0.202 OA
ATOM      3  C   UNL     1      27.621  32.867  34.673  1.00  0.00     0.368 A 
ATOM      4  C   UNL     1      26.647  33.301  35.577  1.00  0.00     0.162 A 
ATOM      5  C   UNL     1      26.067  34.562  35.437  1.00  0.00     0.128 A 
ATOM      6  C   UNL     1      26.463  35.399  34.387  1.00  0.00     0.093 A 
ATOM      7  C   UNL     1      27.437  34.987  33.468  1.00  0.00     0.136 A 
ATOM      8  C   UNL     1      28.030  33.706  33.608  1.00  0.00     0.125 A 
ATOM      9  C   UNL     1      29.023  33.216  32.744  1.00  0.00     0.078 A 
ATOM     10  C   UNL     1      29.564  31.943  32.948  1.00  0.00     0.223 A 
ENDROOT
BRANCH   1  11
ATOM     11  C   UNL     1      29.592  29.799  34.286  1.00  0.00     0.091 A 
ATOM     12  C   UNL     1      29.620  29.272  35.589  1.00  0.00     0.068 A 
ATOM     13  C   UNL     1      30.125  27.987  35.828  1.00  0.00     0.162 A 
ATOM     14  C   UNL     1      30.109  29.032  33.229  1.00  0.00     0.068 A 
ATOM     15  C   UNL     1      30.621  27.220  34.760  1.00  0.00     0.200 A 
ATOM     16  C   UNL     1      30.614  27.746  33.461  1.00  0.00     0.162 A 
BRANCH  13  17
ATOM     17  O   UNL     1      30.144  27.472  37.124  1.00  0.00    -0.504 OA
ATOM     18  H   UNL     1      29.760  26.560  37.338  1.00  0.00     0.293 HD
ENDBRANCH  13  17
BRANCH  15  19
ATOM     19  O   UNL     1      31.124  25.936  34.972  1.00  0.00    -0.502 OA
ATOM     20  H   UNL     1      31.976  25.771  35.496  1.00  0.00     0.293 HD
ENDBRANCH  15  19
BRANCH  16  21
ATOM     21  O   UNL     1      31.112  26.985  32.406  1.00  0.00    -0.504 OA
ATOM     22  H   UNL     1      32.035  26.569  32.442  1.00  0.00     0.293 HD
ENDBRANCH  16  21
ENDBRANCH   1  11
BRANCH  10  23
ATOM     23  O   UNL     1      30.584  31.475  32.119  1.00  0.00    -0.500 OA
ATOM     24  H   UNL     1      30.386  30.963  31.268  1.00  0.00     0.294 HD
ENDBRANCH  10  23
BRANCH   5  25
ATOM     25  O   UNL     1      25.098  34.977  36.348  1.00  0.00    -0.507 OA
ATOM     26  H   UNL     1      24.991  34.527  37.249  1.00  0.00     0.293 HD
ENDBRANCH   5  25
BRANCH   7  27
ATOM     27  O   UNL     1      27.775  35.879  32.447  1.00  0.00    -0.507 OA
ATOM     28  H   UNL     1      28.520  35.729  31.781  1.00  0.00     0.293 HD
ENDBRANCH   7  27
TORSDOF 7
ENDMDL
