MODEL 1
REMARK VINA RESULT:    -3.693      0.000      0.000
REMARK INTER + INTRA:         -10.136
REMARK INTER:                  -7.147
REMARK INTRA:                  -2.989
REMARK UNBOUND:                -2.989
REMARK SMILES CCCCCCCCCCCCCCCCCC(=O)[O-]
REMARK SMILES IDX 10 1 11 2 12 3 13 4 14 5 15 6 16 7 17 8 18 9 19 10 20 11
REMARK SMILES IDX 9 12 8 13 7 14 6 15 5 16 4 17 3 18 2 19 1 20
REMARK H PARENT
REMARK Flexibility Score: inf
ROOT
ATOM      1  C   UNL     1      15.569   0.122  56.953  1.00  0.00     0.000 C 
ENDROOT
BRANCH   1   2
ATOM      2  C   UNL     1      14.913   0.754  58.192  1.00  0.00     0.000 C 
BRANCH   2   3
ATOM      3  C   UNL     1      15.661   2.006  58.682  1.00  0.00     0.000 C 
BRANCH   3   4
ATOM      4  C   UNL     1      15.594   3.166  57.676  1.00  0.00     0.000 C 
BRANCH   4   5
ATOM      5  C   UNL     1      16.962   3.498  57.058  1.00  0.00     0.000 C 
BRANCH   5   6
ATOM      6  C   UNL     1      16.848   3.669  55.536  1.00  0.00     0.000 C 
BRANCH   6   7
ATOM      7  C   UNL     1      17.871   2.819  54.766  1.00  0.00     0.006 C 
BRANCH   7   8
ATOM      8  C   UNL     1      19.321   3.196  55.095  1.00  0.00     0.053 C 
BRANCH   8   9
ATOM      9  C   UNL     1      19.869   4.120  54.053  1.00  0.00     0.041 C 
ATOM     10  O   UNL     1      19.739   5.366  54.180  1.00  0.00    -0.550 OA
ATOM     11  O   UNL     1      20.480   3.604  52.917  1.00  0.00    -0.550 OA
ENDBRANCH   8   9
ENDBRANCH   7   8
ENDBRANCH   6   7
ENDBRANCH   5   6
ENDBRANCH   4   5
ENDBRANCH   3   4
ENDBRANCH   2   3
ENDBRANCH   1   2
BRANCH   1  12
ATOM     12  C   UNL     1      16.780  -0.754  57.305  1.00  0.00     0.000 C 
BRANCH  12  13
ATOM     13  C   UNL     1      18.019  -0.321  56.510  1.00  0.00    -0.000 C 
BRANCH  13  14
ATOM     14  C   UNL     1      19.256  -0.252  57.413  1.00  0.00    -0.000 C 
BRANCH  14  15
ATOM     15  C   UNL     1      19.045   0.741  58.562  1.00  0.00    -0.000 C 
BRANCH  15  16
ATOM     16  C   UNL     1      19.142   0.037  59.924  1.00  0.00    -0.000 C 
BRANCH  16  17
ATOM     17  C   UNL     1      18.269   0.698  61.006  1.00  0.00    -0.000 C 
BRANCH  17  18
ATOM     18  C   UNL     1      17.054  -0.133  61.457  1.00  0.00    -0.000 C 
BRANCH  18  19
ATOM     19  C   UNL     1      16.958  -1.490  60.744  1.00  0.00    -0.003 C 
ATOM     20  C   UNL     1      15.513  -1.978  60.685  1.00  0.00     0.004 C 
ENDBRANCH  18  19
ENDBRANCH  17  18
ENDBRANCH  16  17
ENDBRANCH  15  16
ENDBRANCH  14  15
ENDBRANCH  13  14
ENDBRANCH  12  13
ENDBRANCH   1  12
TORSDOF 16
ENDMDL
MODEL 2
REMARK VINA RESULT:    -3.666      4.058      6.881
REMARK INTER + INTRA:         -10.084
REMARK INTER:                  -6.832
REMARK INTRA:                  -3.251
REMARK UNBOUND:                -2.989
REMARK SMILES CCCCCCCCCCCCCCCCCC(=O)[O-]
REMARK SMILES IDX 10 1 11 2 12 3 13 4 14 5 15 6 16 7 17 8 18 9 19 10 20 11
REMARK SMILES IDX 9 12 8 13 7 14 6 15 5 16 4 17 3 18 2 19 1 20
REMARK H PARENT
REMARK Flexibility Score: inf
ROOT
ATOM      1  C   UNL     1      19.486   1.593  58.674  1.00  0.00     0.000 C 
ENDROOT
BRANCH   1   2
ATOM      2  C   UNL     1      19.339   0.367  59.590  1.00  0.00     0.000 C 
BRANCH   2   3
ATOM      3  C   UNL     1      18.509   0.667  60.849  1.00  0.00     0.000 C 
BRANCH   3   4
ATOM      4  C   UNL     1      17.390  -0.363  61.078  1.00  0.00     0.000 C 
BRANCH   4   5
ATOM      5  C   UNL     1      17.379  -1.475  60.018  1.00  0.00     0.000 C 
BRANCH   5   6
ATOM      6  C   UNL     1      16.336  -2.549  60.362  1.00  0.00     0.000 C 
BRANCH   6   7
ATOM      7  C   UNL     1      15.600  -2.260  61.680  1.00  0.00     0.006 C 
BRANCH   7   8
ATOM      8  C   UNL     1      14.106  -2.598  61.609  1.00  0.00     0.053 C 
BRANCH   8   9
ATOM      9  C   UNL     1      13.282  -1.392  61.936  1.00  0.00     0.041 C 
ATOM     10  O   UNL     1      13.791  -0.242  61.873  1.00  0.00    -0.550 OA
ATOM     11  O   UNL     1      11.968  -1.541  62.359  1.00  0.00    -0.550 OA
ENDBRANCH   8   9
ENDBRANCH   7   8
ENDBRANCH   6   7
ENDBRANCH   5   6
ENDBRANCH   4   5
ENDBRANCH   3   4
ENDBRANCH   2   3
ENDBRANCH   1   2
BRANCH   1  12
ATOM     12  C   UNL     1      19.026   1.317  57.234  1.00  0.00     0.000 C 
BRANCH  12  13
ATOM     13  C   UNL     1      18.998  -0.191  56.949  1.00  0.00    -0.000 C 
BRANCH  13  14
ATOM     14  C   UNL     1      17.623  -0.626  56.427  1.00  0.00    -0.000 C 
BRANCH  14  15
ATOM     15  C   UNL     1      16.587   0.489  56.610  1.00  0.00    -0.000 C 
BRANCH  15  16
ATOM     16  C   UNL     1      15.346  -0.030  57.352  1.00  0.00    -0.000 C 
BRANCH  16  17
ATOM     17  C   UNL     1      14.906   0.890  58.506  1.00  0.00    -0.000 C 
BRANCH  17  18
ATOM     18  C   UNL     1      15.703   2.201  58.630  1.00  0.00    -0.000 C 
BRANCH  18  19
ATOM     19  C   UNL     1      15.623   2.820  60.033  1.00  0.00    -0.003 C 
ATOM     20  C   UNL     1      16.682   3.905  60.216  1.00  0.00     0.004 C 
ENDBRANCH  18  19
ENDBRANCH  17  18
ENDBRANCH  16  17
ENDBRANCH  15  16
ENDBRANCH  14  15
ENDBRANCH  13  14
ENDBRANCH  12  13
ENDBRANCH   1  12
TORSDOF 16
ENDMDL
MODEL 3
REMARK VINA RESULT:    -3.658      3.811      6.003
REMARK INTER + INTRA:         -10.070
REMARK INTER:                  -7.098
REMARK INTRA:                  -2.972
REMARK UNBOUND:                -2.989
REMARK SMILES CCCCCCCCCCCCCCCCCC(=O)[O-]
REMARK SMILES IDX 10 1 11 2 12 3 13 4 14 5 15 6 16 7 17 8 18 9 19 10 20 11
REMARK SMILES IDX 9 12 8 13 7 14 6 15 5 16 4 17 3 18 2 19 1 20
REMARK H PARENT
REMARK Flexibility Score: inf
ROOT
ATOM      1  C   UNL     1      18.521   1.175  56.714  1.00  0.00     0.000 C 
ENDROOT
BRANCH   1   2
ATOM      2  C   UNL     1      18.923  -0.206  57.256  1.00  0.00     0.000 C 
BRANCH   2   3
ATOM      3  C   UNL     1      19.619  -0.123  58.626  1.00  0.00     0.000 C 
BRANCH   3   4
ATOM      4  C   UNL     1      18.870   0.787  59.614  1.00  0.00     0.000 C 
BRANCH   4   5
ATOM      5  C   UNL     1      18.809   0.200  61.033  1.00  0.00     0.000 C 
BRANCH   5   6
ATOM      6  C   UNL     1      17.516   0.625  61.746  1.00  0.00     0.000 C 
BRANCH   6   7
ATOM      7  C   UNL     1      17.278   2.142  61.687  1.00  0.00     0.006 C 
BRANCH   7   8
ATOM      8  C   UNL     1      15.821   2.524  61.973  1.00  0.00     0.053 C 
BRANCH   8   9
ATOM      9  C   UNL     1      15.709   3.194  63.306  1.00  0.00     0.041 C 
ATOM     10  O   UNL     1      16.680   3.848  63.770  1.00  0.00    -0.550 OA
ATOM     11  O   UNL     1      14.550   3.055  64.060  1.00  0.00    -0.550 OA
ENDBRANCH   8   9
ENDBRANCH   7   8
ENDBRANCH   6   7
ENDBRANCH   5   6
ENDBRANCH   4   5
ENDBRANCH   3   4
ENDBRANCH   2   3
ENDBRANCH   1   2
BRANCH   1  12
ATOM     12  C   UNL     1      17.016   1.284  56.426  1.00  0.00     0.000 C 
BRANCH  12  13
ATOM     13  C   UNL     1      16.354   2.308  57.358  1.00  0.00    -0.000 C 
BRANCH  13  14
ATOM     14  C   UNL     1      15.384   1.622  58.328  1.00  0.00    -0.000 C 
BRANCH  14  15
ATOM     15  C   UNL     1      15.247   0.129  58.006  1.00  0.00    -0.000 C 
BRANCH  15  16
ATOM     16  C   UNL     1      15.322  -0.719  59.284  1.00  0.00    -0.000 C 
BRANCH  16  17
ATOM     17  C   UNL     1      16.331  -1.878  59.179  1.00  0.00    -0.000 C 
BRANCH  17  18
ATOM     18  C   UNL     1      16.092  -3.038  60.162  1.00  0.00    -0.000 C 
BRANCH  18  19
ATOM     19  C   UNL     1      17.118  -3.077  61.304  1.00  0.00    -0.003 C 
ATOM     20  C   UNL     1      16.449  -2.833  62.654  1.00  0.00     0.004 C 
ENDBRANCH  18  19
ENDBRANCH  17  18
ENDBRANCH  16  17
ENDBRANCH  15  16
ENDBRANCH  14  15
ENDBRANCH  13  14
ENDBRANCH  12  13
ENDBRANCH   1  12
TORSDOF 16
ENDMDL
MODEL 4
REMARK VINA RESULT:    -3.610      2.563      4.218
REMARK INTER + INTRA:          -9.977
REMARK INTER:                  -7.036
REMARK INTRA:                  -2.941
REMARK UNBOUND:                -2.989
REMARK SMILES CCCCCCCCCCCCCCCCCC(=O)[O-]
REMARK SMILES IDX 10 1 11 2 12 3 13 4 14 5 15 6 16 7 17 8 18 9 19 10 20 11
REMARK SMILES IDX 9 12 8 13 7 14 6 15 5 16 4 17 3 18 2 19 1 20
REMARK H PARENT
REMARK Flexibility Score: inf
ROOT
ATOM      1  C   UNL     1      17.431   2.890  60.199  1.00  0.00     0.000 C 
ENDROOT
BRANCH   1   2
ATOM      2  C   UNL     1      16.964   4.006  59.250  1.00  0.00     0.000 C 
BRANCH   2   3
ATOM      3  C   UNL     1      15.604   3.699  58.602  1.00  0.00     0.000 C 
BRANCH   3   4
ATOM      4  C   UNL     1      15.616   2.392  57.792  1.00  0.00     0.000 C 
BRANCH   4   5
ATOM      5  C   UNL     1      14.716   1.306  58.402  1.00  0.00     0.000 C 
BRANCH   5   6
ATOM      6  C   UNL     1      15.396  -0.070  58.336  1.00  0.00     0.000 C 
BRANCH   6   7
ATOM      7  C   UNL     1      16.836   0.006  57.807  1.00  0.00     0.006 C 
BRANCH   7   8
ATOM      8  C   UNL     1      17.080  -0.933  56.619  1.00  0.00     0.053 C 
BRANCH   8   9
ATOM      9  C   UNL     1      17.276  -0.145  55.362  1.00  0.00     0.041 C 
ATOM     10  O   UNL     1      16.989  -0.651  54.245  1.00  0.00    -0.550 OA
ATOM     11  O   UNL     1      17.821   1.132  55.419  1.00  0.00    -0.550 OA
ENDBRANCH   8   9
ENDBRANCH   7   8
ENDBRANCH   6   7
ENDBRANCH   5   6
ENDBRANCH   4   5
ENDBRANCH   3   4
ENDBRANCH   2   3
ENDBRANCH   1   2
BRANCH   1  12
ATOM     12  C   UNL     1      16.466   2.667  61.373  1.00  0.00     0.000 C 
BRANCH  12  13
ATOM     13  C   UNL     1      16.887   1.448  62.205  1.00  0.00    -0.000 C 
BRANCH  13  14
ATOM     14  C   UNL     1      17.806   0.522  61.397  1.00  0.00    -0.000 C 
BRANCH  14  15
ATOM     15  C   UNL     1      17.765  -0.908  61.947  1.00  0.00    -0.000 C 
BRANCH  15  16
ATOM     16  C   UNL     1      17.578  -1.928  60.814  1.00  0.00    -0.000 C 
BRANCH  16  17
ATOM     17  C   UNL     1      16.376  -2.864  61.039  1.00  0.00    -0.000 C 
BRANCH  17  18
ATOM     18  C   UNL     1      15.301  -2.321  61.997  1.00  0.00    -0.000 C 
BRANCH  18  19
ATOM     19  C   UNL     1      14.101  -1.704  61.263  1.00  0.00    -0.003 C 
ATOM     20  C   UNL     1      13.748  -0.335  61.840  1.00  0.00     0.004 C 
ENDBRANCH  18  19
ENDBRANCH  17  18
ENDBRANCH  16  17
ENDBRANCH  15  16
ENDBRANCH  14  15
ENDBRANCH  13  14
ENDBRANCH  12  13
ENDBRANCH   1  12
TORSDOF 16
ENDMDL
MODEL 5
REMARK VINA RESULT:    -3.605      4.361      7.229
REMARK INTER + INTRA:          -9.966
REMARK INTER:                  -6.903
REMARK INTRA:                  -3.064
REMARK UNBOUND:                -2.989
REMARK SMILES CCCCCCCCCCCCCCCCCC(=O)[O-]
REMARK SMILES IDX 10 1 11 2 12 3 13 4 14 5 15 6 16 7 17 8 18 9 19 10 20 11
REMARK SMILES IDX 9 12 8 13 7 14 6 15 5 16 4 17 3 18 2 19 1 20
REMARK H PARENT
REMARK Flexibility Score: inf
ROOT
ATOM      1  C   UNL     1      17.132   1.968  62.414  1.00  0.00     0.000 C 
ENDROOT
BRANCH   1   2
ATOM      2  C   UNL     1      17.923   2.711  61.325  1.00  0.00     0.000 C 
BRANCH   2   3
ATOM      3  C   UNL     1      19.172   1.937  60.871  1.00  0.00     0.000 C 
BRANCH   3   4
ATOM      4  C   UNL     1      18.963   1.213  59.530  1.00  0.00     0.000 C 
BRANCH   4   5
ATOM      5  C   UNL     1      19.327  -0.279  59.597  1.00  0.00     0.000 C 
BRANCH   5   6
ATOM      6  C   UNL     1      19.316  -0.781  61.049  1.00  0.00     0.000 C 
BRANCH   6   7
ATOM      7  C   UNL     1      18.270  -1.881  61.287  1.00  0.00     0.006 C 
BRANCH   7   8
ATOM      8  C   UNL     1      17.755  -1.904  62.732  1.00  0.00     0.053 C 
BRANCH   8   9
ATOM      9  C   UNL     1      16.626  -2.877  62.868  1.00  0.00     0.041 C 
ATOM     10  O   UNL     1      15.457  -2.542  62.541  1.00  0.00    -0.550 OA
ATOM     11  O   UNL     1      16.855  -4.139  63.402  1.00  0.00    -0.550 OA
ENDBRANCH   8   9
ENDBRANCH   7   8
ENDBRANCH   6   7
ENDBRANCH   5   6
ENDBRANCH   4   5
ENDBRANCH   3   4
ENDBRANCH   2   3
ENDBRANCH   1   2
BRANCH   1  12
ATOM     12  C   UNL     1      15.915   1.215  61.855  1.00  0.00     0.000 C 
BRANCH  12  13
ATOM     13  C   UNL     1      15.393   1.889  60.579  1.00  0.00    -0.000 C 
BRANCH  13  14
ATOM     14  C   UNL     1      14.569   0.907  59.736  1.00  0.00    -0.000 C 
BRANCH  14  15
ATOM     15  C   UNL     1      15.236  -0.472  59.689  1.00  0.00    -0.000 C 
BRANCH  15  16
ATOM     16  C   UNL     1      15.988  -0.675  58.366  1.00  0.00    -0.000 C 
BRANCH  16  17
ATOM     17  C   UNL     1      15.556   0.317  57.270  1.00  0.00    -0.000 C 
BRANCH  17  18
ATOM     18  C   UNL     1      16.680   1.223  56.735  1.00  0.00    -0.000 C 
BRANCH  18  19
ATOM     19  C   UNL     1      16.442   2.711  57.030  1.00  0.00    -0.003 C 
ATOM     20  C   UNL     1      16.784   3.574  55.819  1.00  0.00     0.004 C 
ENDBRANCH  18  19
ENDBRANCH  17  18
ENDBRANCH  16  17
ENDBRANCH  15  16
ENDBRANCH  14  15
ENDBRANCH  13  14
ENDBRANCH  12  13
ENDBRANCH   1  12
TORSDOF 16
ENDMDL
MODEL 6
REMARK VINA RESULT:    -3.600      9.902     12.379
REMARK INTER + INTRA:          -9.957
REMARK INTER:                  -6.932
REMARK INTRA:                  -3.025
REMARK UNBOUND:                -2.989
REMARK SMILES CCCCCCCCCCCCCCCCCC(=O)[O-]
REMARK SMILES IDX 10 1 11 2 12 3 13 4 14 5 15 6 16 7 17 8 18 9 19 10 20 11
REMARK SMILES IDX 9 12 8 13 7 14 6 15 5 16 4 17 3 18 2 19 1 20
REMARK H PARENT
REMARK Flexibility Score: inf
ROOT
ATOM      1  C   UNL     1      26.416  -1.754  52.254  1.00  0.00     0.000 C 
ENDROOT
BRANCH   1   2
ATOM      2  C   UNL     1      27.269  -1.643  53.529  1.00  0.00     0.000 C 
BRANCH   2   3
ATOM      3  C   UNL     1      26.664  -2.415  54.713  1.00  0.00     0.000 C 
BRANCH   3   4
ATOM      4  C   UNL     1      25.130  -2.504  54.639  1.00  0.00     0.000 C 
BRANCH   4   5
ATOM      5  C   UNL     1      24.599  -3.907  54.973  1.00  0.00     0.000 C 
BRANCH   5   6
ATOM      6  C   UNL     1      25.756  -4.879  55.251  1.00  0.00     0.000 C 
BRANCH   6   7
ATOM      7  C   UNL     1      25.735  -5.431  56.685  1.00  0.00     0.006 C 
BRANCH   7   8
ATOM      8  C   UNL     1      24.560  -4.890  57.509  1.00  0.00     0.053 C 
BRANCH   8   9
ATOM      9  C   UNL     1      24.935  -4.796  58.954  1.00  0.00     0.041 C 
ATOM     10  O   UNL     1      24.433  -3.900  59.683  1.00  0.00    -0.550 OA
ATOM     11  O   UNL     1      25.878  -5.667  59.486  1.00  0.00    -0.550 OA
ENDBRANCH   8   9
ENDBRANCH   7   8
ENDBRANCH   6   7
ENDBRANCH   5   6
ENDBRANCH   4   5
ENDBRANCH   3   4
ENDBRANCH   2   3
ENDBRANCH   1   2
BRANCH   1  12
ATOM     12  C   UNL     1      26.873  -2.894  51.332  1.00  0.00     0.000 C 
BRANCH  12  13
ATOM     13  C   UNL     1      25.862  -4.049  51.345  1.00  0.00    -0.000 C 
BRANCH  13  14
ATOM     14  C   UNL     1      26.522  -5.352  51.814  1.00  0.00    -0.000 C 
BRANCH  14  15
ATOM     15  C   UNL     1      28.050  -5.228  51.810  1.00  0.00    -0.000 C 
BRANCH  15  16
ATOM     16  C   UNL     1      28.643  -5.687  53.150  1.00  0.00    -0.000 C 
BRANCH  16  17
ATOM     17  C   UNL     1      29.526  -4.616  53.815  1.00  0.00    -0.000 C 
BRANCH  17  18
ATOM     18  C   UNL     1      29.636  -4.724  55.347  1.00  0.00    -0.000 C 
BRANCH  18  19
ATOM     19  C   UNL     1      29.323  -6.133  55.872  1.00  0.00    -0.003 C 
ATOM     20  C   UNL     1      29.278  -6.153  57.398  1.00  0.00     0.004 C 
ENDBRANCH  18  19
ENDBRANCH  17  18
ENDBRANCH  16  17
ENDBRANCH  15  16
ENDBRANCH  14  15
ENDBRANCH  13  14
ENDBRANCH  12  13
ENDBRANCH   1  12
TORSDOF 16
ENDMDL
MODEL 7
REMARK VINA RESULT:    -3.577      3.925      6.497
REMARK INTER + INTRA:          -9.912
REMARK INTER:                  -6.839
REMARK INTRA:                  -3.073
REMARK UNBOUND:                -2.989
REMARK SMILES CCCCCCCCCCCCCCCCCC(=O)[O-]
REMARK SMILES IDX 10 1 11 2 12 3 13 4 14 5 15 6 16 7 17 8 18 9 19 10 20 11
REMARK SMILES IDX 9 12 8 13 7 14 6 15 5 16 4 17 3 18 2 19 1 20
REMARK H PARENT
REMARK Flexibility Score: inf
ROOT
ATOM      1  C   UNL     1      14.984   0.510  59.012  1.00  0.00     0.000 C 
ENDROOT
BRANCH   1   2
ATOM      2  C   UNL     1      15.270   1.784  59.823  1.00  0.00     0.000 C 
BRANCH   2   3
ATOM      3  C   UNL     1      16.482   1.629  60.758  1.00  0.00     0.000 C 
BRANCH   3   4
ATOM      4  C   UNL     1      17.812   1.959  60.061  1.00  0.00     0.000 C 
BRANCH   4   5
ATOM      5  C   UNL     1      18.885   0.882  60.286  1.00  0.00     0.000 C 
BRANCH   5   6
ATOM      6  C   UNL     1      18.281  -0.526  60.168  1.00  0.00     0.000 C 
BRANCH   6   7
ATOM      7  C   UNL     1      18.664  -1.436  61.344  1.00  0.00     0.006 C 
BRANCH   7   8
ATOM      8  C   UNL     1      17.629  -1.408  62.476  1.00  0.00     0.053 C 
BRANCH   8   9
ATOM      9  C   UNL     1      16.426  -2.216  62.103  1.00  0.00     0.041 C 
ATOM     10  O   UNL     1      15.337  -1.644  61.833  1.00  0.00    -0.550 OA
ATOM     11  O   UNL     1      16.493  -3.603  62.101  1.00  0.00    -0.550 OA
ENDBRANCH   8   9
ENDBRANCH   7   8
ENDBRANCH   6   7
ENDBRANCH   5   6
ENDBRANCH   4   5
ENDBRANCH   3   4
ENDBRANCH   2   3
ENDBRANCH   1   2
BRANCH   1  12
ATOM     12  C   UNL     1      15.334   0.663  57.524  1.00  0.00     0.000 C 
BRANCH  12  13
ATOM     13  C   UNL     1      16.227  -0.491  57.050  1.00  0.00    -0.000 C 
BRANCH  13  14
ATOM     14  C   UNL     1      17.204  -0.022  55.965  1.00  0.00    -0.000 C 
BRANCH  14  15
ATOM     15  C   UNL     1      18.515   0.478  56.584  1.00  0.00    -0.000 C 
BRANCH  15  16
ATOM     16  C   UNL     1      18.648   2.001  56.435  1.00  0.00    -0.000 C 
BRANCH  16  17
ATOM     17  C   UNL     1      17.927   2.549  55.189  1.00  0.00    -0.000 C 
BRANCH  17  18
ATOM     18  C   UNL     1      16.947   3.704  55.462  1.00  0.00    -0.000 C 
BRANCH  18  19
ATOM     19  C   UNL     1      16.788   4.014  56.958  1.00  0.00    -0.003 C 
ATOM     20  C   UNL     1      15.352   4.414  57.287  1.00  0.00     0.004 C 
ENDBRANCH  18  19
ENDBRANCH  17  18
ENDBRANCH  16  17
ENDBRANCH  15  16
ENDBRANCH  14  15
ENDBRANCH  13  14
ENDBRANCH  12  13
ENDBRANCH   1  12
TORSDOF 16
ENDMDL
MODEL 8
REMARK VINA RESULT:    -3.571      2.451      3.576
REMARK INTER + INTRA:          -9.901
REMARK INTER:                  -7.060
REMARK INTRA:                  -2.841
REMARK UNBOUND:                -2.989
REMARK SMILES CCCCCCCCCCCCCCCCCC(=O)[O-]
REMARK SMILES IDX 10 1 11 2 12 3 13 4 14 5 15 6 16 7 17 8 18 9 19 10 20 11
REMARK SMILES IDX 9 12 8 13 7 14 6 15 5 16 4 17 3 18 2 19 1 20
REMARK H PARENT
REMARK Flexibility Score: inf
ROOT
ATOM      1  C   UNL     1      14.851   1.537  59.836  1.00  0.00     0.000 C 
ENDROOT
BRANCH   1   2
ATOM      2  C   UNL     1      14.853   1.541  58.299  1.00  0.00     0.000 C 
BRANCH   2   3
ATOM      3  C   UNL     1      15.244   0.176  57.705  1.00  0.00     0.000 C 
BRANCH   3   4
ATOM      4  C   UNL     1      16.361   0.287  56.654  1.00  0.00     0.000 C 
BRANCH   4   5
ATOM      5  C   UNL     1      17.295   1.482  56.903  1.00  0.00     0.000 C 
BRANCH   5   6
ATOM      6  C   UNL     1      17.545   2.261  55.602  1.00  0.00     0.000 C 
BRANCH   6   7
ATOM      7  C   UNL     1      17.002   3.697  55.658  1.00  0.00     0.006 C 
BRANCH   7   8
ATOM      8  C   UNL     1      17.236   4.366  57.019  1.00  0.00     0.053 C 
BRANCH   8   9
ATOM      9  C   UNL     1      16.110   5.296  57.344  1.00  0.00     0.041 C 
ATOM     10  O   UNL     1      16.340   6.393  57.918  1.00  0.00    -0.550 OA
ATOM     11  O   UNL     1      14.801   4.930  57.059  1.00  0.00    -0.550 OA
ENDBRANCH   8   9
ENDBRANCH   7   8
ENDBRANCH   6   7
ENDBRANCH   5   6
ENDBRANCH   4   5
ENDBRANCH   3   4
ENDBRANCH   2   3
ENDBRANCH   1   2
BRANCH   1  12
ATOM     12  C   UNL     1      16.105   2.192  60.433  1.00  0.00     0.000 C 
BRANCH  12  13
ATOM     13  C   UNL     1      16.945   1.165  61.203  1.00  0.00    -0.000 C 
BRANCH  13  14
ATOM     14  C   UNL     1      18.160   0.719  60.379  1.00  0.00    -0.000 C 
BRANCH  14  15
ATOM     15  C   UNL     1      18.052  -0.762  59.997  1.00  0.00    -0.000 C 
BRANCH  15  16
ATOM     16  C   UNL     1      17.421  -1.579  61.134  1.00  0.00    -0.000 C 
BRANCH  16  17
ATOM     17  C   UNL     1      16.380  -2.599  60.636  1.00  0.00    -0.000 C 
BRANCH  17  18
ATOM     18  C   UNL     1      14.932  -2.077  60.589  1.00  0.00    -0.000 C 
BRANCH  18  19
ATOM     19  C   UNL     1      14.469  -1.471  61.922  1.00  0.00    -0.003 C 
ATOM     20  C   UNL     1      12.978  -1.709  62.146  1.00  0.00     0.004 C 
ENDBRANCH  18  19
ENDBRANCH  17  18
ENDBRANCH  16  17
ENDBRANCH  15  16
ENDBRANCH  14  15
ENDBRANCH  13  14
ENDBRANCH  12  13
ENDBRANCH   1  12
TORSDOF 16
ENDMDL
MODEL 9
REMARK VINA RESULT:    -3.530      4.400      7.311
REMARK INTER + INTRA:          -9.821
REMARK INTER:                  -7.033
REMARK INTRA:                  -2.788
REMARK UNBOUND:                -2.989
REMARK SMILES CCCCCCCCCCCCCCCCCC(=O)[O-]
REMARK SMILES IDX 10 1 11 2 12 3 13 4 14 5 15 6 16 7 17 8 18 9 19 10 20 11
REMARK SMILES IDX 9 12 8 13 7 14 6 15 5 16 4 17 3 18 2 19 1 20
REMARK H PARENT
REMARK Flexibility Score: inf
ROOT
ATOM      1  C   UNL     1      17.643  -0.761  61.017  1.00  0.00     0.000 C 
ENDROOT
BRANCH   1   2
ATOM      2  C   UNL     1      16.554  -0.016  61.804  1.00  0.00     0.000 C 
BRANCH   2   3
ATOM      3  C   UNL     1      15.179  -0.083  61.118  1.00  0.00     0.000 C 
BRANCH   3   4
ATOM      4  C   UNL     1      14.890  -1.465  60.508  1.00  0.00     0.000 C 
BRANCH   4   5
ATOM      5  C   UNL     1      14.322  -2.460  61.531  1.00  0.00     0.000 C 
BRANCH   5   6
ATOM      6  C   UNL     1      14.668  -3.905  61.139  1.00  0.00     0.000 C 
BRANCH   6   7
ATOM      7  C   UNL     1      15.960  -4.003  60.315  1.00  0.00     0.006 C 
BRANCH   7   8
ATOM      8  C   UNL     1      16.854  -5.171  60.751  1.00  0.00     0.053 C 
BRANCH   8   9
ATOM      9  C   UNL     1      17.620  -4.809  61.984  1.00  0.00     0.041 C 
ATOM     10  O   UNL     1      17.191  -5.146  63.119  1.00  0.00    -0.550 OA
ATOM     11  O   UNL     1      18.783  -4.056  61.885  1.00  0.00    -0.550 OA
ENDBRANCH   8   9
ENDBRANCH   7   8
ENDBRANCH   6   7
ENDBRANCH   5   6
ENDBRANCH   4   5
ENDBRANCH   3   4
ENDBRANCH   2   3
ENDBRANCH   1   2
BRANCH   1  12
ATOM     12  C   UNL     1      18.531   0.184  60.194  1.00  0.00     0.000 C 
BRANCH  12  13
ATOM     13  C   UNL     1      18.225   1.650  60.524  1.00  0.00    -0.000 C 
BRANCH  13  14
ATOM     14  C   UNL     1      17.908   2.447  59.253  1.00  0.00    -0.000 C 
BRANCH  14  15
ATOM     15  C   UNL     1      16.490   3.027  59.305  1.00  0.00    -0.000 C 
BRANCH  15  16
ATOM     16  C   UNL     1      15.540   2.242  58.389  1.00  0.00    -0.000 C 
BRANCH  16  17
ATOM     17  C   UNL     1      16.280   1.418  57.319  1.00  0.00    -0.000 C 
BRANCH  17  18
ATOM     18  C   UNL     1      15.931  -0.081  57.297  1.00  0.00    -0.000 C 
BRANCH  18  19
ATOM     19  C   UNL     1      17.042  -0.947  56.685  1.00  0.00    -0.003 C 
ATOM     20  C   UNL     1      18.343  -0.159  56.553  1.00  0.00     0.004 C 
ENDBRANCH  18  19
ENDBRANCH  17  18
ENDBRANCH  16  17
ENDBRANCH  15  16
ENDBRANCH  14  15
ENDBRANCH  13  14
ENDBRANCH  12  13
ENDBRANCH   1  12
TORSDOF 16
ENDMDL
