MODEL 1
REMARK VINA RESULT:    -0.109      0.000      0.000
REMARK INTER + INTRA:          -0.109
REMARK INTER:                  -0.109
REMARK INTRA:                   0.000
REMARK UNBOUND:                 0.000
REMARK SMILES CC1(C)O[C@]2(C)CC[C@H]1CC2
REMARK SMILES IDX 1 1 2 2 9 3 10 4 11 5 5 6 4 7 7 8 8 9 6 10 3 11
REMARK H PARENT
REMARK Flexibility Score: inf
ROOT
ATOM      1  C   UNL     1      39.548   9.175  13.056  1.00  0.00     0.042 C 
ATOM      2  C   UNL     1      40.420   9.064  11.787  1.00  0.00     0.066 C 
ATOM      3  C   UNL     1      41.935   8.844  12.170  1.00  0.00     0.021 C 
ATOM      4  C   UNL     1      42.061   7.495  12.918  1.00  0.00     0.009 C 
ATOM      5  C   UNL     1      41.382   6.384  12.080  1.00  0.00     0.035 C 
ATOM      6  C   UNL     1      40.883   6.972  10.729  1.00  0.00     0.066 C 
ATOM      7  O   UNL     1      39.910   7.985  10.989  1.00  0.00    -0.369 OA
ATOM      8  C   UNL     1      42.090   7.605   9.977  1.00  0.00     0.035 C 
ATOM      9  C   UNL     1      42.752   8.688  10.864  1.00  0.00     0.009 C 
ATOM     10  C   UNL     1      40.239   5.875   9.875  1.00  0.00     0.042 C 
ATOM     11  C   UNL     1      40.242  10.374  10.991  1.00  0.00     0.042 C 
ENDROOT
TORSDOF 0
ENDMDL
MODEL 2
REMARK VINA RESULT:     1.711      0.838      3.201
REMARK INTER + INTRA:           1.711
REMARK INTER:                   1.711
REMARK INTRA:                   0.000
REMARK UNBOUND:                 0.000
REMARK SMILES CC1(C)O[C@]2(C)CC[C@H]1CC2
REMARK SMILES IDX 1 1 2 2 9 3 10 4 11 5 5 6 4 7 7 8 8 9 6 10 3 11
REMARK H PARENT
REMARK Flexibility Score: inf
ROOT
ATOM      1  C   UNL     1      40.568   5.901   9.875  1.00  0.00     0.042 C 
ATOM      2  C   UNL     1      40.628   6.699  11.195  1.00  0.00     0.066 C 
ATOM      3  C   UNL     1      42.124   6.947  11.629  1.00  0.00     0.021 C 
ATOM      4  C   UNL     1      42.809   7.819  10.549  1.00  0.00     0.009 C 
ATOM      5  C   UNL     1      41.941   9.072  10.281  1.00  0.00     0.035 C 
ATOM      6  C   UNL     1      40.722   9.086  11.248  1.00  0.00     0.066 C 
ATOM      7  O   UNL     1      39.917   7.932  11.004  1.00  0.00    -0.369 OA
ATOM      8  C   UNL     1      41.239   9.046  12.714  1.00  0.00     0.035 C 
ATOM      9  C   UNL     1      42.124   7.793  12.926  1.00  0.00     0.009 C 
ATOM     10  C   UNL     1      39.872  10.339  11.016  1.00  0.00     0.042 C 
ATOM     11  C   UNL     1      39.878   5.875  12.264  1.00  0.00     0.042 C 
ENDROOT
TORSDOF 0
ENDMDL
MODEL 3
REMARK VINA RESULT:     1.780      1.240      2.860
REMARK INTER + INTRA:           1.780
REMARK INTER:                   1.780
REMARK INTRA:                   0.000
REMARK UNBOUND:                 0.000
REMARK SMILES CC1(C)O[C@]2(C)CC[C@H]1CC2
REMARK SMILES IDX 1 1 2 2 9 3 10 4 11 5 5 6 4 7 7 8 8 9 6 10 3 11
REMARK H PARENT
REMARK Flexibility Score: inf
ROOT
ATOM      1  C   UNL     1      41.010   5.875  12.748  1.00  0.00     0.042 C 
ATOM      2  C   UNL     1      40.783   6.895  11.611  1.00  0.00     0.066 C 
ATOM      3  C   UNL     1      40.224   8.254  12.186  1.00  0.00     0.021 C 
ATOM      4  C   UNL     1      41.292   8.864  13.126  1.00  0.00     0.009 C 
ATOM      5  C   UNL     1      42.649   8.923  12.383  1.00  0.00     0.035 C 
ATOM      6  C   UNL     1      42.469   8.438  10.916  1.00  0.00     0.066 C 
ATOM      7  O   UNL     1      42.028   7.080  10.921  1.00  0.00    -0.369 OA
ATOM      8  C   UNL     1      41.393   9.321  10.221  1.00  0.00     0.035 C 
ATOM      9  C   UNL     1      40.065   9.252  11.013  1.00  0.00     0.009 C 
ATOM     10  C   UNL     1      43.799   8.524  10.159  1.00  0.00     0.042 C 
ATOM     11  C   UNL     1      39.777   6.265  10.623  1.00  0.00     0.042 C 
ENDROOT
TORSDOF 0
ENDMDL
MODEL 4
REMARK VINA RESULT:     2.427      0.963      2.306
REMARK INTER + INTRA:           2.427
REMARK INTER:                   2.427
REMARK INTRA:                   0.000
REMARK UNBOUND:                 0.000
REMARK SMILES CC1(C)O[C@]2(C)CC[C@H]1CC2
REMARK SMILES IDX 1 1 2 2 9 3 10 4 11 5 5 6 4 7 7 8 8 9 6 10 3 11
REMARK H PARENT
REMARK Flexibility Score: inf
ROOT
ATOM      1  C   UNL     1      41.598  10.209  10.246  1.00  0.00     0.042 C 
ATOM      2  C   UNL     1      42.042   8.879  10.893  1.00  0.00     0.066 C 
ATOM      3  C   UNL     1      41.702   8.868  12.433  1.00  0.00     0.021 C 
ATOM      4  C   UNL     1      40.165   8.951  12.595  1.00  0.00     0.009 C 
ATOM      5  C   UNL     1      39.501   7.858  11.723  1.00  0.00     0.035 C 
ATOM      6  C   UNL     1      40.597   6.983  11.050  1.00  0.00     0.066 C 
ATOM      7  O   UNL     1      41.393   7.805  10.195  1.00  0.00    -0.369 OA
ATOM      8  C   UNL     1      41.503   6.368  12.155  1.00  0.00     0.035 C 
ATOM      9  C   UNL     1      42.120   7.496  13.016  1.00  0.00     0.009 C 
ATOM     10  C   UNL     1      39.953   5.875  10.210  1.00  0.00     0.042 C 
ATOM     11  C   UNL     1      43.564   8.745  10.669  1.00  0.00     0.042 C 
ENDROOT
TORSDOF 0
ENDMDL
