MODEL 1
REMARK VINA RESULT:    -4.766      0.000      0.000
REMARK INTER + INTRA:         -14.602
REMARK INTER:                 -10.896
REMARK INTRA:                  -3.707
REMARK UNBOUND:                -3.707
REMARK SMILES CCCCCCCCCCCCCCCCCCCCCCCC(=O)[O-]
REMARK SMILES IDX 13 1 14 2 15 3 16 4 17 5 18 6 19 7 20 8 21 9 22 10 23 11
REMARK SMILES IDX 24 12 25 13 26 14 12 15 11 16 10 17 9 18 8 19 7 20 6 21 5 22
REMARK SMILES IDX 4 23 3 24 2 25 1 26
REMARK H PARENT
REMARK Flexibility Score: inf
ROOT
ATOM      1  C   UNL     1      -7.328   6.475  16.322  1.00  0.00     0.000 C 
ENDROOT
BRANCH   1   2
ATOM      2  C   UNL     1      -6.045   6.911  17.048  1.00  0.00     0.000 C 
BRANCH   2   3
ATOM      3  C   UNL     1      -4.900   5.898  16.896  1.00  0.00     0.000 C 
BRANCH   3   4
ATOM      4  C   UNL     1      -5.434   4.459  16.916  1.00  0.00     0.000 C 
BRANCH   4   5
ATOM      5  C   UNL     1      -5.011   3.655  15.676  1.00  0.00     0.000 C 
BRANCH   5   6
ATOM      6  C   UNL     1      -3.508   3.788  15.373  1.00  0.00     0.000 C 
BRANCH   6   7
ATOM      7  C   UNL     1      -2.645   2.936  16.316  1.00  0.00     0.000 C 
BRANCH   7   8
ATOM      8  C   UNL     1      -1.278   3.578  16.604  1.00  0.00     0.000 C 
BRANCH   8   9
ATOM      9  C   UNL     1      -1.355   5.121  16.634  1.00  0.00     0.000 C 
BRANCH   9  10
ATOM     10  C   UNL     1      -0.097   5.782  17.227  1.00  0.00     0.006 C 
BRANCH  10  11
ATOM     11  C   UNL     1      -0.196   6.073  18.732  1.00  0.00     0.053 C 
BRANCH  11  12
ATOM     12  C   UNL     1       0.425   7.390  19.088  1.00  0.00     0.041 C 
ATOM     13  O   UNL     1       0.916   8.125  18.191  1.00  0.00    -0.550 OA
ATOM     14  O   UNL     1       0.468   7.800  20.414  1.00  0.00    -0.550 OA
ENDBRANCH  11  12
ENDBRANCH  10  11
ENDBRANCH   9  10
ENDBRANCH   8   9
ENDBRANCH   7   8
ENDBRANCH   6   7
ENDBRANCH   5   6
ENDBRANCH   4   5
ENDBRANCH   3   4
ENDBRANCH   2   3
ENDBRANCH   1   2
BRANCH   1  15
ATOM     15  C   UNL     1      -7.613   7.313  15.062  1.00  0.00     0.000 C 
BRANCH  15  16
ATOM     16  C   UNL     1      -7.993   6.456  13.846  1.00  0.00     0.000 C 
BRANCH  16  17
ATOM     17  C   UNL     1      -7.992   4.948  14.156  1.00  0.00     0.000 C 
BRANCH  17  18
ATOM     18  C   UNL     1      -7.644   4.106  12.917  1.00  0.00    -0.000 C 
BRANCH  18  19
ATOM     19  C   UNL     1      -6.455   4.691  12.134  1.00  0.00    -0.000 C 
BRANCH  19  20
ATOM     20  C   UNL     1      -6.830   5.044  10.684  1.00  0.00    -0.000 C 
BRANCH  20  21
ATOM     21  C   UNL     1      -6.042   6.259  10.164  1.00  0.00    -0.000 C 
BRANCH  21  22
ATOM     22  C   UNL     1      -4.531   6.129  10.414  1.00  0.00    -0.000 C 
BRANCH  22  23
ATOM     23  C   UNL     1      -3.920   7.413  11.004  1.00  0.00    -0.000 C 
BRANCH  23  24
ATOM     24  C   UNL     1      -4.702   7.938  12.221  1.00  0.00    -0.000 C 
BRANCH  24  25
ATOM     25  C   UNL     1      -4.345   7.261  13.556  1.00  0.00    -0.003 C 
ATOM     26  C   UNL     1      -2.840   7.221  13.818  1.00  0.00     0.004 C 
ENDBRANCH  24  25
ENDBRANCH  23  24
ENDBRANCH  22  23
ENDBRANCH  21  22
ENDBRANCH  20  21
ENDBRANCH  19  20
ENDBRANCH  18  19
ENDBRANCH  17  18
ENDBRANCH  16  17
ENDBRANCH  15  16
ENDBRANCH   1  15
TORSDOF 22
ENDMDL
MODEL 2
REMARK VINA RESULT:    -4.687      1.157      2.085
REMARK INTER + INTRA:         -14.421
REMARK INTER:                 -11.245
REMARK INTRA:                  -3.176
REMARK UNBOUND:                -3.707
REMARK SMILES CCCCCCCCCCCCCCCCCCCCCCCC(=O)[O-]
REMARK SMILES IDX 13 1 14 2 15 3 16 4 17 5 18 6 19 7 20 8 21 9 22 10 23 11
REMARK SMILES IDX 24 12 25 13 26 14 12 15 11 16 10 17 9 18 8 19 7 20 6 21 5 22
REMARK SMILES IDX 4 23 3 24 2 25 1 26
REMARK H PARENT
REMARK Flexibility Score: inf
ROOT
ATOM      1  C   UNL     1      -5.520   6.149  17.238  1.00  0.00     0.000 C 
ENDROOT
BRANCH   1   2
ATOM      2  C   UNL     1      -5.105   4.973  16.339  1.00  0.00     0.000 C 
BRANCH   2   3
ATOM      3  C   UNL     1      -5.199   3.615  17.051  1.00  0.00     0.000 C 
BRANCH   3   4
ATOM      4  C   UNL     1      -4.034   2.701  16.645  1.00  0.00     0.000 C 
BRANCH   4   5
ATOM      5  C   UNL     1      -3.081   3.371  15.641  1.00  0.00     0.000 C 
BRANCH   5   6
ATOM      6  C   UNL     1      -1.705   3.684  16.256  1.00  0.00     0.000 C 
BRANCH   6   7
ATOM      7  C   UNL     1      -1.568   5.161  16.658  1.00  0.00     0.000 C 
BRANCH   7   8
ATOM      8  C   UNL     1      -0.147   5.514  17.126  1.00  0.00     0.000 C 
BRANCH   8   9
ATOM      9  C   UNL     1      -0.130   6.077  18.564  1.00  0.00     0.000 C 
BRANCH   9  10
ATOM     10  C   UNL     1       0.627   7.413  18.688  1.00  0.00     0.006 C 
BRANCH  10  11
ATOM     11  C   UNL     1       0.461   8.099  20.051  1.00  0.00     0.053 C 
BRANCH  11  12
ATOM     12  C   UNL     1       0.595   7.128  21.185  1.00  0.00     0.041 C 
ATOM     13  O   UNL     1       1.733   6.734  21.554  1.00  0.00    -0.550 OA
ATOM     14  O   UNL     1      -0.541   6.652  21.828  1.00  0.00    -0.550 OA
ENDBRANCH  11  12
ENDBRANCH  10  11
ENDBRANCH   9  10
ENDBRANCH   8   9
ENDBRANCH   7   8
ENDBRANCH   6   7
ENDBRANCH   5   6
ENDBRANCH   4   5
ENDBRANCH   3   4
ENDBRANCH   2   3
ENDBRANCH   1   2
BRANCH   1  15
ATOM     15  C   UNL     1      -6.681   6.970  16.647  1.00  0.00     0.000 C 
BRANCH  15  16
ATOM     16  C   UNL     1      -7.671   6.115  15.844  1.00  0.00     0.000 C 
BRANCH  16  17
ATOM     17  C   UNL     1      -8.231   6.849  14.613  1.00  0.00     0.000 C 
BRANCH  17  18
ATOM     18  C   UNL     1      -8.234   5.956  13.361  1.00  0.00    -0.000 C 
BRANCH  18  19
ATOM     19  C   UNL     1      -7.784   4.518  13.676  1.00  0.00    -0.000 C 
BRANCH  19  20
ATOM     20  C   UNL     1      -6.538   4.109  12.871  1.00  0.00    -0.000 C 
BRANCH  20  21
ATOM     21  C   UNL     1      -6.413   4.900  11.558  1.00  0.00    -0.000 C 
BRANCH  21  22
ATOM     22  C   UNL     1      -5.052   5.601  11.422  1.00  0.00    -0.000 C 
BRANCH  22  23
ATOM     23  C   UNL     1      -5.186   7.131  11.313  1.00  0.00    -0.000 C 
BRANCH  23  24
ATOM     24  C   UNL     1      -5.161   7.828  12.685  1.00  0.00    -0.000 C 
BRANCH  24  25
ATOM     25  C   UNL     1      -4.289   7.131  13.745  1.00  0.00    -0.003 C 
ATOM     26  C   UNL     1      -2.805   7.476  13.614  1.00  0.00     0.004 C 
ENDBRANCH  24  25
ENDBRANCH  23  24
ENDBRANCH  22  23
ENDBRANCH  21  22
ENDBRANCH  20  21
ENDBRANCH  19  20
ENDBRANCH  18  19
ENDBRANCH  17  18
ENDBRANCH  16  17
ENDBRANCH  15  16
ENDBRANCH   1  15
TORSDOF 22
ENDMDL
MODEL 3
REMARK VINA RESULT:    -4.654      1.950      6.102
REMARK INTER + INTRA:         -14.345
REMARK INTER:                 -10.935
REMARK INTRA:                  -3.410
REMARK UNBOUND:                -3.707
REMARK SMILES CCCCCCCCCCCCCCCCCCCCCCCC(=O)[O-]
REMARK SMILES IDX 13 1 14 2 15 3 16 4 17 5 18 6 19 7 20 8 21 9 22 10 23 11
REMARK SMILES IDX 24 12 25 13 26 14 12 15 11 16 10 17 9 18 8 19 7 20 6 21 5 22
REMARK SMILES IDX 4 23 3 24 2 25 1 26
REMARK H PARENT
REMARK Flexibility Score: inf
ROOT
ATOM      1  C   UNL     1      -7.265   6.831  16.139  1.00  0.00     0.000 C 
ENDROOT
BRANCH   1   2
ATOM      2  C   UNL     1      -7.515   7.634  14.852  1.00  0.00     0.000 C 
BRANCH   2   3
ATOM      3  C   UNL     1      -8.420   6.896  13.854  1.00  0.00     0.000 C 
BRANCH   3   4
ATOM      4  C   UNL     1      -8.603   5.427  14.263  1.00  0.00     0.000 C 
BRANCH   4   5
ATOM      5  C   UNL     1      -8.006   4.450  13.236  1.00  0.00     0.000 C 
BRANCH   5   6
ATOM      6  C   UNL     1      -6.549   4.073  13.561  1.00  0.00     0.000 C 
BRANCH   6   7
ATOM      7  C   UNL     1      -5.583   4.447  12.427  1.00  0.00     0.000 C 
BRANCH   7   8
ATOM      8  C   UNL     1      -6.290   5.154  11.260  1.00  0.00     0.000 C 
BRANCH   8   9
ATOM      9  C   UNL     1      -5.789   6.603  11.068  1.00  0.00     0.000 C 
BRANCH   9  10
ATOM     10  C   UNL     1      -4.941   7.116  12.246  1.00  0.00     0.006 C 
BRANCH  10  11
ATOM     11  C   UNL     1      -3.697   7.909  11.820  1.00  0.00     0.053 C 
BRANCH  11  12
ATOM     12  C   UNL     1      -2.639   7.901  12.882  1.00  0.00     0.041 C 
ATOM     13  O   UNL     1      -1.603   8.607  12.754  1.00  0.00    -0.550 OA
ATOM     14  O   UNL     1      -2.794   7.105  14.009  1.00  0.00    -0.550 OA
ENDBRANCH  11  12
ENDBRANCH  10  11
ENDBRANCH   9  10
ENDBRANCH   8   9
ENDBRANCH   7   8
ENDBRANCH   6   7
ENDBRANCH   5   6
ENDBRANCH   4   5
ENDBRANCH   3   4
ENDBRANCH   2   3
ENDBRANCH   1   2
BRANCH   1  15
ATOM     15  C   UNL     1      -5.831   6.998  16.676  1.00  0.00     0.000 C 
BRANCH  15  16
ATOM     16  C   UNL     1      -4.953   5.761  16.434  1.00  0.00     0.000 C 
BRANCH  16  17
ATOM     17  C   UNL     1      -5.493   4.501  17.132  1.00  0.00     0.000 C 
BRANCH  17  18
ATOM     18  C   UNL     1      -4.835   3.219  16.596  1.00  0.00    -0.000 C 
BRANCH  18  19
ATOM     19  C   UNL     1      -3.505   3.508  15.877  1.00  0.00    -0.000 C 
BRANCH  19  20
ATOM     20  C   UNL     1      -2.348   2.659  16.432  1.00  0.00    -0.000 C 
BRANCH  20  21
ATOM     21  C   UNL     1      -1.231   3.528  17.036  1.00  0.00    -0.000 C 
BRANCH  21  22
ATOM     22  C   UNL     1      -1.318   4.994  16.580  1.00  0.00    -0.000 C 
BRANCH  22  23
ATOM     23  C   UNL     1      -0.169   5.853  17.137  1.00  0.00    -0.000 C 
BRANCH  23  24
ATOM     24  C   UNL     1       0.016   5.685  18.656  1.00  0.00    -0.000 C 
BRANCH  24  25
ATOM     25  C   UNL     1       0.200   7.002  19.430  1.00  0.00    -0.003 C 
ATOM     26  C   UNL     1      -0.052   6.851  20.930  1.00  0.00     0.004 C 
ENDBRANCH  24  25
ENDBRANCH  23  24
ENDBRANCH  22  23
ENDBRANCH  21  22
ENDBRANCH  20  21
ENDBRANCH  19  20
ENDBRANCH  18  19
ENDBRANCH  17  18
ENDBRANCH  16  17
ENDBRANCH  15  16
ENDBRANCH   1  15
TORSDOF 22
ENDMDL
MODEL 4
REMARK VINA RESULT:    -4.651      2.287      7.202
REMARK INTER + INTRA:         -14.339
REMARK INTER:                 -11.569
REMARK INTRA:                  -2.770
REMARK UNBOUND:                -3.707
REMARK SMILES CCCCCCCCCCCCCCCCCCCCCCCC(=O)[O-]
REMARK SMILES IDX 13 1 14 2 15 3 16 4 17 5 18 6 19 7 20 8 21 9 22 10 23 11
REMARK SMILES IDX 24 12 25 13 26 14 12 15 11 16 10 17 9 18 8 19 7 20 6 21 5 22
REMARK SMILES IDX 4 23 3 24 2 25 1 26
REMARK H PARENT
REMARK Flexibility Score: inf
ROOT
ATOM      1  C   UNL     1      -5.275   4.209  17.264  1.00  0.00     0.000 C 
ENDROOT
BRANCH   1   2
ATOM      2  C   UNL     1      -5.213   5.599  16.608  1.00  0.00     0.000 C 
BRANCH   2   3
ATOM      3  C   UNL     1      -6.534   6.374  16.728  1.00  0.00     0.000 C 
BRANCH   3   4
ATOM      4  C   UNL     1      -7.021   6.842  15.348  1.00  0.00     0.000 C 
BRANCH   4   5
ATOM      5  C   UNL     1      -8.216   6.021  14.835  1.00  0.00     0.000 C 
BRANCH   5   6
ATOM      6  C   UNL     1      -7.921   5.329  13.492  1.00  0.00     0.000 C 
BRANCH   6   7
ATOM      7  C   UNL     1      -6.962   4.138  13.647  1.00  0.00     0.000 C 
BRANCH   7   8
ATOM      8  C   UNL     1      -5.718   4.264  12.753  1.00  0.00     0.000 C 
BRANCH   8   9
ATOM      9  C   UNL     1      -6.030   4.976  11.419  1.00  0.00     0.000 C 
BRANCH   9  10
ATOM     10  C   UNL     1      -5.061   6.131  11.103  1.00  0.00     0.006 C 
BRANCH  10  11
ATOM     11  C   UNL     1      -5.061   7.250  12.155  1.00  0.00     0.053 C 
BRANCH  11  12
ATOM     12  C   UNL     1      -3.714   7.422  12.788  1.00  0.00     0.041 C 
ATOM     13  O   UNL     1      -2.856   8.181  12.263  1.00  0.00    -0.550 OA
ATOM     14  O   UNL     1      -3.403   6.735  13.954  1.00  0.00    -0.550 OA
ENDBRANCH  11  12
ENDBRANCH  10  11
ENDBRANCH   9  10
ENDBRANCH   8   9
ENDBRANCH   7   8
ENDBRANCH   6   7
ENDBRANCH   5   6
ENDBRANCH   4   5
ENDBRANCH   3   4
ENDBRANCH   2   3
ENDBRANCH   1   2
BRANCH   1  15
ATOM     15  C   UNL     1      -4.851   3.080  16.307  1.00  0.00     0.000 C 
BRANCH  15  16
ATOM     16  C   UNL     1      -3.426   3.259  15.763  1.00  0.00     0.000 C 
BRANCH  16  17
ATOM     17  C   UNL     1      -2.359   2.612  16.662  1.00  0.00     0.000 C 
BRANCH  17  18
ATOM     18  C   UNL     1      -1.219   3.588  16.999  1.00  0.00    -0.000 C 
BRANCH  18  19
ATOM     19  C   UNL     1      -1.468   4.991  16.415  1.00  0.00    -0.000 C 
BRANCH  19  20
ATOM     20  C   UNL     1      -0.310   5.959  16.716  1.00  0.00    -0.000 C 
BRANCH  20  21
ATOM     21  C   UNL     1      -0.105   6.162  18.227  1.00  0.00    -0.000 C 
BRANCH  21  22
ATOM     22  C   UNL     1       0.646   7.465  18.547  1.00  0.00    -0.000 C 
BRANCH  22  23
ATOM     23  C   UNL     1       0.510   7.875  20.024  1.00  0.00    -0.000 C 
BRANCH  23  24
ATOM     24  C   UNL     1      -0.132   6.775  20.889  1.00  0.00    -0.000 C 
BRANCH  24  25
ATOM     25  C   UNL     1       0.295   6.790  22.368  1.00  0.00    -0.003 C 
ATOM     26  C   UNL     1      -0.857   6.476  23.323  1.00  0.00     0.004 C 
ENDBRANCH  24  25
ENDBRANCH  23  24
ENDBRANCH  22  23
ENDBRANCH  21  22
ENDBRANCH  20  21
ENDBRANCH  19  20
ENDBRANCH  18  19
ENDBRANCH  17  18
ENDBRANCH  16  17
ENDBRANCH  15  16
ENDBRANCH   1  15
TORSDOF 22
ENDMDL
MODEL 5
REMARK VINA RESULT:    -4.504      1.691      3.582
REMARK INTER + INTRA:         -14.004
REMARK INTER:                 -11.043
REMARK INTRA:                  -2.962
REMARK UNBOUND:                -3.707
REMARK SMILES CCCCCCCCCCCCCCCCCCCCCCCC(=O)[O-]
REMARK SMILES IDX 13 1 14 2 15 3 16 4 17 5 18 6 19 7 20 8 21 9 22 10 23 11
REMARK SMILES IDX 24 12 25 13 26 14 12 15 11 16 10 17 9 18 8 19 7 20 6 21 5 22
REMARK SMILES IDX 4 23 3 24 2 25 1 26
REMARK H PARENT
REMARK Flexibility Score: inf
ROOT
ATOM      1  C   UNL     1      -4.606   4.845  14.093  1.00  0.00     0.000 C 
ENDROOT
BRANCH   1   2
ATOM      2  C   UNL     1      -4.366   4.876  15.611  1.00  0.00     0.000 C 
BRANCH   2   3
ATOM      3  C   UNL     1      -4.792   3.576  16.310  1.00  0.00     0.000 C 
BRANCH   3   4
ATOM      4  C   UNL     1      -3.567   2.782  16.785  1.00  0.00     0.000 C 
BRANCH   4   5
ATOM      5  C   UNL     1      -2.291   3.145  16.007  1.00  0.00     0.000 C 
BRANCH   5   6
ATOM      6  C   UNL     1      -1.112   3.484  16.937  1.00  0.00     0.000 C 
BRANCH   6   7
ATOM      7  C   UNL     1      -0.744   4.975  16.893  1.00  0.00     0.000 C 
BRANCH   7   8
ATOM      8  C   UNL     1      -0.207   5.489  18.239  1.00  0.00     0.000 C 
BRANCH   8   9
ATOM      9  C   UNL     1       0.291   6.948  18.148  1.00  0.00     0.000 C 
BRANCH   9  10
ATOM     10  C   UNL     1       0.498   7.608  19.524  1.00  0.00     0.006 C 
BRANCH  10  11
ATOM     11  C   UNL     1      -0.109   6.818  20.693  1.00  0.00     0.053 C 
BRANCH  11  12
ATOM     12  C   UNL     1       0.789   6.818  21.893  1.00  0.00     0.041 C 
ATOM     13  O   UNL     1       2.017   7.071  21.769  1.00  0.00    -0.550 OA
ATOM     14  O   UNL     1       0.269   6.529  23.148  1.00  0.00    -0.550 OA
ENDBRANCH  11  12
ENDBRANCH  10  11
ENDBRANCH   9  10
ENDBRANCH   8   9
ENDBRANCH   7   8
ENDBRANCH   6   7
ENDBRANCH   5   6
ENDBRANCH   4   5
ENDBRANCH   3   4
ENDBRANCH   2   3
ENDBRANCH   1   2
BRANCH   1  15
ATOM     15  C   UNL     1      -5.632   3.775  13.674  1.00  0.00     0.000 C 
BRANCH  15  16
ATOM     16  C   UNL     1      -6.333   4.104  12.348  1.00  0.00     0.000 C 
BRANCH  16  17
ATOM     17  C   UNL     1      -7.764   4.634  12.545  1.00  0.00     0.000 C 
BRANCH  17  18
ATOM     18  C   UNL     1      -8.081   4.898  14.027  1.00  0.00    -0.000 C 
BRANCH  18  19
ATOM     19  C   UNL     1      -8.988   6.128  14.215  1.00  0.00    -0.000 C 
BRANCH  19  20
ATOM     20  C   UNL     1      -8.645   6.915  15.491  1.00  0.00    -0.000 C 
BRANCH  20  21
ATOM     21  C   UNL     1      -7.337   6.424  16.137  1.00  0.00    -0.000 C 
BRANCH  21  22
ATOM     22  C   UNL     1      -6.507   7.574  16.728  1.00  0.00    -0.000 C 
BRANCH  22  23
ATOM     23  C   UNL     1      -6.226   8.686  15.701  1.00  0.00    -0.000 C 
BRANCH  23  24
ATOM     24  C   UNL     1      -5.080   8.327  14.737  1.00  0.00    -0.000 C 
BRANCH  24  25
ATOM     25  C   UNL     1      -5.275   8.826  13.294  1.00  0.00    -0.003 C 
ATOM     26  C   UNL     1      -6.096   7.863  12.437  1.00  0.00     0.004 C 
ENDBRANCH  24  25
ENDBRANCH  23  24
ENDBRANCH  22  23
ENDBRANCH  21  22
ENDBRANCH  20  21
ENDBRANCH  19  20
ENDBRANCH  18  19
ENDBRANCH  17  18
ENDBRANCH  16  17
ENDBRANCH  15  16
ENDBRANCH   1  15
TORSDOF 22
ENDMDL
MODEL 6
REMARK VINA RESULT:    -4.481      1.610      4.628
REMARK INTER + INTRA:         -13.951
REMARK INTER:                 -11.530
REMARK INTRA:                  -2.422
REMARK UNBOUND:                -3.707
REMARK SMILES CCCCCCCCCCCCCCCCCCCCCCCC(=O)[O-]
REMARK SMILES IDX 13 1 14 2 15 3 16 4 17 5 18 6 19 7 20 8 21 9 22 10 23 11
REMARK SMILES IDX 24 12 25 13 26 14 12 15 11 16 10 17 9 18 8 19 7 20 6 21 5 22
REMARK SMILES IDX 4 23 3 24 2 25 1 26
REMARK H PARENT
REMARK Flexibility Score: inf
ROOT
ATOM      1  C   UNL     1      -2.783   2.793  16.897  1.00  0.00     0.000 C 
ENDROOT
BRANCH   1   2
ATOM      2  C   UNL     1      -2.443   3.369  15.513  1.00  0.00     0.000 C 
BRANCH   2   3
ATOM      3  C   UNL     1      -1.409   4.503  15.576  1.00  0.00     0.000 C 
BRANCH   3   4
ATOM      4  C   UNL     1      -1.068   4.854  17.032  1.00  0.00     0.000 C 
BRANCH   4   5
ATOM      5  C   UNL     1       0.286   5.571  17.164  1.00  0.00     0.000 C 
BRANCH   5   6
ATOM      6  C   UNL     1       0.232   7.026  16.665  1.00  0.00     0.000 C 
BRANCH   6   7
ATOM      7  C   UNL     1       1.613   7.700  16.681  1.00  0.00     0.000 C 
BRANCH   7   8
ATOM      8  C   UNL     1       1.769   8.695  17.842  1.00  0.00     0.000 C 
BRANCH   8   9
ATOM      9  C   UNL     1       0.638   8.555  18.885  1.00  0.00     0.000 C 
BRANCH   9  10
ATOM     10  C   UNL     1       1.079   7.826  20.168  1.00  0.00     0.006 C 
BRANCH  10  11
ATOM     11  C   UNL     1       0.021   6.868  20.736  1.00  0.00     0.053 C 
BRANCH  11  12
ATOM     12  C   UNL     1       0.192   6.659  22.210  1.00  0.00     0.041 C 
ATOM     13  O   UNL     1       1.345   6.609  22.716  1.00  0.00    -0.550 OA
ATOM     14  O   UNL     1      -0.924   6.508  23.023  1.00  0.00    -0.550 OA
ENDBRANCH  11  12
ENDBRANCH  10  11
ENDBRANCH   9  10
ENDBRANCH   8   9
ENDBRANCH   7   8
ENDBRANCH   6   7
ENDBRANCH   5   6
ENDBRANCH   4   5
ENDBRANCH   3   4
ENDBRANCH   2   3
ENDBRANCH   1   2
BRANCH   1  15
ATOM     15  C   UNL     1      -4.276   2.444  17.048  1.00  0.00     0.000 C 
BRANCH  15  16
ATOM     16  C   UNL     1      -5.201   3.469  16.375  1.00  0.00     0.000 C 
BRANCH  16  17
ATOM     17  C   UNL     1      -5.386   4.746  17.214  1.00  0.00     0.000 C 
BRANCH  17  18
ATOM     18  C   UNL     1      -4.961   6.008  16.445  1.00  0.00    -0.000 C 
BRANCH  18  19
ATOM     19  C   UNL     1      -6.126   6.999  16.271  1.00  0.00    -0.000 C 
BRANCH  19  20
ATOM     20  C   UNL     1      -6.529   7.169  14.796  1.00  0.00    -0.000 C 
BRANCH  20  21
ATOM     21  C   UNL     1      -5.469   7.943  13.993  1.00  0.00    -0.000 C 
BRANCH  21  22
ATOM     22  C   UNL     1      -4.522   7.010  13.220  1.00  0.00    -0.000 C 
BRANCH  22  23
ATOM     23  C   UNL     1      -5.146   5.629  12.952  1.00  0.00    -0.000 C 
BRANCH  23  24
ATOM     24  C   UNL     1      -5.612   5.462  11.494  1.00  0.00    -0.000 C 
BRANCH  24  25
ATOM     25  C   UNL     1      -7.009   4.835  11.333  1.00  0.00    -0.003 C 
ATOM     26  C   UNL     1      -7.627   4.412  12.665  1.00  0.00     0.004 C 
ENDBRANCH  24  25
ENDBRANCH  23  24
ENDBRANCH  22  23
ENDBRANCH  21  22
ENDBRANCH  20  21
ENDBRANCH  19  20
ENDBRANCH  18  19
ENDBRANCH  17  18
ENDBRANCH  16  17
ENDBRANCH  15  16
ENDBRANCH   1  15
TORSDOF 22
ENDMDL
MODEL 7
REMARK VINA RESULT:    -4.438      2.027      4.451
REMARK INTER + INTRA:         -13.852
REMARK INTER:                 -11.562
REMARK INTRA:                  -2.290
REMARK UNBOUND:                -3.707
REMARK SMILES CCCCCCCCCCCCCCCCCCCCCCCC(=O)[O-]
REMARK SMILES IDX 13 1 14 2 15 3 16 4 17 5 18 6 19 7 20 8 21 9 22 10 23 11
REMARK SMILES IDX 24 12 25 13 26 14 12 15 11 16 10 17 9 18 8 19 7 20 6 21 5 22
REMARK SMILES IDX 4 23 3 24 2 25 1 26
REMARK H PARENT
REMARK Flexibility Score: inf
ROOT
ATOM      1  C   UNL     1      -3.903   3.966  16.442  1.00  0.00     0.000 C 
ENDROOT
BRANCH   1   2
ATOM      2  C   UNL     1      -2.615   3.132  16.540  1.00  0.00     0.000 C 
BRANCH   2   3
ATOM      3  C   UNL     1      -1.379   3.879  16.018  1.00  0.00     0.000 C 
BRANCH   3   4
ATOM      4  C   UNL     1      -1.297   5.290  16.619  1.00  0.00     0.000 C 
BRANCH   4   5
ATOM      5  C   UNL     1      -0.072   5.473  17.531  1.00  0.00     0.000 C 
BRANCH   5   6
ATOM      6  C   UNL     1       1.000   6.380  16.900  1.00  0.00     0.000 C 
BRANCH   6   7
ATOM      7  C   UNL     1       0.687   7.872  17.089  1.00  0.00     0.000 C 
BRANCH   7   8
ATOM      8  C   UNL     1       1.534   8.515  18.200  1.00  0.00     0.000 C 
BRANCH   8   9
ATOM      9  C   UNL     1       0.783   8.567  19.549  1.00  0.00     0.000 C 
BRANCH   9  10
ATOM     10  C   UNL     1       0.967   7.296  20.398  1.00  0.00     0.006 C 
BRANCH  10  11
ATOM     11  C   UNL     1      -0.285   6.887  21.188  1.00  0.00     0.053 C 
BRANCH  11  12
ATOM     12  C   UNL     1       0.031   6.597  22.624  1.00  0.00     0.041 C 
ATOM     13  O   UNL     1      -0.877   6.223  23.413  1.00  0.00    -0.550 OA
ATOM     14  O   UNL     1       1.330   6.750  23.092  1.00  0.00    -0.550 OA
ENDBRANCH  11  12
ENDBRANCH  10  11
ENDBRANCH   9  10
ENDBRANCH   8   9
ENDBRANCH   7   8
ENDBRANCH   6   7
ENDBRANCH   5   6
ENDBRANCH   4   5
ENDBRANCH   3   4
ENDBRANCH   2   3
ENDBRANCH   1   2
BRANCH   1  15
ATOM     15  C   UNL     1      -4.183   4.463  15.011  1.00  0.00     0.000 C 
BRANCH  15  16
ATOM     16  C   UNL     1      -5.401   3.783  14.369  1.00  0.00     0.000 C 
BRANCH  16  17
ATOM     17  C   UNL     1      -5.342   3.785  12.831  1.00  0.00     0.000 C 
BRANCH  17  18
ATOM     18  C   UNL     1      -6.682   4.208  12.204  1.00  0.00    -0.000 C 
BRANCH  18  19
ATOM     19  C   UNL     1      -6.616   5.620  11.595  1.00  0.00    -0.000 C 
BRANCH  19  20
ATOM     20  C   UNL     1      -7.381   6.654  12.439  1.00  0.00    -0.000 C 
BRANCH  20  21
ATOM     21  C   UNL     1      -8.477   6.000  13.298  1.00  0.00    -0.000 C 
BRANCH  21  22
ATOM     22  C   UNL     1      -8.235   6.193  14.804  1.00  0.00    -0.000 C 
BRANCH  22  23
ATOM     23  C   UNL     1      -7.443   7.476  15.114  1.00  0.00    -0.000 C 
BRANCH  23  24
ATOM     24  C   UNL     1      -6.264   7.229  16.072  1.00  0.00    -0.000 C 
BRANCH  24  25
ATOM     25  C   UNL     1      -6.581   7.479  17.558  1.00  0.00    -0.003 C 
ATOM     26  C   UNL     1      -6.088   6.354  18.468  1.00  0.00     0.004 C 
ENDBRANCH  24  25
ENDBRANCH  23  24
ENDBRANCH  22  23
ENDBRANCH  21  22
ENDBRANCH  20  21
ENDBRANCH  19  20
ENDBRANCH  18  19
ENDBRANCH  17  18
ENDBRANCH  16  17
ENDBRANCH  15  16
ENDBRANCH   1  15
TORSDOF 22
ENDMDL
MODEL 8
REMARK VINA RESULT:    -4.419      0.984      3.223
REMARK INTER + INTRA:         -13.809
REMARK INTER:                 -10.544
REMARK INTRA:                  -3.264
REMARK UNBOUND:                -3.707
REMARK SMILES CCCCCCCCCCCCCCCCCCCCCCCC(=O)[O-]
REMARK SMILES IDX 13 1 14 2 15 3 16 4 17 5 18 6 19 7 20 8 21 9 22 10 23 11
REMARK SMILES IDX 24 12 25 13 26 14 12 15 11 16 10 17 9 18 8 19 7 20 6 21 5 22
REMARK SMILES IDX 4 23 3 24 2 25 1 26
REMARK H PARENT
REMARK Flexibility Score: inf
ROOT
ATOM      1  C   UNL     1      -4.629   6.490  14.258  1.00  0.00     0.000 C 
ENDROOT
BRANCH   1   2
ATOM      2  C   UNL     1      -4.768   5.928  15.682  1.00  0.00     0.000 C 
BRANCH   2   3
ATOM      3  C   UNL     1      -5.810   4.802  15.780  1.00  0.00     0.000 C 
BRANCH   3   4
ATOM      4  C   UNL     1      -5.164   3.434  15.516  1.00  0.00     0.000 C 
BRANCH   4   5
ATOM      5  C   UNL     1      -4.589   2.797  16.792  1.00  0.00     0.000 C 
BRANCH   5   6
ATOM      6  C   UNL     1      -3.049   2.777  16.797  1.00  0.00     0.000 C 
BRANCH   6   7
ATOM      7  C   UNL     1      -2.454   3.353  15.502  1.00  0.00     0.000 C 
BRANCH   7   8
ATOM      8  C   UNL     1      -1.214   4.224  15.761  1.00  0.00     0.000 C 
BRANCH   8   9
ATOM      9  C   UNL     1      -1.475   5.304  16.834  1.00  0.00     0.000 C 
BRANCH   9  10
ATOM     10  C   UNL     1      -0.184   5.911  17.416  1.00  0.00     0.006 C 
BRANCH  10  11
ATOM     11  C   UNL     1      -0.077   5.800  18.944  1.00  0.00     0.053 C 
BRANCH  11  12
ATOM     12  C   UNL     1       0.322   7.102  19.570  1.00  0.00     0.041 C 
ATOM     13  O   UNL     1       0.642   8.084  18.849  1.00  0.00    -0.550 OA
ATOM     14  O   UNL     1       0.349   7.226  20.953  1.00  0.00    -0.550 OA
ENDBRANCH  11  12
ENDBRANCH  10  11
ENDBRANCH   9  10
ENDBRANCH   8   9
ENDBRANCH   7   8
ENDBRANCH   6   7
ENDBRANCH   5   6
ENDBRANCH   4   5
ENDBRANCH   3   4
ENDBRANCH   2   3
ENDBRANCH   1   2
BRANCH   1  15
ATOM     15  C   UNL     1      -3.230   7.072  13.982  1.00  0.00     0.000 C 
BRANCH  15  16
ATOM     16  C   UNL     1      -3.147   7.823  12.646  1.00  0.00     0.000 C 
BRANCH  16  17
ATOM     17  C   UNL     1      -4.529   8.075  12.017  1.00  0.00     0.000 C 
BRANCH  17  18
ATOM     18  C   UNL     1      -4.533   7.795  10.505  1.00  0.00    -0.000 C 
BRANCH  18  19
ATOM     19  C   UNL     1      -4.334   6.301  10.193  1.00  0.00    -0.000 C 
BRANCH  19  20
ATOM     20  C   UNL     1      -5.287   5.405  11.002  1.00  0.00    -0.000 C 
BRANCH  20  21
ATOM     21  C   UNL     1      -6.712   5.406  10.422  1.00  0.00    -0.000 C 
BRANCH  21  22
ATOM     22  C   UNL     1      -7.772   5.784  11.469  1.00  0.00    -0.000 C 
BRANCH  22  23
ATOM     23  C   UNL     1      -7.989   4.674  12.514  1.00  0.00    -0.000 C 
BRANCH  23  24
ATOM     24  C   UNL     1      -8.732   5.175  13.766  1.00  0.00    -0.000 C 
BRANCH  24  25
ATOM     25  C   UNL     1      -8.485   6.654  14.111  1.00  0.00    -0.003 C 
ATOM     26  C   UNL     1      -8.828   6.992  15.562  1.00  0.00     0.004 C 
ENDBRANCH  24  25
ENDBRANCH  23  24
ENDBRANCH  22  23
ENDBRANCH  21  22
ENDBRANCH  20  21
ENDBRANCH  19  20
ENDBRANCH  18  19
ENDBRANCH  17  18
ENDBRANCH  16  17
ENDBRANCH  15  16
ENDBRANCH   1  15
TORSDOF 22
ENDMDL
MODEL 9
REMARK VINA RESULT:    -4.281      2.353      4.040
REMARK INTER + INTRA:         -13.493
REMARK INTER:                  -8.767
REMARK INTRA:                  -4.727
REMARK UNBOUND:                -3.707
REMARK SMILES CCCCCCCCCCCCCCCCCCCCCCCC(=O)[O-]
REMARK SMILES IDX 13 1 14 2 15 3 16 4 17 5 18 6 19 7 20 8 21 9 22 10 23 11
REMARK SMILES IDX 24 12 25 13 26 14 12 15 11 16 10 17 9 18 8 19 7 20 6 21 5 22
REMARK SMILES IDX 4 23 3 24 2 25 1 26
REMARK H PARENT
REMARK Flexibility Score: inf
ROOT
ATOM      1  C   UNL     1      -6.500   4.125  13.428  1.00  0.00     0.000 C 
ENDROOT
BRANCH   1   2
ATOM      2  C   UNL     1      -7.637   4.584  14.355  1.00  0.00     0.000 C 
BRANCH   2   3
ATOM      3  C   UNL     1      -8.188   5.969  13.982  1.00  0.00     0.000 C 
BRANCH   3   4
ATOM      4  C   UNL     1      -8.143   6.919  15.189  1.00  0.00     0.000 C 
BRANCH   4   5
ATOM      5  C   UNL     1      -7.221   8.127  14.955  1.00  0.00     0.000 C 
BRANCH   5   6
ATOM      6  C   UNL     1      -5.788   7.879  15.461  1.00  0.00     0.000 C 
BRANCH   6   7
ATOM      7  C   UNL     1      -5.750   6.914  16.655  1.00  0.00     0.000 C 
BRANCH   7   8
ATOM      8  C   UNL     1      -4.711   5.795  16.475  1.00  0.00     0.000 C 
BRANCH   8   9
ATOM      9  C   UNL     1      -5.224   4.435  16.996  1.00  0.00     0.000 C 
BRANCH   9  10
ATOM     10  C   UNL     1      -4.435   3.233  16.444  1.00  0.00     0.006 C 
BRANCH  10  11
ATOM     11  C   UNL     1      -3.241   3.624  15.561  1.00  0.00     0.053 C 
BRANCH  11  12
ATOM     12  C   UNL     1      -1.933   3.323  16.228  1.00  0.00     0.041 C 
ATOM     13  O   UNL     1      -0.916   4.025  15.980  1.00  0.00    -0.550 OA
ATOM     14  O   UNL     1      -1.835   2.261  17.117  1.00  0.00    -0.550 OA
ENDBRANCH  11  12
ENDBRANCH  10  11
ENDBRANCH   9  10
ENDBRANCH   8   9
ENDBRANCH   7   8
ENDBRANCH   6   7
ENDBRANCH   5   6
ENDBRANCH   4   5
ENDBRANCH   3   4
ENDBRANCH   2   3
ENDBRANCH   1   2
BRANCH   1  15
ATOM     15  C   UNL     1      -5.755   5.302  12.770  1.00  0.00     0.000 C 
BRANCH  15  16
ATOM     16  C   UNL     1      -5.728   5.213  11.238  1.00  0.00     0.000 C 
BRANCH  16  17
ATOM     17  C   UNL     1      -7.027   4.630  10.652  1.00  0.00     0.000 C 
BRANCH  17  18
ATOM     18  C   UNL     1      -8.092   5.715  10.421  1.00  0.00    -0.000 C 
BRANCH  18  19
ATOM     19  C   UNL     1      -7.468   7.067  10.035  1.00  0.00    -0.000 C 
BRANCH  19  20
ATOM     20  C   UNL     1      -7.725   8.152  11.095  1.00  0.00    -0.000 C 
BRANCH  20  21
ATOM     21  C   UNL     1      -6.443   8.922  11.456  1.00  0.00    -0.000 C 
BRANCH  21  22
ATOM     22  C   UNL     1      -5.388   8.860  10.341  1.00  0.00    -0.000 C 
BRANCH  22  23
ATOM     23  C   UNL     1      -3.963   9.120  10.863  1.00  0.00    -0.000 C 
BRANCH  23  24
ATOM     24  C   UNL     1      -3.302   7.854  11.439  1.00  0.00    -0.000 C 
BRANCH  24  25
ATOM     25  C   UNL     1      -2.997   7.919  12.946  1.00  0.00    -0.003 C 
ATOM     26  C   UNL     1      -3.075   9.338  13.509  1.00  0.00     0.004 C 
ENDBRANCH  24  25
ENDBRANCH  23  24
ENDBRANCH  22  23
ENDBRANCH  21  22
ENDBRANCH  20  21
ENDBRANCH  19  20
ENDBRANCH  18  19
ENDBRANCH  17  18
ENDBRANCH  16  17
ENDBRANCH  15  16
ENDBRANCH   1  15
TORSDOF 22
ENDMDL
