MODEL 1
REMARK VINA RESULT:    -4.278      0.000      0.000
REMARK INTER + INTRA:         -10.173
REMARK INTER:                  -7.778
REMARK INTRA:                  -2.394
REMARK UNBOUND:                -2.394
REMARK SMILES CCCCCCCCCCCCCCCC(=O)[O-]
REMARK SMILES IDX 9 1 10 2 11 3 12 4 13 5 14 6 15 7 16 8 17 9 18 10 8 11 7 12
REMARK SMILES IDX 6 13 5 14 4 15 3 16 2 17 1 18
REMARK H PARENT
REMARK Flexibility Score: inf
ROOT
ATOM      1  C   UNL     1       3.847   4.228  26.389  1.00  0.00     0.000 C 
ENDROOT
BRANCH   1   2
ATOM      2  C   UNL     1       3.329   3.334  27.528  1.00  0.00     0.000 C 
BRANCH   2   3
ATOM      3  C   UNL     1       1.799   3.390  27.677  1.00  0.00     0.000 C 
BRANCH   3   4
ATOM      4  C   UNL     1       1.354   4.106  28.962  1.00  0.00     0.000 C 
BRANCH   4   5
ATOM      5  C   UNL     1       0.152   5.023  28.688  1.00  0.00     0.000 C 
BRANCH   5   6
ATOM      6  C   UNL     1      -0.098   6.033  29.823  1.00  0.00     0.006 C 
BRANCH   6   7
ATOM      7  C   UNL     1       1.170   6.724  30.349  1.00  0.00     0.053 C 
BRANCH   7   8
ATOM      8  C   UNL     1       1.284   6.630  31.840  1.00  0.00     0.041 C 
ATOM      9  O   UNL     1       1.253   5.506  32.408  1.00  0.00    -0.550 OA
ATOM     10  O   UNL     1       1.390   7.785  32.604  1.00  0.00    -0.550 OA
ENDBRANCH   7   8
ENDBRANCH   6   7
ENDBRANCH   5   6
ENDBRANCH   4   5
ENDBRANCH   3   4
ENDBRANCH   2   3
ENDBRANCH   1   2
BRANCH   1  11
ATOM     11  C   UNL     1       2.703   4.931  25.626  1.00  0.00     0.000 C 
BRANCH  11  12
ATOM     12  C   UNL     1       2.795   6.468  25.656  1.00  0.00    -0.000 C 
BRANCH  12  13
ATOM     13  C   UNL     1       2.859   7.084  27.066  1.00  0.00    -0.000 C 
BRANCH  13  14
ATOM     14  C   UNL     1       4.275   7.459  27.552  1.00  0.00    -0.000 C 
BRANCH  14  15
ATOM     15  C   UNL     1       4.333   8.162  28.920  1.00  0.00    -0.000 C 
BRANCH  15  16
ATOM     16  C   UNL     1       4.920   7.273  30.027  1.00  0.00    -0.000 C 
BRANCH  16  17
ATOM     17  C   UNL     1       4.842   5.793  29.639  1.00  0.00    -0.003 C 
ATOM     18  C   UNL     1       4.493   4.924  30.844  1.00  0.00     0.004 C 
ENDBRANCH  16  17
ENDBRANCH  15  16
ENDBRANCH  14  15
ENDBRANCH  13  14
ENDBRANCH  12  13
ENDBRANCH  11  12
ENDBRANCH   1  11
TORSDOF 14
ENDMDL
MODEL 2
REMARK VINA RESULT:    -4.250      2.499      3.561
REMARK INTER + INTRA:         -10.122
REMARK INTER:                  -7.837
REMARK INTRA:                  -2.285
REMARK UNBOUND:                -2.394
REMARK SMILES CCCCCCCCCCCCCCCC(=O)[O-]
REMARK SMILES IDX 9 1 10 2 11 3 12 4 13 5 14 6 15 7 16 8 17 9 18 10 8 11 7 12
REMARK SMILES IDX 6 13 5 14 4 15 3 16 2 17 1 18
REMARK H PARENT
REMARK Flexibility Score: inf
ROOT
ATOM      1  C   UNL     1       4.551   4.246  28.945  1.00  0.00     0.000 C 
ENDROOT
BRANCH   1   2
ATOM      2  C   UNL     1       3.948   4.711  30.281  1.00  0.00     0.000 C 
BRANCH   2   3
ATOM      3  C   UNL     1       2.470   4.316  30.435  1.00  0.00     0.000 C 
BRANCH   3   4
ATOM      4  C   UNL     1       1.634   5.402  31.129  1.00  0.00     0.000 C 
BRANCH   4   5
ATOM      5  C   UNL     1       0.622   6.021  30.153  1.00  0.00     0.000 C 
BRANCH   5   6
ATOM      6  C   UNL     1       0.137   5.023  29.084  1.00  0.00     0.006 C 
BRANCH   6   7
ATOM      7  C   UNL     1      -1.329   5.206  28.664  1.00  0.00     0.053 C 
BRANCH   7   8
ATOM      8  C   UNL     1      -1.634   4.514  27.370  1.00  0.00     0.041 C 
ATOM      9  O   UNL     1      -0.713   3.953  26.720  1.00  0.00    -0.550 OA
ATOM     10  O   UNL     1      -2.928   4.519  26.866  1.00  0.00    -0.550 OA
ENDBRANCH   7   8
ENDBRANCH   6   7
ENDBRANCH   5   6
ENDBRANCH   4   5
ENDBRANCH   3   4
ENDBRANCH   2   3
ENDBRANCH   1   2
BRANCH   1  11
ATOM     11  C   UNL     1       3.487   3.656  27.994  1.00  0.00     0.000 C 
BRANCH  11  12
ATOM     12  C   UNL     1       3.512   4.272  26.582  1.00  0.00    -0.000 C 
BRANCH  12  13
ATOM     13  C   UNL     1       3.801   5.784  26.543  1.00  0.00    -0.000 C 
BRANCH  13  14
ATOM     14  C   UNL     1       2.659   6.682  27.063  1.00  0.00    -0.000 C 
BRANCH  14  15
ATOM     15  C   UNL     1       3.108   7.897  27.895  1.00  0.00    -0.000 C 
BRANCH  15  16
ATOM     16  C   UNL     1       4.611   7.886  28.208  1.00  0.00    -0.000 C 
BRANCH  16  17
ATOM     17  C   UNL     1       4.918   8.729  29.451  1.00  0.00    -0.003 C 
ATOM     18  C   UNL     1       5.669   7.914  30.500  1.00  0.00     0.004 C 
ENDBRANCH  16  17
ENDBRANCH  15  16
ENDBRANCH  14  15
ENDBRANCH  13  14
ENDBRANCH  12  13
ENDBRANCH  11  12
ENDBRANCH   1  11
TORSDOF 14
ENDMDL
MODEL 3
REMARK VINA RESULT:    -4.240      3.171      5.367
REMARK INTER + INTRA:         -10.105
REMARK INTER:                  -7.663
REMARK INTRA:                  -2.441
REMARK UNBOUND:                -2.394
REMARK SMILES CCCCCCCCCCCCCCCC(=O)[O-]
REMARK SMILES IDX 9 1 10 2 11 3 12 4 13 5 14 6 15 7 16 8 17 9 18 10 8 11 7 12
REMARK SMILES IDX 6 13 5 14 4 15 3 16 2 17 1 18
REMARK H PARENT
REMARK Flexibility Score: inf
ROOT
ATOM      1  C   UNL     1       1.338   6.940  31.625  1.00  0.00     0.000 C 
ENDROOT
BRANCH   1   2
ATOM      2  C   UNL     1       0.058   7.301  30.852  1.00  0.00     0.000 C 
BRANCH   2   3
ATOM      3  C   UNL     1       0.332   7.648  29.379  1.00  0.00     0.000 C 
BRANCH   3   4
ATOM      4  C   UNL     1      -0.355   6.680  28.403  1.00  0.00     0.000 C 
BRANCH   4   5
ATOM      5  C   UNL     1      -1.365   5.787  29.139  1.00  0.00     0.000 C 
BRANCH   5   6
ATOM      6  C   UNL     1      -1.703   4.501  28.360  1.00  0.00     0.006 C 
BRANCH   6   7
ATOM      7  C   UNL     1      -0.937   4.341  27.037  1.00  0.00     0.053 C 
BRANCH   7   8
ATOM      8  C   UNL     1      -1.859   4.117  25.878  1.00  0.00     0.041 C 
ATOM      9  O   UNL     1      -1.657   3.161  25.084  1.00  0.00    -0.550 OA
ATOM     10  O   UNL     1      -2.922   4.984  25.657  1.00  0.00    -0.550 OA
ENDBRANCH   7   8
ENDBRANCH   6   7
ENDBRANCH   5   6
ENDBRANCH   4   5
ENDBRANCH   3   4
ENDBRANCH   2   3
ENDBRANCH   1   2
BRANCH   1  11
ATOM     11  C   UNL     1       1.393   5.444  32.003  1.00  0.00     0.000 C 
BRANCH  11  12
ATOM     12  C   UNL     1       2.376   4.626  31.144  1.00  0.00    -0.000 C 
BRANCH  12  13
ATOM     13  C   UNL     1       1.749   3.960  29.905  1.00  0.00    -0.000 C 
BRANCH  13  14
ATOM     14  C   UNL     1       2.560   4.111  28.600  1.00  0.00    -0.000 C 
BRANCH  14  15
ATOM     15  C   UNL     1       3.494   5.332  28.547  1.00  0.00    -0.000 C 
BRANCH  15  16
ATOM     16  C   UNL     1       3.156   6.297  27.401  1.00  0.00    -0.000 C 
BRANCH  16  17
ATOM     17  C   UNL     1       3.507   5.679  26.043  1.00  0.00    -0.003 C 
ATOM     18  C   UNL     1       2.249   5.314  25.261  1.00  0.00     0.004 C 
ENDBRANCH  16  17
ENDBRANCH  15  16
ENDBRANCH  14  15
ENDBRANCH  13  14
ENDBRANCH  12  13
ENDBRANCH  11  12
ENDBRANCH   1  11
TORSDOF 14
ENDMDL
MODEL 4
REMARK VINA RESULT:    -4.180      2.752      5.468
REMARK INTER + INTRA:          -9.996
REMARK INTER:                  -7.625
REMARK INTRA:                  -2.371
REMARK UNBOUND:                -2.394
REMARK SMILES CCCCCCCCCCCCCCCC(=O)[O-]
REMARK SMILES IDX 9 1 10 2 11 3 12 4 13 5 14 6 15 7 16 8 17 9 18 10 8 11 7 12
REMARK SMILES IDX 6 13 5 14 4 15 3 16 2 17 1 18
REMARK H PARENT
REMARK Flexibility Score: inf
ROOT
ATOM      1  C   UNL     1       0.133   7.476  30.786  1.00  0.00     0.000 C 
ENDROOT
BRANCH   1   2
ATOM      2  C   UNL     1       1.398   6.975  31.503  1.00  0.00     0.000 C 
BRANCH   2   3
ATOM      3  C   UNL     1       1.271   5.519  31.981  1.00  0.00     0.000 C 
BRANCH   3   4
ATOM      4  C   UNL     1       2.239   4.569  31.259  1.00  0.00     0.000 C 
BRANCH   4   5
ATOM      5  C   UNL     1       1.635   4.076  29.935  1.00  0.00     0.000 C 
BRANCH   5   6
ATOM      6  C   UNL     1       2.443   4.530  28.705  1.00  0.00     0.006 C 
BRANCH   6   7
ATOM      7  C   UNL     1       3.814   5.141  29.036  1.00  0.00     0.053 C 
BRANCH   7   8
ATOM      8  C   UNL     1       4.908   4.117  29.003  1.00  0.00     0.041 C 
ATOM      9  O   UNL     1       5.891   4.216  29.783  1.00  0.00    -0.550 OA
ATOM     10  O   UNL     1       4.856   3.073  28.087  1.00  0.00    -0.550 OA
ENDBRANCH   7   8
ENDBRANCH   6   7
ENDBRANCH   5   6
ENDBRANCH   4   5
ENDBRANCH   3   4
ENDBRANCH   2   3
ENDBRANCH   1   2
BRANCH   1  11
ATOM     11  C   UNL     1       0.263   7.412  29.249  1.00  0.00     0.000 C 
BRANCH  11  12
ATOM     12  C   UNL     1      -1.027   6.962  28.538  1.00  0.00    -0.000 C 
BRANCH  12  13
ATOM     13  C   UNL     1      -1.637   5.654  29.076  1.00  0.00    -0.000 C 
BRANCH  13  14
ATOM     14  C   UNL     1      -1.470   4.427  28.155  1.00  0.00    -0.000 C 
BRANCH  14  15
ATOM     15  C   UNL     1      -1.110   4.749  26.693  1.00  0.00    -0.000 C 
BRANCH  15  16
ATOM     16  C   UNL     1      -0.038   3.812  26.120  1.00  0.00    -0.000 C 
BRANCH  16  17
ATOM     17  C   UNL     1       0.854   4.549  25.115  1.00  0.00    -0.003 C 
ATOM     18  C   UNL     1       1.085   5.997  25.540  1.00  0.00     0.004 C 
ENDBRANCH  16  17
ENDBRANCH  15  16
ENDBRANCH  14  15
ENDBRANCH  13  14
ENDBRANCH  12  13
ENDBRANCH  11  12
ENDBRANCH   1  11
TORSDOF 14
ENDMDL
MODEL 5
REMARK VINA RESULT:    -4.158      8.370     10.667
REMARK INTER + INTRA:          -9.956
REMARK INTER:                  -7.400
REMARK INTRA:                  -2.556
REMARK UNBOUND:                -2.394
REMARK SMILES CCCCCCCCCCCCCCCC(=O)[O-]
REMARK SMILES IDX 9 1 10 2 11 3 12 4 13 5 14 6 15 7 16 8 17 9 18 10 8 11 7 12
REMARK SMILES IDX 6 13 5 14 4 15 3 16 2 17 1 18
REMARK H PARENT
REMARK Flexibility Score: inf
ROOT
ATOM      1  C   UNL     1      -7.130   4.305  21.033  1.00  0.00     0.000 C 
ENDROOT
BRANCH   1   2
ATOM      2  C   UNL     1      -5.745   4.067  20.409  1.00  0.00     0.000 C 
BRANCH   2   3
ATOM      3  C   UNL     1      -5.015   5.376  20.066  1.00  0.00     0.000 C 
BRANCH   3   4
ATOM      4  C   UNL     1      -3.487   5.216  20.045  1.00  0.00     0.000 C 
BRANCH   4   5
ATOM      5  C   UNL     1      -2.890   5.477  21.436  1.00  0.00     0.000 C 
BRANCH   5   6
ATOM      6  C   UNL     1      -2.643   4.182  22.232  1.00  0.00     0.006 C 
BRANCH   6   7
ATOM      7  C   UNL     1      -2.127   4.405  23.662  1.00  0.00     0.053 C 
BRANCH   7   8
ATOM      8  C   UNL     1      -0.660   4.711  23.689  1.00  0.00     0.041 C 
ATOM      9  O   UNL     1       0.060   4.445  22.691  1.00  0.00    -0.550 OA
ATOM     10  O   UNL     1      -0.085   5.260  24.828  1.00  0.00    -0.550 OA
ENDBRANCH   7   8
ENDBRANCH   6   7
ENDBRANCH   5   6
ENDBRANCH   4   5
ENDBRANCH   3   4
ENDBRANCH   2   3
ENDBRANCH   1   2
BRANCH   1  11
ATOM     11  C   UNL     1      -7.302   3.570  22.380  1.00  0.00     0.000 C 
BRANCH  11  12
ATOM     12  C   UNL     1      -5.977   3.064  22.981  1.00  0.00    -0.000 C 
BRANCH  12  13
ATOM     13  C   UNL     1      -5.679   3.571  24.404  1.00  0.00    -0.000 C 
BRANCH  13  14
ATOM     14  C   UNL     1      -6.273   4.954  24.744  1.00  0.00    -0.000 C 
BRANCH  14  15
ATOM     15  C   UNL     1      -5.327   6.147  24.517  1.00  0.00    -0.000 C 
BRANCH  15  16
ATOM     16  C   UNL     1      -5.719   6.999  23.300  1.00  0.00    -0.000 C 
BRANCH  16  17
ATOM     17  C   UNL     1      -7.231   7.251  23.272  1.00  0.00    -0.003 C 
ATOM     18  C   UNL     1      -7.608   8.222  22.157  1.00  0.00     0.004 C 
ENDBRANCH  16  17
ENDBRANCH  15  16
ENDBRANCH  14  15
ENDBRANCH  13  14
ENDBRANCH  12  13
ENDBRANCH  11  12
ENDBRANCH   1  11
TORSDOF 14
ENDMDL
MODEL 6
REMARK VINA RESULT:    -4.133      7.182      9.496
REMARK INTER + INTRA:          -9.910
REMARK INTER:                  -7.494
REMARK INTRA:                  -2.416
REMARK UNBOUND:                -2.394
REMARK SMILES CCCCCCCCCCCCCCCC(=O)[O-]
REMARK SMILES IDX 9 1 10 2 11 3 12 4 13 5 14 6 15 7 16 8 17 9 18 10 8 11 7 12
REMARK SMILES IDX 6 13 5 14 4 15 3 16 2 17 1 18
REMARK H PARENT
REMARK Flexibility Score: inf
ROOT
ATOM      1  C   UNL     1      -3.990   4.513  19.748  1.00  0.00     0.000 C 
ENDROOT
BRANCH   1   2
ATOM      2  C   UNL     1      -3.176   5.738  20.200  1.00  0.00     0.000 C 
BRANCH   2   3
ATOM      3  C   UNL     1      -2.710   5.634  21.661  1.00  0.00     0.000 C 
BRANCH   3   4
ATOM      4  C   UNL     1      -1.187   5.475  21.789  1.00  0.00     0.000 C 
BRANCH   4   5
ATOM      5  C   UNL     1      -0.831   4.531  22.947  1.00  0.00     0.000 C 
BRANCH   5   6
ATOM      6  C   UNL     1      -2.068   4.060  23.735  1.00  0.00     0.006 C 
BRANCH   6   7
ATOM      7  C   UNL     1      -1.754   3.496  25.130  1.00  0.00     0.053 C 
BRANCH   7   8
ATOM      8  C   UNL     1      -1.880   4.538  26.199  1.00  0.00     0.041 C 
ATOM      9  O   UNL     1      -0.967   5.389  26.364  1.00  0.00    -0.550 OA
ATOM     10  O   UNL     1      -2.991   4.548  27.034  1.00  0.00    -0.550 OA
ENDBRANCH   7   8
ENDBRANCH   6   7
ENDBRANCH   5   6
ENDBRANCH   4   5
ENDBRANCH   3   4
ENDBRANCH   2   3
ENDBRANCH   1   2
BRANCH   1  11
ATOM     11  C   UNL     1      -4.631   3.763  20.936  1.00  0.00     0.000 C 
BRANCH  11  12
ATOM     12  C   UNL     1      -6.104   4.140  21.181  1.00  0.00    -0.000 C 
BRANCH  12  13
ATOM     13  C   UNL     1      -6.713   3.557  22.470  1.00  0.00    -0.000 C 
BRANCH  13  14
ATOM     14  C   UNL     1      -5.695   2.957  23.462  1.00  0.00    -0.000 C 
BRANCH  14  15
ATOM     15  C   UNL     1      -5.615   3.665  24.827  1.00  0.00    -0.000 C 
BRANCH  15  16
ATOM     16  C   UNL     1      -6.204   5.083  24.801  1.00  0.00    -0.000 C 
BRANCH  16  17
ATOM     17  C   UNL     1      -5.113   6.124  24.527  1.00  0.00    -0.003 C 
ATOM     18  C   UNL     1      -5.568   7.140  23.483  1.00  0.00     0.004 C 
ENDBRANCH  16  17
ENDBRANCH  15  16
ENDBRANCH  14  15
ENDBRANCH  13  14
ENDBRANCH  12  13
ENDBRANCH  11  12
ENDBRANCH   1  11
TORSDOF 14
ENDMDL
MODEL 7
REMARK VINA RESULT:    -4.092      9.839     11.768
REMARK INTER + INTRA:          -9.835
REMARK INTER:                  -7.503
REMARK INTRA:                  -2.332
REMARK UNBOUND:                -2.394
REMARK SMILES CCCCCCCCCCCCCCCC(=O)[O-]
REMARK SMILES IDX 9 1 10 2 11 3 12 4 13 5 14 6 15 7 16 8 17 9 18 10 8 11 7 12
REMARK SMILES IDX 6 13 5 14 4 15 3 16 2 17 1 18
REMARK H PARENT
REMARK Flexibility Score: inf
ROOT
ATOM      1  C   UNL     1      -7.653   4.873  21.113  1.00  0.00     0.000 C 
ENDROOT
BRANCH   1   2
ATOM      2  C   UNL     1      -6.496   3.997  20.603  1.00  0.00     0.000 C 
BRANCH   2   3
ATOM      3  C   UNL     1      -5.394   3.796  21.656  1.00  0.00     0.000 C 
BRANCH   3   4
ATOM      4  C   UNL     1      -4.013   4.257  21.166  1.00  0.00     0.000 C 
BRANCH   4   5
ATOM      5  C   UNL     1      -4.034   4.541  19.656  1.00  0.00     0.000 C 
BRANCH   5   6
ATOM      6  C   UNL     1      -3.583   5.973  19.312  1.00  0.00     0.006 C 
BRANCH   6   7
ATOM      7  C   UNL     1      -4.580   6.763  18.449  1.00  0.00     0.053 C 
BRANCH   7   8
ATOM      8  C   UNL     1      -4.548   8.230  18.753  1.00  0.00     0.041 C 
ATOM      9  O   UNL     1      -3.453   8.852  18.757  1.00  0.00    -0.550 OA
ATOM     10  O   UNL     1      -5.723   8.901  19.066  1.00  0.00    -0.550 OA
ENDBRANCH   7   8
ENDBRANCH   6   7
ENDBRANCH   5   6
ENDBRANCH   4   5
ENDBRANCH   3   4
ENDBRANCH   2   3
ENDBRANCH   1   2
BRANCH   1  11
ATOM     11  C   UNL     1      -7.457   6.365  20.769  1.00  0.00     0.000 C 
BRANCH  11  12
ATOM     12  C   UNL     1      -7.381   7.280  22.006  1.00  0.00    -0.000 C 
BRANCH  12  13
ATOM     13  C   UNL     1      -5.953   7.571  22.506  1.00  0.00    -0.000 C 
BRANCH  13  14
ATOM     14  C   UNL     1      -5.527   6.784  23.763  1.00  0.00    -0.000 C 
BRANCH  14  15
ATOM     15  C   UNL     1      -6.647   5.978  24.443  1.00  0.00    -0.000 C 
BRANCH  15  16
ATOM     16  C   UNL     1      -6.159   5.186  25.665  1.00  0.00    -0.000 C 
BRANCH  16  17
ATOM     17  C   UNL     1      -4.864   4.432  25.347  1.00  0.00    -0.003 C 
ATOM     18  C   UNL     1      -3.775   4.750  26.368  1.00  0.00     0.004 C 
ENDBRANCH  16  17
ENDBRANCH  15  16
ENDBRANCH  14  15
ENDBRANCH  13  14
ENDBRANCH  12  13
ENDBRANCH  11  12
ENDBRANCH   1  11
TORSDOF 14
ENDMDL
MODEL 8
REMARK VINA RESULT:    -4.085      3.049      4.433
REMARK INTER + INTRA:          -9.823
REMARK INTER:                  -7.342
REMARK INTRA:                  -2.481
REMARK UNBOUND:                -2.394
REMARK SMILES CCCCCCCCCCCCCCCC(=O)[O-]
REMARK SMILES IDX 9 1 10 2 11 3 12 4 13 5 14 6 15 7 16 8 17 9 18 10 8 11 7 12
REMARK SMILES IDX 6 13 5 14 4 15 3 16 2 17 1 18
REMARK H PARENT
REMARK Flexibility Score: inf
ROOT
ATOM      1  C   UNL     1       2.446   6.441  26.122  1.00  0.00     0.000 C 
ENDROOT
BRANCH   1   2
ATOM      2  C   UNL     1       1.082   7.063  26.469  1.00  0.00     0.000 C 
BRANCH   2   3
ATOM      3  C   UNL     1       0.910   7.314  27.976  1.00  0.00     0.000 C 
BRANCH   3   4
ATOM      4  C   UNL     1      -0.559   7.267  28.422  1.00  0.00     0.000 C 
BRANCH   4   5
ATOM      5  C   UNL     1      -0.836   6.009  29.258  1.00  0.00     0.000 C 
BRANCH   5   6
ATOM      6  C   UNL     1      -1.761   5.007  28.541  1.00  0.00     0.006 C 
BRANCH   6   7
ATOM      7  C   UNL     1      -1.101   4.263  27.369  1.00  0.00     0.053 C 
BRANCH   7   8
ATOM      8  C   UNL     1      -1.831   4.487  26.079  1.00  0.00     0.041 C 
ATOM      9  O   UNL     1      -1.900   3.567  25.223  1.00  0.00    -0.550 OA
ATOM     10  O   UNL     1      -2.405   5.723  25.811  1.00  0.00    -0.550 OA
ENDBRANCH   7   8
ENDBRANCH   6   7
ENDBRANCH   5   6
ENDBRANCH   4   5
ENDBRANCH   3   4
ENDBRANCH   2   3
ENDBRANCH   1   2
BRANCH   1  11
ATOM     11  C   UNL     1       2.331   4.951  25.734  1.00  0.00     0.000 C 
BRANCH  11  12
ATOM     12  C   UNL     1       3.208   4.020  26.593  1.00  0.00    -0.000 C 
BRANCH  12  13
ATOM     13  C   UNL     1       3.232   4.361  28.095  1.00  0.00    -0.000 C 
BRANCH  13  14
ATOM     14  C   UNL     1       2.094   3.733  28.927  1.00  0.00    -0.000 C 
BRANCH  14  15
ATOM     15  C   UNL     1       2.097   4.097  30.422  1.00  0.00    -0.000 C 
BRANCH  15  16
ATOM     16  C   UNL     1       3.104   5.205  30.766  1.00  0.00    -0.000 C 
BRANCH  16  17
ATOM     17  C   UNL     1       2.384   6.465  31.258  1.00  0.00    -0.003 C 
ATOM     18  C   UNL     1       1.275   6.118  32.247  1.00  0.00     0.004 C 
ENDBRANCH  16  17
ENDBRANCH  15  16
ENDBRANCH  14  15
ENDBRANCH  13  14
ENDBRANCH  12  13
ENDBRANCH  11  12
ENDBRANCH   1  11
TORSDOF 14
ENDMDL
MODEL 9
REMARK VINA RESULT:    -4.050      2.494      5.173
REMARK INTER + INTRA:          -9.759
REMARK INTER:                  -7.473
REMARK INTRA:                  -2.287
REMARK UNBOUND:                -2.394
REMARK SMILES CCCCCCCCCCCCCCCC(=O)[O-]
REMARK SMILES IDX 9 1 10 2 11 3 12 4 13 5 14 6 15 7 16 8 17 9 18 10 8 11 7 12
REMARK SMILES IDX 6 13 5 14 4 15 3 16 2 17 1 18
REMARK H PARENT
REMARK Flexibility Score: inf
ROOT
ATOM      1  C   UNL     1       4.911   5.634  29.768  1.00  0.00     0.000 C 
ENDROOT
BRANCH   1   2
ATOM      2  C   UNL     1       4.712   7.156  29.864  1.00  0.00     0.000 C 
BRANCH   2   3
ATOM      3  C   UNL     1       4.541   7.820  28.488  1.00  0.00     0.000 C 
BRANCH   3   4
ATOM      4  C   UNL     1       3.604   7.032  27.560  1.00  0.00     0.000 C 
BRANCH   4   5
ATOM      5  C   UNL     1       4.327   6.629  26.266  1.00  0.00     0.000 C 
BRANCH   5   6
ATOM      6  C   UNL     1       3.796   5.311  25.671  1.00  0.00     0.006 C 
BRANCH   6   7
ATOM      7  C   UNL     1       3.439   4.242  26.717  1.00  0.00     0.053 C 
BRANCH   7   8
ATOM      8  C   UNL     1       1.996   3.843  26.641  1.00  0.00     0.041 C 
ATOM      9  O   UNL     1       1.594   2.808  27.234  1.00  0.00    -0.550 OA
ATOM     10  O   UNL     1       1.104   4.597  25.889  1.00  0.00    -0.550 OA
ENDBRANCH   7   8
ENDBRANCH   6   7
ENDBRANCH   5   6
ENDBRANCH   4   5
ENDBRANCH   3   4
ENDBRANCH   2   3
ENDBRANCH   1   2
BRANCH   1  11
ATOM     11  C   UNL     1       4.161   4.872  30.882  1.00  0.00     0.000 C 
BRANCH  11  12
ATOM     12  C   UNL     1       2.723   4.474  30.498  1.00  0.00    -0.000 C 
BRANCH  12  13
ATOM     13  C   UNL     1       1.647   4.874  31.525  1.00  0.00    -0.000 C 
BRANCH  13  14
ATOM     14  C   UNL     1       1.447   6.394  31.706  1.00  0.00    -0.000 C 
BRANCH  14  15
ATOM     15  C   UNL     1       0.748   7.106  30.535  1.00  0.00    -0.000 C 
BRANCH  15  16
ATOM     16  C   UNL     1       1.243   8.545  30.328  1.00  0.00    -0.000 C 
BRANCH  16  17
ATOM     17  C   UNL     1       1.939   9.072  31.588  1.00  0.00    -0.003 C 
ATOM     18  C   UNL     1       3.011  10.100  31.237  1.00  0.00     0.004 C 
ENDBRANCH  16  17
ENDBRANCH  15  16
ENDBRANCH  14  15
ENDBRANCH  13  14
ENDBRANCH  12  13
ENDBRANCH  11  12
ENDBRANCH   1  11
TORSDOF 14
ENDMDL
