MODEL 1
REMARK VINA RESULT:    -2.023      0.000      0.000
REMARK INTER + INTRA:          -2.659
REMARK INTER:                  -2.437
REMARK INTRA:                  -0.223
REMARK UNBOUND:                -0.223
REMARK SMILES O=c1c(O)c(-c2ccc(O)cc2O)oc2cc(O)cc(O)c12
REMARK SMILES IDX 5 1 3 2 2 3 1 4 22 5 20 6 19 7 17 8 16 9 15 10 14 11 6 12
REMARK SMILES IDX 8 13 7 14 9 15 11 16 12 17 10 18 13 20 4 22 21 24 18 26
REMARK H PARENT 10 19 13 21 4 23 21 25 18 27
REMARK Flexibility Score: inf
ROOT
ATOM      1  C   UNL     1      13.543 -12.861  29.523  1.00  0.00     0.184 A 
ATOM      2  C   UNL     1      13.877 -13.274  28.225  1.00  0.00     0.208 A 
ATOM      3  C   UNL     1      14.622 -14.452  28.057  1.00  0.00     0.238 A 
ATOM      4  O   UNL     1      14.971 -14.785  26.894  1.00  0.00    -0.285 OA
ATOM      5  C   UNL     1      14.998 -15.215  29.188  1.00  0.00     0.111 A 
ATOM      6  C   UNL     1      15.719 -16.447  29.133  1.00  0.00     0.134 A 
ATOM      7  C   UNL     1      16.142 -17.052  30.324  1.00  0.00     0.093 A 
ATOM      8  C   UNL     1      15.813 -16.506  31.567  1.00  0.00     0.123 A 
ATOM      9  C   UNL     1      15.061 -15.337  31.632  1.00  0.00     0.094 A 
ATOM     10  C   UNL     1      14.656 -14.689  30.462  1.00  0.00     0.146 A 
ATOM     11  O   UNL     1      13.951 -13.568  30.569  1.00  0.00    -0.451 OA
ENDROOT
BRANCH   1  12
ATOM     12  C   UNL     1      12.740 -11.642  29.760  1.00  0.00     0.063 A 
ATOM     13  C   UNL     1      12.594  -9.386  30.662  1.00  0.00     0.047 A 
ATOM     14  C   UNL     1      13.309 -10.571  30.470  1.00  0.00     0.020 A 
ATOM     15  C   UNL     1      11.303  -9.253  30.137  1.00  0.00     0.119 A 
ATOM     16  C   UNL     1      10.729 -10.310  29.427  1.00  0.00     0.093 A 
ATOM     17  C   UNL     1      11.432 -11.507  29.238  1.00  0.00     0.130 A 
BRANCH  15  18
ATOM     18  O   UNL     1      10.583  -8.074  30.317  1.00  0.00    -0.508 OA
ATOM     19  H   UNL     1      10.130  -7.606  29.541  1.00  0.00     0.293 HD
ENDBRANCH  15  18
BRANCH  17  20
ATOM     20  O   UNL     1      10.796 -12.544  28.552  1.00  0.00    -0.507 OA
ATOM     21  H   UNL     1      11.022 -12.796  27.599  1.00  0.00     0.293 HD
ENDBRANCH  17  20
ENDBRANCH   1  12
BRANCH   2  22
ATOM     22  O   UNL     1      13.490 -12.503  27.126  1.00  0.00    -0.502 OA
ATOM     23  H   UNL     1      14.160 -12.036  26.528  1.00  0.00     0.293 HD
ENDBRANCH   2  22
BRANCH   6  24
ATOM     24  O   UNL     1      16.020 -17.124  27.948  1.00  0.00    -0.507 OA
ATOM     25  H   UNL     1      15.344 -17.384  27.246  1.00  0.00     0.293 HD
ENDBRANCH   6  24
BRANCH   8  26
ATOM     26  O   UNL     1      16.225 -17.125  32.745  1.00  0.00    -0.508 OA
ATOM     27  H   UNL     1      15.763 -16.945  33.628  1.00  0.00     0.293 HD
ENDBRANCH   8  26
TORSDOF 6
ENDMDL
MODEL 2
REMARK VINA RESULT:    -1.600     10.798     13.285
REMARK INTER + INTRA:          -2.150
REMARK INTER:                  -1.755
REMARK INTRA:                  -0.396
REMARK UNBOUND:                -0.223
REMARK SMILES O=c1c(O)c(-c2ccc(O)cc2O)oc2cc(O)cc(O)c12
REMARK SMILES IDX 5 1 3 2 2 3 1 4 22 5 20 6 19 7 17 8 16 9 15 10 14 11 6 12
REMARK SMILES IDX 8 13 7 14 9 15 11 16 12 17 10 18 13 20 4 22 21 24 18 26
REMARK H PARENT 10 19 13 21 4 23 21 25 18 27
REMARK Flexibility Score: inf
ROOT
ATOM      1  C   UNL     1      16.354  -0.592  27.058  1.00  0.00     0.184 A 
ATOM      2  C   UNL     1      17.611  -1.158  26.797  1.00  0.00     0.208 A 
ATOM      3  C   UNL     1      18.132  -2.102  27.695  1.00  0.00     0.238 A 
ATOM      4  O   UNL     1      19.286  -2.560  27.488  1.00  0.00    -0.285 OA
ATOM      5  C   UNL     1      17.375  -2.489  28.828  1.00  0.00     0.111 A 
ATOM      6  C   UNL     1      17.787  -3.467  29.783  1.00  0.00     0.134 A 
ATOM      7  C   UNL     1      17.012  -3.680  30.930  1.00  0.00     0.093 A 
ATOM      8  C   UNL     1      15.808  -2.999  31.124  1.00  0.00     0.123 A 
ATOM      9  C   UNL     1      15.369  -2.086  30.169  1.00  0.00     0.094 A 
ATOM     10  C   UNL     1      16.138  -1.823  29.032  1.00  0.00     0.146 A 
ATOM     11  O   UNL     1      15.688  -0.935  28.154  1.00  0.00    -0.451 OA
ENDROOT
BRANCH   1  12
ATOM     12  C   UNL     1      15.745   0.390  26.136  1.00  0.00     0.063 A 
ATOM     13  C   UNL     1      14.644   0.853  24.015  1.00  0.00     0.047 A 
ATOM     14  C   UNL     1      15.273  -0.042  24.884  1.00  0.00     0.020 A 
ATOM     15  C   UNL     1      14.470   2.190  24.390  1.00  0.00     0.119 A 
ATOM     16  C   UNL     1      14.932   2.629  25.633  1.00  0.00     0.093 A 
ATOM     17  C   UNL     1      15.574   1.744  26.508  1.00  0.00     0.130 A 
BRANCH  15  18
ATOM     18  O   UNL     1      13.838   3.090  23.533  1.00  0.00    -0.508 OA
ATOM     19  H   UNL     1      12.889   3.403  23.700  1.00  0.00     0.293 HD
ENDBRANCH  15  18
BRANCH  17  20
ATOM     20  O   UNL     1      16.049   2.245  27.722  1.00  0.00    -0.507 OA
ATOM     21  H   UNL     1      16.972   2.038  28.082  1.00  0.00     0.293 HD
ENDBRANCH  17  20
ENDBRANCH   1  12
BRANCH   2  22
ATOM     22  O   UNL     1      18.334  -0.760  25.669  1.00  0.00    -0.502 OA
ATOM     23  H   UNL     1      18.378   0.205  25.366  1.00  0.00     0.293 HD
ENDBRANCH   2  22
BRANCH   6  24
ATOM     24  O   UNL     1      18.925  -4.267  29.642  1.00  0.00    -0.507 OA
ATOM     25  H   UNL     1      19.794  -3.964  29.230  1.00  0.00     0.293 HD
ENDBRANCH   6  24
BRANCH   8  26
ATOM     26  O   UNL     1      15.036  -3.230  32.260  1.00  0.00    -0.508 OA
ATOM     27  H   UNL     1      14.617  -4.134  32.442  1.00  0.00     0.293 HD
ENDBRANCH   8  26
TORSDOF 6
ENDMDL
MODEL 3
REMARK VINA RESULT:    -1.296     10.090     14.451
REMARK INTER + INTRA:          -1.784
REMARK INTER:                  -1.436
REMARK INTRA:                  -0.348
REMARK UNBOUND:                -0.223
REMARK SMILES O=c1c(O)c(-c2ccc(O)cc2O)oc2cc(O)cc(O)c12
REMARK SMILES IDX 5 1 3 2 2 3 1 4 22 5 20 6 19 7 17 8 16 9 15 10 14 11 6 12
REMARK SMILES IDX 8 13 7 14 9 15 11 16 12 17 10 18 13 20 4 22 21 24 18 26
REMARK H PARENT 10 19 13 21 4 23 21 25 18 27
REMARK Flexibility Score: inf
ROOT
ATOM      1  C   UNL     1      15.634  -1.769  26.841  1.00  0.00     0.184 A 
ATOM      2  C   UNL     1      15.780  -1.189  28.109  1.00  0.00     0.208 A 
ATOM      3  C   UNL     1      15.580   0.193  28.252  1.00  0.00     0.238 A 
ATOM      4  O   UNL     1      15.773   0.718  29.381  1.00  0.00    -0.285 OA
ATOM      5  C   UNL     1      15.208   0.971  27.129  1.00  0.00     0.111 A 
ATOM      6  C   UNL     1      14.939   2.373  27.166  1.00  0.00     0.134 A 
ATOM      7  C   UNL     1      14.699   3.061  25.970  1.00  0.00     0.093 A 
ATOM      8  C   UNL     1      14.652   2.388  24.748  1.00  0.00     0.123 A 
ATOM      9  C   UNL     1      14.854   1.011  24.708  1.00  0.00     0.094 A 
ATOM     10  C   UNL     1      15.134   0.301  25.879  1.00  0.00     0.146 A 
ATOM     11  O   UNL     1      15.334  -1.008  25.795  1.00  0.00    -0.451 OA
ENDROOT
BRANCH   1  12
ATOM     12  C   UNL     1      15.810  -3.222  26.634  1.00  0.00     0.063 A 
ATOM     13  C   UNL     1      14.826  -5.388  26.118  1.00  0.00     0.047 A 
ATOM     14  C   UNL     1      14.684  -4.022  26.372  1.00  0.00     0.020 A 
ATOM     15  C   UNL     1      16.097  -5.972  26.114  1.00  0.00     0.119 A 
ATOM     16  C   UNL     1      17.224  -5.187  26.370  1.00  0.00     0.093 A 
ATOM     17  C   UNL     1      17.093  -3.818  26.637  1.00  0.00     0.130 A 
BRANCH  15  18
ATOM     18  O   UNL     1      16.252  -7.333  25.856  1.00  0.00    -0.508 OA
ATOM     19  H   UNL     1      16.235  -7.699  24.912  1.00  0.00     0.293 HD
ENDBRANCH  15  18
BRANCH  17  20
ATOM     20  O   UNL     1      18.249  -3.088  26.923  1.00  0.00    -0.507 OA
ATOM     21  H   UNL     1      18.381  -2.580  27.788  1.00  0.00     0.293 HD
ENDBRANCH  17  20
ENDBRANCH   1  12
BRANCH   2  22
ATOM     22  O   UNL     1      16.144  -1.981  29.201  1.00  0.00    -0.502 OA
ATOM     23  H   UNL     1      17.111  -2.175  29.432  1.00  0.00     0.293 HD
ENDBRANCH   2  22
BRANCH   6  24
ATOM     24  O   UNL     1      14.873   3.125  28.343  1.00  0.00    -0.507 OA
ATOM     25  H   UNL     1      14.948   2.745  29.274  1.00  0.00     0.293 HD
ENDBRANCH   6  24
BRANCH   8  26
ATOM     26  O   UNL     1      14.396   3.079  23.565  1.00  0.00    -0.508 OA
ATOM     27  H   UNL     1      13.941   2.632  22.778  1.00  0.00     0.293 HD
ENDBRANCH   8  26
TORSDOF 6
ENDMDL
MODEL 4
REMARK VINA RESULT:    -1.242     11.367     13.554
REMARK INTER + INTRA:          -1.719
REMARK INTER:                  -1.354
REMARK INTRA:                  -0.365
REMARK UNBOUND:                -0.223
REMARK SMILES O=c1c(O)c(-c2ccc(O)cc2O)oc2cc(O)cc(O)c12
REMARK SMILES IDX 5 1 3 2 2 3 1 4 22 5 20 6 19 7 17 8 16 9 15 10 14 11 6 12
REMARK SMILES IDX 8 13 7 14 9 15 11 16 12 17 10 18 13 20 4 22 21 24 18 26
REMARK H PARENT 10 19 13 21 4 23 21 25 18 27
REMARK Flexibility Score: inf
ROOT
ATOM      1  C   UNL     1      16.317  -0.582  26.816  1.00  0.00     0.184 A 
ATOM      2  C   UNL     1      15.570  -1.169  27.848  1.00  0.00     0.208 A 
ATOM      3  C   UNL     1      16.200  -2.085  28.705  1.00  0.00     0.238 A 
ATOM      4  O   UNL     1      15.510  -2.655  29.591  1.00  0.00    -0.285 OA
ATOM      5  C   UNL     1      17.574  -2.379  28.536  1.00  0.00     0.111 A 
ATOM      6  C   UNL     1      18.325  -3.262  29.371  1.00  0.00     0.134 A 
ATOM      7  C   UNL     1      19.649  -3.571  29.035  1.00  0.00     0.093 A 
ATOM      8  C   UNL     1      20.269  -2.980  27.932  1.00  0.00     0.123 A 
ATOM      9  C   UNL     1      19.564  -2.074  27.144  1.00  0.00     0.094 A 
ATOM     10  C   UNL     1      18.230  -1.773  27.432  1.00  0.00     0.146 A 
ATOM     11  O   UNL     1      17.591  -0.914  26.647  1.00  0.00    -0.451 OA
ENDROOT
BRANCH   1  12
ATOM     12  C   UNL     1      15.714   0.407  25.896  1.00  0.00     0.063 A 
ATOM     13  C   UNL     1      14.643   0.889  23.765  1.00  0.00     0.047 A 
ATOM     14  C   UNL     1      15.266  -0.012  24.632  1.00  0.00     0.020 A 
ATOM     15  C   UNL     1      14.450   2.219  24.154  1.00  0.00     0.119 A 
ATOM     16  C   UNL     1      14.889   2.646  25.410  1.00  0.00     0.093 A 
ATOM     17  C   UNL     1      15.525   1.755  26.283  1.00  0.00     0.130 A 
BRANCH  15  18
ATOM     18  O   UNL     1      13.824   3.125  23.300  1.00  0.00    -0.508 OA
ATOM     19  H   UNL     1      14.095   3.210  22.327  1.00  0.00     0.293 HD
ENDBRANCH  15  18
BRANCH  17  20
ATOM     20  O   UNL     1      15.976   2.244  27.511  1.00  0.00    -0.507 OA
ATOM     21  H   UNL     1      16.844   1.948  27.939  1.00  0.00     0.293 HD
ENDBRANCH  17  20
ENDBRANCH   1  12
BRANCH   2  22
ATOM     22  O   UNL     1      14.217  -0.858  27.994  1.00  0.00    -0.502 OA
ATOM     23  H   UNL     1      13.624  -1.319  28.674  1.00  0.00     0.293 HD
ENDBRANCH   2  22
BRANCH   6  24
ATOM     24  O   UNL     1      17.829  -3.834  30.546  1.00  0.00    -0.507 OA
ATOM     25  H   UNL     1      16.930  -4.282  30.634  1.00  0.00     0.293 HD
ENDBRANCH   6  24
BRANCH   8  26
ATOM     26  O   UNL     1      21.592  -3.283  27.614  1.00  0.00    -0.508 OA
ATOM     27  H   UNL     1      22.198  -2.605  27.170  1.00  0.00     0.293 HD
ENDBRANCH   8  26
TORSDOF 6
ENDMDL
MODEL 5
REMARK VINA RESULT:     0.333      1.196      2.971
REMARK INTER + INTRA:           0.179
REMARK INTER:                   0.559
REMARK INTRA:                  -0.380
REMARK UNBOUND:                -0.223
REMARK SMILES O=c1c(O)c(-c2ccc(O)cc2O)oc2cc(O)cc(O)c12
REMARK SMILES IDX 5 1 3 2 2 3 1 4 22 5 20 6 19 7 17 8 16 9 15 10 14 11 6 12
REMARK SMILES IDX 8 13 7 14 9 15 11 16 12 17 10 18 13 20 4 22 21 24 18 26
REMARK H PARENT 10 19 13 21 4 23 21 25 18 27
REMARK Flexibility Score: inf
ROOT
ATOM      1  C   UNL     1      13.610 -12.836  29.668  1.00  0.00     0.184 A 
ATOM      2  C   UNL     1      13.948 -13.694  30.725  1.00  0.00     0.208 A 
ATOM      3  C   UNL     1      14.699 -14.847  30.451  1.00  0.00     0.238 A 
ATOM      4  O   UNL     1      14.947 -15.645  31.393  1.00  0.00    -0.285 OA
ATOM      5  C   UNL     1      15.127 -15.111  29.127  1.00  0.00     0.111 A 
ATOM      6  C   UNL     1      15.928 -16.229  28.741  1.00  0.00     0.134 A 
ATOM      7  C   UNL     1      16.188 -16.455  27.383  1.00  0.00     0.093 A 
ATOM      8  C   UNL     1      15.733 -15.568  26.404  1.00  0.00     0.123 A 
ATOM      9  C   UNL     1      15.002 -14.444  26.776  1.00  0.00     0.094 A 
ATOM     10  C   UNL     1      14.693 -14.211  28.119  1.00  0.00     0.146 A 
ATOM     11  O   UNL     1      13.981 -13.134  28.428  1.00  0.00    -0.451 OA
ENDROOT
BRANCH   1  12
ATOM     12  C   UNL     1      12.841 -11.595  29.899  1.00  0.00     0.063 A 
ATOM     13  C   UNL     1      12.746  -9.342  30.815  1.00  0.00     0.047 A 
ATOM     14  C   UNL     1      13.428 -10.546  30.627  1.00  0.00     0.020 A 
ATOM     15  C   UNL     1      11.469  -9.166  30.268  1.00  0.00     0.119 A 
ATOM     16  C   UNL     1      10.877 -10.201  29.540  1.00  0.00     0.093 A 
ATOM     17  C   UNL     1      11.547 -11.417  29.355  1.00  0.00     0.130 A 
BRANCH  15  18
ATOM     18  O   UNL     1      10.782  -7.967  30.443  1.00  0.00    -0.508 OA
ATOM     19  H   UNL     1      10.214  -7.568  29.705  1.00  0.00     0.293 HD
ENDBRANCH  15  18
BRANCH  17  20
ATOM     20  O   UNL     1      10.893 -12.430  28.651  1.00  0.00    -0.507 OA
ATOM     21  H   UNL     1      11.292 -12.888  27.842  1.00  0.00     0.293 HD
ENDBRANCH  17  20
ENDBRANCH   1  12
BRANCH   2  22
ATOM     22  O   UNL     1      13.516 -13.406  32.021  1.00  0.00    -0.502 OA
ATOM     23  H   UNL     1      12.536 -13.407  32.280  1.00  0.00     0.293 HD
ENDBRANCH   2  22
BRANCH   6  24
ATOM     24  O   UNL     1      16.507 -17.124  29.645  1.00  0.00    -0.507 OA
ATOM     25  H   UNL     1      15.999 -17.655  30.336  1.00  0.00     0.293 HD
ENDBRANCH   6  24
BRANCH   8  26
ATOM     26  O   UNL     1      16.011 -15.793  25.058  1.00  0.00    -0.508 OA
ATOM     27  H   UNL     1      15.344 -16.251  24.448  1.00  0.00     0.293 HD
ENDBRANCH   8  26
TORSDOF 6
ENDMDL
MODEL 6
REMARK VINA RESULT:     0.626      9.062     11.475
REMARK INTER + INTRA:           0.531
REMARK INTER:                   0.893
REMARK INTRA:                  -0.362
REMARK UNBOUND:                -0.223
REMARK SMILES O=c1c(O)c(-c2ccc(O)cc2O)oc2cc(O)cc(O)c12
REMARK SMILES IDX 5 1 3 2 2 3 1 4 22 5 20 6 19 7 17 8 16 9 15 10 14 11 6 12
REMARK SMILES IDX 8 13 7 14 9 15 11 16 12 17 10 18 13 20 4 22 21 24 18 26
REMARK H PARENT 10 19 13 21 4 23 21 25 18 27
REMARK Flexibility Score: inf
ROOT
ATOM      1  C   UNL     1      16.077  -2.344  26.791  1.00  0.00     0.184 A 
ATOM      2  C   UNL     1      17.416  -2.754  26.876  1.00  0.00     0.208 A 
ATOM      3  C   UNL     1      17.730  -4.103  26.648  1.00  0.00     0.238 A 
ATOM      4  O   UNL     1      18.924  -4.477  26.786  1.00  0.00    -0.285 OA
ATOM      5  C   UNL     1      16.703  -5.018  26.309  1.00  0.00     0.111 A 
ATOM      6  C   UNL     1      16.912  -6.400  26.017  1.00  0.00     0.134 A 
ATOM      7  C   UNL     1      15.807  -7.236  25.813  1.00  0.00     0.093 A 
ATOM      8  C   UNL     1      14.506  -6.729  25.827  1.00  0.00     0.123 A 
ATOM      9  C   UNL     1      14.295  -5.371  26.053  1.00  0.00     0.094 A 
ATOM     10  C   UNL     1      15.375  -4.517  26.296  1.00  0.00     0.146 A 
ATOM     11  O   UNL     1      15.128  -3.232  26.522  1.00  0.00    -0.451 OA
ENDROOT
BRANCH   1  12
ATOM     12  C   UNL     1      15.690  -0.932  26.998  1.00  0.00     0.063 A 
ATOM     13  C   UNL     1      15.447   0.962  28.507  1.00  0.00     0.047 A 
ATOM     14  C   UNL     1      15.754  -0.384  28.291  1.00  0.00     0.020 A 
ATOM     15  C   UNL     1      15.080   1.780  27.433  1.00  0.00     0.119 A 
ATOM     16  C   UNL     1      15.016   1.245  26.143  1.00  0.00     0.093 A 
ATOM     17  C   UNL     1      15.311  -0.105  25.916  1.00  0.00     0.130 A 
BRANCH  15  18
ATOM     18  O   UNL     1      14.777   3.125  27.636  1.00  0.00    -0.508 OA
ATOM     19  H   UNL     1      14.279   3.667  26.941  1.00  0.00     0.293 HD
ENDBRANCH  15  18
BRANCH  17  20
ATOM     20  O   UNL     1      15.194  -0.594  24.613  1.00  0.00    -0.507 OA
ATOM     21  H   UNL     1      15.441  -0.053  23.794  1.00  0.00     0.293 HD
ENDBRANCH  17  20
ENDBRANCH   1  12
BRANCH   2  22
ATOM     22  O   UNL     1      18.409  -1.830  27.209  1.00  0.00    -0.502 OA
ATOM     23  H   UNL     1      18.635  -1.040  26.616  1.00  0.00     0.293 HD
ENDBRANCH   2  22
BRANCH   6  24
ATOM     24  O   UNL     1      18.173  -6.990  25.890  1.00  0.00    -0.507 OA
ATOM     25  H   UNL     1      18.928  -6.620  25.334  1.00  0.00     0.293 HD
ENDBRANCH   6  24
BRANCH   8  26
ATOM     26  O   UNL     1      13.414  -7.566  25.608  1.00  0.00    -0.508 OA
ATOM     27  H   UNL     1      13.532  -8.511  25.262  1.00  0.00     0.293 HD
ENDBRANCH   8  26
TORSDOF 6
ENDMDL
