MODEL 1
REMARK VINA RESULT:    -4.269      0.000      0.000
REMARK INTER + INTRA:          -9.541
REMARK INTER:                  -8.262
REMARK INTRA:                  -1.280
REMARK UNBOUND:                -1.280
REMARK SMILES CCCCCCCCCCCCCCCCCC(=O)[O-]
REMARK SMILES IDX 10 1 11 2 12 3 13 4 14 5 15 6 16 7 17 8 18 9 19 10 20 11
REMARK SMILES IDX 9 12 8 13 7 14 6 15 5 16 4 17 3 18 2 19 1 20
REMARK H PARENT
REMARK Flexibility Score: inf
ROOT
ATOM      1  C   UNL     1       2.325  14.058  18.092  1.00  0.00     0.000 C 
ENDROOT
BRANCH   1   2
ATOM      2  C   UNL     1       2.781  12.901  17.189  1.00  0.00     0.000 C 
BRANCH   2   3
ATOM      3  C   UNL     1       3.158  13.363  15.770  1.00  0.00     0.000 C 
BRANCH   3   4
ATOM      4  C   UNL     1       4.113  12.374  15.066  1.00  0.00     0.000 C 
BRANCH   4   5
ATOM      5  C   UNL     1       4.874  11.446  16.034  1.00  0.00     0.000 C 
BRANCH   5   6
ATOM      6  C   UNL     1       6.104  12.078  16.712  1.00  0.00     0.000 C 
BRANCH   6   7
ATOM      7  C   UNL     1       6.558  11.384  18.011  1.00  0.00     0.006 C 
BRANCH   7   8
ATOM      8  C   UNL     1       5.522  11.484  19.139  1.00  0.00     0.053 C 
BRANCH   8   9
ATOM      9  C   UNL     1       5.868  10.553  20.258  1.00  0.00     0.041 C 
ATOM     10  O   UNL     1       4.954   9.977  20.906  1.00  0.00    -0.550 OA
ATOM     11  O   UNL     1       7.199  10.307  20.577  1.00  0.00    -0.550 OA
ENDBRANCH   8   9
ENDBRANCH   7   8
ENDBRANCH   6   7
ENDBRANCH   5   6
ENDBRANCH   4   5
ENDBRANCH   3   4
ENDBRANCH   2   3
ENDBRANCH   1   2
BRANCH   1  12
ATOM     12  C   UNL     1       1.365  15.026  17.378  1.00  0.00     0.000 C 
BRANCH  12  13
ATOM     13  C   UNL     1       0.653  15.981  18.351  1.00  0.00    -0.000 C 
BRANCH  13  14
ATOM     14  C   UNL     1      -0.827  15.614  18.599  1.00  0.00    -0.000 C 
BRANCH  14  15
ATOM     15  C   UNL     1      -1.720  16.862  18.715  1.00  0.00    -0.000 C 
BRANCH  15  16
ATOM     16  C   UNL     1      -1.794  17.407  20.148  1.00  0.00    -0.000 C 
BRANCH  16  17
ATOM     17  C   UNL     1      -1.474  18.911  20.229  1.00  0.00    -0.000 C 
BRANCH  17  18
ATOM     18  C   UNL     1      -0.919  19.461  18.899  1.00  0.00    -0.000 C 
BRANCH  18  19
ATOM     19  C   UNL     1       0.554  19.900  18.982  1.00  0.00    -0.003 C 
ATOM     20  C   UNL     1       1.366  19.504  17.750  1.00  0.00     0.004 C 
ENDBRANCH  18  19
ENDBRANCH  17  18
ENDBRANCH  16  17
ENDBRANCH  15  16
ENDBRANCH  14  15
ENDBRANCH  13  14
ENDBRANCH  12  13
ENDBRANCH   1  12
TORSDOF 16
ENDMDL
MODEL 2
REMARK VINA RESULT:    -4.063      2.482      3.504
REMARK INTER + INTRA:          -9.143
REMARK INTER:                  -7.615
REMARK INTRA:                  -1.528
REMARK UNBOUND:                -1.280
REMARK SMILES CCCCCCCCCCCCCCCCCC(=O)[O-]
REMARK SMILES IDX 10 1 11 2 12 3 13 4 14 5 15 6 16 7 17 8 18 9 19 10 20 11
REMARK SMILES IDX 9 12 8 13 7 14 6 15 5 16 4 17 3 18 2 19 1 20
REMARK H PARENT
REMARK Flexibility Score: inf
ROOT
ATOM      1  C   UNL     1       2.581  12.819  18.773  1.00  0.00     0.000 C 
ENDROOT
BRANCH   1   2
ATOM      2  C   UNL     1       2.915  11.383  18.338  1.00  0.00     0.000 C 
BRANCH   2   3
ATOM      3  C   UNL     1       3.899  10.684  19.293  1.00  0.00     0.000 C 
BRANCH   3   4
ATOM      4  C   UNL     1       5.138  11.554  19.599  1.00  0.00     0.000 C 
BRANCH   4   5
ATOM      5  C   UNL     1       6.413  11.104  18.859  1.00  0.00     0.000 C 
BRANCH   5   6
ATOM      6  C   UNL     1       6.729  11.885  17.569  1.00  0.00     0.000 C 
BRANCH   6   7
ATOM      7  C   UNL     1       5.909  11.461  16.336  1.00  0.00     0.006 C 
BRANCH   7   8
ATOM      8  C   UNL     1       5.289  12.650  15.588  1.00  0.00     0.053 C 
BRANCH   8   9
ATOM      9  C   UNL     1       4.258  12.180  14.611  1.00  0.00     0.041 C 
ATOM     10  O   UNL     1       4.314  11.010  14.148  1.00  0.00    -0.550 OA
ATOM     11  O   UNL     1       3.226  13.026  14.222  1.00  0.00    -0.550 OA
ENDBRANCH   8   9
ENDBRANCH   7   8
ENDBRANCH   6   7
ENDBRANCH   5   6
ENDBRANCH   4   5
ENDBRANCH   3   4
ENDBRANCH   2   3
ENDBRANCH   1   2
BRANCH   1  12
ATOM     12  C   UNL     1       2.723  13.835  17.626  1.00  0.00     0.000 C 
BRANCH  12  13
ATOM     13  C   UNL     1       1.390  14.514  17.267  1.00  0.00    -0.000 C 
BRANCH  13  14
ATOM     14  C   UNL     1       1.107  15.788  18.092  1.00  0.00    -0.000 C 
BRANCH  14  15
ATOM     15  C   UNL     1      -0.388  15.942  18.423  1.00  0.00    -0.000 C 
BRANCH  15  16
ATOM     16  C   UNL     1      -0.689  17.216  19.226  1.00  0.00    -0.000 C 
BRANCH  16  17
ATOM     17  C   UNL     1      -1.508  18.244  18.425  1.00  0.00    -0.000 C 
BRANCH  17  18
ATOM     18  C   UNL     1      -0.789  19.605  18.317  1.00  0.00    -0.000 C 
BRANCH  18  19
ATOM     19  C   UNL     1       0.727  19.520  18.567  1.00  0.00    -0.003 C 
ATOM     20  C   UNL     1       1.555  19.778  17.310  1.00  0.00     0.004 C 
ENDBRANCH  18  19
ENDBRANCH  17  18
ENDBRANCH  16  17
ENDBRANCH  15  16
ENDBRANCH  14  15
ENDBRANCH  13  14
ENDBRANCH  12  13
ENDBRANCH   1  12
TORSDOF 16
ENDMDL
MODEL 3
REMARK VINA RESULT:    -4.057      3.711      8.616
REMARK INTER + INTRA:          -9.132
REMARK INTER:                  -7.751
REMARK INTRA:                  -1.380
REMARK UNBOUND:                -1.280
REMARK SMILES CCCCCCCCCCCCCCCCCC(=O)[O-]
REMARK SMILES IDX 10 1 11 2 12 3 13 4 14 5 15 6 16 7 17 8 18 9 19 10 20 11
REMARK SMILES IDX 9 12 8 13 7 14 6 15 5 16 4 17 3 18 2 19 1 20
REMARK H PARENT
REMARK Flexibility Score: inf
ROOT
ATOM      1  C   UNL     1       3.023  12.698  18.181  1.00  0.00     0.000 C 
ENDROOT
BRANCH   1   2
ATOM      2  C   UNL     1       2.036  13.748  18.714  1.00  0.00     0.000 C 
BRANCH   2   3
ATOM      3  C   UNL     1       1.617  14.772  17.645  1.00  0.00     0.000 C 
BRANCH   3   4
ATOM      4  C   UNL     1       0.852  15.971  18.248  1.00  0.00     0.000 C 
BRANCH   4   5
ATOM      5  C   UNL     1      -0.621  15.665  18.582  1.00  0.00     0.000 C 
BRANCH   5   6
ATOM      6  C   UNL     1      -1.548  16.895  18.634  1.00  0.00     0.000 C 
BRANCH   6   7
ATOM      7  C   UNL     1      -1.361  17.798  19.868  1.00  0.00     0.006 C 
BRANCH   7   8
ATOM      8  C   UNL     1      -1.396  19.295  19.528  1.00  0.00     0.053 C 
BRANCH   8   9
ATOM      9  C   UNL     1      -0.432  19.609  18.427  1.00  0.00     0.041 C 
ATOM     10  O   UNL     1      -0.857  20.021  17.315  1.00  0.00    -0.550 OA
ATOM     11  O   UNL     1       0.935  19.463  18.631  1.00  0.00    -0.550 OA
ENDBRANCH   8   9
ENDBRANCH   7   8
ENDBRANCH   6   7
ENDBRANCH   5   6
ENDBRANCH   4   5
ENDBRANCH   3   4
ENDBRANCH   2   3
ENDBRANCH   1   2
BRANCH   1  12
ATOM     12  C   UNL     1       2.765  11.294  18.755  1.00  0.00     0.000 C 
BRANCH  12  13
ATOM     13  C   UNL     1       4.021  10.673  19.391  1.00  0.00    -0.000 C 
BRANCH  13  14
ATOM     14  C   UNL     1       5.226  11.638  19.440  1.00  0.00    -0.000 C 
BRANCH  14  15
ATOM     15  C   UNL     1       6.429  11.100  18.645  1.00  0.00    -0.000 C 
BRANCH  15  16
ATOM     16  C   UNL     1       6.640  11.841  17.316  1.00  0.00    -0.000 C 
BRANCH  16  17
ATOM     17  C   UNL     1       5.640  11.408  16.229  1.00  0.00    -0.000 C 
BRANCH  17  18
ATOM     18  C   UNL     1       5.103  12.607  15.420  1.00  0.00    -0.000 C 
BRANCH  18  19
ATOM     19  C   UNL     1       3.938  12.243  14.483  1.00  0.00    -0.003 C 
ATOM     20  C   UNL     1       2.731  13.165  14.644  1.00  0.00     0.004 C 
ENDBRANCH  18  19
ENDBRANCH  17  18
ENDBRANCH  16  17
ENDBRANCH  15  16
ENDBRANCH  14  15
ENDBRANCH  13  14
ENDBRANCH  12  13
ENDBRANCH   1  12
TORSDOF 16
ENDMDL
MODEL 4
REMARK VINA RESULT:    -3.784      3.631      8.971
REMARK INTER + INTRA:          -8.603
REMARK INTER:                  -7.808
REMARK INTRA:                  -0.795
REMARK UNBOUND:                -1.280
REMARK SMILES CCCCCCCCCCCCCCCCCC(=O)[O-]
REMARK SMILES IDX 10 1 11 2 12 3 13 4 14 5 15 6 16 7 17 8 18 9 19 10 20 11
REMARK SMILES IDX 9 12 8 13 7 14 6 15 5 16 4 17 3 18 2 19 1 20
REMARK H PARENT
REMARK Flexibility Score: inf
ROOT
ATOM      1  C   UNL     1       1.976  14.472  16.549  1.00  0.00     0.000 C 
ENDROOT
BRANCH   1   2
ATOM      2  C   UNL     1       1.665  14.794  18.019  1.00  0.00     0.000 C 
BRANCH   2   3
ATOM      3  C   UNL     1       0.826  16.074  18.186  1.00  0.00     0.000 C 
BRANCH   3   4
ATOM      4  C   UNL     1      -0.653  15.768  18.510  1.00  0.00     0.000 C 
BRANCH   4   5
ATOM      5  C   UNL     1      -1.552  17.020  18.555  1.00  0.00     0.000 C 
BRANCH   5   6
ATOM      6  C   UNL     1      -1.583  17.753  19.909  1.00  0.00     0.000 C 
BRANCH   6   7
ATOM      7  C   UNL     1      -1.475  19.288  19.820  1.00  0.00     0.006 C 
BRANCH   7   8
ATOM      8  C   UNL     1      -0.032  19.778  19.638  1.00  0.00     0.053 C 
BRANCH   8   9
ATOM      9  C   UNL     1       0.351  19.768  18.192  1.00  0.00     0.041 C 
ATOM     10  O   UNL     1      -0.481  20.125  17.315  1.00  0.00    -0.550 OA
ATOM     11  O   UNL     1       1.630  19.380  17.809  1.00  0.00    -0.550 OA
ENDBRANCH   8   9
ENDBRANCH   7   8
ENDBRANCH   6   7
ENDBRANCH   5   6
ENDBRANCH   4   5
ENDBRANCH   3   4
ENDBRANCH   2   3
ENDBRANCH   1   2
BRANCH   1  12
ATOM     12  C   UNL     1       2.777  13.169  16.383  1.00  0.00     0.000 C 
BRANCH  12  13
ATOM     13  C   UNL     1       3.136  12.876  14.917  1.00  0.00    -0.000 C 
BRANCH  13  14
ATOM     14  C   UNL     1       4.233  11.801  14.756  1.00  0.00    -0.000 C 
BRANCH  14  15
ATOM     15  C   UNL     1       4.825  11.372  16.110  1.00  0.00    -0.000 C 
BRANCH  15  16
ATOM     16  C   UNL     1       6.076  12.176  16.491  1.00  0.00    -0.000 C 
BRANCH  16  17
ATOM     17  C   UNL     1       6.645  11.776  17.865  1.00  0.00    -0.000 C 
BRANCH  17  18
ATOM     18  C   UNL     1       5.541  11.320  18.841  1.00  0.00    -0.000 C 
BRANCH  18  19
ATOM     19  C   UNL     1       6.064  10.994  20.251  1.00  0.00    -0.003 C 
ATOM     20  C   UNL     1       7.448  10.348  20.240  1.00  0.00     0.004 C 
ENDBRANCH  18  19
ENDBRANCH  17  18
ENDBRANCH  16  17
ENDBRANCH  15  16
ENDBRANCH  14  15
ENDBRANCH  13  14
ENDBRANCH  12  13
ENDBRANCH   1  12
TORSDOF 16
ENDMDL
MODEL 5
REMARK VINA RESULT:    -3.718      3.752      8.828
REMARK INTER + INTRA:          -8.474
REMARK INTER:                  -7.395
REMARK INTRA:                  -1.080
REMARK UNBOUND:                -1.280
REMARK SMILES CCCCCCCCCCCCCCCCCC(=O)[O-]
REMARK SMILES IDX 10 1 11 2 12 3 13 4 14 5 15 6 16 7 17 8 18 9 19 10 20 11
REMARK SMILES IDX 9 12 8 13 7 14 6 15 5 16 4 17 3 18 2 19 1 20
REMARK H PARENT
REMARK Flexibility Score: inf
ROOT
ATOM      1  C   UNL     1       2.876  13.376  16.426  1.00  0.00     0.000 C 
ENDROOT
BRANCH   1   2
ATOM      2  C   UNL     1       1.830  14.489  16.599  1.00  0.00     0.000 C 
BRANCH   2   3
ATOM      3  C   UNL     1       1.608  14.876  18.072  1.00  0.00     0.000 C 
BRANCH   3   4
ATOM      4  C   UNL     1       0.711  16.125  18.222  1.00  0.00     0.000 C 
BRANCH   4   5
ATOM      5  C   UNL     1      -0.784  15.799  18.409  1.00  0.00     0.000 C 
BRANCH   5   6
ATOM      6  C   UNL     1      -1.582  16.838  19.219  1.00  0.00     0.000 C 
BRANCH   6   7
ATOM      7  C   UNL     1      -0.734  17.951  19.864  1.00  0.00     0.006 C 
BRANCH   7   8
ATOM      8  C   UNL     1      -1.118  19.356  19.379  1.00  0.00     0.053 C 
BRANCH   8   9
ATOM      9  C   UNL     1      -0.325  19.732  18.168  1.00  0.00     0.041 C 
ATOM     10  O   UNL     1      -0.914  20.112  17.121  1.00  0.00    -0.550 OA
ATOM     11  O   UNL     1       1.064  19.679  18.197  1.00  0.00    -0.550 OA
ENDBRANCH   8   9
ENDBRANCH   7   8
ENDBRANCH   6   7
ENDBRANCH   5   6
ENDBRANCH   4   5
ENDBRANCH   3   4
ENDBRANCH   2   3
ENDBRANCH   1   2
BRANCH   1  12
ATOM     12  C   UNL     1       3.001  12.899  14.969  1.00  0.00     0.000 C 
BRANCH  12  13
ATOM     13  C   UNL     1       4.330  12.176  14.693  1.00  0.00    -0.000 C 
BRANCH  13  14
ATOM     14  C   UNL     1       4.927  11.489  15.941  1.00  0.00    -0.000 C 
BRANCH  14  15
ATOM     15  C   UNL     1       6.170  12.227  16.469  1.00  0.00    -0.000 C 
BRANCH  15  16
ATOM     16  C   UNL     1       6.873  11.467  17.603  1.00  0.00    -0.000 C 
BRANCH  16  17
ATOM     17  C   UNL     1       6.306  11.815  18.991  1.00  0.00    -0.000 C 
BRANCH  17  18
ATOM     18  C   UNL     1       6.027  10.557  19.839  1.00  0.00    -0.000 C 
BRANCH  18  19
ATOM     19  C   UNL     1       4.534  10.339  20.141  1.00  0.00    -0.003 C 
ATOM     20  C   UNL     1       3.614  11.021  19.129  1.00  0.00     0.004 C 
ENDBRANCH  18  19
ENDBRANCH  17  18
ENDBRANCH  16  17
ENDBRANCH  15  16
ENDBRANCH  14  15
ENDBRANCH  13  14
ENDBRANCH  12  13
ENDBRANCH   1  12
TORSDOF 16
ENDMDL
MODEL 6
REMARK VINA RESULT:    -3.366      1.323      2.366
REMARK INTER + INTRA:          -7.793
REMARK INTER:                  -6.961
REMARK INTRA:                  -0.832
REMARK UNBOUND:                -1.280
REMARK SMILES CCCCCCCCCCCCCCCCCC(=O)[O-]
REMARK SMILES IDX 10 1 11 2 12 3 13 4 14 5 15 6 16 7 17 8 18 9 19 10 20 11
REMARK SMILES IDX 9 12 8 13 7 14 6 15 5 16 4 17 3 18 2 19 1 20
REMARK H PARENT
REMARK Flexibility Score: inf
ROOT
ATOM      1  C   UNL     1       3.012  12.916  14.971  1.00  0.00     0.000 C 
ENDROOT
BRANCH   1   2
ATOM      2  C   UNL     1       4.421  13.030  15.574  1.00  0.00     0.000 C 
BRANCH   2   3
ATOM      3  C   UNL     1       4.813  11.800  16.412  1.00  0.00     0.000 C 
BRANCH   3   4
ATOM      4  C   UNL     1       3.584  10.977  16.857  1.00  0.00     0.000 C 
BRANCH   4   5
ATOM      5  C   UNL     1       3.193  11.190  18.333  1.00  0.00     0.000 C 
BRANCH   5   6
ATOM      6  C   UNL     1       4.366  11.505  19.280  1.00  0.00     0.000 C 
BRANCH   6   7
ATOM      7  C   UNL     1       4.891  10.301  20.086  1.00  0.00     0.006 C 
BRANCH   7   8
ATOM      8  C   UNL     1       6.130  10.635  20.928  1.00  0.00     0.053 C 
BRANCH   8   9
ATOM      9  C   UNL     1       7.366  10.599  20.086  1.00  0.00     0.041 C 
ATOM     10  O   UNL     1       7.299  10.863  18.855  1.00  0.00    -0.550 OA
ATOM     11  O   UNL     1       8.595  10.290  20.658  1.00  0.00    -0.550 OA
ENDBRANCH   8   9
ENDBRANCH   7   8
ENDBRANCH   6   7
ENDBRANCH   5   6
ENDBRANCH   4   5
ENDBRANCH   3   4
ENDBRANCH   2   3
ENDBRANCH   1   2
BRANCH   1  12
ATOM     12  C   UNL     1       2.041  13.971  15.528  1.00  0.00     0.000 C 
BRANCH  12  13
ATOM     13  C   UNL     1       2.142  14.123  17.056  1.00  0.00    -0.000 C 
BRANCH  13  14
ATOM     14  C   UNL     1       1.557  15.452  17.581  1.00  0.00    -0.000 C 
BRANCH  14  15
ATOM     15  C   UNL     1       0.295  15.232  18.434  1.00  0.00    -0.000 C 
BRANCH  15  16
ATOM     16  C   UNL     1      -0.758  16.330  18.229  1.00  0.00    -0.000 C 
BRANCH  16  17
ATOM     17  C   UNL     1      -1.045  17.125  19.516  1.00  0.00    -0.000 C 
BRANCH  17  18
ATOM     18  C   UNL     1      -0.667  18.614  19.378  1.00  0.00    -0.000 C 
BRANCH  18  19
ATOM     19  C   UNL     1       0.678  18.843  18.665  1.00  0.00    -0.003 C 
ATOM     20  C   UNL     1       0.567  19.787  17.469  1.00  0.00     0.004 C 
ENDBRANCH  18  19
ENDBRANCH  17  18
ENDBRANCH  16  17
ENDBRANCH  15  16
ENDBRANCH  14  15
ENDBRANCH  13  14
ENDBRANCH  12  13
ENDBRANCH   1  12
TORSDOF 16
ENDMDL
MODEL 7
REMARK VINA RESULT:    -3.270      3.838      8.411
REMARK INTER + INTRA:          -7.609
REMARK INTER:                  -6.325
REMARK INTRA:                  -1.284
REMARK UNBOUND:                -1.280
REMARK SMILES CCCCCCCCCCCCCCCCCC(=O)[O-]
REMARK SMILES IDX 10 1 11 2 12 3 13 4 14 5 15 6 16 7 17 8 18 9 19 10 20 11
REMARK SMILES IDX 9 12 8 13 7 14 6 15 5 16 4 17 3 18 2 19 1 20
REMARK H PARENT
REMARK Flexibility Score: inf
ROOT
ATOM      1  C   UNL     1       3.512  10.745  19.166  1.00  0.00     0.000 C 
ENDROOT
BRANCH   1   2
ATOM      2  C   UNL     1       2.715  11.710  18.274  1.00  0.00     0.000 C 
BRANCH   2   3
ATOM      3  C   UNL     1       2.623  13.129  18.862  1.00  0.00     0.000 C 
BRANCH   3   4
ATOM      4  C   UNL     1       2.001  14.136  17.870  1.00  0.00     0.000 C 
BRANCH   4   5
ATOM      5  C   UNL     1       1.423  15.397  18.543  1.00  0.00     0.000 C 
BRANCH   5   6
ATOM      6  C   UNL     1       0.070  15.874  17.982  1.00  0.00     0.000 C 
BRANCH   6   7
ATOM      7  C   UNL     1      -1.132  15.674  18.925  1.00  0.00     0.006 C 
BRANCH   7   8
ATOM      8  C   UNL     1      -1.299  16.816  19.937  1.00  0.00     0.053 C 
BRANCH   8   9
ATOM      9  C   UNL     1      -1.384  18.135  19.235  1.00  0.00     0.041 C 
ATOM     10  O   UNL     1      -0.772  19.136  19.694  1.00  0.00    -0.550 OA
ATOM     11  O   UNL     1      -2.125  18.258  18.064  1.00  0.00    -0.550 OA
ENDBRANCH   8   9
ENDBRANCH   7   8
ENDBRANCH   6   7
ENDBRANCH   5   6
ENDBRANCH   4   5
ENDBRANCH   3   4
ENDBRANCH   2   3
ENDBRANCH   1   2
BRANCH   1  12
ATOM     12  C   UNL     1       4.667  11.438  19.908  1.00  0.00     0.000 C 
BRANCH  12  13
ATOM     13  C   UNL     1       5.828  10.481  20.224  1.00  0.00    -0.000 C 
BRANCH  13  14
ATOM     14  C   UNL     1       7.110  10.781  19.416  1.00  0.00    -0.000 C 
BRANCH  14  15
ATOM     15  C   UNL     1       6.887  11.890  18.372  1.00  0.00    -0.000 C 
BRANCH  15  16
ATOM     16  C   UNL     1       6.845  11.351  16.935  1.00  0.00    -0.000 C 
BRANCH  16  17
ATOM     17  C   UNL     1       5.454  11.488  16.290  1.00  0.00    -0.000 C 
BRANCH  17  18
ATOM     18  C   UNL     1       5.305  12.805  15.500  1.00  0.00    -0.000 C 
BRANCH  18  19
ATOM     19  C   UNL     1       3.841  13.220  15.269  1.00  0.00    -0.003 C 
ATOM     20  C   UNL     1       3.111  12.311  14.283  1.00  0.00     0.004 C 
ENDBRANCH  18  19
ENDBRANCH  17  18
ENDBRANCH  16  17
ENDBRANCH  15  16
ENDBRANCH  14  15
ENDBRANCH  13  14
ENDBRANCH  12  13
ENDBRANCH   1  12
TORSDOF 16
ENDMDL
MODEL 8
REMARK VINA RESULT:    -3.237      2.398      4.236
REMARK INTER + INTRA:          -7.543
REMARK INTER:                  -6.551
REMARK INTRA:                  -0.993
REMARK UNBOUND:                -1.280
REMARK SMILES CCCCCCCCCCCCCCCCCC(=O)[O-]
REMARK SMILES IDX 10 1 11 2 12 3 13 4 14 5 15 6 16 7 17 8 18 9 19 10 20 11
REMARK SMILES IDX 9 12 8 13 7 14 6 15 5 16 4 17 3 18 2 19 1 20
REMARK H PARENT
REMARK Flexibility Score: inf
ROOT
ATOM      1  C   UNL     1       3.850  10.722  19.379  1.00  0.00     0.000 C 
ENDROOT
BRANCH   1   2
ATOM      2  C   UNL     1       5.066  11.583  19.759  1.00  0.00     0.000 C 
BRANCH   2   3
ATOM      3  C   UNL     1       6.356  10.758  19.914  1.00  0.00     0.000 C 
BRANCH   3   4
ATOM      4  C   UNL     1       7.237  10.804  18.645  1.00  0.00     0.000 C 
BRANCH   4   5
ATOM      5  C   UNL     1       6.938  12.002  17.723  1.00  0.00     0.000 C 
BRANCH   5   6
ATOM      6  C   UNL     1       5.961  11.710  16.569  1.00  0.00     0.000 C 
BRANCH   6   7
ATOM      7  C   UNL     1       5.427  12.957  15.838  1.00  0.00     0.006 C 
BRANCH   7   8
ATOM      8  C   UNL     1       4.721  12.623  14.516  1.00  0.00     0.053 C 
BRANCH   8   9
ATOM      9  C   UNL     1       3.327  12.142  14.769  1.00  0.00     0.041 C 
ATOM     10  O   UNL     1       2.353  12.698  14.193  1.00  0.00    -0.550 OA
ATOM     11  O   UNL     1       3.101  11.072  15.626  1.00  0.00    -0.550 OA
ENDBRANCH   8   9
ENDBRANCH   7   8
ENDBRANCH   6   7
ENDBRANCH   5   6
ENDBRANCH   4   5
ENDBRANCH   3   4
ENDBRANCH   2   3
ENDBRANCH   1   2
BRANCH   1  12
ATOM     12  C   UNL     1       2.775  11.516  18.618  1.00  0.00     0.000 C 
BRANCH  12  13
ATOM     13  C   UNL     1       2.959  13.038  18.745  1.00  0.00    -0.000 C 
BRANCH  13  14
ATOM     14  C   UNL     1       2.088  13.846  17.758  1.00  0.00    -0.000 C 
BRANCH  14  15
ATOM     15  C   UNL     1       1.745  15.245  18.302  1.00  0.00    -0.000 C 
BRANCH  15  16
ATOM     16  C   UNL     1       0.291  15.649  18.022  1.00  0.00    -0.000 C 
BRANCH  16  17
ATOM     17  C   UNL     1      -0.111  16.954  18.734  1.00  0.00    -0.000 C 
BRANCH  17  18
ATOM     18  C   UNL     1       0.901  18.091  18.480  1.00  0.00    -0.000 C 
BRANCH  18  19
ATOM     19  C   UNL     1       0.332  19.492  18.762  1.00  0.00    -0.003 C 
ATOM     20  C   UNL     1      -0.562  19.537  20.000  1.00  0.00     0.004 C 
ENDBRANCH  18  19
ENDBRANCH  17  18
ENDBRANCH  16  17
ENDBRANCH  15  16
ENDBRANCH  14  15
ENDBRANCH  13  14
ENDBRANCH  12  13
ENDBRANCH   1  12
TORSDOF 16
ENDMDL
MODEL 9
REMARK VINA RESULT:    -3.215      1.554      3.083
REMARK INTER + INTRA:          -7.501
REMARK INTER:                  -6.674
REMARK INTRA:                  -0.827
REMARK UNBOUND:                -1.280
REMARK SMILES CCCCCCCCCCCCCCCCCC(=O)[O-]
REMARK SMILES IDX 10 1 11 2 12 3 13 4 14 5 15 6 16 7 17 8 18 9 19 10 20 11
REMARK SMILES IDX 9 12 8 13 7 14 6 15 5 16 4 17 3 18 2 19 1 20
REMARK H PARENT
REMARK Flexibility Score: inf
ROOT
ATOM      1  C   UNL     1       3.823  12.614  14.236  1.00  0.00     0.000 C 
ENDROOT
BRANCH   1   2
ATOM      2  C   UNL     1       4.613  11.398  14.745  1.00  0.00     0.000 C 
BRANCH   2   3
ATOM      3  C   UNL     1       4.935  11.482  16.248  1.00  0.00     0.000 C 
BRANCH   3   4
ATOM      4  C   UNL     1       6.455  11.497  16.522  1.00  0.00     0.000 C 
BRANCH   4   5
ATOM      5  C   UNL     1       6.825  11.928  17.956  1.00  0.00     0.000 C 
BRANCH   5   6
ATOM      6  C   UNL     1       6.994  10.773  18.961  1.00  0.00     0.000 C 
BRANCH   6   7
ATOM      7  C   UNL     1       6.211  10.938  20.278  1.00  0.00     0.006 C 
BRANCH   7   8
ATOM      8  C   UNL     1       4.836  10.256  20.249  1.00  0.00     0.053 C 
BRANCH   8   9
ATOM      9  C   UNL     1       3.858  11.073  19.465  1.00  0.00     0.041 C 
ATOM     10  O   UNL     1       3.956  12.330  19.447  1.00  0.00    -0.550 OA
ATOM     11  O   UNL     1       2.848  10.451  18.740  1.00  0.00    -0.550 OA
ENDBRANCH   8   9
ENDBRANCH   7   8
ENDBRANCH   6   7
ENDBRANCH   5   6
ENDBRANCH   4   5
ENDBRANCH   3   4
ENDBRANCH   2   3
ENDBRANCH   1   2
BRANCH   1  12
ATOM     12  C   UNL     1       2.497  12.819  14.988  1.00  0.00     0.000 C 
BRANCH  12  13
ATOM     13  C   UNL     1       2.451  14.150  15.757  1.00  0.00    -0.000 C 
BRANCH  13  14
ATOM     14  C   UNL     1       1.996  13.996  17.225  1.00  0.00    -0.000 C 
BRANCH  14  15
ATOM     15  C   UNL     1       1.589  15.343  17.848  1.00  0.00    -0.000 C 
BRANCH  15  16
ATOM     16  C   UNL     1       0.104  15.391  18.236  1.00  0.00    -0.000 C 
BRANCH  16  17
ATOM     17  C   UNL     1      -0.362  16.806  18.627  1.00  0.00    -0.000 C 
BRANCH  17  18
ATOM     18  C   UNL     1       0.801  17.819  18.641  1.00  0.00    -0.000 C 
BRANCH  18  19
ATOM     19  C   UNL     1       0.342  19.283  18.516  1.00  0.00    -0.003 C 
ATOM     20  C   UNL     1      -1.152  19.417  18.225  1.00  0.00     0.004 C 
ENDBRANCH  18  19
ENDBRANCH  17  18
ENDBRANCH  16  17
ENDBRANCH  15  16
ENDBRANCH  14  15
ENDBRANCH  13  14
ENDBRANCH  12  13
ENDBRANCH   1  12
TORSDOF 16
ENDMDL
