MODEL 1
REMARK VINA RESULT:    -3.643      0.000      0.000
REMARK INTER + INTRA:         -10.698
REMARK INTER:                  -7.902
REMARK INTRA:                  -2.796
REMARK UNBOUND:                -2.796
REMARK SMILES CCCCCCCCCCCCCCCCCCCCCC(=O)[O-]
REMARK SMILES IDX 12 1 11 2 10 3 9 4 8 5 7 6 6 7 5 8 4 9 3 10 2 11 1 12 13 13
REMARK SMILES IDX 14 14 15 15 16 16 17 17 18 18 19 19 20 20 21 21 22 22 23 23
REMARK SMILES IDX 24 24
REMARK H PARENT
REMARK Flexibility Score: inf
ROOT
ATOM      1  C   UNL     1      -8.035  20.617 -10.087  1.00  0.00     0.000 C 
ENDROOT
BRANCH   1   2
ATOM      2  C   UNL     1      -7.578  20.938  -8.656  1.00  0.00     0.000 C 
BRANCH   2   3
ATOM      3  C   UNL     1      -6.805  19.777  -8.008  1.00  0.00     0.000 C 
BRANCH   3   4
ATOM      4  C   UNL     1      -5.378  20.172  -7.586  1.00  0.00    -0.000 C 
BRANCH   4   5
ATOM      5  C   UNL     1      -5.213  20.504  -6.092  1.00  0.00    -0.000 C 
BRANCH   5   6
ATOM      6  C   UNL     1      -4.155  19.628  -5.398  1.00  0.00    -0.000 C 
BRANCH   6   7
ATOM      7  C   UNL     1      -3.880  18.328  -6.174  1.00  0.00    -0.000 C 
BRANCH   7   8
ATOM      8  C   UNL     1      -4.796  17.155  -5.755  1.00  0.00    -0.000 C 
BRANCH   8   9
ATOM      9  C   UNL     1      -5.356  16.354  -6.945  1.00  0.00    -0.000 C 
BRANCH   9  10
ATOM     10  C   UNL     1      -4.680  16.648  -8.297  1.00  0.00    -0.000 C 
BRANCH  10  11
ATOM     11  C   UNL     1      -5.525  16.287  -9.533  1.00  0.00    -0.003 C 
ATOM     12  C   UNL     1      -7.002  16.641  -9.369  1.00  0.00     0.004 C 
ENDBRANCH  10  11
ENDBRANCH   9  10
ENDBRANCH   8   9
ENDBRANCH   7   8
ENDBRANCH   6   7
ENDBRANCH   5   6
ENDBRANCH   4   5
ENDBRANCH   3   4
ENDBRANCH   2   3
ENDBRANCH   1   2
BRANCH   1  13
ATOM     13  C   UNL     1      -6.959  20.938 -11.139  1.00  0.00     0.000 C 
BRANCH  13  14
ATOM     14  C   UNL     1      -6.222  19.678 -11.641  1.00  0.00     0.000 C 
BRANCH  14  15
ATOM     15  C   UNL     1      -6.605  19.256 -13.073  1.00  0.00     0.000 C 
BRANCH  15  16
ATOM     16  C   UNL     1      -7.035  20.405 -14.004  1.00  0.00     0.000 C 
BRANCH  16  17
ATOM     17  C   UNL     1      -8.497  20.344 -14.485  1.00  0.00     0.000 C 
BRANCH  17  18
ATOM     18  C   UNL     1      -9.335  19.306 -13.725  1.00  0.00     0.000 C 
BRANCH  18  19
ATOM     19  C   UNL     1     -10.755  19.827 -13.473  1.00  0.00     0.000 C 
BRANCH  19  20
ATOM     20  C   UNL     1     -11.252  19.424 -12.076  1.00  0.00     0.006 C 
BRANCH  20  21
ATOM     21  C   UNL     1     -10.281  18.471 -11.367  1.00  0.00     0.053 C 
BRANCH  21  22
ATOM     22  C   UNL     1     -10.764  17.053 -11.406  1.00  0.00     0.041 C 
ATOM     23  O   UNL     1     -11.383  16.623 -12.414  1.00  0.00    -0.550 OA
ATOM     24  O   UNL     1     -10.566  16.220 -10.312  1.00  0.00    -0.550 OA
ENDBRANCH  21  22
ENDBRANCH  20  21
ENDBRANCH  19  20
ENDBRANCH  18  19
ENDBRANCH  17  18
ENDBRANCH  16  17
ENDBRANCH  15  16
ENDBRANCH  14  15
ENDBRANCH  13  14
ENDBRANCH   1  13
TORSDOF 20
ENDMDL
MODEL 2
REMARK VINA RESULT:    -3.590      2.648      4.935
REMARK INTER + INTRA:         -10.583
REMARK INTER:                  -8.716
REMARK INTRA:                  -1.867
REMARK UNBOUND:                -2.796
REMARK SMILES CCCCCCCCCCCCCCCCCCCCCC(=O)[O-]
REMARK SMILES IDX 12 1 11 2 10 3 9 4 8 5 7 6 6 7 5 8 4 9 3 10 2 11 1 12 13 13
REMARK SMILES IDX 14 14 15 15 16 16 17 17 18 18 19 19 20 20 21 21 22 22 23 23
REMARK SMILES IDX 24 24
REMARK H PARENT
REMARK Flexibility Score: inf
ROOT
ATOM      1  C   UNL     1      -6.624  16.641  -7.488  1.00  0.00     0.000 C 
ENDROOT
BRANCH   1   2
ATOM      2  C   UNL     1      -5.370  16.581  -6.603  1.00  0.00     0.000 C 
BRANCH   2   3
ATOM      3  C   UNL     1      -4.287  17.580  -7.045  1.00  0.00     0.000 C 
BRANCH   3   4
ATOM      4  C   UNL     1      -4.167  18.789  -6.099  1.00  0.00    -0.000 C 
BRANCH   4   5
ATOM      5  C   UNL     1      -4.973  20.029  -6.528  1.00  0.00    -0.000 C 
BRANCH   5   6
ATOM      6  C   UNL     1      -5.147  21.051  -5.391  1.00  0.00    -0.000 C 
BRANCH   6   7
ATOM      7  C   UNL     1      -4.415  20.621  -4.108  1.00  0.00    -0.000 C 
BRANCH   7   8
ATOM      8  C   UNL     1      -5.178  20.983  -2.813  1.00  0.00    -0.000 C 
BRANCH   8   9
ATOM      9  C   UNL     1      -4.348  20.779  -1.531  1.00  0.00    -0.000 C 
BRANCH   9  10
ATOM     10  C   UNL     1      -4.999  19.862  -0.480  1.00  0.00    -0.000 C 
BRANCH  10  11
ATOM     11  C   UNL     1      -5.350  20.552   0.851  1.00  0.00    -0.003 C 
ATOM     12  C   UNL     1      -5.329  19.596   2.043  1.00  0.00     0.004 C 
ENDBRANCH  10  11
ENDBRANCH   9  10
ENDBRANCH   8   9
ENDBRANCH   7   8
ENDBRANCH   6   7
ENDBRANCH   5   6
ENDBRANCH   4   5
ENDBRANCH   3   4
ENDBRANCH   2   3
ENDBRANCH   1   2
BRANCH   1  13
ATOM     13  C   UNL     1      -6.316  16.364  -8.970  1.00  0.00     0.000 C 
BRANCH  13  14
ATOM     14  C   UNL     1      -7.029  17.350  -9.921  1.00  0.00     0.000 C 
BRANCH  14  15
ATOM     15  C   UNL     1      -6.887  18.830  -9.513  1.00  0.00     0.000 C 
BRANCH  15  16
ATOM     16  C   UNL     1      -7.033  19.846 -10.661  1.00  0.00     0.000 C 
BRANCH  16  17
ATOM     17  C   UNL     1      -6.817  19.270 -12.074  1.00  0.00     0.000 C 
BRANCH  17  18
ATOM     18  C   UNL     1      -7.838  19.791 -13.095  1.00  0.00     0.000 C 
BRANCH  18  19
ATOM     19  C   UNL     1      -9.065  18.872 -13.158  1.00  0.00     0.000 C 
BRANCH  19  20
ATOM     20  C   UNL     1     -10.270  19.510 -12.451  1.00  0.00     0.006 C 
BRANCH  20  21
ATOM     21  C   UNL     1     -10.601  18.812 -11.125  1.00  0.00     0.053 C 
BRANCH  21  22
ATOM     22  C   UNL     1     -10.980  17.377 -11.330  1.00  0.00     0.041 C 
ATOM     23  O   UNL     1     -10.421  16.472 -10.656  1.00  0.00    -0.550 OA
ATOM     24  O   UNL     1     -11.919  17.036 -12.297  1.00  0.00    -0.550 OA
ENDBRANCH  21  22
ENDBRANCH  20  21
ENDBRANCH  19  20
ENDBRANCH  18  19
ENDBRANCH  17  18
ENDBRANCH  16  17
ENDBRANCH  15  16
ENDBRANCH  14  15
ENDBRANCH  13  14
ENDBRANCH   1  13
TORSDOF 20
ENDMDL
MODEL 3
REMARK VINA RESULT:    -3.577      1.315      3.511
REMARK INTER + INTRA:         -10.554
REMARK INTER:                  -7.318
REMARK INTRA:                  -3.237
REMARK UNBOUND:                -2.796
REMARK SMILES CCCCCCCCCCCCCCCCCCCCCC(=O)[O-]
REMARK SMILES IDX 12 1 11 2 10 3 9 4 8 5 7 6 6 7 5 8 4 9 3 10 2 11 1 12 13 13
REMARK SMILES IDX 14 14 15 15 16 16 17 17 18 18 19 19 20 20 21 21 22 22 23 23
REMARK SMILES IDX 24 24
REMARK H PARENT
REMARK Flexibility Score: inf
ROOT
ATOM      1  C   UNL     1      -6.860  16.530  -9.030  1.00  0.00     0.000 C 
ENDROOT
BRANCH   1   2
ATOM      2  C   UNL     1      -6.550  16.882  -7.567  1.00  0.00     0.000 C 
BRANCH   2   3
ATOM      3  C   UNL     1      -5.062  16.702  -7.219  1.00  0.00     0.000 C 
BRANCH   3   4
ATOM      4  C   UNL     1      -4.647  17.475  -5.954  1.00  0.00    -0.000 C 
BRANCH   4   5
ATOM      5  C   UNL     1      -4.405  18.981  -6.167  1.00  0.00    -0.000 C 
BRANCH   5   6
ATOM      6  C   UNL     1      -4.131  19.340  -7.639  1.00  0.00    -0.000 C 
BRANCH   6   7
ATOM      7  C   UNL     1      -5.126  20.383  -8.175  1.00  0.00    -0.000 C 
BRANCH   7   8
ATOM      8  C   UNL     1      -6.253  20.732  -7.175  1.00  0.00    -0.000 C 
BRANCH   8   9
ATOM      9  C   UNL     1      -7.613  20.997  -7.846  1.00  0.00    -0.000 C 
BRANCH   9  10
ATOM     10  C   UNL     1      -7.610  20.878  -9.381  1.00  0.00    -0.000 C 
BRANCH  10  11
ATOM     11  C   UNL     1      -8.843  20.171  -9.976  1.00  0.00    -0.003 C 
ATOM     12  C   UNL     1     -10.014  21.121 -10.222  1.00  0.00     0.004 C 
ENDBRANCH  10  11
ENDBRANCH   9  10
ENDBRANCH   8   9
ENDBRANCH   7   8
ENDBRANCH   6   7
ENDBRANCH   5   6
ENDBRANCH   4   5
ENDBRANCH   3   4
ENDBRANCH   2   3
ENDBRANCH   1   2
BRANCH   1  13
ATOM     13  C   UNL     1      -6.233  17.523 -10.024  1.00  0.00     0.000 C 
BRANCH  13  14
ATOM     14  C   UNL     1      -5.015  16.933 -10.767  1.00  0.00     0.000 C 
BRANCH  14  15
ATOM     15  C   UNL     1      -4.564  17.759 -11.988  1.00  0.00     0.000 C 
BRANCH  15  16
ATOM     16  C   UNL     1      -4.800  19.277 -11.878  1.00  0.00     0.000 C 
BRANCH  16  17
ATOM     17  C   UNL     1      -5.713  19.877 -12.964  1.00  0.00     0.000 C 
BRANCH  17  18
ATOM     18  C   UNL     1      -7.183  19.465 -12.804  1.00  0.00     0.000 C 
BRANCH  18  19
ATOM     19  C   UNL     1      -7.929  19.566 -14.141  1.00  0.00     0.000 C 
BRANCH  19  20
ATOM     20  C   UNL     1      -9.443  19.398 -13.944  1.00  0.00     0.006 C 
BRANCH  20  21
ATOM     21  C   UNL     1      -9.789  18.126 -13.158  1.00  0.00     0.053 C 
BRANCH  21  22
ATOM     22  C   UNL     1     -11.041  18.293 -12.352  1.00  0.00     0.041 C 
ATOM     23  O   UNL     1     -11.925  19.112 -12.717  1.00  0.00    -0.550 OA
ATOM     24  O   UNL     1     -11.211  17.574 -11.175  1.00  0.00    -0.550 OA
ENDBRANCH  21  22
ENDBRANCH  20  21
ENDBRANCH  19  20
ENDBRANCH  18  19
ENDBRANCH  17  18
ENDBRANCH  16  17
ENDBRANCH  15  16
ENDBRANCH  14  15
ENDBRANCH  13  14
ENDBRANCH   1  13
TORSDOF 20
ENDMDL
MODEL 4
REMARK VINA RESULT:    -3.516      1.719      4.763
REMARK INTER + INTRA:         -10.423
REMARK INTER:                  -7.450
REMARK INTRA:                  -2.973
REMARK UNBOUND:                -2.796
REMARK SMILES CCCCCCCCCCCCCCCCCCCCCC(=O)[O-]
REMARK SMILES IDX 12 1 11 2 10 3 9 4 8 5 7 6 6 7 5 8 4 9 3 10 2 11 1 12 13 13
REMARK SMILES IDX 14 14 15 15 16 16 17 17 18 18 19 19 20 20 21 21 22 22 23 23
REMARK SMILES IDX 24 24
REMARK H PARENT
REMARK Flexibility Score: inf
ROOT
ATOM      1  C   UNL     1      -5.567  16.624  -6.689  1.00  0.00     0.000 C 
ENDROOT
BRANCH   1   2
ATOM      2  C   UNL     1      -4.669  17.742  -6.138  1.00  0.00     0.000 C 
BRANCH   2   3
ATOM      3  C   UNL     1      -4.538  18.928  -7.109  1.00  0.00     0.000 C 
BRANCH   3   4
ATOM      4  C   UNL     1      -5.110  20.236  -6.535  1.00  0.00    -0.000 C 
BRANCH   4   5
ATOM      5  C   UNL     1      -5.852  21.121  -7.554  1.00  0.00    -0.000 C 
BRANCH   5   6
ATOM      6  C   UNL     1      -7.201  20.524  -7.992  1.00  0.00    -0.000 C 
BRANCH   6   7
ATOM      7  C   UNL     1      -7.560  20.904  -9.440  1.00  0.00    -0.000 C 
BRANCH   7   8
ATOM      8  C   UNL     1      -8.294  19.780 -10.207  1.00  0.00    -0.000 C 
BRANCH   8   9
ATOM      9  C   UNL     1      -9.741  20.140 -10.593  1.00  0.00    -0.000 C 
BRANCH   9  10
ATOM     10  C   UNL     1     -10.606  18.948 -11.041  1.00  0.00    -0.000 C 
BRANCH  10  11
ATOM     11  C   UNL     1      -9.818  17.664 -11.363  1.00  0.00    -0.003 C 
ATOM     12  C   UNL     1     -10.672  16.596 -12.045  1.00  0.00     0.004 C 
ENDBRANCH  10  11
ENDBRANCH   9  10
ENDBRANCH   8   9
ENDBRANCH   7   8
ENDBRANCH   6   7
ENDBRANCH   5   6
ENDBRANCH   4   5
ENDBRANCH   3   4
ENDBRANCH   2   3
ENDBRANCH   1   2
BRANCH   1  13
ATOM     13  C   UNL     1      -6.495  17.111  -7.815  1.00  0.00     0.000 C 
BRANCH  13  14
ATOM     14  C   UNL     1      -6.330  16.298  -9.118  1.00  0.00     0.000 C 
BRANCH  14  15
ATOM     15  C   UNL     1      -5.162  16.768 -10.007  1.00  0.00     0.000 C 
BRANCH  15  16
ATOM     16  C   UNL     1      -5.346  18.154 -10.654  1.00  0.00     0.000 C 
BRANCH  16  17
ATOM     17  C   UNL     1      -5.286  18.169 -12.194  1.00  0.00     0.000 C 
BRANCH  17  18
ATOM     18  C   UNL     1      -5.649  19.535 -12.793  1.00  0.00     0.000 C 
BRANCH  18  19
ATOM     19  C   UNL     1      -5.742  19.454 -14.323  1.00  0.00     0.000 C 
BRANCH  19  20
ATOM     20  C   UNL     1      -6.928  20.276 -14.849  1.00  0.00     0.006 C 
BRANCH  20  21
ATOM     21  C   UNL     1      -8.106  20.291 -13.866  1.00  0.00     0.053 C 
BRANCH  21  22
ATOM     22  C   UNL     1      -9.344  19.706 -14.473  1.00  0.00     0.041 C 
ATOM     23  O   UNL     1     -10.447  20.304 -14.363  1.00  0.00    -0.550 OA
ATOM     24  O   UNL     1      -9.288  18.479 -15.124  1.00  0.00    -0.550 OA
ENDBRANCH  21  22
ENDBRANCH  20  21
ENDBRANCH  19  20
ENDBRANCH  18  19
ENDBRANCH  17  18
ENDBRANCH  16  17
ENDBRANCH  15  16
ENDBRANCH  14  15
ENDBRANCH  13  14
ENDBRANCH   1  13
TORSDOF 20
ENDMDL
MODEL 5
REMARK VINA RESULT:    -3.420      2.304      4.168
REMARK INTER + INTRA:         -10.214
REMARK INTER:                  -7.351
REMARK INTRA:                  -2.863
REMARK UNBOUND:                -2.796
REMARK SMILES CCCCCCCCCCCCCCCCCCCCCC(=O)[O-]
REMARK SMILES IDX 12 1 11 2 10 3 9 4 8 5 7 6 6 7 5 8 4 9 3 10 2 11 1 12 13 13
REMARK SMILES IDX 14 14 15 15 16 16 17 17 18 18 19 19 20 20 21 21 22 22 23 23
REMARK SMILES IDX 24 24
REMARK H PARENT
REMARK Flexibility Score: inf
ROOT
ATOM      1  C   UNL     1      -9.513  16.900 -10.869  1.00  0.00     0.000 C 
ENDROOT
BRANCH   1   2
ATOM      2  C   UNL     1      -8.840  18.262 -11.095  1.00  0.00     0.000 C 
BRANCH   2   3
ATOM      3  C   UNL     1      -7.479  18.374 -10.386  1.00  0.00     0.000 C 
BRANCH   3   4
ATOM      4  C   UNL     1      -7.147  19.814  -9.955  1.00  0.00    -0.000 C 
BRANCH   4   5
ATOM      5  C   UNL     1      -6.803  19.980  -8.463  1.00  0.00    -0.000 C 
BRANCH   5   6
ATOM      6  C   UNL     1      -5.525  20.806  -8.233  1.00  0.00    -0.000 C 
BRANCH   6   7
ATOM      7  C   UNL     1      -4.411  19.976  -7.572  1.00  0.00    -0.000 C 
BRANCH   7   8
ATOM      8  C   UNL     1      -4.873  19.224  -6.302  1.00  0.00    -0.000 C 
BRANCH   8   9
ATOM      9  C   UNL     1      -4.112  17.908  -6.054  1.00  0.00    -0.000 C 
BRANCH   9  10
ATOM     10  C   UNL     1      -4.950  16.631  -6.249  1.00  0.00    -0.000 C 
BRANCH  10  11
ATOM     11  C   UNL     1      -5.766  16.587  -7.554  1.00  0.00    -0.003 C 
ATOM     12  C   UNL     1      -4.901  16.347  -8.790  1.00  0.00     0.004 C 
ENDBRANCH  10  11
ENDBRANCH   9  10
ENDBRANCH   8   9
ENDBRANCH   7   8
ENDBRANCH   6   7
ENDBRANCH   5   6
ENDBRANCH   4   5
ENDBRANCH   3   4
ENDBRANCH   2   3
ENDBRANCH   1   2
BRANCH   1  13
ATOM     13  C   UNL     1     -10.552  16.565 -11.954  1.00  0.00     0.000 C 
BRANCH  13  14
ATOM     14  C   UNL     1     -11.765  17.519 -11.932  1.00  0.00     0.000 C 
BRANCH  14  15
ATOM     15  C   UNL     1     -11.938  18.345 -13.222  1.00  0.00     0.000 C 
BRANCH  15  16
ATOM     16  C   UNL     1     -11.452  19.804 -13.138  1.00  0.00     0.000 C 
BRANCH  16  17
ATOM     17  C   UNL     1     -10.253  20.147 -14.043  1.00  0.00     0.000 C 
BRANCH  17  18
ATOM     18  C   UNL     1      -9.594  18.906 -14.660  1.00  0.00     0.000 C 
BRANCH  18  19
ATOM     19  C   UNL     1      -8.129  19.185 -15.019  1.00  0.00     0.000 C 
BRANCH  19  20
ATOM     20  C   UNL     1      -7.437  20.004 -13.920  1.00  0.00     0.006 C 
BRANCH  20  21
ATOM     21  C   UNL     1      -5.932  20.162 -14.173  1.00  0.00     0.053 C 
BRANCH  21  22
ATOM     22  C   UNL     1      -5.115  19.516 -13.095  1.00  0.00     0.041 C 
ATOM     23  O   UNL     1      -5.034  18.262 -13.028  1.00  0.00    -0.550 OA
ATOM     24  O   UNL     1      -4.479  20.300 -12.140  1.00  0.00    -0.550 OA
ENDBRANCH  21  22
ENDBRANCH  20  21
ENDBRANCH  19  20
ENDBRANCH  18  19
ENDBRANCH  17  18
ENDBRANCH  16  17
ENDBRANCH  15  16
ENDBRANCH  14  15
ENDBRANCH  13  14
ENDBRANCH   1  13
TORSDOF 20
ENDMDL
MODEL 6
REMARK VINA RESULT:    -3.399      1.551      3.056
REMARK INTER + INTRA:         -10.170
REMARK INTER:                  -7.125
REMARK INTRA:                  -3.045
REMARK UNBOUND:                -2.796
REMARK SMILES CCCCCCCCCCCCCCCCCCCCCC(=O)[O-]
REMARK SMILES IDX 12 1 11 2 10 3 9 4 8 5 7 6 6 7 5 8 4 9 3 10 2 11 1 12 13 13
REMARK SMILES IDX 14 14 15 15 16 16 17 17 18 18 19 19 20 20 21 21 22 22 23 23
REMARK SMILES IDX 24 24
REMARK H PARENT
REMARK Flexibility Score: inf
ROOT
ATOM      1  C   UNL     1      -6.262  20.570  -9.018  1.00  0.00     0.000 C 
ENDROOT
BRANCH   1   2
ATOM      2  C   UNL     1      -6.433  19.808  -7.695  1.00  0.00     0.000 C 
BRANCH   2   3
ATOM      3  C   UNL     1      -5.202  19.931  -6.779  1.00  0.00     0.000 C 
BRANCH   3   4
ATOM      4  C   UNL     1      -4.374  18.635  -6.716  1.00  0.00    -0.000 C 
BRANCH   4   5
ATOM      5  C   UNL     1      -5.135  17.405  -6.189  1.00  0.00    -0.000 C 
BRANCH   5   6
ATOM      6  C   UNL     1      -5.248  16.280  -7.234  1.00  0.00    -0.000 C 
BRANCH   6   7
ATOM      7  C   UNL     1      -4.711  16.710  -8.609  1.00  0.00    -0.000 C 
BRANCH   7   8
ATOM      8  C   UNL     1      -5.741  16.549  -9.751  1.00  0.00    -0.000 C 
BRANCH   8   9
ATOM      9  C   UNL     1      -7.205  16.631  -9.278  1.00  0.00    -0.000 C 
BRANCH   9  10
ATOM     10  C   UNL     1      -8.145  17.408 -10.218  1.00  0.00    -0.000 C 
BRANCH  10  11
ATOM     11  C   UNL     1      -9.474  16.696 -10.533  1.00  0.00    -0.003 C 
ATOM     12  C   UNL     1     -10.051  17.086 -11.893  1.00  0.00     0.004 C 
ENDBRANCH  10  11
ENDBRANCH   9  10
ENDBRANCH   8   9
ENDBRANCH   7   8
ENDBRANCH   6   7
ENDBRANCH   5   6
ENDBRANCH   4   5
ENDBRANCH   3   4
ENDBRANCH   2   3
ENDBRANCH   1   2
BRANCH   1  13
ATOM     13  C   UNL     1      -4.875  20.358  -9.649  1.00  0.00     0.000 C 
BRANCH  13  14
ATOM     14  C   UNL     1      -4.951  20.006 -11.151  1.00  0.00     0.000 C 
BRANCH  14  15
ATOM     15  C   UNL     1      -6.348  20.203 -11.772  1.00  0.00     0.000 C 
BRANCH  15  16
ATOM     16  C   UNL     1      -6.752  19.155 -12.826  1.00  0.00     0.000 C 
BRANCH  16  17
ATOM     17  C   UNL     1      -7.755  19.649 -13.887  1.00  0.00     0.000 C 
BRANCH  17  18
ATOM     18  C   UNL     1      -8.959  20.381 -13.278  1.00  0.00     0.000 C 
BRANCH  18  19
ATOM     19  C   UNL     1      -9.890  20.910 -14.376  1.00  0.00     0.000 C 
BRANCH  19  20
ATOM     20  C   UNL     1     -11.354  20.548 -14.082  1.00  0.00     0.006 C 
BRANCH  20  21
ATOM     21  C   UNL     1     -11.697  19.117 -14.516  1.00  0.00     0.053 C 
BRANCH  21  22
ATOM     22  C   UNL     1     -13.060  18.705 -14.050  1.00  0.00     0.041 C 
ATOM     23  O   UNL     1     -13.205  17.659 -13.365  1.00  0.00    -0.550 OA
ATOM     24  O   UNL     1     -14.174  19.455 -14.408  1.00  0.00    -0.550 OA
ENDBRANCH  21  22
ENDBRANCH  20  21
ENDBRANCH  19  20
ENDBRANCH  18  19
ENDBRANCH  17  18
ENDBRANCH  16  17
ENDBRANCH  15  16
ENDBRANCH  14  15
ENDBRANCH  13  14
ENDBRANCH   1  13
TORSDOF 20
ENDMDL
MODEL 7
REMARK VINA RESULT:    -3.362      2.220      4.476
REMARK INTER + INTRA:         -10.088
REMARK INTER:                  -7.233
REMARK INTRA:                  -2.856
REMARK UNBOUND:                -2.796
REMARK SMILES CCCCCCCCCCCCCCCCCCCCCC(=O)[O-]
REMARK SMILES IDX 12 1 11 2 10 3 9 4 8 5 7 6 6 7 5 8 4 9 3 10 2 11 1 12 13 13
REMARK SMILES IDX 14 14 15 15 16 16 17 17 18 18 19 19 20 20 21 21 22 22 23 23
REMARK SMILES IDX 24 24
REMARK H PARENT
REMARK Flexibility Score: inf
ROOT
ATOM      1  C   UNL     1      -9.831  16.824 -10.933  1.00  0.00     0.000 C 
ENDROOT
BRANCH   1   2
ATOM      2  C   UNL     1      -8.625  17.687 -11.335  1.00  0.00     0.000 C 
BRANCH   2   3
ATOM      3  C   UNL     1      -7.648  17.917 -10.169  1.00  0.00     0.000 C 
BRANCH   3   4
ATOM      4  C   UNL     1      -7.511  16.686  -9.254  1.00  0.00    -0.000 C 
BRANCH   4   5
ATOM      5  C   UNL     1      -6.079  16.402  -8.762  1.00  0.00    -0.000 C 
BRANCH   5   6
ATOM      6  C   UNL     1      -5.959  16.429  -7.227  1.00  0.00    -0.000 C 
BRANCH   6   7
ATOM      7  C   UNL     1      -4.701  17.179  -6.758  1.00  0.00    -0.000 C 
BRANCH   7   8
ATOM      8  C   UNL     1      -3.960  17.913  -7.899  1.00  0.00    -0.000 C 
BRANCH   8   9
ATOM      9  C   UNL     1      -4.178  19.438  -7.897  1.00  0.00    -0.000 C 
BRANCH   9  10
ATOM     10  C   UNL     1      -4.696  20.014  -6.566  1.00  0.00    -0.000 C 
BRANCH  10  11
ATOM     11  C   UNL     1      -5.950  20.899  -6.690  1.00  0.00    -0.003 C 
ATOM     12  C   UNL     1      -6.840  20.510  -7.869  1.00  0.00     0.004 C 
ENDBRANCH  10  11
ENDBRANCH   9  10
ENDBRANCH   8   9
ENDBRANCH   7   8
ENDBRANCH   6   7
ENDBRANCH   5   6
ENDBRANCH   4   5
ENDBRANCH   3   4
ENDBRANCH   2   3
ENDBRANCH   1   2
BRANCH   1  13
ATOM     13  C   UNL     1     -11.171  17.554 -11.124  1.00  0.00     0.000 C 
BRANCH  13  14
ATOM     14  C   UNL     1     -10.995  19.064 -11.395  1.00  0.00     0.000 C 
BRANCH  14  15
ATOM     15  C   UNL     1     -11.959  19.628 -12.457  1.00  0.00     0.000 C 
BRANCH  15  16
ATOM     16  C   UNL     1     -11.317  19.958 -13.818  1.00  0.00     0.000 C 
BRANCH  16  17
ATOM     17  C   UNL     1      -9.790  19.764 -13.884  1.00  0.00     0.000 C 
BRANCH  17  18
ATOM     18  C   UNL     1      -9.012  21.079 -13.732  1.00  0.00     0.000 C 
BRANCH  18  19
ATOM     19  C   UNL     1      -7.797  20.892 -12.814  1.00  0.00     0.000 C 
BRANCH  19  20
ATOM     20  C   UNL     1      -6.728  20.015 -13.482  1.00  0.00     0.006 C 
BRANCH  20  21
ATOM     21  C   UNL     1      -5.540  19.737 -12.552  1.00  0.00     0.053 C 
BRANCH  21  22
ATOM     22  C   UNL     1      -4.891  18.421 -12.854  1.00  0.00     0.041 C 
ATOM     23  O   UNL     1      -4.663  18.087 -14.047  1.00  0.00    -0.550 OA
ATOM     24  O   UNL     1      -4.578  17.546 -11.821  1.00  0.00    -0.550 OA
ENDBRANCH  21  22
ENDBRANCH  20  21
ENDBRANCH  19  20
ENDBRANCH  18  19
ENDBRANCH  17  18
ENDBRANCH  16  17
ENDBRANCH  15  16
ENDBRANCH  14  15
ENDBRANCH  13  14
ENDBRANCH   1  13
TORSDOF 20
ENDMDL
MODEL 8
REMARK VINA RESULT:    -3.217      2.232      7.484
REMARK INTER + INTRA:          -9.774
REMARK INTER:                  -7.091
REMARK INTRA:                  -2.683
REMARK UNBOUND:                -2.796
REMARK SMILES CCCCCCCCCCCCCCCCCCCCCC(=O)[O-]
REMARK SMILES IDX 12 1 11 2 10 3 9 4 8 5 7 6 6 7 5 8 4 9 3 10 2 11 1 12 13 13
REMARK SMILES IDX 14 14 15 15 16 16 17 17 18 18 19 19 20 20 21 21 22 22 23 23
REMARK SMILES IDX 24 24
REMARK H PARENT
REMARK Flexibility Score: inf
ROOT
ATOM      1  C   UNL     1      -8.360  19.612 -10.515  1.00  0.00     0.000 C 
ENDROOT
BRANCH   1   2
ATOM      2  C   UNL     1      -7.555  19.329 -11.793  1.00  0.00     0.000 C 
BRANCH   2   3
ATOM      3  C   UNL     1      -8.443  19.257 -13.047  1.00  0.00     0.000 C 
BRANCH   3   4
ATOM      4  C   UNL     1      -9.347  20.492 -13.211  1.00  0.00    -0.000 C 
BRANCH   4   5
ATOM      5  C   UNL     1      -9.771  20.796 -14.660  1.00  0.00    -0.000 C 
BRANCH   5   6
ATOM      6  C   UNL     1     -11.295  20.722 -14.864  1.00  0.00    -0.000 C 
BRANCH   6   7
ATOM      7  C   UNL     1     -11.831  19.289 -14.710  1.00  0.00    -0.000 C 
BRANCH   7   8
ATOM      8  C   UNL     1     -12.816  19.123 -13.529  1.00  0.00    -0.000 C 
BRANCH   8   9
ATOM      9  C   UNL     1     -13.028  17.658 -13.104  1.00  0.00    -0.000 C 
BRANCH   9  10
ATOM     10  C   UNL     1     -11.758  16.936 -12.617  1.00  0.00    -0.000 C 
BRANCH  10  11
ATOM     11  C   UNL     1     -11.181  17.468 -11.292  1.00  0.00    -0.003 C 
ATOM     12  C   UNL     1     -10.116  16.550 -10.695  1.00  0.00     0.004 C 
ENDBRANCH  10  11
ENDBRANCH   9  10
ENDBRANCH   8   9
ENDBRANCH   7   8
ENDBRANCH   6   7
ENDBRANCH   5   6
ENDBRANCH   4   5
ENDBRANCH   3   4
ENDBRANCH   2   3
ENDBRANCH   1   2
BRANCH   1  13
ATOM     13  C   UNL     1      -7.746  20.737  -9.665  1.00  0.00     0.000 C 
BRANCH  13  14
ATOM     14  C   UNL     1      -6.708  20.217  -8.647  1.00  0.00     0.000 C 
BRANCH  14  15
ATOM     15  C   UNL     1      -5.245  20.491  -9.046  1.00  0.00     0.000 C 
BRANCH  15  16
ATOM     16  C   UNL     1      -4.183  19.828  -8.148  1.00  0.00     0.000 C 
BRANCH  16  17
ATOM     17  C   UNL     1      -4.543  19.762  -6.652  1.00  0.00     0.000 C 
BRANCH  17  18
ATOM     18  C   UNL     1      -4.832  18.333  -6.169  1.00  0.00     0.000 C 
BRANCH  18  19
ATOM     19  C   UNL     1      -4.314  17.299  -7.177  1.00  0.00     0.000 C 
BRANCH  19  20
ATOM     20  C   UNL     1      -5.409  16.285  -7.541  1.00  0.00     0.006 C 
BRANCH  20  21
ATOM     21  C   UNL     1      -6.021  16.560  -8.921  1.00  0.00     0.053 C 
BRANCH  21  22
ATOM     22  C   UNL     1      -5.004  16.437 -10.015  1.00  0.00     0.041 C 
ATOM     23  O   UNL     1      -4.359  15.366 -10.163  1.00  0.00    -0.550 OA
ATOM     24  O   UNL     1      -4.740  17.521 -10.844  1.00  0.00    -0.550 OA
ENDBRANCH  21  22
ENDBRANCH  20  21
ENDBRANCH  19  20
ENDBRANCH  18  19
ENDBRANCH  17  18
ENDBRANCH  16  17
ENDBRANCH  15  16
ENDBRANCH  14  15
ENDBRANCH  13  14
ENDBRANCH   1  13
TORSDOF 20
ENDMDL
MODEL 9
REMARK VINA RESULT:    -3.195      2.427      4.804
REMARK INTER + INTRA:          -9.727
REMARK INTER:                  -6.633
REMARK INTRA:                  -3.093
REMARK UNBOUND:                -2.796
REMARK SMILES CCCCCCCCCCCCCCCCCCCCCC(=O)[O-]
REMARK SMILES IDX 12 1 11 2 10 3 9 4 8 5 7 6 6 7 5 8 4 9 3 10 2 11 1 12 13 13
REMARK SMILES IDX 14 14 15 15 16 16 17 17 18 18 19 19 20 20 21 21 22 22 23 23
REMARK SMILES IDX 24 24
REMARK H PARENT
REMARK Flexibility Score: inf
ROOT
ATOM      1  C   UNL     1     -10.963  17.017 -11.053  1.00  0.00     0.000 C 
ENDROOT
BRANCH   1   2
ATOM      2  C   UNL     1      -9.474  16.908 -11.411  1.00  0.00     0.000 C 
BRANCH   2   3
ATOM      3  C   UNL     1      -8.558  17.042 -10.182  1.00  0.00     0.000 C 
BRANCH   3   4
ATOM      4  C   UNL     1      -7.516  18.165 -10.334  1.00  0.00    -0.000 C 
BRANCH   4   5
ATOM      5  C   UNL     1      -8.092  19.593 -10.298  1.00  0.00    -0.000 C 
BRANCH   5   6
ATOM      6  C   UNL     1      -7.148  20.601  -9.619  1.00  0.00    -0.000 C 
BRANCH   6   7
ATOM      7  C   UNL     1      -7.330  20.629  -8.092  1.00  0.00    -0.000 C 
BRANCH   7   8
ATOM      8  C   UNL     1      -6.046  20.266  -7.311  1.00  0.00    -0.000 C 
BRANCH   8   9
ATOM      9  C   UNL     1      -4.908  19.741  -8.206  1.00  0.00    -0.000 C 
BRANCH   9  10
ATOM     10  C   UNL     1      -4.605  18.239  -8.051  1.00  0.00    -0.000 C 
BRANCH  10  11
ATOM     11  C   UNL     1      -5.659  17.446  -7.257  1.00  0.00    -0.003 C 
ATOM     12  C   UNL     1      -5.053  16.615  -6.127  1.00  0.00     0.004 C 
ENDBRANCH  10  11
ENDBRANCH   9  10
ENDBRANCH   8   9
ENDBRANCH   7   8
ENDBRANCH   6   7
ENDBRANCH   5   6
ENDBRANCH   4   5
ENDBRANCH   3   4
ENDBRANCH   2   3
ENDBRANCH   1   2
BRANCH   1  13
ATOM     13  C   UNL     1     -11.763  17.828 -12.087  1.00  0.00     0.000 C 
BRANCH  13  14
ATOM     14  C   UNL     1     -11.349  19.315 -12.129  1.00  0.00     0.000 C 
BRANCH  14  15
ATOM     15  C   UNL     1     -10.969  19.821 -13.534  1.00  0.00     0.000 C 
BRANCH  15  16
ATOM     16  C   UNL     1      -9.550  20.407 -13.660  1.00  0.00     0.000 C 
BRANCH  16  17
ATOM     17  C   UNL     1      -8.435  19.372 -13.903  1.00  0.00     0.000 C 
BRANCH  17  18
ATOM     18  C   UNL     1      -7.277  19.926 -14.745  1.00  0.00     0.000 C 
BRANCH  18  19
ATOM     19  C   UNL     1      -5.987  19.135 -14.490  1.00  0.00     0.000 C 
BRANCH  19  20
ATOM     20  C   UNL     1      -5.574  19.213 -13.012  1.00  0.00     0.006 C 
BRANCH  20  21
ATOM     21  C   UNL     1      -4.127  18.755 -12.788  1.00  0.00     0.053 C 
BRANCH  21  22
ATOM     22  C   UNL     1      -4.046  17.286 -12.504  1.00  0.00     0.041 C 
ATOM     23  O   UNL     1      -4.093  16.866 -11.318  1.00  0.00    -0.550 OA
ATOM     24  O   UNL     1      -3.875  16.384 -13.548  1.00  0.00    -0.550 OA
ENDBRANCH  21  22
ENDBRANCH  20  21
ENDBRANCH  19  20
ENDBRANCH  18  19
ENDBRANCH  17  18
ENDBRANCH  16  17
ENDBRANCH  15  16
ENDBRANCH  14  15
ENDBRANCH  13  14
ENDBRANCH   1  13
TORSDOF 20
ENDMDL
