MODEL 1
REMARK VINA RESULT:    -3.676      0.000      0.000
REMARK INTER + INTRA:          -7.567
REMARK INTER:                  -6.254
REMARK INTRA:                  -1.313
REMARK UNBOUND:                -1.313
REMARK SMILES CCCCCCCCCCCCCC(=O)[O-]
REMARK SMILES IDX 8 1 9 2 10 3 11 4 12 5 13 6 14 7 15 8 16 9 7 10 6 11 5 12
REMARK SMILES IDX 4 13 3 14 2 15 1 16
REMARK H PARENT
REMARK Flexibility Score: inf
ROOT
ATOM      1  C   UNL     1      39.353  25.035 223.359  1.00  0.00     0.000 C 
ENDROOT
BRANCH   1   2
ATOM      2  C   UNL     1      39.726  24.193 222.125  1.00  0.00     0.000 C 
BRANCH   2   3
ATOM      3  C   UNL     1      39.361  22.709 222.291  1.00  0.00     0.000 C 
BRANCH   3   4
ATOM      4  C   UNL     1      40.512  21.771 221.903  1.00  0.00     0.000 C 
BRANCH   4   5
ATOM      5  C   UNL     1      41.048  21.021 223.132  1.00  0.00     0.006 C 
BRANCH   5   6
ATOM      6  C   UNL     1      40.041  21.005 224.290  1.00  0.00     0.053 C 
BRANCH   6   7
ATOM      7  C   UNL     1      39.422  19.653 224.471  1.00  0.00     0.041 C 
ATOM      8  O   UNL     1      40.130  18.616 224.381  1.00  0.00    -0.550 OA
ATOM      9  O   UNL     1      38.057  19.536 224.705  1.00  0.00    -0.550 OA
ENDBRANCH   6   7
ENDBRANCH   5   6
ENDBRANCH   4   5
ENDBRANCH   3   4
ENDBRANCH   2   3
ENDBRANCH   1   2
BRANCH   1  10
ATOM     10  C   UNL     1      37.983  25.718 223.219  1.00  0.00     0.000 C 
BRANCH  10  11
ATOM     11  C   UNL     1      36.852  24.909 223.878  1.00  0.00    -0.000 C 
BRANCH  11  12
ATOM     12  C   UNL     1      35.605  24.802 222.985  1.00  0.00    -0.000 C 
BRANCH  12  13
ATOM     13  C   UNL     1      35.661  23.601 222.029  1.00  0.00    -0.000 C 
BRANCH  13  14
ATOM     14  C   UNL     1      35.665  24.064 220.567  1.00  0.00    -0.000 C 
BRANCH  14  15
ATOM     15  C   UNL     1      36.800  23.397 219.782  1.00  0.00    -0.003 C 
ATOM     16  C   UNL     1      36.607  23.570 218.278  1.00  0.00     0.004 C 
ENDBRANCH  14  15
ENDBRANCH  13  14
ENDBRANCH  12  13
ENDBRANCH  11  12
ENDBRANCH  10  11
ENDBRANCH   1  10
TORSDOF 12
ENDMDL
MODEL 2
REMARK VINA RESULT:    -3.674      3.177      6.131
REMARK INTER + INTRA:          -7.564
REMARK INTER:                  -6.054
REMARK INTRA:                  -1.510
REMARK UNBOUND:                -1.313
REMARK SMILES CCCCCCCCCCCCCC(=O)[O-]
REMARK SMILES IDX 8 1 9 2 10 3 11 4 12 5 13 6 14 7 15 8 16 9 7 10 6 11 5 12
REMARK SMILES IDX 4 13 3 14 2 15 1 16
REMARK H PARENT
REMARK Flexibility Score: inf
ROOT
ATOM      1  C   UNL     1      38.791  23.127 223.997  1.00  0.00     0.000 C 
ENDROOT
BRANCH   1   2
ATOM      2  C   UNL     1      37.328  23.603 224.019  1.00  0.00     0.000 C 
BRANCH   2   3
ATOM      3  C   UNL     1      37.151  24.997 223.394  1.00  0.00     0.000 C 
BRANCH   3   4
ATOM      4  C   UNL     1      36.107  25.011 222.269  1.00  0.00     0.000 C 
BRANCH   4   5
ATOM      5  C   UNL     1      35.992  23.630 221.608  1.00  0.00     0.006 C 
BRANCH   5   6
ATOM      6  C   UNL     1      36.935  23.478 220.407  1.00  0.00     0.053 C 
BRANCH   6   7
ATOM      7  C   UNL     1      36.233  23.748 219.111  1.00  0.00     0.041 C 
ATOM      8  O   UNL     1      36.858  23.658 218.022  1.00  0.00    -0.550 OA
ATOM      9  O   UNL     1      34.898  24.134 219.108  1.00  0.00    -0.550 OA
ENDBRANCH   6   7
ENDBRANCH   5   6
ENDBRANCH   4   5
ENDBRANCH   3   4
ENDBRANCH   2   3
ENDBRANCH   1   2
BRANCH   1  10
ATOM     10  C   UNL     1      39.763  24.219 223.521  1.00  0.00     0.000 C 
BRANCH  10  11
ATOM     11  C   UNL     1      40.508  23.824 222.234  1.00  0.00    -0.000 C 
BRANCH  11  12
ATOM     12  C   UNL     1      40.127  22.419 221.739  1.00  0.00    -0.000 C 
BRANCH  12  13
ATOM     13  C   UNL     1      41.327  21.461 221.693  1.00  0.00    -0.000 C 
BRANCH  13  14
ATOM     14  C   UNL     1      41.742  21.035 223.106  1.00  0.00    -0.000 C 
BRANCH  14  15
ATOM     15  C   UNL     1      43.182  21.465 223.410  1.00  0.00    -0.003 C 
ATOM     16  C   UNL     1      43.273  22.176 224.758  1.00  0.00     0.004 C 
ENDBRANCH  14  15
ENDBRANCH  13  14
ENDBRANCH  12  13
ENDBRANCH  11  12
ENDBRANCH  10  11
ENDBRANCH   1  10
TORSDOF 12
ENDMDL
MODEL 3
REMARK VINA RESULT:    -3.664      2.269      3.002
REMARK INTER + INTRA:          -7.547
REMARK INTER:                  -6.051
REMARK INTRA:                  -1.496
REMARK UNBOUND:                -1.313
REMARK SMILES CCCCCCCCCCCCCC(=O)[O-]
REMARK SMILES IDX 8 1 9 2 10 3 11 4 12 5 13 6 14 7 15 8 16 9 7 10 6 11 5 12
REMARK SMILES IDX 4 13 3 14 2 15 1 16
REMARK H PARENT
REMARK Flexibility Score: inf
ROOT
ATOM      1  C   UNL     1      38.293  25.524 224.091  1.00  0.00     0.000 C 
ENDROOT
BRANCH   1   2
ATOM      2  C   UNL     1      37.724  24.690 225.252  1.00  0.00     0.000 C 
BRANCH   2   3
ATOM      3  C   UNL     1      38.612  23.485 225.604  1.00  0.00     0.000 C 
BRANCH   3   4
ATOM      4  C   UNL     1      38.177  22.201 224.883  1.00  0.00     0.000 C 
BRANCH   4   5
ATOM      5  C   UNL     1      39.293  21.683 223.963  1.00  0.00     0.006 C 
BRANCH   5   6
ATOM      6  C   UNL     1      39.215  22.287 222.555  1.00  0.00     0.053 C 
BRANCH   6   7
ATOM      7  C   UNL     1      40.500  22.946 222.159  1.00  0.00     0.041 C 
ATOM      8  O   UNL     1      40.515  24.164 221.842  1.00  0.00    -0.550 OA
ATOM      9  O   UNL     1      41.676  22.207 222.109  1.00  0.00    -0.550 OA
ENDBRANCH   6   7
ENDBRANCH   5   6
ENDBRANCH   4   5
ENDBRANCH   3   4
ENDBRANCH   2   3
ENDBRANCH   1   2
BRANCH   1  10
ATOM     10  C   UNL     1      37.371  25.535 222.861  1.00  0.00     0.000 C 
BRANCH  10  11
ATOM     11  C   UNL     1      36.085  24.721 223.081  1.00  0.00    -0.000 C 
BRANCH  11  12
ATOM     12  C   UNL     1      35.832  23.702 221.959  1.00  0.00    -0.000 C 
BRANCH  12  13
ATOM     13  C   UNL     1      34.461  23.883 221.290  1.00  0.00    -0.000 C 
BRANCH  13  14
ATOM     14  C   UNL     1      34.584  23.823 219.763  1.00  0.00    -0.000 C 
BRANCH  14  15
ATOM     15  C   UNL     1      35.891  24.472 219.291  1.00  0.00    -0.003 C 
ATOM     16  C   UNL     1      36.742  23.484 218.498  1.00  0.00     0.004 C 
ENDBRANCH  14  15
ENDBRANCH  13  14
ENDBRANCH  12  13
ENDBRANCH  11  12
ENDBRANCH  10  11
ENDBRANCH   1  10
TORSDOF 12
ENDMDL
MODEL 4
REMARK VINA RESULT:    -3.652      2.013      3.020
REMARK INTER + INTRA:          -7.527
REMARK INTER:                  -6.371
REMARK INTRA:                  -1.156
REMARK UNBOUND:                -1.313
REMARK SMILES CCCCCCCCCCCCCC(=O)[O-]
REMARK SMILES IDX 8 1 9 2 10 3 11 4 12 5 13 6 14 7 15 8 16 9 7 10 6 11 5 12
REMARK SMILES IDX 4 13 3 14 2 15 1 16
REMARK H PARENT
REMARK Flexibility Score: inf
ROOT
ATOM      1  C   UNL     1      38.148  23.995 222.580  1.00  0.00     0.000 C 
ENDROOT
BRANCH   1   2
ATOM      2  C   UNL     1      38.176  25.502 222.891  1.00  0.00     0.000 C 
BRANCH   2   3
ATOM      3  C   UNL     1      38.710  25.804 224.301  1.00  0.00     0.000 C 
BRANCH   3   4
ATOM      4  C   UNL     1      39.709  24.747 224.792  1.00  0.00     0.000 C 
BRANCH   4   5
ATOM      5  C   UNL     1      41.079  24.932 224.121  1.00  0.00     0.006 C 
BRANCH   5   6
ATOM      6  C   UNL     1      41.955  23.677 224.230  1.00  0.00     0.053 C 
BRANCH   6   7
ATOM      7  C   UNL     1      41.394  22.536 223.438  1.00  0.00     0.041 C 
ATOM      8  O   UNL     1      40.992  21.496 224.022  1.00  0.00    -0.550 OA
ATOM      9  O   UNL     1      41.346  22.608 222.051  1.00  0.00    -0.550 OA
ENDBRANCH   6   7
ENDBRANCH   5   6
ENDBRANCH   4   5
ENDBRANCH   3   4
ENDBRANCH   2   3
ENDBRANCH   1   2
BRANCH   1  10
ATOM     10  C   UNL     1      36.890  23.301 223.126  1.00  0.00     0.000 C 
BRANCH  10  11
ATOM     11  C   UNL     1      35.947  22.824 222.008  1.00  0.00    -0.000 C 
BRANCH  11  12
ATOM     12  C   UNL     1      34.879  23.870 221.650  1.00  0.00    -0.000 C 
BRANCH  12  13
ATOM     13  C   UNL     1      34.573  23.914 220.145  1.00  0.00    -0.000 C 
BRANCH  13  14
ATOM     14  C   UNL     1      35.722  24.571 219.371  1.00  0.00    -0.000 C 
BRANCH  14  15
ATOM     15  C   UNL     1      36.287  23.618 218.311  1.00  0.00    -0.003 C 
ATOM     16  C   UNL     1      37.650  23.074 218.729  1.00  0.00     0.004 C 
ENDBRANCH  14  15
ENDBRANCH  13  14
ENDBRANCH  12  13
ENDBRANCH  11  12
ENDBRANCH  10  11
ENDBRANCH   1  10
TORSDOF 12
ENDMDL
MODEL 5
REMARK VINA RESULT:    -3.607      3.087      5.595
REMARK INTER + INTRA:          -7.450
REMARK INTER:                  -5.505
REMARK INTRA:                  -1.945
REMARK UNBOUND:                -1.313
REMARK SMILES CCCCCCCCCCCCCC(=O)[O-]
REMARK SMILES IDX 8 1 9 2 10 3 11 4 12 5 13 6 14 7 15 8 16 9 7 10 6 11 5 12
REMARK SMILES IDX 4 13 3 14 2 15 1 16
REMARK H PARENT
REMARK Flexibility Score: inf
ROOT
ATOM      1  C   UNL     1      41.693  23.120 224.010  1.00  0.00     0.000 C 
ENDROOT
BRANCH   1   2
ATOM      2  C   UNL     1      40.400  23.858 223.619  1.00  0.00     0.000 C 
BRANCH   2   3
ATOM      3  C   UNL     1      40.240  24.001 222.096  1.00  0.00     0.000 C 
BRANCH   3   4
ATOM      4  C   UNL     1      39.047  23.204 221.551  1.00  0.00     0.000 C 
BRANCH   4   5
ATOM      5  C   UNL     1      38.036  22.897 222.666  1.00  0.00     0.006 C 
BRANCH   5   6
ATOM      6  C   UNL     1      36.589  22.892 222.155  1.00  0.00     0.053 C 
BRANCH   6   7
ATOM      7  C   UNL     1      36.179  24.235 221.631  1.00  0.00     0.041 C 
ATOM      8  O   UNL     1      35.818  24.363 220.431  1.00  0.00    -0.550 OA
ATOM      9  O   UNL     1      36.228  25.350 222.458  1.00  0.00    -0.550 OA
ENDBRANCH   6   7
ENDBRANCH   5   6
ENDBRANCH   4   5
ENDBRANCH   3   4
ENDBRANCH   2   3
ENDBRANCH   1   2
BRANCH   1  10
ATOM     10  C   UNL     1      41.535  22.286 225.291  1.00  0.00     0.000 C 
BRANCH  10  11
ATOM     11  C   UNL     1      40.147  21.632 225.401  1.00  0.00    -0.000 C 
BRANCH  11  12
ATOM     12  C   UNL     1      40.032  20.347 224.564  1.00  0.00    -0.000 C 
BRANCH  12  13
ATOM     13  C   UNL     1      41.284  19.462 224.661  1.00  0.00    -0.000 C 
BRANCH  13  14
ATOM     14  C   UNL     1      41.928  19.272 223.282  1.00  0.00    -0.000 C 
BRANCH  14  15
ATOM     15  C   UNL     1      41.009  19.792 222.169  1.00  0.00    -0.003 C 
ATOM     16  C   UNL     1      41.781  20.651 221.172  1.00  0.00     0.004 C 
ENDBRANCH  14  15
ENDBRANCH  13  14
ENDBRANCH  12  13
ENDBRANCH  11  12
ENDBRANCH  10  11
ENDBRANCH   1  10
TORSDOF 12
ENDMDL
MODEL 6
REMARK VINA RESULT:    -3.537      3.091      6.030
REMARK INTER + INTRA:          -7.332
REMARK INTER:                  -5.427
REMARK INTRA:                  -1.904
REMARK UNBOUND:                -1.313
REMARK SMILES CCCCCCCCCCCCCC(=O)[O-]
REMARK SMILES IDX 8 1 9 2 10 3 11 4 12 5 13 6 14 7 15 8 16 9 7 10 6 11 5 12
REMARK SMILES IDX 4 13 3 14 2 15 1 16
REMARK H PARENT
REMARK Flexibility Score: inf
ROOT
ATOM      1  C   UNL     1      42.207  22.465 223.294  1.00  0.00     0.000 C 
ENDROOT
BRANCH   1   2
ATOM      2  C   UNL     1      40.972  23.329 222.982  1.00  0.00     0.000 C 
BRANCH   2   3
ATOM      3  C   UNL     1      40.185  22.817 221.766  1.00  0.00     0.000 C 
BRANCH   3   4
ATOM      4  C   UNL     1      38.771  23.408 221.686  1.00  0.00     0.000 C 
BRANCH   4   5
ATOM      5  C   UNL     1      37.925  22.976 222.893  1.00  0.00     0.006 C 
BRANCH   5   6
ATOM      6  C   UNL     1      36.499  22.577 222.492  1.00  0.00     0.053 C 
BRANCH   6   7
ATOM      7  C   UNL     1      35.654  23.774 222.178  1.00  0.00     0.041 C 
ATOM      8  O   UNL     1      35.248  23.971 221.003  1.00  0.00    -0.550 OA
ATOM      9  O   UNL     1      35.343  24.689 223.177  1.00  0.00    -0.550 OA
ENDBRANCH   6   7
ENDBRANCH   5   6
ENDBRANCH   4   5
ENDBRANCH   3   4
ENDBRANCH   2   3
ENDBRANCH   1   2
BRANCH   1  10
ATOM     10  C   UNL     1      42.445  21.369 222.242  1.00  0.00     0.000 C 
BRANCH  10  11
ATOM     11  C   UNL     1      43.015  20.078 222.854  1.00  0.00    -0.000 C 
BRANCH  11  12
ATOM     12  C   UNL     1      42.017  19.378 223.791  1.00  0.00    -0.000 C 
BRANCH  12  13
ATOM     13  C   UNL     1      40.624  19.222 223.165  1.00  0.00    -0.000 C 
BRANCH  13  14
ATOM     14  C   UNL     1      39.549  19.861 224.053  1.00  0.00    -0.000 C 
BRANCH  14  15
ATOM     15  C   UNL     1      40.100  20.163 225.452  1.00  0.00    -0.003 C 
ATOM     16  C   UNL     1      39.673  21.550 225.925  1.00  0.00     0.004 C 
ENDBRANCH  14  15
ENDBRANCH  13  14
ENDBRANCH  12  13
ENDBRANCH  11  12
ENDBRANCH  10  11
ENDBRANCH   1  10
TORSDOF 12
ENDMDL
MODEL 7
REMARK VINA RESULT:    -3.525      2.826      5.195
REMARK INTER + INTRA:          -7.311
REMARK INTER:                  -5.442
REMARK INTRA:                  -1.868
REMARK UNBOUND:                -1.313
REMARK SMILES CCCCCCCCCCCCCC(=O)[O-]
REMARK SMILES IDX 8 1 9 2 10 3 11 4 12 5 13 6 14 7 15 8 16 9 7 10 6 11 5 12
REMARK SMILES IDX 4 13 3 14 2 15 1 16
REMARK H PARENT
REMARK Flexibility Score: inf
ROOT
ATOM      1  C   UNL     1      40.794  21.661 223.070  1.00  0.00     0.000 C 
ENDROOT
BRANCH   1   2
ATOM      2  C   UNL     1      41.073  22.865 222.153  1.00  0.00     0.000 C 
BRANCH   2   3
ATOM      3  C   UNL     1      39.853  23.789 222.004  1.00  0.00     0.000 C 
BRANCH   3   4
ATOM      4  C   UNL     1      38.815  23.241 221.015  1.00  0.00     0.000 C 
BRANCH   4   5
ATOM      5  C   UNL     1      37.423  23.172 221.662  1.00  0.00     0.006 C 
BRANCH   5   6
ATOM      6  C   UNL     1      36.417  24.111 220.982  1.00  0.00     0.053 C 
BRANCH   6   7
ATOM      7  C   UNL     1      35.113  24.155 221.717  1.00  0.00     0.041 C 
ATOM      8  O   UNL     1      35.083  24.467 222.936  1.00  0.00    -0.550 OA
ATOM      9  O   UNL     1      33.933  23.818 221.064  1.00  0.00    -0.550 OA
ENDBRANCH   6   7
ENDBRANCH   5   6
ENDBRANCH   4   5
ENDBRANCH   3   4
ENDBRANCH   2   3
ENDBRANCH   1   2
BRANCH   1  10
ATOM     10  C   UNL     1      40.464  22.078 224.512  1.00  0.00     0.000 C 
BRANCH  10  11
ATOM     11  C   UNL     1      39.089  21.565 224.974  1.00  0.00    -0.000 C 
BRANCH  11  12
ATOM     12  C   UNL     1      38.046  22.688 225.086  1.00  0.00    -0.000 C 
BRANCH  12  13
ATOM     13  C   UNL     1      38.654  24.017 225.560  1.00  0.00    -0.000 C 
BRANCH  13  14
ATOM     14  C   UNL     1      37.900  25.210 224.959  1.00  0.00    -0.000 C 
BRANCH  14  15
ATOM     15  C   UNL     1      38.873  26.218 224.336  1.00  0.00    -0.003 C 
ATOM     16  C   UNL     1      40.283  26.041 224.892  1.00  0.00     0.004 C 
ENDBRANCH  14  15
ENDBRANCH  13  14
ENDBRANCH  12  13
ENDBRANCH  11  12
ENDBRANCH  10  11
ENDBRANCH   1  10
TORSDOF 12
ENDMDL
MODEL 8
REMARK VINA RESULT:    -3.480      2.744      5.658
REMARK INTER + INTRA:          -7.235
REMARK INTER:                  -6.016
REMARK INTRA:                  -1.219
REMARK UNBOUND:                -1.313
REMARK SMILES CCCCCCCCCCCCCC(=O)[O-]
REMARK SMILES IDX 8 1 9 2 10 3 11 4 12 5 13 6 14 7 15 8 16 9 7 10 6 11 5 12
REMARK SMILES IDX 4 13 3 14 2 15 1 16
REMARK H PARENT
REMARK Flexibility Score: inf
ROOT
ATOM      1  C   UNL     1      39.020  24.295 225.220  1.00  0.00     0.000 C 
ENDROOT
BRANCH   1   2
ATOM      2  C   UNL     1      37.631  23.794 224.788  1.00  0.00     0.000 C 
BRANCH   2   3
ATOM      3  C   UNL     1      36.614  24.937 224.634  1.00  0.00     0.000 C 
BRANCH   3   4
ATOM      4  C   UNL     1      36.078  25.061 223.202  1.00  0.00     0.000 C 
BRANCH   4   5
ATOM      5  C   UNL     1      36.101  23.702 222.486  1.00  0.00     0.006 C 
BRANCH   5   6
ATOM      6  C   UNL     1      35.209  23.686 221.238  1.00  0.00     0.053 C 
BRANCH   6   7
ATOM      7  C   UNL     1      36.008  23.839 219.980  1.00  0.00     0.041 C 
ATOM      8  O   UNL     1      35.509  24.417 218.979  1.00  0.00    -0.550 OA
ATOM      9  O   UNL     1      37.293  23.314 219.902  1.00  0.00    -0.550 OA
ENDBRANCH   6   7
ENDBRANCH   5   6
ENDBRANCH   4   5
ENDBRANCH   3   4
ENDBRANCH   2   3
ENDBRANCH   1   2
BRANCH   1  10
ATOM     10  C   UNL     1      39.668  25.221 224.177  1.00  0.00     0.000 C 
BRANCH  10  11
ATOM     11  C   UNL     1      40.698  24.490 223.299  1.00  0.00    -0.000 C 
BRANCH  11  12
ATOM     12  C   UNL     1      40.056  23.806 222.081  1.00  0.00    -0.000 C 
BRANCH  12  13
ATOM     13  C   UNL     1      40.359  22.301 222.016  1.00  0.00    -0.000 C 
BRANCH  13  14
ATOM     14  C   UNL     1      41.791  22.011 222.483  1.00  0.00    -0.000 C 
BRANCH  14  15
ATOM     15  C   UNL     1      41.973  20.524 222.810  1.00  0.00    -0.003 C 
ATOM     16  C   UNL     1      41.066  19.654 221.943  1.00  0.00     0.004 C 
ENDBRANCH  14  15
ENDBRANCH  13  14
ENDBRANCH  12  13
ENDBRANCH  11  12
ENDBRANCH  10  11
ENDBRANCH   1  10
TORSDOF 12
ENDMDL
MODEL 9
REMARK VINA RESULT:    -3.458      3.229      5.535
REMARK INTER + INTRA:          -7.197
REMARK INTER:                  -5.649
REMARK INTRA:                  -1.547
REMARK UNBOUND:                -1.313
REMARK SMILES CCCCCCCCCCCCCC(=O)[O-]
REMARK SMILES IDX 8 1 9 2 10 3 11 4 12 5 13 6 14 7 15 8 16 9 7 10 6 11 5 12
REMARK SMILES IDX 4 13 3 14 2 15 1 16
REMARK H PARENT
REMARK Flexibility Score: inf
ROOT
ATOM      1  C   UNL     1      41.895  24.089 224.799  1.00  0.00     0.000 C 
ENDROOT
BRANCH   1   2
ATOM      2  C   UNL     1      42.244  22.835 223.979  1.00  0.00     0.000 C 
BRANCH   2   3
ATOM      3  C   UNL     1      41.411  22.721 222.692  1.00  0.00     0.000 C 
BRANCH   3   4
ATOM      4  C   UNL     1      40.566  23.974 222.423  1.00  0.00     0.000 C 
BRANCH   4   5
ATOM      5  C   UNL     1      39.291  23.620 221.643  1.00  0.00     0.006 C 
BRANCH   5   6
ATOM      6  C   UNL     1      38.235  22.944 222.527  1.00  0.00     0.053 C 
BRANCH   6   7
ATOM      7  C   UNL     1      36.849  23.398 222.185  1.00  0.00     0.041 C 
ATOM      8  O   UNL     1      36.082  23.823 223.088  1.00  0.00    -0.550 OA
ATOM      9  O   UNL     1      36.394  23.320 220.874  1.00  0.00    -0.550 OA
ENDBRANCH   6   7
ENDBRANCH   5   6
ENDBRANCH   4   5
ENDBRANCH   3   4
ENDBRANCH   2   3
ENDBRANCH   1   2
BRANCH   1  10
ATOM     10  C   UNL     1      43.130  24.941 225.135  1.00  0.00     0.000 C 
BRANCH  10  11
ATOM     11  C   UNL     1      42.945  26.421 224.757  1.00  0.00    -0.000 C 
BRANCH  11  12
ATOM     12  C   UNL     1      42.110  27.194 225.790  1.00  0.00    -0.000 C 
BRANCH  12  13
ATOM     13  C   UNL     1      41.120  28.174 225.141  1.00  0.00    -0.000 C 
BRANCH  13  14
ATOM     14  C   UNL     1      39.672  27.760 225.428  1.00  0.00    -0.000 C 
BRANCH  14  15
ATOM     15  C   UNL     1      39.214  26.656 224.466  1.00  0.00    -0.003 C 
ATOM     16  C   UNL     1      38.524  25.521 225.218  1.00  0.00     0.004 C 
ENDBRANCH  14  15
ENDBRANCH  13  14
ENDBRANCH  12  13
ENDBRANCH  11  12
ENDBRANCH  10  11
ENDBRANCH   1  10
TORSDOF 12
ENDMDL
