MODEL 1
REMARK VINA RESULT:    -6.438      0.000      0.000
REMARK INTER + INTRA:          -8.109
REMARK INTER:                  -7.755
REMARK INTRA:                  -0.354
REMARK UNBOUND:                -0.354
REMARK SMILES Oc1cc(O)c2cc(O)c(-c3ccc(O)c(O)c3)[o+]c2c1
REMARK SMILES IDX 10 1 19 2 20 3 21 4 2 5 3 6 4 7 6 8 7 9 8 10 11 11 12 12
REMARK SMILES IDX 13 13 14 14 18 15 16 16 15 17 17 19 9 21 1 23 5 25
REMARK H PARENT 15 18 17 20 9 22 1 24 5 26
REMARK Flexibility Score: inf
ROOT
ATOM      1  C   UNL     1      -6.252  53.276  31.353  1.00  0.00     0.402 A 
ATOM      2  O   UNL     1      -6.135  54.110  32.384  1.00  0.00    -0.202 OA
ATOM      3  C   UNL     1      -7.094  54.954  32.752  1.00  0.00     0.368 A 
ATOM      4  C   UNL     1      -6.877  55.792  33.848  1.00  0.00     0.162 A 
ATOM      5  C   UNL     1      -7.863  56.690  34.256  1.00  0.00     0.128 A 
ATOM      6  C   UNL     1      -9.078  56.753  33.563  1.00  0.00     0.093 A 
ATOM      7  C   UNL     1      -9.320  55.922  32.462  1.00  0.00     0.136 A 
ATOM      8  C   UNL     1      -8.320  55.006  32.046  1.00  0.00     0.125 A 
ATOM      9  C   UNL     1      -8.481  54.128  30.962  1.00  0.00     0.078 A 
ATOM     10  C   UNL     1      -7.450  53.248  30.614  1.00  0.00     0.223 A 
ENDROOT
BRANCH   1  11
ATOM     11  C   UNL     1      -5.109  52.391  31.035  1.00  0.00     0.087 A 
ATOM     12  C   UNL     1      -4.146  52.753  30.077  1.00  0.00     0.022 A 
ATOM     13  C   UNL     1      -3.063  51.912  29.810  1.00  0.00     0.051 A 
ATOM     14  C   UNL     1      -2.918  50.704  30.505  1.00  0.00     0.157 A 
ATOM     15  C   UNL     1      -4.949  51.189  31.742  1.00  0.00     0.068 A 
ATOM     16  C   UNL     1      -3.866  50.344  31.478  1.00  0.00     0.158 A 
BRANCH  14  17
ATOM     17  O   UNL     1      -1.838  49.865  30.235  1.00  0.00    -0.504 OA
ATOM     18  H   UNL     1      -1.969  48.946  29.827  1.00  0.00     0.293 HD
ENDBRANCH  14  17
BRANCH  16  19
ATOM     19  O   UNL     1      -3.747  49.151  32.193  1.00  0.00    -0.504 OA
ATOM     20  H   UNL     1      -3.028  48.468  31.984  1.00  0.00     0.293 HD
ENDBRANCH  16  19
ENDBRANCH   1  11
BRANCH  10  21
ATOM     21  O   UNL     1      -7.628  52.341  29.569  1.00  0.00    -0.500 OA
ATOM     22  H   UNL     1      -7.139  51.454  29.544  1.00  0.00     0.294 HD
ENDBRANCH  10  21
BRANCH   5  23
ATOM     23  O   UNL     1      -7.627  57.518  35.352  1.00  0.00    -0.507 OA
ATOM     24  H   UNL     1      -8.200  57.468  36.187  1.00  0.00     0.293 HD
ENDBRANCH   5  23
BRANCH   7  25
ATOM     25  O   UNL     1     -10.556  56.048  31.821  1.00  0.00    -0.507 OA
ATOM     26  H   UNL     1     -11.062  56.916  31.722  1.00  0.00     0.293 HD
ENDBRANCH   7  25
TORSDOF 6
ENDMDL
MODEL 2
REMARK VINA RESULT:    -6.279      1.131      2.676
REMARK INTER + INTRA:          -7.917
REMARK INTER:                  -7.584
REMARK INTRA:                  -0.333
REMARK UNBOUND:                -0.354
REMARK SMILES Oc1cc(O)c2cc(O)c(-c3ccc(O)c(O)c3)[o+]c2c1
REMARK SMILES IDX 10 1 19 2 20 3 21 4 2 5 3 6 4 7 6 8 7 9 8 10 11 11 12 12
REMARK SMILES IDX 13 13 14 14 18 15 16 16 15 17 17 19 9 21 1 23 5 25
REMARK H PARENT 15 18 17 20 9 22 1 24 5 26
REMARK Flexibility Score: inf
ROOT
ATOM      1  C   UNL     1      -5.636  53.221  31.741  1.00  0.00     0.402 A 
ATOM      2  O   UNL     1      -6.788  53.327  31.083  1.00  0.00    -0.202 OA
ATOM      3  C   UNL     1      -7.752  54.172  31.432  1.00  0.00     0.368 A 
ATOM      4  C   UNL     1      -8.929  54.209  30.679  1.00  0.00     0.162 A 
ATOM      5  C   UNL     1      -9.959  55.084  31.022  1.00  0.00     0.128 A 
ATOM      6  C   UNL     1      -9.815  55.930  32.128  1.00  0.00     0.093 A 
ATOM      7  C   UNL     1      -8.645  55.912  32.898  1.00  0.00     0.136 A 
ATOM      8  C   UNL     1      -7.594  55.026  32.551  1.00  0.00     0.125 A 
ATOM      9  C   UNL     1      -6.383  54.949  33.256  1.00  0.00     0.078 A 
ATOM     10  C   UNL     1      -5.390  54.052  32.849  1.00  0.00     0.223 A 
ENDROOT
BRANCH   1  11
ATOM     11  C   UNL     1      -4.644  52.233  31.260  1.00  0.00     0.087 A 
ATOM     12  C   UNL     1      -3.756  52.536  30.213  1.00  0.00     0.022 A 
ATOM     13  C   UNL     1      -2.813  51.595  29.791  1.00  0.00     0.051 A 
ATOM     14  C   UNL     1      -2.733  50.345  30.417  1.00  0.00     0.157 A 
ATOM     15  C   UNL     1      -4.546  50.985  31.897  1.00  0.00     0.068 A 
ATOM     16  C   UNL     1      -3.603  50.041  31.478  1.00  0.00     0.158 A 
BRANCH  14  17
ATOM     17  O   UNL     1      -1.792  49.407  29.993  1.00  0.00    -0.504 OA
ATOM     18  H   UNL     1      -2.062  48.593  29.453  1.00  0.00     0.293 HD
ENDBRANCH  14  17
BRANCH  16  19
ATOM     19  O   UNL     1      -3.544  48.807  32.127  1.00  0.00    -0.504 OA
ATOM     20  H   UNL     1      -4.349  48.196  32.193  1.00  0.00     0.293 HD
ENDBRANCH  16  19
ENDBRANCH   1  11
BRANCH  10  21
ATOM     21  O   UNL     1      -4.167  54.011  33.520  1.00  0.00    -0.500 OA
ATOM     22  H   UNL     1      -4.085  53.629  34.455  1.00  0.00     0.294 HD
ENDBRANCH  10  21
BRANCH   5  23
ATOM     23  O   UNL     1     -11.125  55.105  30.260  1.00  0.00    -0.507 OA
ATOM     24  H   UNL     1     -11.995  54.721  30.610  1.00  0.00     0.293 HD
ENDBRANCH   5  23
BRANCH   7  25
ATOM     25  O   UNL     1      -8.580  56.785  33.989  1.00  0.00    -0.507 OA
ATOM     26  H   UNL     1      -8.349  57.765  33.922  1.00  0.00     0.293 HD
ENDBRANCH   7  25
TORSDOF 6
ENDMDL
MODEL 3
REMARK VINA RESULT:    -6.267      1.280      6.988
REMARK INTER + INTRA:          -7.904
REMARK INTER:                  -7.550
REMARK INTRA:                  -0.353
REMARK UNBOUND:                -0.354
REMARK SMILES Oc1cc(O)c2cc(O)c(-c3ccc(O)c(O)c3)[o+]c2c1
REMARK SMILES IDX 10 1 19 2 20 3 21 4 2 5 3 6 4 7 6 8 7 9 8 10 11 11 12 12
REMARK SMILES IDX 13 13 14 14 18 15 16 16 15 17 17 19 9 21 1 23 5 25
REMARK H PARENT 15 18 17 20 9 22 1 24 5 26
REMARK Flexibility Score: inf
ROOT
ATOM      1  C   UNL     1      -5.952  53.619  31.694  1.00  0.00     0.402 A 
ATOM      2  O   UNL     1      -5.823  52.453  32.323  1.00  0.00    -0.202 OA
ATOM      3  C   UNL     1      -4.916  51.541  31.989  1.00  0.00     0.368 A 
ATOM      4  C   UNL     1      -4.859  50.344  32.708  1.00  0.00     0.162 A 
ATOM      5  C   UNL     1      -3.920  49.367  32.379  1.00  0.00     0.128 A 
ATOM      6  C   UNL     1      -3.029  49.585  31.321  1.00  0.00     0.093 A 
ATOM      7  C   UNL     1      -3.065  50.777  30.586  1.00  0.00     0.136 A 
ATOM      8  C   UNL     1      -4.018  51.774  30.919  1.00  0.00     0.125 A 
ATOM      9  C   UNL     1      -4.118  53.002  30.246  1.00  0.00     0.078 A 
ATOM     10  C   UNL     1      -5.081  53.939  30.637  1.00  0.00     0.223 A 
ENDROOT
BRANCH   1  11
ATOM     11  C   UNL     1      -7.009  54.548  32.153  1.00  0.00     0.087 A 
ATOM     12  C   UNL     1      -8.276  54.576  31.544  1.00  0.00     0.022 A 
ATOM     13  C   UNL     1      -9.266  55.446  32.010  1.00  0.00     0.051 A 
ATOM     14  C   UNL     1      -9.009  56.291  33.098  1.00  0.00     0.157 A 
ATOM     15  C   UNL     1      -6.764  55.383  33.256  1.00  0.00     0.068 A 
ATOM     16  C   UNL     1      -7.752  56.255  33.725  1.00  0.00     0.158 A 
BRANCH  14  17
ATOM     17  O   UNL     1      -9.997  57.160  33.559  1.00  0.00    -0.504 OA
ATOM     18  H   UNL     1     -10.801  57.399  32.989  1.00  0.00     0.293 HD
ENDBRANCH  14  17
BRANCH  16  19
ATOM     19  O   UNL     1      -7.468  57.078  34.815  1.00  0.00    -0.504 OA
ATOM     20  H   UNL     1      -6.590  57.022  35.317  1.00  0.00     0.293 HD
ENDBRANCH  16  19
ENDBRANCH   1  11
BRANCH  10  21
ATOM     21  O   UNL     1      -5.148  55.178  30.000  1.00  0.00    -0.500 OA
ATOM     22  H   UNL     1      -4.873  55.296  29.032  1.00  0.00     0.294 HD
ENDBRANCH  10  21
BRANCH   5  23
ATOM     23  O   UNL     1      -3.879  48.180  33.107  1.00  0.00    -0.507 OA
ATOM     24  H   UNL     1      -3.058  47.912  33.638  1.00  0.00     0.293 HD
ENDBRANCH   5  23
BRANCH   7  25
ATOM     25  O   UNL     1      -2.145  50.917  29.542  1.00  0.00    -0.507 OA
ATOM     26  H   UNL     1      -2.345  50.714  28.574  1.00  0.00     0.293 HD
ENDBRANCH   7  25
TORSDOF 6
ENDMDL
MODEL 4
REMARK VINA RESULT:    -6.087      3.476      5.140
REMARK INTER + INTRA:          -7.686
REMARK INTER:                  -7.359
REMARK INTRA:                  -0.327
REMARK UNBOUND:                -0.354
REMARK SMILES Oc1cc(O)c2cc(O)c(-c3ccc(O)c(O)c3)[o+]c2c1
REMARK SMILES IDX 10 1 19 2 20 3 21 4 2 5 3 6 4 7 6 8 7 9 8 10 11 11 12 12
REMARK SMILES IDX 13 13 14 14 18 15 16 16 15 17 17 19 9 21 1 23 5 25
REMARK H PARENT 15 18 17 20 9 22 1 24 5 26
REMARK Flexibility Score: inf
ROOT
ATOM      1  C   UNL     1      -6.601  52.564  29.017  1.00  0.00     0.402 A 
ATOM      2  O   UNL     1      -5.498  53.304  29.092  1.00  0.00    -0.202 OA
ATOM      3  C   UNL     1      -5.168  54.014  30.167  1.00  0.00     0.368 A 
ATOM      4  C   UNL     1      -3.988  54.763  30.150  1.00  0.00     0.162 A 
ATOM      5  C   UNL     1      -3.617  55.519  31.261  1.00  0.00     0.128 A 
ATOM      6  C   UNL     1      -4.431  55.530  32.400  1.00  0.00     0.093 A 
ATOM      7  C   UNL     1      -5.618  54.787  32.442  1.00  0.00     0.136 A 
ATOM      8  C   UNL     1      -5.997  54.014  31.315  1.00  0.00     0.125 A 
ATOM      9  C   UNL     1      -7.161  53.230  31.272  1.00  0.00     0.078 A 
ATOM     10  C   UNL     1      -7.466  52.490  30.124  1.00  0.00     0.223 A 
ENDROOT
BRANCH   1  11
ATOM     11  C   UNL     1      -6.864  51.826  27.761  1.00  0.00     0.087 A 
ATOM     12  C   UNL     1      -6.256  50.586  27.498  1.00  0.00     0.022 A 
ATOM     13  C   UNL     1      -6.537  49.897  26.315  1.00  0.00     0.051 A 
ATOM     14  C   UNL     1      -7.439  50.430  25.384  1.00  0.00     0.157 A 
ATOM     15  C   UNL     1      -7.782  52.346  26.833  1.00  0.00     0.068 A 
ATOM     16  C   UNL     1      -8.066  51.659  25.648  1.00  0.00     0.158 A 
BRANCH  14  17
ATOM     17  O   UNL     1      -7.716  49.742  24.203  1.00  0.00    -0.504 OA
ATOM     18  H   UNL     1      -8.590  49.247  24.070  1.00  0.00     0.293 HD
ENDBRANCH  14  17
BRANCH  16  19
ATOM     19  O   UNL     1      -8.974  52.213  24.745  1.00  0.00    -0.504 OA
ATOM     20  H   UNL     1      -9.603  51.640  24.195  1.00  0.00     0.293 HD
ENDBRANCH  16  19
ENDBRANCH   1  11
BRANCH  10  21
ATOM     21  O   UNL     1      -8.596  51.673  30.100  1.00  0.00    -0.500 OA
ATOM     22  H   UNL     1      -9.237  51.625  30.884  1.00  0.00     0.294 HD
ENDBRANCH  10  21
BRANCH   5  23
ATOM     23  O   UNL     1      -2.438  56.259  31.225  1.00  0.00    -0.507 OA
ATOM     24  H   UNL     1      -1.554  55.836  30.967  1.00  0.00     0.293 HD
ENDBRANCH   5  23
BRANCH   7  25
ATOM     25  O   UNL     1      -6.377  54.853  33.614  1.00  0.00    -0.507 OA
ATOM     26  H   UNL     1      -7.366  55.055  33.643  1.00  0.00     0.293 HD
ENDBRANCH   7  25
TORSDOF 6
ENDMDL
MODEL 5
REMARK VINA RESULT:    -5.922      2.005      7.165
REMARK INTER + INTRA:          -7.488
REMARK INTER:                  -7.258
REMARK INTRA:                  -0.230
REMARK UNBOUND:                -0.354
REMARK SMILES Oc1cc(O)c2cc(O)c(-c3ccc(O)c(O)c3)[o+]c2c1
REMARK SMILES IDX 10 1 19 2 20 3 21 4 2 5 3 6 4 7 6 8 7 9 8 10 11 11 12 12
REMARK SMILES IDX 13 13 14 14 18 15 16 16 15 17 17 19 9 21 1 23 5 25
REMARK H PARENT 15 18 17 20 9 22 1 24 5 26
REMARK Flexibility Score: inf
ROOT
ATOM      1  C   UNL     1      -7.740  55.780  33.842  1.00  0.00     0.402 A 
ATOM      2  O   UNL     1      -6.640  55.113  33.501  1.00  0.00    -0.202 OA
ATOM      3  C   UNL     1      -6.538  54.395  32.387  1.00  0.00     0.368 A 
ATOM      4  C   UNL     1      -5.342  53.727  32.116  1.00  0.00     0.162 A 
ATOM      5  C   UNL     1      -5.206  52.964  30.956  1.00  0.00     0.128 A 
ATOM      6  C   UNL     1      -6.275  52.867  30.058  1.00  0.00     0.093 A 
ATOM      7  C   UNL     1      -7.484  53.528  30.306  1.00  0.00     0.136 A 
ATOM      8  C   UNL     1      -7.625  54.306  31.483  1.00  0.00     0.125 A 
ATOM      9  C   UNL     1      -8.795  55.013  31.807  1.00  0.00     0.078 A 
ATOM     10  C   UNL     1      -8.856  55.764  32.986  1.00  0.00     0.223 A 
ENDROOT
BRANCH   1  11
ATOM     11  C   UNL     1      -7.734  56.535  35.115  1.00  0.00     0.087 A 
ATOM     12  C   UNL     1      -7.692  55.877  36.357  1.00  0.00     0.022 A 
ATOM     13  C   UNL     1      -7.664  56.611  37.546  1.00  0.00     0.051 A 
ATOM     14  C   UNL     1      -7.664  58.012  37.512  1.00  0.00     0.157 A 
ATOM     15  C   UNL     1      -7.714  57.939  35.087  1.00  0.00     0.068 A 
ATOM     16  C   UNL     1      -7.686  58.677  36.275  1.00  0.00     0.158 A 
BRANCH  14  17
ATOM     17  O   UNL     1      -7.639  58.742  38.699  1.00  0.00    -0.504 OA
ATOM     18  H   UNL     1      -6.887  59.388  38.909  1.00  0.00     0.293 HD
ENDBRANCH  14  17
BRANCH  16  19
ATOM     19  O   UNL     1      -7.679  60.071  36.206  1.00  0.00    -0.504 OA
ATOM     20  H   UNL     1      -6.850  60.616  36.410  1.00  0.00     0.293 HD
ENDBRANCH  16  19
ENDBRANCH   1  11
BRANCH  10  21
ATOM     21  O   UNL     1     -10.000  56.506  33.282  1.00  0.00    -0.500 OA
ATOM     22  H   UNL     1     -10.861  56.390  32.760  1.00  0.00     0.294 HD
ENDBRANCH  10  21
BRANCH   5  23
ATOM     23  O   UNL     1      -4.005  52.305  30.704  1.00  0.00    -0.507 OA
ATOM     24  H   UNL     1      -3.867  51.336  30.968  1.00  0.00     0.293 HD
ENDBRANCH   5  23
BRANCH   7  25
ATOM     25  O   UNL     1      -8.505  53.378  29.362  1.00  0.00    -0.507 OA
ATOM     26  H   UNL     1      -8.760  52.501  28.932  1.00  0.00     0.293 HD
ENDBRANCH   7  25
TORSDOF 6
ENDMDL
MODEL 6
REMARK VINA RESULT:    -5.914      3.513      4.802
REMARK INTER + INTRA:          -7.478
REMARK INTER:                  -7.126
REMARK INTRA:                  -0.351
REMARK UNBOUND:                -0.354
REMARK SMILES Oc1cc(O)c2cc(O)c(-c3ccc(O)c(O)c3)[o+]c2c1
REMARK SMILES IDX 10 1 19 2 20 3 21 4 2 5 3 6 4 7 6 8 7 9 8 10 11 11 12 12
REMARK SMILES IDX 13 13 14 14 18 15 16 16 15 17 17 19 9 21 1 23 5 25
REMARK H PARENT 15 18 17 20 9 22 1 24 5 26
REMARK Flexibility Score: inf
ROOT
ATOM      1  C   UNL     1      -6.591  52.559  29.003  1.00  0.00     0.402 A 
ATOM      2  O   UNL     1      -5.488  53.298  29.086  1.00  0.00    -0.202 OA
ATOM      3  C   UNL     1      -5.168  54.013  30.160  1.00  0.00     0.368 A 
ATOM      4  C   UNL     1      -3.988  54.761  30.152  1.00  0.00     0.162 A 
ATOM      5  C   UNL     1      -3.627  55.523  31.263  1.00  0.00     0.128 A 
ATOM      6  C   UNL     1      -4.454  55.541  32.393  1.00  0.00     0.093 A 
ATOM      7  C   UNL     1      -5.641  54.799  32.426  1.00  0.00     0.136 A 
ATOM      8  C   UNL     1      -6.010  54.021  31.299  1.00  0.00     0.125 A 
ATOM      9  C   UNL     1      -7.174  53.238  31.248  1.00  0.00     0.078 A 
ATOM     10  C   UNL     1      -7.468  52.492  30.101  1.00  0.00     0.223 A 
ENDROOT
BRANCH   1  11
ATOM     11  C   UNL     1      -6.842  51.815  27.748  1.00  0.00     0.087 A 
ATOM     12  C   UNL     1      -7.633  52.358  26.720  1.00  0.00     0.022 A 
ATOM     13  C   UNL     1      -7.837  51.647  25.534  1.00  0.00     0.051 A 
ATOM     14  C   UNL     1      -7.244  50.390  25.353  1.00  0.00     0.157 A 
ATOM     15  C   UNL     1      -6.235  50.564  27.553  1.00  0.00     0.068 A 
ATOM     16  C   UNL     1      -6.436  49.849  26.367  1.00  0.00     0.158 A 
BRANCH  14  17
ATOM     17  O   UNL     1      -7.452  49.681  24.170  1.00  0.00    -0.504 OA
ATOM     18  H   UNL     1      -6.971  48.809  23.983  1.00  0.00     0.293 HD
ENDBRANCH  14  17
BRANCH  16  19
ATOM     19  O   UNL     1      -5.826  48.604  26.215  1.00  0.00    -0.504 OA
ATOM     20  H   UNL     1      -5.889  48.076  25.352  1.00  0.00     0.293 HD
ENDBRANCH  16  19
ENDBRANCH   1  11
BRANCH  10  21
ATOM     21  O   UNL     1      -8.599  51.676  30.070  1.00  0.00    -0.500 OA
ATOM     22  H   UNL     1      -9.102  51.429  30.914  1.00  0.00     0.294 HD
ENDBRANCH  10  21
BRANCH   5  23
ATOM     23  O   UNL     1      -2.447  56.262  31.236  1.00  0.00    -0.507 OA
ATOM     24  H   UNL     1      -2.398  57.166  30.782  1.00  0.00     0.293 HD
ENDBRANCH   5  23
BRANCH   7  25
ATOM     25  O   UNL     1      -6.413  54.872  33.590  1.00  0.00    -0.507 OA
ATOM     26  H   UNL     1      -7.421  54.927  33.604  1.00  0.00     0.293 HD
ENDBRANCH   7  25
TORSDOF 6
ENDMDL
MODEL 7
REMARK VINA RESULT:    -5.900      3.158      6.952
REMARK INTER + INTRA:          -7.461
REMARK INTER:                  -7.505
REMARK INTRA:                   0.044
REMARK UNBOUND:                -0.354
REMARK SMILES Oc1cc(O)c2cc(O)c(-c3ccc(O)c(O)c3)[o+]c2c1
REMARK SMILES IDX 10 1 19 2 20 3 21 4 2 5 3 6 4 7 6 8 7 9 8 10 11 11 12 12
REMARK SMILES IDX 13 13 14 14 18 15 16 16 15 17 17 19 9 21 1 23 5 25
REMARK H PARENT 15 18 17 20 9 22 1 24 5 26
REMARK Flexibility Score: inf
ROOT
ATOM      1  C   UNL     1      -8.532  53.288  30.020  1.00  0.00     0.402 A 
ATOM      2  O   UNL     1      -7.530  53.110  29.162  1.00  0.00    -0.202 OA
ATOM      3  C   UNL     1      -7.667  52.477  28.002  1.00  0.00     0.368 A 
ATOM      4  C   UNL     1      -6.554  52.337  27.168  1.00  0.00     0.162 A 
ATOM      5  C   UNL     1      -6.666  51.675  25.946  1.00  0.00     0.128 A 
ATOM      6  C   UNL     1      -7.901  51.146  25.551  1.00  0.00     0.093 A 
ATOM      7  C   UNL     1      -9.031  51.273  26.368  1.00  0.00     0.136 A 
ATOM      8  C   UNL     1      -8.921  51.948  27.611  1.00  0.00     0.125 A 
ATOM      9  C   UNL     1     -10.002  52.134  28.487  1.00  0.00     0.078 A 
ATOM     10  C   UNL     1      -9.817  52.816  29.695  1.00  0.00     0.223 A 
ENDROOT
BRANCH   1  11
ATOM     11  C   UNL     1      -8.251  54.001  31.286  1.00  0.00     0.087 A 
ATOM     12  C   UNL     1      -7.125  53.691  32.067  1.00  0.00     0.022 A 
ATOM     13  C   UNL     1      -6.867  54.393  33.248  1.00  0.00     0.051 A 
ATOM     14  C   UNL     1      -7.723  55.424  33.658  1.00  0.00     0.157 A 
ATOM     15  C   UNL     1      -9.095  55.048  31.691  1.00  0.00     0.068 A 
ATOM     16  C   UNL     1      -8.841  55.754  32.872  1.00  0.00     0.158 A 
BRANCH  14  17
ATOM     17  O   UNL     1      -7.466  56.122  34.837  1.00  0.00    -0.504 OA
ATOM     18  H   UNL     1      -7.261  55.639  35.705  1.00  0.00     0.293 HD
ENDBRANCH  14  17
BRANCH  16  19
ATOM     19  O   UNL     1      -9.708  56.779  33.249  1.00  0.00    -0.504 OA
ATOM     20  H   UNL     1     -10.484  57.069  32.666  1.00  0.00     0.293 HD
ENDBRANCH  16  19
ENDBRANCH   1  11
BRANCH  10  21
ATOM     21  O   UNL     1     -10.901  53.043  30.542  1.00  0.00    -0.500 OA
ATOM     22  H   UNL     1     -10.774  53.302  31.514  1.00  0.00     0.294 HD
ENDBRANCH  10  21
BRANCH   5  23
ATOM     23  O   UNL     1      -5.545  51.546  25.129  1.00  0.00    -0.507 OA
ATOM     24  H   UNL     1      -4.613  51.458  25.518  1.00  0.00     0.293 HD
ENDBRANCH   5  23
BRANCH   7  25
ATOM     25  O   UNL     1     -10.226  50.714  25.905  1.00  0.00    -0.507 OA
ATOM     26  H   UNL     1     -10.740  49.990  26.384  1.00  0.00     0.293 HD
ENDBRANCH   7  25
TORSDOF 6
ENDMDL
MODEL 8
REMARK VINA RESULT:    -5.824      3.052      4.908
REMARK INTER + INTRA:          -7.370
REMARK INTER:                  -7.017
REMARK INTRA:                  -0.353
REMARK UNBOUND:                -0.354
REMARK SMILES Oc1cc(O)c2cc(O)c(-c3ccc(O)c(O)c3)[o+]c2c1
REMARK SMILES IDX 10 1 19 2 20 3 21 4 2 5 3 6 4 7 6 8 7 9 8 10 11 11 12 12
REMARK SMILES IDX 13 13 14 14 18 15 16 16 15 17 17 19 9 21 1 23 5 25
REMARK H PARENT 15 18 17 20 9 22 1 24 5 26
REMARK Flexibility Score: inf
ROOT
ATOM      1  C   UNL     1      -7.185  52.785  29.379  1.00  0.00     0.402 A 
ATOM      2  O   UNL     1      -8.042  53.403  30.189  1.00  0.00    -0.202 OA
ATOM      3  C   UNL     1      -7.660  54.188  31.192  1.00  0.00     0.368 A 
ATOM      4  C   UNL     1      -8.635  54.791  31.991  1.00  0.00     0.162 A 
ATOM      5  C   UNL     1      -8.265  55.617  33.051  1.00  0.00     0.128 A 
ATOM      6  C   UNL     1      -6.910  55.843  33.320  1.00  0.00     0.093 A 
ATOM      7  C   UNL     1      -5.914  55.250  32.534  1.00  0.00     0.136 A 
ATOM      8  C   UNL     1      -6.286  54.411  31.452  1.00  0.00     0.125 A 
ATOM      9  C   UNL     1      -5.358  53.786  30.604  1.00  0.00     0.078 A 
ATOM     10  C   UNL     1      -5.802  52.976  29.554  1.00  0.00     0.223 A 
ENDROOT
BRANCH   1  11
ATOM     11  C   UNL     1      -7.733  51.929  28.304  1.00  0.00     0.087 A 
ATOM     12  C   UNL     1      -7.973  50.558  28.508  1.00  0.00     0.022 A 
ATOM     13  C   UNL     1      -8.512  49.774  27.485  1.00  0.00     0.051 A 
ATOM     14  C   UNL     1      -8.833  50.348  26.248  1.00  0.00     0.157 A 
ATOM     15  C   UNL     1      -8.074  52.503  27.068  1.00  0.00     0.068 A 
ATOM     16  C   UNL     1      -8.615  51.721  26.041  1.00  0.00     0.158 A 
BRANCH  14  17
ATOM     17  O   UNL     1      -9.368  49.563  25.228  1.00  0.00    -0.504 OA
ATOM     18  H   UNL     1      -8.789  49.196  24.482  1.00  0.00     0.293 HD
ENDBRANCH  14  17
BRANCH  16  19
ATOM     19  O   UNL     1      -8.929  52.324  24.824  1.00  0.00    -0.504 OA
ATOM     20  H   UNL     1      -8.667  53.280  24.614  1.00  0.00     0.293 HD
ENDBRANCH  16  19
ENDBRANCH   1  11
BRANCH  10  21
ATOM     21  O   UNL     1      -4.881  52.395  28.682  1.00  0.00    -0.500 OA
ATOM     22  H   UNL     1      -4.403  51.530  28.909  1.00  0.00     0.294 HD
ENDBRANCH  10  21
BRANCH   5  23
ATOM     23  O   UNL     1      -9.252  56.210  33.837  1.00  0.00    -0.507 OA
ATOM     24  H   UNL     1      -9.171  56.252  34.846  1.00  0.00     0.293 HD
ENDBRANCH   5  23
BRANCH   7  25
ATOM     25  O   UNL     1      -4.584  55.521  32.868  1.00  0.00    -0.507 OA
ATOM     26  H   UNL     1      -4.163  56.438  32.835  1.00  0.00     0.293 HD
ENDBRANCH   7  25
TORSDOF 6
ENDMDL
MODEL 9
REMARK VINA RESULT:    -5.730      3.329      7.731
REMARK INTER + INTRA:          -7.256
REMARK INTER:                  -6.912
REMARK INTRA:                  -0.344
REMARK UNBOUND:                -0.354
REMARK SMILES Oc1cc(O)c2cc(O)c(-c3ccc(O)c(O)c3)[o+]c2c1
REMARK SMILES IDX 10 1 19 2 20 3 21 4 2 5 3 6 4 7 6 8 7 9 8 10 11 11 12 12
REMARK SMILES IDX 13 13 14 14 18 15 16 16 15 17 17 19 9 21 1 23 5 25
REMARK H PARENT 15 18 17 20 9 22 1 24 5 26
REMARK Flexibility Score: inf
ROOT
ATOM      1  C   UNL     1      -5.142  52.174  28.642  1.00  0.00     0.402 A 
ATOM      2  O   UNL     1      -4.201  51.243  28.775  1.00  0.00    -0.202 OA
ATOM      3  C   UNL     1      -3.944  50.328  27.845  1.00  0.00     0.368 A 
ATOM      4  C   UNL     1      -2.937  49.388  28.077  1.00  0.00     0.162 A 
ATOM      5  C   UNL     1      -2.646  48.415  27.122  1.00  0.00     0.128 A 
ATOM      6  C   UNL     1      -3.369  48.377  25.923  1.00  0.00     0.093 A 
ATOM      7  C   UNL     1      -4.383  49.309  25.666  1.00  0.00     0.136 A 
ATOM      8  C   UNL     1      -4.679  50.302  26.635  1.00  0.00     0.125 A 
ATOM      9  C   UNL     1      -5.669  51.282  26.458  1.00  0.00     0.078 A 
ATOM     10  C   UNL     1      -5.900  52.233  27.458  1.00  0.00     0.223 A 
ENDROOT
BRANCH   1  11
ATOM     11  C   UNL     1      -5.340  53.131  29.753  1.00  0.00     0.087 A 
ATOM     12  C   UNL     1      -6.365  52.954  30.700  1.00  0.00     0.022 A 
ATOM     13  C   UNL     1      -6.519  53.859  31.754  1.00  0.00     0.051 A 
ATOM     14  C   UNL     1      -5.644  54.946  31.885  1.00  0.00     0.157 A 
ATOM     15  C   UNL     1      -4.455  54.212  29.901  1.00  0.00     0.068 A 
ATOM     16  C   UNL     1      -4.606  55.119  30.955  1.00  0.00     0.158 A 
BRANCH  14  17
ATOM     17  O   UNL     1      -5.801  55.848  32.936  1.00  0.00    -0.504 OA
ATOM     18  H   UNL     1      -6.158  55.555  33.839  1.00  0.00     0.293 HD
ENDBRANCH  14  17
BRANCH  16  19
ATOM     19  O   UNL     1      -3.714  56.187  31.062  1.00  0.00    -0.504 OA
ATOM     20  H   UNL     1      -3.821  56.909  31.765  1.00  0.00     0.293 HD
ENDBRANCH  16  19
ENDBRANCH   1  11
BRANCH  10  21
ATOM     21  O   UNL     1      -6.848  53.237  27.261  1.00  0.00    -0.500 OA
ATOM     22  H   UNL     1      -7.021  53.951  27.959  1.00  0.00     0.294 HD
ENDBRANCH  10  21
BRANCH   5  23
ATOM     23  O   UNL     1      -1.638  47.486  27.371  1.00  0.00    -0.507 OA
ATOM     24  H   UNL     1      -1.850  46.515  27.571  1.00  0.00     0.293 HD
ENDBRANCH   5  23
BRANCH   7  25
ATOM     25  O   UNL     1      -5.060  49.203  24.448  1.00  0.00    -0.507 OA
ATOM     26  H   UNL     1      -5.680  48.445  24.204  1.00  0.00     0.293 HD
ENDBRANCH   7  25
TORSDOF 6
ENDMDL
