MODEL 1
REMARK VINA RESULT:    -6.808      0.000      0.000
REMARK INTER + INTRA:          -8.524
REMARK INTER:                  -8.201
REMARK INTRA:                  -0.323
REMARK UNBOUND:                -0.323
REMARK SMILES O=c1c(O)c(-c2ccc(O)c(O)c2)oc2cc(O)cc(O)c12
REMARK SMILES IDX 5 1 3 2 2 3 1 4 22 5 20 6 19 7 17 8 16 9 15 10 14 11 6 12
REMARK SMILES IDX 7 13 8 14 9 15 13 16 11 17 10 18 12 20 4 22 21 24 18 26
REMARK H PARENT 10 19 12 21 4 23 21 25 18 27
REMARK Flexibility Score: inf
ROOT
ATOM      1  C   UNL     1     129.612 131.768 113.873  1.00  0.00     0.180 A 
ATOM      2  C   UNL     1     130.394 130.673 113.470  1.00  0.00     0.208 A 
ATOM      3  C   UNL     1     130.244 130.172 112.166  1.00  0.00     0.238 A 
ATOM      4  O   UNL     1     130.986 129.226 111.794  1.00  0.00    -0.285 OA
ATOM      5  C   UNL     1     129.303 130.762 111.289  1.00  0.00     0.111 A 
ATOM      6  C   UNL     1     129.039 130.309 109.961  1.00  0.00     0.134 A 
ATOM      7  C   UNL     1     128.181 131.050 109.137  1.00  0.00     0.093 A 
ATOM      8  C   UNL     1     127.527 132.185 109.613  1.00  0.00     0.123 A 
ATOM      9  C   UNL     1     127.732 132.602 110.930  1.00  0.00     0.094 A 
ATOM     10  C   UNL     1     128.610 131.906 111.764  1.00  0.00     0.146 A 
ATOM     11  O   UNL     1     128.785 132.341 113.006  1.00  0.00    -0.452 OA
ENDROOT
BRANCH   1  12
ATOM     12  C   UNL     1     129.694 132.337 115.238  1.00  0.00     0.025 A 
ATOM     13  C   UNL     1     130.631 133.336 115.558  1.00  0.00     0.016 A 
ATOM     14  C   UNL     1     130.707 133.841 116.859  1.00  0.00     0.051 A 
ATOM     15  C   UNL     1     129.859 133.348 117.859  1.00  0.00     0.157 A 
ATOM     16  C   UNL     1     128.862 131.832 116.250  1.00  0.00     0.062 A 
ATOM     17  C   UNL     1     128.938 132.339 117.554  1.00  0.00     0.158 A 
BRANCH  15  18
ATOM     18  O   UNL     1     129.931 133.851 119.157  1.00  0.00    -0.504 OA
ATOM     19  H   UNL     1     130.655 134.504 119.432  1.00  0.00     0.293 HD
ENDBRANCH  15  18
BRANCH  17  20
ATOM     20  O   UNL     1     128.101 131.845 118.554  1.00  0.00    -0.504 OA
ATOM     21  H   UNL     1     128.425 131.729 119.507  1.00  0.00     0.293 HD
ENDBRANCH  17  20
ENDBRANCH   1  12
BRANCH   2  22
ATOM     22  O   UNL     1     131.333 130.119 114.345  1.00  0.00    -0.502 OA
ATOM     23  H   UNL     1     131.491 130.487 115.275  1.00  0.00     0.293 HD
ENDBRANCH   2  22
BRANCH   6  24
ATOM     24  O   UNL     1     129.568 129.136 109.416  1.00  0.00    -0.507 OA
ATOM     25  H   UNL     1     130.442 128.715 109.695  1.00  0.00     0.293 HD
ENDBRANCH   6  24
BRANCH   8  26
ATOM     26  O   UNL     1     126.669 132.888 108.772  1.00  0.00    -0.508 OA
ATOM     27  H   UNL     1     127.019 133.554 108.093  1.00  0.00     0.293 HD
ENDBRANCH   8  26
TORSDOF 6
ENDMDL
MODEL 2
REMARK VINA RESULT:    -6.499      2.670      4.202
REMARK INTER + INTRA:          -8.152
REMARK INTER:                  -7.931
REMARK INTRA:                  -0.221
REMARK UNBOUND:                -0.323
REMARK SMILES O=c1c(O)c(-c2ccc(O)c(O)c2)oc2cc(O)cc(O)c12
REMARK SMILES IDX 5 1 3 2 2 3 1 4 22 5 20 6 19 7 17 8 16 9 15 10 14 11 6 12
REMARK SMILES IDX 7 13 8 14 9 15 13 16 11 17 10 18 12 20 4 22 21 24 18 26
REMARK H PARENT 10 19 12 21 4 23 21 25 18 27
REMARK Flexibility Score: inf
ROOT
ATOM      1  C   UNL     1     129.747 131.756 116.215  1.00  0.00     0.180 A 
ATOM      2  C   UNL     1     129.788 132.460 114.999  1.00  0.00     0.208 A 
ATOM      3  C   UNL     1     130.226 131.795 113.841  1.00  0.00     0.238 A 
ATOM      4  O   UNL     1     130.208 132.414 112.746  1.00  0.00    -0.285 OA
ATOM      5  C   UNL     1     130.633 130.442 113.918  1.00  0.00     0.111 A 
ATOM      6  C   UNL     1     131.134 129.683 112.817  1.00  0.00     0.134 A 
ATOM      7  C   UNL     1     131.384 128.314 112.980  1.00  0.00     0.093 A 
ATOM      8  C   UNL     1     131.216 127.692 114.216  1.00  0.00     0.123 A 
ATOM      9  C   UNL     1     130.784 128.439 115.314  1.00  0.00     0.094 A 
ATOM     10  C   UNL     1     130.492 129.798 115.175  1.00  0.00     0.146 A 
ATOM     11  O   UNL     1     130.074 130.469 116.241  1.00  0.00    -0.452 OA
ENDROOT
BRANCH   1  12
ATOM     12  C   UNL     1     129.322 132.394 117.481  1.00  0.00     0.025 A 
ATOM     13  C   UNL     1     130.095 133.399 118.090  1.00  0.00     0.016 A 
ATOM     14  C   UNL     1     129.685 133.970 119.298  1.00  0.00     0.051 A 
ATOM     15  C   UNL     1     128.507 133.539 119.920  1.00  0.00     0.157 A 
ATOM     16  C   UNL     1     128.151 131.952 118.120  1.00  0.00     0.062 A 
ATOM     17  C   UNL     1     127.740 132.525 119.331  1.00  0.00     0.158 A 
BRANCH  15  18
ATOM     18  O   UNL     1     128.095 134.107 121.123  1.00  0.00    -0.504 OA
ATOM     19  H   UNL     1     127.119 134.307 121.309  1.00  0.00     0.293 HD
ENDBRANCH  15  18
BRANCH  17  20
ATOM     20  O   UNL     1     126.572 132.094 119.956  1.00  0.00    -0.504 OA
ATOM     21  H   UNL     1     126.564 131.815 120.931  1.00  0.00     0.293 HD
ENDBRANCH  17  20
ENDBRANCH   1  12
BRANCH   2  22
ATOM     22  O   UNL     1     129.360 133.789 114.941  1.00  0.00    -0.502 OA
ATOM     23  H   UNL     1     128.696 134.117 114.250  1.00  0.00     0.293 HD
ENDBRANCH   2  22
BRANCH   6  24
ATOM     24  O   UNL     1     131.425 130.226 111.562  1.00  0.00    -0.507 OA
ATOM     25  H   UNL     1     132.091 130.965 111.396  1.00  0.00     0.293 HD
ENDBRANCH   6  24
BRANCH   8  26
ATOM     26  O   UNL     1     131.489 126.333 114.345  1.00  0.00    -0.508 OA
ATOM     27  H   UNL     1     131.199 125.809 115.162  1.00  0.00     0.293 HD
ENDBRANCH   8  26
TORSDOF 6
ENDMDL
MODEL 3
REMARK VINA RESULT:    -6.415      1.306      1.613
REMARK INTER + INTRA:          -8.051
REMARK INTER:                  -7.830
REMARK INTRA:                  -0.221
REMARK UNBOUND:                -0.323
REMARK SMILES O=c1c(O)c(-c2ccc(O)c(O)c2)oc2cc(O)cc(O)c12
REMARK SMILES IDX 5 1 3 2 2 3 1 4 22 5 20 6 19 7 17 8 16 9 15 10 14 11 6 12
REMARK SMILES IDX 7 13 8 14 9 15 13 16 11 17 10 18 12 20 4 22 21 24 18 26
REMARK H PARENT 10 19 12 21 4 23 21 25 18 27
REMARK Flexibility Score: inf
ROOT
ATOM      1  C   UNL     1     130.002 131.213 115.097  1.00  0.00     0.180 A 
ATOM      2  C   UNL     1     130.765 130.040 114.970  1.00  0.00     0.208 A 
ATOM      3  C   UNL     1     130.878 129.434 113.707  1.00  0.00     0.238 A 
ATOM      4  O   UNL     1     131.607 128.415 113.590  1.00  0.00    -0.285 OA
ATOM      5  C   UNL     1     130.214 130.000 112.593  1.00  0.00     0.111 A 
ATOM      6  C   UNL     1     130.227 129.447 111.277  1.00  0.00     0.134 A 
ATOM      7  C   UNL     1     129.643 130.162 110.222  1.00  0.00     0.093 A 
ATOM      8  C   UNL     1     128.992 131.374 110.447  1.00  0.00     0.123 A 
ATOM      9  C   UNL     1     128.922 131.894 111.741  1.00  0.00     0.094 A 
ATOM     10  C   UNL     1     129.526 131.222 112.806  1.00  0.00     0.146 A 
ATOM     11  O   UNL     1     129.446 131.756 114.020  1.00  0.00    -0.452 OA
ENDROOT
BRANCH   1  12
ATOM     12  C   UNL     1     129.815 131.896 116.397  1.00  0.00     0.025 A 
ATOM     13  C   UNL     1     130.450 133.119 116.679  1.00  0.00     0.016 A 
ATOM     14  C   UNL     1     130.277 133.734 117.923  1.00  0.00     0.051 A 
ATOM     15  C   UNL     1     129.481 133.131 118.904  1.00  0.00     0.157 A 
ATOM     16  C   UNL     1     129.034 131.286 117.393  1.00  0.00     0.062 A 
ATOM     17  C   UNL     1     128.861 131.903 118.640  1.00  0.00     0.158 A 
BRANCH  15  18
ATOM     18  O   UNL     1     129.305 133.741 120.144  1.00  0.00    -0.504 OA
ATOM     19  H   UNL     1     129.161 133.198 120.987  1.00  0.00     0.293 HD
ENDBRANCH  15  18
BRANCH  17  20
ATOM     20  O   UNL     1     128.074 131.302 119.621  1.00  0.00    -0.504 OA
ATOM     21  H   UNL     1     128.352 131.303 120.596  1.00  0.00     0.293 HD
ENDBRANCH  17  20
ENDBRANCH   1  12
BRANCH   2  22
ATOM     22  O   UNL     1     131.430 129.510 116.079  1.00  0.00    -0.502 OA
ATOM     23  H   UNL     1     131.182 129.757 117.030  1.00  0.00     0.293 HD
ENDBRANCH   2  22
BRANCH   6  24
ATOM     24  O   UNL     1     130.770 128.199 110.958  1.00  0.00    -0.507 OA
ATOM     25  H   UNL     1     131.475 128.042 110.253  1.00  0.00     0.293 HD
ENDBRANCH   6  24
BRANCH   8  26
ATOM     26  O   UNL     1     128.409 132.050 109.378  1.00  0.00    -0.508 OA
ATOM     27  H   UNL     1     127.448 131.882 109.105  1.00  0.00     0.293 HD
ENDBRANCH   8  26
TORSDOF 6
ENDMDL
MODEL 4
REMARK VINA RESULT:    -6.375      2.010      3.769
REMARK INTER + INTRA:          -8.002
REMARK INTER:                  -7.715
REMARK INTRA:                  -0.287
REMARK UNBOUND:                -0.323
REMARK SMILES O=c1c(O)c(-c2ccc(O)c(O)c2)oc2cc(O)cc(O)c12
REMARK SMILES IDX 5 1 3 2 2 3 1 4 22 5 20 6 19 7 17 8 16 9 15 10 14 11 6 12
REMARK SMILES IDX 7 13 8 14 9 15 13 16 11 17 10 18 12 20 4 22 21 24 18 26
REMARK H PARENT 10 19 12 21 4 23 21 25 18 27
REMARK Flexibility Score: inf
ROOT
ATOM      1  C   UNL     1     129.108 131.267 111.738  1.00  0.00     0.180 A 
ATOM      2  C   UNL     1     128.110 131.749 110.874  1.00  0.00     0.208 A 
ATOM      3  C   UNL     1     127.744 130.977 109.758  1.00  0.00     0.238 A 
ATOM      4  O   UNL     1     126.812 131.388 109.019  1.00  0.00    -0.285 OA
ATOM      5  C   UNL     1     128.392 129.742 109.514  1.00  0.00     0.111 A 
ATOM      6  C   UNL     1     128.129 128.899 108.392  1.00  0.00     0.134 A 
ATOM      7  C   UNL     1     128.736 127.638 108.321  1.00  0.00     0.093 A 
ATOM      8  C   UNL     1     129.643 127.218 109.292  1.00  0.00     0.123 A 
ATOM      9  C   UNL     1     129.952 128.061 110.361  1.00  0.00     0.094 A 
ATOM     10  C   UNL     1     129.336 129.309 110.480  1.00  0.00     0.146 A 
ATOM     11  O   UNL     1     129.650 130.075 111.517  1.00  0.00    -0.452 OA
ENDROOT
BRANCH   1  12
ATOM     12  C   UNL     1     129.566 132.034 112.919  1.00  0.00     0.025 A 
ATOM     13  C   UNL     1     130.779 132.746 112.904  1.00  0.00     0.016 A 
ATOM     14  C   UNL     1     131.203 133.443 114.039  1.00  0.00     0.051 A 
ATOM     15  C   UNL     1     130.429 133.429 115.206  1.00  0.00     0.157 A 
ATOM     16  C   UNL     1     128.805 132.008 114.099  1.00  0.00     0.062 A 
ATOM     17  C   UNL     1     129.229 132.707 115.237  1.00  0.00     0.158 A 
BRANCH  15  18
ATOM     18  O   UNL     1     130.847 134.125 116.338  1.00  0.00    -0.504 OA
ATOM     19  H   UNL     1     131.778 134.521 116.404  1.00  0.00     0.293 HD
ENDBRANCH  15  18
BRANCH  17  20
ATOM     20  O   UNL     1     128.465 132.690 116.403  1.00  0.00    -0.504 OA
ATOM     21  H   UNL     1     127.537 132.284 116.422  1.00  0.00     0.293 HD
ENDBRANCH  17  20
ENDBRANCH   1  12
BRANCH   2  22
ATOM     22  O   UNL     1     127.469 132.960 111.146  1.00  0.00    -0.502 OA
ATOM     23  H   UNL     1     127.118 133.567 110.414  1.00  0.00     0.293 HD
ENDBRANCH   2  22
BRANCH   6  24
ATOM     24  O   UNL     1     127.309 129.259 107.319  1.00  0.00    -0.507 OA
ATOM     25  H   UNL     1     126.363 129.598 107.407  1.00  0.00     0.293 HD
ENDBRANCH   6  24
BRANCH   8  26
ATOM     26  O   UNL     1     130.239 125.965 109.180  1.00  0.00    -0.508 OA
ATOM     27  H   UNL     1     130.349 125.508 108.282  1.00  0.00     0.293 HD
ENDBRANCH   8  26
TORSDOF 6
ENDMDL
MODEL 5
REMARK VINA RESULT:    -5.956      1.796      7.198
REMARK INTER + INTRA:          -7.498
REMARK INTER:                  -7.274
REMARK INTRA:                  -0.224
REMARK UNBOUND:                -0.323
REMARK SMILES O=c1c(O)c(-c2ccc(O)c(O)c2)oc2cc(O)cc(O)c12
REMARK SMILES IDX 5 1 3 2 2 3 1 4 22 5 20 6 19 7 17 8 16 9 15 10 14 11 6 12
REMARK SMILES IDX 7 13 8 14 9 15 13 16 11 17 10 18 12 20 4 22 21 24 18 26
REMARK H PARENT 10 19 12 21 4 23 21 25 18 27
REMARK Flexibility Score: inf
ROOT
ATOM      1  C   UNL     1     130.101 131.220 114.618  1.00  0.00     0.180 A 
ATOM      2  C   UNL     1     130.670 132.471 114.914  1.00  0.00     0.208 A 
ATOM      3  C   UNL     1     130.459 133.031 116.185  1.00  0.00     0.238 A 
ATOM      4  O   UNL     1     131.016 134.125 116.461  1.00  0.00    -0.285 OA
ATOM      5  C   UNL     1     129.670 132.342 117.137  1.00  0.00     0.111 A 
ATOM      6  C   UNL     1     129.358 132.835 118.439  1.00  0.00     0.134 A 
ATOM      7  C   UNL     1     128.678 132.010 119.345  1.00  0.00     0.093 A 
ATOM      8  C   UNL     1     128.241 130.740 118.974  1.00  0.00     0.123 A 
ATOM      9  C   UNL     1     128.489 130.271 117.682  1.00  0.00     0.094 A 
ATOM     10  C   UNL     1     129.197 131.055 116.769  1.00  0.00     0.146 A 
ATOM     11  O   UNL     1     129.421 130.569 115.554  1.00  0.00    -0.452 OA
ENDROOT
BRANCH   1  12
ATOM     12  C   UNL     1     130.256 130.576 113.293  1.00  0.00     0.025 A 
ATOM     13  C   UNL     1     131.085 129.453 113.119  1.00  0.00     0.016 A 
ATOM     14  C   UNL     1     131.235 128.876 111.855  1.00  0.00     0.051 A 
ATOM     15  C   UNL     1     130.571 129.419 110.748  1.00  0.00     0.157 A 
ATOM     16  C   UNL     1     129.609 131.128 112.175  1.00  0.00     0.062 A 
ATOM     17  C   UNL     1     129.759 130.549 110.908  1.00  0.00     0.158 A 
BRANCH  15  18
ATOM     18  O   UNL     1     130.717 128.845 109.486  1.00  0.00    -0.504 OA
ATOM     19  H   UNL     1     130.248 129.225 108.673  1.00  0.00     0.293 HD
ENDBRANCH  15  18
BRANCH  17  20
ATOM     20  O   UNL     1     129.106 131.090 109.802  1.00  0.00    -0.504 OA
ATOM     21  H   UNL     1     128.344 130.602 109.346  1.00  0.00     0.293 HD
ENDBRANCH  17  20
ENDBRANCH   1  12
BRANCH   2  22
ATOM     22  O   UNL     1     131.463 133.124 113.967  1.00  0.00    -0.502 OA
ATOM     23  H   UNL     1     132.469 133.009 113.928  1.00  0.00     0.293 HD
ENDBRANCH   2  22
BRANCH   6  24
ATOM     24  O   UNL     1     129.668 134.125 118.881  1.00  0.00    -0.507 OA
ATOM     25  H   UNL     1     129.403 134.974 118.405  1.00  0.00     0.293 HD
ENDBRANCH   6  24
BRANCH   8  26
ATOM     26  O   UNL     1     127.554 129.953 119.895  1.00  0.00    -0.508 OA
ATOM     27  H   UNL     1     127.661 130.090 120.893  1.00  0.00     0.293 HD
ENDBRANCH   8  26
TORSDOF 6
ENDMDL
MODEL 6
REMARK VINA RESULT:    -5.925      2.098      3.806
REMARK INTER + INTRA:          -7.460
REMARK INTER:                  -7.182
REMARK INTRA:                  -0.279
REMARK UNBOUND:                -0.323
REMARK SMILES O=c1c(O)c(-c2ccc(O)c(O)c2)oc2cc(O)cc(O)c12
REMARK SMILES IDX 5 1 3 2 2 3 1 4 22 5 20 6 19 7 17 8 16 9 15 10 14 11 6 12
REMARK SMILES IDX 7 13 8 14 9 15 13 16 11 17 10 18 12 20 4 22 21 24 18 26
REMARK H PARENT 10 19 12 21 4 23 21 25 18 27
REMARK Flexibility Score: inf
ROOT
ATOM      1  C   UNL     1     129.464 132.072 115.839  1.00  0.00     0.180 A 
ATOM      2  C   UNL     1     128.751 132.567 114.734  1.00  0.00     0.208 A 
ATOM      3  C   UNL     1     129.002 132.024 113.463  1.00  0.00     0.238 A 
ATOM      4  O   UNL     1     128.321 132.434 112.487  1.00  0.00    -0.285 OA
ATOM      5  C   UNL     1     129.972 131.005 113.311  1.00  0.00     0.111 A 
ATOM      6  C   UNL     1     130.335 130.413 112.064  1.00  0.00     0.134 A 
ATOM      7  C   UNL     1     131.214 129.321 112.049  1.00  0.00     0.093 A 
ATOM      8  C   UNL     1     131.792 128.845 113.224  1.00  0.00     0.123 A 
ATOM      9  C   UNL     1     131.489 129.457 114.442  1.00  0.00     0.094 A 
ATOM     10  C   UNL     1     130.589 130.523 114.494  1.00  0.00     0.146 A 
ATOM     11  O   UNL     1     130.320 131.070 115.674  1.00  0.00    -0.452 OA
ENDROOT
BRANCH   1  12
ATOM     12  C   UNL     1     129.275 132.609 117.206  1.00  0.00     0.025 A 
ATOM     13  C   UNL     1     130.216 133.478 117.787  1.00  0.00     0.016 A 
ATOM     14  C   UNL     1     130.028 133.955 119.087  1.00  0.00     0.051 A 
ATOM     15  C   UNL     1     128.907 133.561 119.828  1.00  0.00     0.157 A 
ATOM     16  C   UNL     1     128.164 132.202 117.962  1.00  0.00     0.062 A 
ATOM     17  C   UNL     1     127.975 132.680 119.266  1.00  0.00     0.158 A 
BRANCH  15  18
ATOM     18  O   UNL     1     128.716 134.035 121.125  1.00  0.00    -0.504 OA
ATOM     19  H   UNL     1     128.214 133.494 121.819  1.00  0.00     0.293 HD
ENDBRANCH  15  18
BRANCH  17  20
ATOM     20  O   UNL     1     126.864 132.285 120.010  1.00  0.00    -0.504 OA
ATOM     21  H   UNL     1     126.264 131.528 119.704  1.00  0.00     0.293 HD
ENDBRANCH  17  20
ENDBRANCH   1  12
BRANCH   2  22
ATOM     22  O   UNL     1     127.782 133.559 114.910  1.00  0.00    -0.502 OA
ATOM     23  H   UNL     1     126.819 133.343 115.140  1.00  0.00     0.293 HD
ENDBRANCH   2  22
BRANCH   6  24
ATOM     24  O   UNL     1     129.887 130.870 110.821  1.00  0.00    -0.507 OA
ATOM     25  H   UNL     1     130.234 131.692 110.352  1.00  0.00     0.293 HD
ENDBRANCH   6  24
BRANCH   8  26
ATOM     26  O   UNL     1     132.674 127.769 113.170  1.00  0.00    -0.508 OA
ATOM     27  H   UNL     1     133.569 127.840 112.700  1.00  0.00     0.293 HD
ENDBRANCH   8  26
TORSDOF 6
ENDMDL
MODEL 7
REMARK VINA RESULT:    -5.179      2.288      7.594
REMARK INTER + INTRA:          -6.562
REMARK INTER:                  -6.764
REMARK INTRA:                   0.202
REMARK UNBOUND:                -0.323
REMARK SMILES O=c1c(O)c(-c2ccc(O)c(O)c2)oc2cc(O)cc(O)c12
REMARK SMILES IDX 5 1 3 2 2 3 1 4 22 5 20 6 19 7 17 8 16 9 15 10 14 11 6 12
REMARK SMILES IDX 7 13 8 14 9 15 13 16 11 17 10 18 12 20 4 22 21 24 18 26
REMARK H PARENT 10 19 12 21 4 23 21 25 18 27
REMARK Flexibility Score: inf
ROOT
ATOM      1  C   UNL     1     129.699 129.854 111.822  1.00  0.00     0.180 A 
ATOM      2  C   UNL     1     129.697 131.243 112.043  1.00  0.00     0.208 A 
ATOM      3  C   UNL     1     130.006 131.729 113.324  1.00  0.00     0.238 A 
ATOM      4  O   UNL     1     130.055 132.974 113.500  1.00  0.00    -0.285 OA
ATOM      5  C   UNL     1     130.297 130.823 114.371  1.00  0.00     0.111 A 
ATOM      6  C   UNL     1     130.583 131.204 115.716  1.00  0.00     0.134 A 
ATOM      7  C   UNL     1     130.985 130.230 116.639  1.00  0.00     0.093 A 
ATOM      8  C   UNL     1     131.048 128.883 116.284  1.00  0.00     0.123 A 
ATOM      9  C   UNL     1     130.712 128.493 114.986  1.00  0.00     0.094 A 
ATOM     10  C   UNL     1     130.342 129.445 114.034  1.00  0.00     0.146 A 
ATOM     11  O   UNL     1     130.041 129.033 112.808  1.00  0.00    -0.452 OA
ENDROOT
BRANCH   1  12
ATOM     12  C   UNL     1     129.360 129.264 110.508  1.00  0.00     0.025 A 
ATOM     13  C   UNL     1     128.414 129.865 109.658  1.00  0.00     0.016 A 
ATOM     14  C   UNL     1     128.093 129.277 108.432  1.00  0.00     0.051 A 
ATOM     15  C   UNL     1     128.700 128.076 108.043  1.00  0.00     0.157 A 
ATOM     16  C   UNL     1     129.951 128.049 110.122  1.00  0.00     0.062 A 
ATOM     17  C   UNL     1     129.628 127.459 108.892  1.00  0.00     0.158 A 
BRANCH  15  18
ATOM     18  O   UNL     1     128.382 127.488 106.821  1.00  0.00    -0.504 OA
ATOM     19  H   UNL     1     128.548 127.966 105.943  1.00  0.00     0.293 HD
ENDBRANCH  15  18
BRANCH  17  20
ATOM     20  O   UNL     1     130.225 126.261 108.505  1.00  0.00    -0.504 OA
ATOM     21  H   UNL     1     129.748 125.373 108.609  1.00  0.00     0.293 HD
ENDBRANCH  17  20
ENDBRANCH   1  12
BRANCH   2  22
ATOM     22  O   UNL     1     129.428 132.121 110.989  1.00  0.00    -0.502 OA
ATOM     23  H   UNL     1     130.016 132.179 110.167  1.00  0.00     0.293 HD
ENDBRANCH   2  22
BRANCH   6  24
ATOM     24  O   UNL     1     130.463 132.510 116.200  1.00  0.00    -0.507 OA
ATOM     25  H   UNL     1     130.588 132.779 117.165  1.00  0.00     0.293 HD
ENDBRANCH   6  24
BRANCH   8  26
ATOM     26  O   UNL     1     131.436 127.940 117.232  1.00  0.00    -0.508 OA
ATOM     27  H   UNL     1     131.611 128.198 118.196  1.00  0.00     0.293 HD
ENDBRANCH   8  26
TORSDOF 6
ENDMDL
MODEL 8
REMARK VINA RESULT:    -4.549      2.669      7.241
REMARK INTER + INTRA:          -5.803
REMARK INTER:                  -6.201
REMARK INTRA:                   0.398
REMARK UNBOUND:                -0.323
REMARK SMILES O=c1c(O)c(-c2ccc(O)c(O)c2)oc2cc(O)cc(O)c12
REMARK SMILES IDX 5 1 3 2 2 3 1 4 22 5 20 6 19 7 17 8 16 9 15 10 14 11 6 12
REMARK SMILES IDX 7 13 8 14 9 15 13 16 11 17 10 18 12 20 4 22 21 24 18 26
REMARK H PARENT 10 19 12 21 4 23 21 25 18 27
REMARK Flexibility Score: inf
ROOT
ATOM      1  C   UNL     1     130.196 129.314 112.433  1.00  0.00     0.180 A 
ATOM      2  C   UNL     1     130.665 130.563 111.994  1.00  0.00     0.208 A 
ATOM      3  C   UNL     1     130.791 131.609 112.924  1.00  0.00     0.238 A 
ATOM      4  O   UNL     1     131.263 132.708 112.536  1.00  0.00    -0.285 OA
ATOM      5  C   UNL     1     130.431 131.395 114.276  1.00  0.00     0.111 A 
ATOM      6  C   UNL     1     130.479 132.395 115.294  1.00  0.00     0.134 A 
ATOM      7  C   UNL     1     130.224 132.037 116.625  1.00  0.00     0.093 A 
ATOM      8  C   UNL     1     129.858 130.735 116.964  1.00  0.00     0.123 A 
ATOM      9  C   UNL     1     129.750 129.764 115.966  1.00  0.00     0.094 A 
ATOM     10  C   UNL     1     130.033 130.081 114.636  1.00  0.00     0.146 A 
ATOM     11  O   UNL     1     129.928 129.126 113.720  1.00  0.00    -0.452 OA
ENDROOT
BRANCH   1  12
ATOM     12  C   UNL     1     130.012 128.171 111.509  1.00  0.00     0.025 A 
ATOM     13  C   UNL     1     129.986 128.355 110.114  1.00  0.00     0.016 A 
ATOM     14  C   UNL     1     129.788 127.265 109.262  1.00  0.00     0.051 A 
ATOM     15  C   UNL     1     129.601 125.981 109.789  1.00  0.00     0.157 A 
ATOM     16  C   UNL     1     129.804 126.884 112.032  1.00  0.00     0.062 A 
ATOM     17  C   UNL     1     129.606 125.791 111.177  1.00  0.00     0.158 A 
BRANCH  15  18
ATOM     18  O   UNL     1     129.405 124.892 108.942  1.00  0.00    -0.504 OA
ATOM     19  H   UNL     1     129.290 125.012 107.943  1.00  0.00     0.293 HD
ENDBRANCH  15  18
BRANCH  17  20
ATOM     20  O   UNL     1     129.413 124.513 111.698  1.00  0.00    -0.504 OA
ATOM     21  H   UNL     1     128.878 123.812 111.198  1.00  0.00     0.293 HD
ENDBRANCH  17  20
ENDBRANCH   1  12
BRANCH   2  22
ATOM     22  O   UNL     1     131.036 130.746 110.659  1.00  0.00    -0.502 OA
ATOM     23  H   UNL     1     132.004 130.750 110.359  1.00  0.00     0.293 HD
ENDBRANCH   2  22
BRANCH   6  24
ATOM     24  O   UNL     1     130.744 133.746 115.051  1.00  0.00    -0.507 OA
ATOM     25  H   UNL     1     130.184 134.512 115.393  1.00  0.00     0.293 HD
ENDBRANCH   6  24
BRANCH   8  26
ATOM     26  O   UNL     1     129.596 130.419 118.294  1.00  0.00    -0.508 OA
ATOM     27  H   UNL     1     129.216 131.104 118.937  1.00  0.00     0.293 HD
ENDBRANCH   8  26
TORSDOF 6
ENDMDL
MODEL 9
REMARK VINA RESULT:    -4.421      2.219      2.953
REMARK INTER + INTRA:          -5.649
REMARK INTER:                  -5.908
REMARK INTRA:                   0.259
REMARK UNBOUND:                -0.323
REMARK SMILES O=c1c(O)c(-c2ccc(O)c(O)c2)oc2cc(O)cc(O)c12
REMARK SMILES IDX 5 1 3 2 2 3 1 4 22 5 20 6 19 7 17 8 16 9 15 10 14 11 6 12
REMARK SMILES IDX 7 13 8 14 9 15 13 16 11 17 10 18 12 20 4 22 21 24 18 26
REMARK H PARENT 10 19 12 21 4 23 21 25 18 27
REMARK Flexibility Score: inf
ROOT
ATOM      1  C   UNL     1     130.091 129.792 113.013  1.00  0.00     0.180 A 
ATOM      2  C   UNL     1     130.419 128.478 113.388  1.00  0.00     0.208 A 
ATOM      3  C   UNL     1     130.236 127.439 112.460  1.00  0.00     0.238 A 
ATOM      4  O   UNL     1     130.582 126.273 112.784  1.00  0.00    -0.285 OA
ATOM      5  C   UNL     1     129.713 127.725 111.177  1.00  0.00     0.111 A 
ATOM      6  C   UNL     1     129.449 126.745 110.173  1.00  0.00     0.134 A 
ATOM      7  C   UNL     1     129.054 127.156 108.893  1.00  0.00     0.093 A 
ATOM      8  C   UNL     1     128.851 128.504 108.600  1.00  0.00     0.123 A 
ATOM      9  C   UNL     1     129.050 129.466 109.593  1.00  0.00     0.094 A 
ATOM     10  C   UNL     1     129.478 129.090 110.867  1.00  0.00     0.146 A 
ATOM     11  O   UNL     1     129.664 130.037 111.779  1.00  0.00    -0.452 OA
ENDROOT
BRANCH   1  12
ATOM     12  C   UNL     1     130.232 130.936 113.942  1.00  0.00     0.025 A 
ATOM     13  C   UNL     1     130.625 132.206 113.484  1.00  0.00     0.016 A 
ATOM     14  C   UNL     1     130.774 133.266 114.383  1.00  0.00     0.051 A 
ATOM     15  C   UNL     1     130.545 133.070 115.750  1.00  0.00     0.157 A 
ATOM     16  C   UNL     1     130.023 130.741 115.317  1.00  0.00     0.062 A 
ATOM     17  C   UNL     1     130.172 131.804 116.219  1.00  0.00     0.158 A 
BRANCH  15  18
ATOM     18  O   UNL     1     130.692 134.125 116.649  1.00  0.00    -0.504 OA
ATOM     19  H   UNL     1     131.339 134.884 116.474  1.00  0.00     0.293 HD
ENDBRANCH  15  18
BRANCH  17  20
ATOM     20  O   UNL     1     129.952 131.610 117.581  1.00  0.00    -0.504 OA
ATOM     21  H   UNL     1     129.028 131.704 117.987  1.00  0.00     0.293 HD
ENDBRANCH  17  20
ENDBRANCH   1  12
BRANCH   2  22
ATOM     22  O   UNL     1     130.954 128.221 114.653  1.00  0.00    -0.502 OA
ATOM     23  H   UNL     1     131.468 127.374 114.864  1.00  0.00     0.293 HD
ENDBRANCH   2  22
BRANCH   6  24
ATOM     24  O   UNL     1     129.531 125.366 110.387  1.00  0.00    -0.507 OA
ATOM     25  H   UNL     1     129.334 124.663 109.691  1.00  0.00     0.293 HD
ENDBRANCH   6  24
BRANCH   8  26
ATOM     26  O   UNL     1     128.444 128.875 107.322  1.00  0.00    -0.508 OA
ATOM     27  H   UNL     1     127.472 129.068 107.110  1.00  0.00     0.293 HD
ENDBRANCH   8  26
TORSDOF 6
ENDMDL
