MODEL 1
REMARK VINA RESULT:    -3.679      0.000      0.000
REMARK INTER + INTRA:         -13.345
REMARK INTER:                  -8.411
REMARK INTRA:                  -4.934
REMARK UNBOUND:                -4.934
REMARK SMILES CCCCCCCCCCCCCCCCCCCCCCCC(=O)[O-]
REMARK SMILES IDX 13 1 14 2 15 3 16 4 17 5 18 6 19 7 20 8 21 9 22 10 23 11
REMARK SMILES IDX 24 12 25 13 26 14 12 15 11 16 10 17 9 18 8 19 7 20 6 21 5 22
REMARK SMILES IDX 4 23 3 24 2 25 1 26
REMARK H PARENT
REMARK Flexibility Score: inf
ROOT
ATOM      1  C   UNL     1     176.552 173.896 151.933  1.00  0.00     0.000 C 
ENDROOT
BRANCH   1   2
ATOM      2  C   UNL     1     175.937 175.258 152.290  1.00  0.00     0.000 C 
BRANCH   2   3
ATOM      3  C   UNL     1     175.429 175.977 151.035  1.00  0.00     0.000 C 
BRANCH   3   4
ATOM      4  C   UNL     1     175.248 177.479 151.294  1.00  0.00     0.000 C 
BRANCH   4   5
ATOM      5  C   UNL     1     173.795 177.949 151.099  1.00  0.00     0.000 C 
BRANCH   5   6
ATOM      6  C   UNL     1     172.715 176.919 151.495  1.00  0.00     0.000 C 
BRANCH   6   7
ATOM      7  C   UNL     1     172.077 177.141 152.879  1.00  0.00     0.000 C 
BRANCH   7   8
ATOM      8  C   UNL     1     172.864 176.536 154.058  1.00  0.00     0.000 C 
BRANCH   8   9
ATOM      9  C   UNL     1     173.728 177.565 154.819  1.00  0.00     0.000 C 
BRANCH   9  10
ATOM     10  C   UNL     1     175.029 176.956 155.360  1.00  0.00     0.006 C 
BRANCH  10  11
ATOM     11  C   UNL     1     174.736 175.839 156.366  1.00  0.00     0.053 C 
BRANCH  11  12
ATOM     12  C   UNL     1     175.939 174.969 156.550  1.00  0.00     0.041 C 
ATOM     13  O   UNL     1     175.952 174.086 157.446  1.00  0.00    -0.550 OA
ATOM     14  O   UNL     1     177.035 175.110 155.708  1.00  0.00    -0.550 OA
ENDBRANCH  11  12
ENDBRANCH  10  11
ENDBRANCH   9  10
ENDBRANCH   8   9
ENDBRANCH   7   8
ENDBRANCH   6   7
ENDBRANCH   5   6
ENDBRANCH   4   5
ENDBRANCH   3   4
ENDBRANCH   2   3
ENDBRANCH   1   2
BRANCH   1  15
ATOM     15  C   UNL     1     177.197 173.888 150.538  1.00  0.00     0.000 C 
BRANCH  15  16
ATOM     16  C   UNL     1     176.954 172.571 149.780  1.00  0.00     0.000 C 
BRANCH  16  17
ATOM     17  C   UNL     1     176.669 171.381 150.716  1.00  0.00     0.000 C 
BRANCH  17  18
ATOM     18  C   UNL     1     175.445 170.526 150.337  1.00  0.00    -0.000 C 
BRANCH  18  19
ATOM     19  C   UNL     1     174.567 171.175 149.254  1.00  0.00    -0.000 C 
BRANCH  19  20
ATOM     20  C   UNL     1     173.226 171.690 149.803  1.00  0.00    -0.000 C 
BRANCH  20  21
ATOM     21  C   UNL     1     173.263 173.164 150.258  1.00  0.00    -0.000 C 
BRANCH  21  22
ATOM     22  C   UNL     1     172.727 173.341 151.690  1.00  0.00    -0.000 C 
BRANCH  22  23
ATOM     23  C   UNL     1     173.288 172.295 152.668  1.00  0.00    -0.000 C 
BRANCH  23  24
ATOM     24  C   UNL     1     173.677 172.904 154.026  1.00  0.00    -0.000 C 
BRANCH  24  25
ATOM     25  C   UNL     1     174.685 172.033 154.792  1.00  0.00    -0.003 C 
ATOM     26  C   UNL     1     175.059 170.756 154.038  1.00  0.00     0.004 C 
ENDBRANCH  24  25
ENDBRANCH  23  24
ENDBRANCH  22  23
ENDBRANCH  21  22
ENDBRANCH  20  21
ENDBRANCH  19  20
ENDBRANCH  18  19
ENDBRANCH  17  18
ENDBRANCH  16  17
ENDBRANCH  15  16
ENDBRANCH   1  15
TORSDOF 22
ENDMDL
MODEL 2
REMARK VINA RESULT:    -3.477      2.539      4.335
REMARK INTER + INTRA:         -12.881
REMARK INTER:                  -8.715
REMARK INTRA:                  -4.167
REMARK UNBOUND:                -4.934
REMARK SMILES CCCCCCCCCCCCCCCCCCCCCCCC(=O)[O-]
REMARK SMILES IDX 13 1 14 2 15 3 16 4 17 5 18 6 19 7 20 8 21 9 22 10 23 11
REMARK SMILES IDX 24 12 25 13 26 14 12 15 11 16 10 17 9 18 8 19 7 20 6 21 5 22
REMARK SMILES IDX 4 23 3 24 2 25 1 26
REMARK H PARENT
REMARK Flexibility Score: inf
ROOT
ATOM      1  C   UNL     1     176.260 171.853 150.352  1.00  0.00     0.000 C 
ENDROOT
BRANCH   1   2
ATOM      2  C   UNL     1     177.214 172.846 149.670  1.00  0.00     0.000 C 
BRANCH   2   3
ATOM      3  C   UNL     1     177.469 174.064 150.566  1.00  0.00     0.000 C 
BRANCH   3   4
ATOM      4  C   UNL     1     176.625 173.995 151.847  1.00  0.00     0.000 C 
BRANCH   4   5
ATOM      5  C   UNL     1     175.781 175.261 152.075  1.00  0.00     0.000 C 
BRANCH   5   6
ATOM      6  C   UNL     1     175.293 175.964 150.790  1.00  0.00     0.000 C 
BRANCH   6   7
ATOM      7  C   UNL     1     174.937 177.453 150.954  1.00  0.00     0.000 C 
BRANCH   7   8
ATOM      8  C   UNL     1     174.754 177.917 152.412  1.00  0.00     0.000 C 
BRANCH   8   9
ATOM      9  C   UNL     1     173.277 178.074 152.830  1.00  0.00     0.000 C 
BRANCH   9  10
ATOM     10  C   UNL     1     172.688 176.780 153.412  1.00  0.00     0.006 C 
BRANCH  10  11
ATOM     11  C   UNL     1     171.424 176.363 152.655  1.00  0.00     0.053 C 
BRANCH  11  12
ATOM     12  C   UNL     1     170.202 176.678 153.458  1.00  0.00     0.041 C 
ATOM     13  O   UNL     1     170.029 176.145 154.585  1.00  0.00    -0.550 OA
ATOM     14  O   UNL     1     169.269 177.589 152.977  1.00  0.00    -0.550 OA
ENDBRANCH  11  12
ENDBRANCH  10  11
ENDBRANCH   9  10
ENDBRANCH   8   9
ENDBRANCH   7   8
ENDBRANCH   6   7
ENDBRANCH   5   6
ENDBRANCH   4   5
ENDBRANCH   3   4
ENDBRANCH   2   3
ENDBRANCH   1   2
BRANCH   1  15
ATOM     15  C   UNL     1     175.336 171.140 149.353  1.00  0.00     0.000 C 
BRANCH  15  16
ATOM     16  C   UNL     1     173.847 171.428 149.612  1.00  0.00     0.000 C 
BRANCH  16  17
ATOM     17  C   UNL     1     173.572 172.899 149.976  1.00  0.00     0.000 C 
BRANCH  17  18
ATOM     18  C   UNL     1     172.803 173.118 151.292  1.00  0.00    -0.000 C 
BRANCH  18  19
ATOM     19  C   UNL     1     173.060 172.014 152.332  1.00  0.00    -0.000 C 
BRANCH  19  20
ATOM     20  C   UNL     1     173.515 172.570 153.692  1.00  0.00    -0.000 C 
BRANCH  20  21
ATOM     21  C   UNL     1     174.869 172.006 154.173  1.00  0.00    -0.000 C 
BRANCH  21  22
ATOM     22  C   UNL     1     175.140 170.598 153.615  1.00  0.00    -0.000 C 
BRANCH  22  23
ATOM     23  C   UNL     1     176.641 170.303 153.451  1.00  0.00    -0.000 C 
BRANCH  23  24
ATOM     24  C   UNL     1     176.905 168.956 152.755  1.00  0.00    -0.000 C 
BRANCH  24  25
ATOM     25  C   UNL     1     175.734 168.518 151.862  1.00  0.00    -0.003 C 
ATOM     26  C   UNL     1     175.449 167.018 151.951  1.00  0.00     0.004 C 
ENDBRANCH  24  25
ENDBRANCH  23  24
ENDBRANCH  22  23
ENDBRANCH  21  22
ENDBRANCH  20  21
ENDBRANCH  19  20
ENDBRANCH  18  19
ENDBRANCH  17  18
ENDBRANCH  16  17
ENDBRANCH  15  16
ENDBRANCH   1  15
TORSDOF 22
ENDMDL
MODEL 3
REMARK VINA RESULT:    -3.461      2.656      3.849
REMARK INTER + INTRA:         -12.846
REMARK INTER:                  -8.419
REMARK INTRA:                  -4.426
REMARK UNBOUND:                -4.934
REMARK SMILES CCCCCCCCCCCCCCCCCCCCCCCC(=O)[O-]
REMARK SMILES IDX 13 1 14 2 15 3 16 4 17 5 18 6 19 7 20 8 21 9 22 10 23 11
REMARK SMILES IDX 24 12 25 13 26 14 12 15 11 16 10 17 9 18 8 19 7 20 6 21 5 22
REMARK SMILES IDX 4 23 3 24 2 25 1 26
REMARK H PARENT
REMARK Flexibility Score: inf
ROOT
ATOM      1  C   UNL     1     176.656 173.883 152.045  1.00  0.00     0.000 C 
ENDROOT
BRANCH   1   2
ATOM      2  C   UNL     1     176.228 174.762 150.861  1.00  0.00     0.000 C 
BRANCH   2   3
ATOM      3  C   UNL     1     174.953 175.546 151.192  1.00  0.00     0.000 C 
BRANCH   3   4
ATOM      4  C   UNL     1     175.122 177.038 150.873  1.00  0.00     0.000 C 
BRANCH   4   5
ATOM      5  C   UNL     1     174.839 177.944 152.085  1.00  0.00     0.000 C 
BRANCH   5   6
ATOM      6  C   UNL     1     175.996 178.055 153.103  1.00  0.00     0.000 C 
BRANCH   6   7
ATOM      7  C   UNL     1     175.847 177.177 154.360  1.00  0.00     0.000 C 
BRANCH   7   8
ATOM      8  C   UNL     1     174.484 177.292 155.070  1.00  0.00     0.000 C 
BRANCH   8   9
ATOM      9  C   UNL     1     173.497 176.164 154.702  1.00  0.00     0.000 C 
BRANCH   9  10
ATOM     10  C   UNL     1     172.077 176.685 154.440  1.00  0.00     0.006 C 
BRANCH  10  11
ATOM     11  C   UNL     1     171.642 176.396 153.001  1.00  0.00     0.053 C 
BRANCH  11  12
ATOM     12  C   UNL     1     170.530 177.311 152.594  1.00  0.00     0.041 C 
ATOM     13  O   UNL     1     169.477 177.374 153.280  1.00  0.00    -0.550 OA
ATOM     14  O   UNL     1     170.671 178.122 151.475  1.00  0.00    -0.550 OA
ENDBRANCH  11  12
ENDBRANCH  10  11
ENDBRANCH   9  10
ENDBRANCH   8   9
ENDBRANCH   7   8
ENDBRANCH   6   7
ENDBRANCH   5   6
ENDBRANCH   4   5
ENDBRANCH   3   4
ENDBRANCH   2   3
ENDBRANCH   1   2
BRANCH   1  15
ATOM     15  C   UNL     1     175.548 173.733 153.099  1.00  0.00     0.000 C 
BRANCH  15  16
ATOM     16  C   UNL     1     175.692 172.447 153.933  1.00  0.00     0.000 C 
BRANCH  16  17
ATOM     17  C   UNL     1     176.613 171.403 153.274  1.00  0.00     0.000 C 
BRANCH  17  18
ATOM     18  C   UNL     1     175.960 170.036 152.992  1.00  0.00    -0.000 C 
BRANCH  18  19
ATOM     19  C   UNL     1     175.809 169.738 151.491  1.00  0.00    -0.000 C 
BRANCH  19  20
ATOM     20  C   UNL     1     176.630 170.694 150.608  1.00  0.00    -0.000 C 
BRANCH  20  21
ATOM     21  C   UNL     1     175.835 171.288 149.426  1.00  0.00    -0.000 C 
BRANCH  21  22
ATOM     22  C   UNL     1     174.320 171.059 149.574  1.00  0.00    -0.000 C 
BRANCH  22  23
ATOM     23  C   UNL     1     173.603 172.244 150.241  1.00  0.00    -0.000 C 
BRANCH  23  24
ATOM     24  C   UNL     1     172.335 171.815 151.000  1.00  0.00    -0.000 C 
BRANCH  24  25
ATOM     25  C   UNL     1     172.491 171.946 152.523  1.00  0.00    -0.003 C 
ATOM     26  C   UNL     1     172.249 170.627 153.259  1.00  0.00     0.004 C 
ENDBRANCH  24  25
ENDBRANCH  23  24
ENDBRANCH  22  23
ENDBRANCH  21  22
ENDBRANCH  20  21
ENDBRANCH  19  20
ENDBRANCH  18  19
ENDBRANCH  17  18
ENDBRANCH  16  17
ENDBRANCH  15  16
ENDBRANCH   1  15
TORSDOF 22
ENDMDL
MODEL 4
REMARK VINA RESULT:    -3.430      2.597      4.321
REMARK INTER + INTRA:         -12.774
REMARK INTER:                  -8.220
REMARK INTRA:                  -4.554
REMARK UNBOUND:                -4.934
REMARK SMILES CCCCCCCCCCCCCCCCCCCCCCCC(=O)[O-]
REMARK SMILES IDX 13 1 14 2 15 3 16 4 17 5 18 6 19 7 20 8 21 9 22 10 23 11
REMARK SMILES IDX 24 12 25 13 26 14 12 15 11 16 10 17 9 18 8 19 7 20 6 21 5 22
REMARK SMILES IDX 4 23 3 24 2 25 1 26
REMARK H PARENT
REMARK Flexibility Score: inf
ROOT
ATOM      1  C   UNL     1     174.523 175.753 150.758  1.00  0.00     0.000 C 
ENDROOT
BRANCH   1   2
ATOM      2  C   UNL     1     174.350 177.244 150.430  1.00  0.00     0.000 C 
BRANCH   2   3
ATOM      3  C   UNL     1     175.240 178.110 151.329  1.00  0.00     0.000 C 
BRANCH   3   4
ATOM      4  C   UNL     1     174.717 178.125 152.773  1.00  0.00     0.000 C 
BRANCH   4   5
ATOM      5  C   UNL     1     175.793 177.730 153.802  1.00  0.00     0.000 C 
BRANCH   5   6
ATOM      6  C   UNL     1     175.304 176.804 154.936  1.00  0.00     0.000 C 
BRANCH   6   7
ATOM      7  C   UNL     1     173.851 177.037 155.390  1.00  0.00     0.000 C 
BRANCH   7   8
ATOM      8  C   UNL     1     172.931 175.807 155.268  1.00  0.00     0.000 C 
BRANCH   8   9
ATOM      9  C   UNL     1     173.039 175.085 153.908  1.00  0.00     0.000 C 
BRANCH   9  10
ATOM     10  C   UNL     1     171.724 175.123 153.115  1.00  0.00     0.006 C 
BRANCH  10  11
ATOM     11  C   UNL     1     171.309 176.565 152.808  1.00  0.00     0.053 C 
BRANCH  11  12
ATOM     12  C   UNL     1     169.902 176.812 153.254  1.00  0.00     0.041 C 
ATOM     13  O   UNL     1     169.098 177.424 152.505  1.00  0.00    -0.550 OA
ATOM     14  O   UNL     1     169.468 176.333 154.484  1.00  0.00    -0.550 OA
ENDBRANCH  11  12
ENDBRANCH  10  11
ENDBRANCH   9  10
ENDBRANCH   8   9
ENDBRANCH   7   8
ENDBRANCH   6   7
ENDBRANCH   5   6
ENDBRANCH   4   5
ENDBRANCH   3   4
ENDBRANCH   2   3
ENDBRANCH   1   2
BRANCH   1  15
ATOM     15  C   UNL     1     175.995 175.358 150.950  1.00  0.00     0.000 C 
BRANCH  15  16
ATOM     16  C   UNL     1     176.216 174.480 152.194  1.00  0.00     0.000 C 
BRANCH  16  17
ATOM     17  C   UNL     1     176.780 173.087 151.856  1.00  0.00     0.000 C 
BRANCH  17  18
ATOM     18  C   UNL     1     176.622 172.028 152.964  1.00  0.00    -0.000 C 
BRANCH  18  19
ATOM     19  C   UNL     1     175.662 172.464 154.083  1.00  0.00    -0.000 C 
BRANCH  19  20
ATOM     20  C   UNL     1     174.454 171.523 154.233  1.00  0.00    -0.000 C 
BRANCH  20  21
ATOM     21  C   UNL     1     174.460 170.340 153.242  1.00  0.00    -0.000 C 
BRANCH  21  22
ATOM     22  C   UNL     1     173.363 170.477 152.171  1.00  0.00    -0.000 C 
BRANCH  22  23
ATOM     23  C   UNL     1     173.164 171.929 151.707  1.00  0.00    -0.000 C 
BRANCH  23  24
ATOM     24  C   UNL     1     173.605 172.150 150.250  1.00  0.00    -0.000 C 
BRANCH  24  25
ATOM     25  C   UNL     1     174.328 170.926 149.664  1.00  0.00    -0.003 C 
ATOM     26  C   UNL     1     175.669 171.281 149.021  1.00  0.00     0.004 C 
ENDBRANCH  24  25
ENDBRANCH  23  24
ENDBRANCH  22  23
ENDBRANCH  21  22
ENDBRANCH  20  21
ENDBRANCH  19  20
ENDBRANCH  18  19
ENDBRANCH  17  18
ENDBRANCH  16  17
ENDBRANCH  15  16
ENDBRANCH   1  15
TORSDOF 22
ENDMDL
MODEL 5
REMARK VINA RESULT:    -3.421     10.305     12.905
REMARK INTER + INTRA:         -12.754
REMARK INTER:                  -9.430
REMARK INTRA:                  -3.324
REMARK UNBOUND:                -4.934
REMARK SMILES CCCCCCCCCCCCCCCCCCCCCCCC(=O)[O-]
REMARK SMILES IDX 13 1 14 2 15 3 16 4 17 5 18 6 19 7 20 8 21 9 22 10 23 11
REMARK SMILES IDX 24 12 25 13 26 14 12 15 11 16 10 17 9 18 8 19 7 20 6 21 5 22
REMARK SMILES IDX 4 23 3 24 2 25 1 26
REMARK H PARENT
REMARK Flexibility Score: inf
ROOT
ATOM      1  C   UNL     1     163.523 175.463 150.930  1.00  0.00     0.000 C 
ENDROOT
BRANCH   1   2
ATOM      2  C   UNL     1     163.781 176.977 150.903  1.00  0.00     0.000 C 
BRANCH   2   3
ATOM      3  C   UNL     1     162.483 177.759 151.130  1.00  0.00     0.000 C 
BRANCH   3   4
ATOM      4  C   UNL     1     161.258 176.929 150.719  1.00  0.00     0.000 C 
BRANCH   4   5
ATOM      5  C   UNL     1     160.133 176.964 151.769  1.00  0.00     0.000 C 
BRANCH   5   6
ATOM      6  C   UNL     1     160.121 175.776 152.756  1.00  0.00     0.000 C 
BRANCH   6   7
ATOM      7  C   UNL     1     159.620 174.443 152.168  1.00  0.00     0.000 C 
BRANCH   7   8
ATOM      8  C   UNL     1     160.728 173.417 151.857  1.00  0.00     0.000 C 
BRANCH   8   9
ATOM      9  C   UNL     1     160.268 171.950 151.994  1.00  0.00     0.000 C 
BRANCH   9  10
ATOM     10  C   UNL     1     159.703 171.385 150.682  1.00  0.00     0.006 C 
BRANCH  10  11
ATOM     11  C   UNL     1     159.798 169.857 150.656  1.00  0.00     0.053 C 
BRANCH  11  12
ATOM     12  C   UNL     1     161.063 169.420 149.988  1.00  0.00     0.041 C 
ATOM     13  O   UNL     1     161.046 168.483 149.149  1.00  0.00    -0.550 OA
ATOM     14  O   UNL     1     162.258 170.074 150.265  1.00  0.00    -0.550 OA
ENDBRANCH  11  12
ENDBRANCH  10  11
ENDBRANCH   9  10
ENDBRANCH   8   9
ENDBRANCH   7   8
ENDBRANCH   6   7
ENDBRANCH   5   6
ENDBRANCH   4   5
ENDBRANCH   3   4
ENDBRANCH   2   3
ENDBRANCH   1   2
BRANCH   1  15
ATOM     15  C   UNL     1     164.821 174.644 151.002  1.00  0.00     0.000 C 
BRANCH  15  16
ATOM     16  C   UNL     1     165.508 174.498 149.633  1.00  0.00     0.000 C 
BRANCH  16  17
ATOM     17  C   UNL     1     166.988 174.925 149.653  1.00  0.00     0.000 C 
BRANCH  17  18
ATOM     18  C   UNL     1     167.260 176.371 149.199  1.00  0.00    -0.000 C 
BRANCH  18  19
ATOM     19  C   UNL     1     167.493 177.338 150.372  1.00  0.00    -0.000 C 
BRANCH  19  20
ATOM     20  C   UNL     1     168.618 176.873 151.313  1.00  0.00    -0.000 C 
BRANCH  20  21
ATOM     21  C   UNL     1     168.167 176.686 152.778  1.00  0.00    -0.000 C 
BRANCH  21  22
ATOM     22  C   UNL     1     166.830 177.392 153.066  1.00  0.00    -0.000 C 
BRANCH  22  23
ATOM     23  C   UNL     1     165.893 176.552 153.950  1.00  0.00    -0.000 C 
BRANCH  23  24
ATOM     24  C   UNL     1     164.836 177.408 154.670  1.00  0.00    -0.000 C 
BRANCH  24  25
ATOM     25  C   UNL     1     163.421 176.823 154.540  1.00  0.00    -0.003 C 
ATOM     26  C   UNL     1     162.330 177.814 154.948  1.00  0.00     0.004 C 
ENDBRANCH  24  25
ENDBRANCH  23  24
ENDBRANCH  22  23
ENDBRANCH  21  22
ENDBRANCH  20  21
ENDBRANCH  19  20
ENDBRANCH  18  19
ENDBRANCH  17  18
ENDBRANCH  16  17
ENDBRANCH  15  16
ENDBRANCH   1  15
TORSDOF 22
ENDMDL
MODEL 6
REMARK VINA RESULT:    -3.398      2.727      5.617
REMARK INTER + INTRA:         -12.703
REMARK INTER:                  -8.302
REMARK INTRA:                  -4.401
REMARK UNBOUND:                -4.934
REMARK SMILES CCCCCCCCCCCCCCCCCCCCCCCC(=O)[O-]
REMARK SMILES IDX 13 1 14 2 15 3 16 4 17 5 18 6 19 7 20 8 21 9 22 10 23 11
REMARK SMILES IDX 24 12 25 13 26 14 12 15 11 16 10 17 9 18 8 19 7 20 6 21 5 22
REMARK SMILES IDX 4 23 3 24 2 25 1 26
REMARK H PARENT
REMARK Flexibility Score: inf
ROOT
ATOM      1  C   UNL     1     175.911 171.126 149.720  1.00  0.00     0.000 C 
ENDROOT
BRANCH   1   2
ATOM      2  C   UNL     1     176.644 170.254 150.749  1.00  0.00     0.000 C 
BRANCH   2   3
ATOM      3  C   UNL     1     175.831 170.131 152.043  1.00  0.00     0.000 C 
BRANCH   3   4
ATOM      4  C   UNL     1     176.660 170.565 153.260  1.00  0.00     0.000 C 
BRANCH   4   5
ATOM      5  C   UNL     1     176.071 171.792 153.979  1.00  0.00     0.000 C 
BRANCH   5   6
ATOM      6  C   UNL     1     174.541 171.757 154.185  1.00  0.00     0.000 C 
BRANCH   6   7
ATOM      7  C   UNL     1     173.802 173.057 153.815  1.00  0.00     0.000 C 
BRANCH   7   8
ATOM      8  C   UNL     1     172.728 172.901 152.720  1.00  0.00     0.000 C 
BRANCH   8   9
ATOM      9  C   UNL     1     172.577 174.146 151.820  1.00  0.00     0.000 C 
BRANCH   9  10
ATOM     10  C   UNL     1     171.213 174.831 151.985  1.00  0.00     0.006 C 
BRANCH  10  11
ATOM     11  C   UNL     1     171.354 176.355 151.935  1.00  0.00     0.053 C 
BRANCH  11  12
ATOM     12  C   UNL     1     170.015 177.011 152.050  1.00  0.00     0.041 C 
ATOM     13  O   UNL     1     169.686 177.598 153.113  1.00  0.00    -0.550 OA
ATOM     14  O   UNL     1     169.142 177.005 150.969  1.00  0.00    -0.550 OA
ENDBRANCH  11  12
ENDBRANCH  10  11
ENDBRANCH   9  10
ENDBRANCH   8   9
ENDBRANCH   7   8
ENDBRANCH   6   7
ENDBRANCH   5   6
ENDBRANCH   4   5
ENDBRANCH   3   4
ENDBRANCH   2   3
ENDBRANCH   1   2
BRANCH   1  15
ATOM     15  C   UNL     1     175.450 172.470 150.305  1.00  0.00     0.000 C 
BRANCH  15  16
ATOM     16  C   UNL     1     176.605 173.475 150.465  1.00  0.00     0.000 C 
BRANCH  16  17
ATOM     17  C   UNL     1     176.327 174.546 151.537  1.00  0.00     0.000 C 
BRANCH  17  18
ATOM     18  C   UNL     1     175.730 175.864 151.009  1.00  0.00    -0.000 C 
BRANCH  18  19
ATOM     19  C   UNL     1     175.155 176.755 152.123  1.00  0.00    -0.000 C 
BRANCH  19  20
ATOM     20  C   UNL     1     175.435 176.203 153.531  1.00  0.00    -0.000 C 
BRANCH  20  21
ATOM     21  C   UNL     1     174.809 177.043 154.665  1.00  0.00    -0.000 C 
BRANCH  21  22
ATOM     22  C   UNL     1     173.458 176.472 155.130  1.00  0.00    -0.000 C 
BRANCH  22  23
ATOM     23  C   UNL     1     173.590 175.563 156.364  1.00  0.00    -0.000 C 
BRANCH  23  24
ATOM     24  C   UNL     1     174.922 175.768 157.107  1.00  0.00    -0.000 C 
BRANCH  24  25
ATOM     25  C   UNL     1     175.716 174.461 157.257  1.00  0.00    -0.003 C 
ATOM     26  C   UNL     1     177.014 174.461 156.448  1.00  0.00     0.004 C 
ENDBRANCH  24  25
ENDBRANCH  23  24
ENDBRANCH  22  23
ENDBRANCH  21  22
ENDBRANCH  20  21
ENDBRANCH  19  20
ENDBRANCH  18  19
ENDBRANCH  17  18
ENDBRANCH  16  17
ENDBRANCH  15  16
ENDBRANCH   1  15
TORSDOF 22
ENDMDL
MODEL 7
REMARK VINA RESULT:    -3.384      2.696      5.049
REMARK INTER + INTRA:         -12.669
REMARK INTER:                  -8.096
REMARK INTRA:                  -4.573
REMARK UNBOUND:                -4.934
REMARK SMILES CCCCCCCCCCCCCCCCCCCCCCCC(=O)[O-]
REMARK SMILES IDX 13 1 14 2 15 3 16 4 17 5 18 6 19 7 20 8 21 9 22 10 23 11
REMARK SMILES IDX 24 12 25 13 26 14 12 15 11 16 10 17 9 18 8 19 7 20 6 21 5 22
REMARK SMILES IDX 4 23 3 24 2 25 1 26
REMARK H PARENT
REMARK Flexibility Score: inf
ROOT
ATOM      1  C   UNL     1     173.747 174.966 156.859  1.00  0.00     0.000 C 
ENDROOT
BRANCH   1   2
ATOM      2  C   UNL     1     174.356 176.365 156.679  1.00  0.00     0.000 C 
BRANCH   2   3
ATOM      3  C   UNL     1     173.820 177.037 155.410  1.00  0.00     0.000 C 
BRANCH   3   4
ATOM      4  C   UNL     1     174.960 177.664 154.593  1.00  0.00     0.000 C 
BRANCH   4   5
ATOM      5  C   UNL     1     175.910 176.613 153.990  1.00  0.00     0.000 C 
BRANCH   5   6
ATOM      6  C   UNL     1     175.330 175.809 152.806  1.00  0.00     0.000 C 
BRANCH   6   7
ATOM      7  C   UNL     1     175.376 176.527 151.444  1.00  0.00     0.000 C 
BRANCH   7   8
ATOM      8  C   UNL     1     173.998 176.792 150.806  1.00  0.00     0.000 C 
BRANCH   8   9
ATOM      9  C   UNL     1     173.357 178.124 151.248  1.00  0.00     0.000 C 
BRANCH   9  10
ATOM     10  C   UNL     1     172.143 177.918 152.166  1.00  0.00     0.006 C 
BRANCH  10  11
ATOM     11  C   UNL     1     171.719 176.447 152.193  1.00  0.00     0.053 C 
BRANCH  11  12
ATOM     12  C   UNL     1     170.280 176.308 151.806  1.00  0.00     0.041 C 
ATOM     13  O   UNL     1     169.712 175.187 151.868  1.00  0.00    -0.550 OA
ATOM     14  O   UNL     1     169.556 177.425 151.410  1.00  0.00    -0.550 OA
ENDBRANCH  11  12
ENDBRANCH  10  11
ENDBRANCH   9  10
ENDBRANCH   8   9
ENDBRANCH   7   8
ENDBRANCH   6   7
ENDBRANCH   5   6
ENDBRANCH   4   5
ENDBRANCH   3   4
ENDBRANCH   2   3
ENDBRANCH   1   2
BRANCH   1  15
ATOM     15  C   UNL     1     173.097 174.436 155.572  1.00  0.00     0.000 C 
BRANCH  15  16
ATOM     16  C   UNL     1     173.859 173.241 154.971  1.00  0.00     0.000 C 
BRANCH  16  17
ATOM     17  C   UNL     1     175.168 172.924 155.719  1.00  0.00     0.000 C 
BRANCH  17  18
ATOM     18  C   UNL     1     176.447 173.001 154.864  1.00  0.00    -0.000 C 
BRANCH  18  19
ATOM     19  C   UNL     1     176.545 171.876 153.820  1.00  0.00    -0.000 C 
BRANCH  19  20
ATOM     20  C   UNL     1     176.683 172.407 152.383  1.00  0.00    -0.000 C 
BRANCH  20  21
ATOM     21  C   UNL     1     176.286 171.382 151.300  1.00  0.00    -0.000 C 
BRANCH  21  22
ATOM     22  C   UNL     1     175.806 172.064 150.006  1.00  0.00    -0.000 C 
BRANCH  22  23
ATOM     23  C   UNL     1     174.275 172.053 149.861  1.00  0.00    -0.000 C 
BRANCH  23  24
ATOM     24  C   UNL     1     173.608 173.254 150.553  1.00  0.00    -0.000 C 
BRANCH  24  25
ATOM     25  C   UNL     1     172.468 172.831 151.492  1.00  0.00    -0.003 C 
ATOM     26  C   UNL     1     172.645 171.413 152.037  1.00  0.00     0.004 C 
ENDBRANCH  24  25
ENDBRANCH  23  24
ENDBRANCH  22  23
ENDBRANCH  21  22
ENDBRANCH  20  21
ENDBRANCH  19  20
ENDBRANCH  18  19
ENDBRANCH  17  18
ENDBRANCH  16  17
ENDBRANCH  15  16
ENDBRANCH   1  15
TORSDOF 22
ENDMDL
MODEL 8
REMARK VINA RESULT:    -3.367      2.804      6.331
REMARK INTER + INTRA:         -12.632
REMARK INTER:                  -8.930
REMARK INTRA:                  -3.701
REMARK UNBOUND:                -4.934
REMARK SMILES CCCCCCCCCCCCCCCCCCCCCCCC(=O)[O-]
REMARK SMILES IDX 13 1 14 2 15 3 16 4 17 5 18 6 19 7 20 8 21 9 22 10 23 11
REMARK SMILES IDX 24 12 25 13 26 14 12 15 11 16 10 17 9 18 8 19 7 20 6 21 5 22
REMARK SMILES IDX 4 23 3 24 2 25 1 26
REMARK H PARENT
REMARK Flexibility Score: inf
ROOT
ATOM      1  C   UNL     1     175.535 178.100 153.014  1.00  0.00     0.000 C 
ENDROOT
BRANCH   1   2
ATOM      2  C   UNL     1     174.453 178.111 151.923  1.00  0.00     0.000 C 
BRANCH   2   3
ATOM      3  C   UNL     1     174.807 177.139 150.791  1.00  0.00     0.000 C 
BRANCH   3   4
ATOM      4  C   UNL     1     173.918 175.888 150.839  1.00  0.00     0.000 C 
BRANCH   4   5
ATOM      5  C   UNL     1     174.725 174.589 151.011  1.00  0.00     0.000 C 
BRANCH   5   6
ATOM      6  C   UNL     1     176.203 174.785 151.415  1.00  0.00     0.000 C 
BRANCH   6   7
ATOM      7  C   UNL     1     177.123 173.583 151.130  1.00  0.00     0.000 C 
BRANCH   7   8
ATOM      8  C   UNL     1     176.641 172.654 149.999  1.00  0.00     0.000 C 
BRANCH   8   9
ATOM      9  C   UNL     1     176.639 171.159 150.383  1.00  0.00     0.000 C 
BRANCH   9  10
ATOM     10  C   UNL     1     175.228 170.554 150.392  1.00  0.00     0.006 C 
BRANCH  10  11
ATOM     11  C   UNL     1     174.429 171.006 149.166  1.00  0.00     0.053 C 
BRANCH  11  12
ATOM     12  C   UNL     1     172.961 170.959 149.449  1.00  0.00     0.041 C 
ATOM     13  O   UNL     1     172.231 170.108 148.877  1.00  0.00    -0.550 OA
ATOM     14  O   UNL     1     172.402 171.832 150.374  1.00  0.00    -0.550 OA
ENDBRANCH  11  12
ENDBRANCH  10  11
ENDBRANCH   9  10
ENDBRANCH   8   9
ENDBRANCH   7   8
ENDBRANCH   6   7
ENDBRANCH   5   6
ENDBRANCH   4   5
ENDBRANCH   3   4
ENDBRANCH   2   3
ENDBRANCH   1   2
BRANCH   1  15
ATOM     15  C   UNL     1     175.412 176.891 153.954  1.00  0.00     0.000 C 
BRANCH  15  16
ATOM     16  C   UNL     1     175.111 177.298 155.408  1.00  0.00     0.000 C 
BRANCH  16  17
ATOM     17  C   UNL     1     174.001 176.447 156.054  1.00  0.00     0.000 C 
BRANCH  17  18
ATOM     18  C   UNL     1     173.228 175.532 155.085  1.00  0.00    -0.000 C 
BRANCH  18  19
ATOM     19  C   UNL     1     173.372 174.038 155.421  1.00  0.00    -0.000 C 
BRANCH  19  20
ATOM     20  C   UNL     1     174.179 173.264 154.364  1.00  0.00    -0.000 C 
BRANCH  20  21
ATOM     21  C   UNL     1     175.449 172.588 154.921  1.00  0.00    -0.000 C 
BRANCH  21  22
ATOM     22  C   UNL     1     176.654 173.545 154.938  1.00  0.00    -0.000 C 
BRANCH  22  23
ATOM     23  C   UNL     1     177.330 173.626 156.317  1.00  0.00    -0.000 C 
BRANCH  23  24
ATOM     24  C   UNL     1     176.374 173.257 157.465  1.00  0.00    -0.000 C 
BRANCH  24  25
ATOM     25  C   UNL     1     176.126 174.434 158.422  1.00  0.00    -0.003 C 
ATOM     26  C   UNL     1     177.334 174.744 159.306  1.00  0.00     0.004 C 
ENDBRANCH  24  25
ENDBRANCH  23  24
ENDBRANCH  22  23
ENDBRANCH  21  22
ENDBRANCH  20  21
ENDBRANCH  19  20
ENDBRANCH  18  19
ENDBRANCH  17  18
ENDBRANCH  16  17
ENDBRANCH  15  16
ENDBRANCH   1  15
TORSDOF 22
ENDMDL
MODEL 9
REMARK VINA RESULT:    -3.346      6.920      9.854
REMARK INTER + INTRA:         -12.584
REMARK INTER:                  -9.725
REMARK INTRA:                  -2.859
REMARK UNBOUND:                -4.934
REMARK SMILES CCCCCCCCCCCCCCCCCCCCCCCC(=O)[O-]
REMARK SMILES IDX 13 1 14 2 15 3 16 4 17 5 18 6 19 7 20 8 21 9 22 10 23 11
REMARK SMILES IDX 24 12 25 13 26 14 12 15 11 16 10 17 9 18 8 19 7 20 6 21 5 22
REMARK SMILES IDX 4 23 3 24 2 25 1 26
REMARK H PARENT
REMARK Flexibility Score: inf
ROOT
ATOM      1  C   UNL     1     165.526 175.848 150.738  1.00  0.00     0.000 C 
ENDROOT
BRANCH   1   2
ATOM      2  C   UNL     1     166.310 177.165 150.833  1.00  0.00     0.000 C 
BRANCH   2   3
ATOM      3  C   UNL     1     167.713 177.013 150.234  1.00  0.00     0.000 C 
BRANCH   3   4
ATOM      4  C   UNL     1     168.638 176.237 151.183  1.00  0.00     0.000 C 
BRANCH   4   5
ATOM      5  C   UNL     1     168.964 177.018 152.470  1.00  0.00     0.000 C 
BRANCH   5   6
ATOM      6  C   UNL     1     170.441 176.958 152.914  1.00  0.00     0.000 C 
BRANCH   6   7
ATOM      7  C   UNL     1     171.423 177.745 152.026  1.00  0.00     0.000 C 
BRANCH   7   8
ATOM      8  C   UNL     1     172.635 176.935 151.527  1.00  0.00     0.000 C 
BRANCH   8   9
ATOM      9  C   UNL     1     173.701 177.792 150.812  1.00  0.00     0.000 C 
BRANCH   9  10
ATOM     10  C   UNL     1     175.124 177.500 151.310  1.00  0.00     0.006 C 
BRANCH  10  11
ATOM     11  C   UNL     1     175.227 177.699 152.825  1.00  0.00     0.053 C 
BRANCH  11  12
ATOM     12  C   UNL     1     175.885 176.519 153.467  1.00  0.00     0.041 C 
ATOM     13  O   UNL     1     176.281 176.584 154.659  1.00  0.00    -0.550 OA
ATOM     14  O   UNL     1     176.030 175.333 152.758  1.00  0.00    -0.550 OA
ENDBRANCH  11  12
ENDBRANCH  10  11
ENDBRANCH   9  10
ENDBRANCH   8   9
ENDBRANCH   7   8
ENDBRANCH   6   7
ENDBRANCH   5   6
ENDBRANCH   4   5
ENDBRANCH   3   4
ENDBRANCH   2   3
ENDBRANCH   1   2
BRANCH   1  15
ATOM     15  C   UNL     1     164.104 175.965 151.308  1.00  0.00     0.000 C 
BRANCH  15  16
ATOM     16  C   UNL     1     163.524 177.383 151.169  1.00  0.00     0.000 C 
BRANCH  16  17
ATOM     17  C   UNL     1     162.050 177.390 150.720  1.00  0.00     0.000 C 
BRANCH  17  18
ATOM     18  C   UNL     1     161.023 177.640 151.841  1.00  0.00    -0.000 C 
BRANCH  18  19
ATOM     19  C   UNL     1     160.274 176.367 152.269  1.00  0.00    -0.000 C 
BRANCH  19  20
ATOM     20  C   UNL     1     160.441 176.052 153.766  1.00  0.00    -0.000 C 
BRANCH  20  21
ATOM     21  C   UNL     1     161.884 175.679 154.167  1.00  0.00    -0.000 C 
BRANCH  21  22
ATOM     22  C   UNL     1     162.411 176.559 155.315  1.00  0.00    -0.000 C 
BRANCH  22  23
ATOM     23  C   UNL     1     163.295 177.715 154.820  1.00  0.00    -0.000 C 
BRANCH  23  24
ATOM     24  C   UNL     1     164.679 177.730 155.492  1.00  0.00    -0.000 C 
BRANCH  24  25
ATOM     25  C   UNL     1     165.804 177.322 154.526  1.00  0.00    -0.003 C 
ATOM     26  C   UNL     1     166.022 175.810 154.475  1.00  0.00     0.004 C 
ENDBRANCH  24  25
ENDBRANCH  23  24
ENDBRANCH  22  23
ENDBRANCH  21  22
ENDBRANCH  20  21
ENDBRANCH  19  20
ENDBRANCH  18  19
ENDBRANCH  17  18
ENDBRANCH  16  17
ENDBRANCH  15  16
ENDBRANCH   1  15
TORSDOF 22
ENDMDL
