MODEL 1
REMARK VINA RESULT:    -8.502      0.000      0.000
REMARK INTER + INTRA:         -15.814
REMARK INTER:                 -13.970
REMARK INTRA:                  -1.844
REMARK UNBOUND:                -1.844
REMARK SMILES C[C@@H]1O[C@H](OC[C@H]2O[C@@H](Oc3c(-c4ccc(O)c(O)c4)oc4cc(O)cc(O)c4c3=O)[C@@H](O)[C@H](O)[C@H]2O)[C@@H](O)[C@@H](O)[C@H]1O
REMARK SMILES IDX 7 1 36 2 34 3 32 4 9 5 8 6 6 7 5 8 4 9 1 10 2 11 42 12 3 13
REMARK SMILES IDX 40 14 38 15 43 16 41 18 39 20 37 22 35 24 10 26 11 27 12 28
REMARK SMILES IDX 30 29 21 30 29 31 31 32 22 33 27 34 23 35 26 36 24 37 13 38
REMARK SMILES IDX 20 39 14 40 18 41 15 42 16 43 19 44 17 46 28 48 25 50 33 52
REMARK H PARENT 43 17 41 19 39 21 37 23 35 25 19 45 17 47 28 49 25 51 33 53
REMARK Flexibility Score: inf
ROOT
ATOM      1  C   UNL     1      94.087  99.934  98.296  1.00  0.00     0.180 C 
ATOM      2  C   UNL     1      93.668 101.341  98.864  1.00  0.00     0.177 C 
ATOM      3  C   UNL     1      94.041 101.643 100.358  1.00  0.00     0.180 C 
ATOM      4  C   UNL     1      95.029 100.631 100.975  1.00  0.00     0.214 C 
ATOM      5  C   UNL     1      95.797  99.854  99.914  1.00  0.00     0.339 C 
ATOM      6  O   UNL     1      94.900  99.139  99.124  1.00  0.00    -0.332 OA
ENDROOT
BRANCH   1   7
ATOM      7  C   UNL     1      94.671  99.910  96.872  1.00  0.00     0.198 C 
BRANCH   7   8
ATOM      8  O   UNL     1      95.338  98.669  96.685  1.00  0.00    -0.347 OA
BRANCH   8   9
ATOM      9  C   UNL     1      94.469  97.686  96.110  1.00  0.00     0.281 C 
ATOM     10  C   UNL     1      96.711  96.318  94.462  1.00  0.00     0.041 C 
ATOM     11  C   UNL     1      95.213  96.450  94.163  1.00  0.00     0.150 C 
ATOM     12  C   UNL     1      94.374  95.225  94.574  1.00  0.00     0.174 C 
ATOM     13  O   UNL     1      94.659  97.635  94.683  1.00  0.00    -0.344 OA
ATOM     14  C   UNL     1      94.373  95.018  96.100  1.00  0.00     0.179 C 
ATOM     15  C   UNL     1      94.662  96.342  96.878  1.00  0.00     0.202 C 
BRANCH  12  16
ATOM     16  O   UNL     1      93.065  95.338  94.067  1.00  0.00    -0.388 OA
ATOM     17  H   UNL     1      92.981  94.696  93.313  1.00  0.00     0.211 HD
ENDBRANCH  12  16
BRANCH  14  18
ATOM     18  O   UNL     1      93.181  94.402  96.538  1.00  0.00    -0.387 OA
ATOM     19  H   UNL     1      93.165  94.472  97.547  1.00  0.00     0.211 HD
ENDBRANCH  14  18
BRANCH  15  20
ATOM     20  O   UNL     1      93.989  96.377  98.127  1.00  0.00    -0.385 OA
ATOM     21  H   UNL     1      93.635  97.288  98.247  1.00  0.00     0.211 HD
ENDBRANCH  15  20
ENDBRANCH   8   9
ENDBRANCH   7   8
ENDBRANCH   1   7
BRANCH   2  22
ATOM     22  O   UNL     1      94.186 102.366  98.044  1.00  0.00    -0.387 OA
ATOM     23  H   UNL     1      93.850 102.181  97.130  1.00  0.00     0.211 HD
ENDBRANCH   2  22
BRANCH   3  24
ATOM     24  O   UNL     1      92.875 101.658 101.162  1.00  0.00    -0.387 OA
ATOM     25  H   UNL     1      93.061 102.237 101.929  1.00  0.00     0.211 HD
ENDBRANCH   3  24
BRANCH   5  26
ATOM     26  O   UNL     1      96.694 100.669  99.135  1.00  0.00    -0.454 OA
BRANCH  26  27
ATOM     27  C   UNL     1      97.998 101.018  99.559  1.00  0.00     0.214 A 
ATOM     28  C   UNL     1      98.389 102.370  99.569  1.00  0.00     0.180 A 
ATOM     29  C   UNL     1      98.907 100.064 100.060  1.00  0.00     0.239 A 
ATOM     30  O   UNL     1      99.461 102.734 100.286  1.00  0.00    -0.452 OA
ATOM     31  C   UNL     1     100.018 100.486 100.810  1.00  0.00     0.111 A 
ATOM     32  O   UNL     1      98.719  98.843  99.872  1.00  0.00    -0.285 OA
ATOM     33  C   UNL     1     100.236 101.870 100.931  1.00  0.00     0.146 A 
ATOM     34  C   UNL     1     100.856  99.587 101.522  1.00  0.00     0.134 A 
ATOM     35  C   UNL     1     101.251 102.362 101.762  1.00  0.00     0.094 A 
ATOM     36  C   UNL     1     101.824 100.097 102.383  1.00  0.00     0.093 A 
ATOM     37  C   UNL     1     102.023 101.475 102.513  1.00  0.00     0.123 A 
BRANCH  28  38
ATOM     38  C   UNL     1      97.647 103.418  98.875  1.00  0.00     0.025 A 
ATOM     39  C   UNL     1      97.044 104.458  99.600  1.00  0.00     0.062 A 
ATOM     40  C   UNL     1      97.452 103.321  97.484  1.00  0.00     0.016 A 
ATOM     41  C   UNL     1      96.189 105.367  98.939  1.00  0.00     0.158 A 
ATOM     42  C   UNL     1      96.635 104.237  96.829  1.00  0.00     0.051 A 
ATOM     43  C   UNL     1      96.005 105.266  97.552  1.00  0.00     0.157 A 
BRANCH  41  44
ATOM     44  O   UNL     1      95.556 106.386  99.650  1.00  0.00    -0.504 OA
ATOM     45  H   UNL     1      95.393 106.315 100.642  1.00  0.00     0.293 HD
ENDBRANCH  41  44
BRANCH  43  46
ATOM     46  O   UNL     1      95.179 106.160  96.871  1.00  0.00    -0.504 OA
ATOM     47  H   UNL     1      94.558 106.811  97.346  1.00  0.00     0.293 HD
ENDBRANCH  43  46
ENDBRANCH  28  38
BRANCH  34  48
ATOM     48  O   UNL     1     100.691  98.200 101.434  1.00  0.00    -0.507 OA
ATOM     49  H   UNL     1     101.495  97.576 101.418  1.00  0.00     0.293 HD
ENDBRANCH  34  48
BRANCH  37  50
ATOM     50  O   UNL     1     102.970 101.958 103.436  1.00  0.00    -0.508 OA
ATOM     51  H   UNL     1     102.941 102.926 103.750  1.00  0.00     0.293 HD
ENDBRANCH  37  50
ENDBRANCH  26  27
ENDBRANCH   5  26
BRANCH   4  52
ATOM     52  O   UNL     1      95.923 101.277 101.851  1.00  0.00    -0.384 OA
ATOM     53  H   UNL     1      96.097 100.635 102.588  1.00  0.00     0.211 HD
ENDBRANCH   4  52
TORSDOF 16
ENDMDL
