MODEL 1
REMARK VINA RESULT:    -6.094      0.000      0.000
REMARK INTER + INTRA:         -11.632
REMARK INTER:                 -10.370
REMARK INTRA:                  -1.262
REMARK UNBOUND:                -1.262
REMARK SMILES CCCCCCCCCCCCCC(=O)[O-]
REMARK SMILES IDX 8 1 9 2 10 3 11 4 12 5 13 6 14 7 15 8 16 9 7 10 6 11 5 12
REMARK SMILES IDX 4 13 3 14 2 15 1 16
REMARK H PARENT
REMARK Flexibility Score: inf
ROOT
ATOM      1  C   UNL     1      -5.150  35.692 100.793  1.00  0.00     0.000 C 
ENDROOT
BRANCH   1   2
ATOM      2  C   UNL     1      -4.223  34.599 100.240  1.00  0.00     0.000 C 
BRANCH   2   3
ATOM      3  C   UNL     1      -4.098  34.642  98.708  1.00  0.00     0.000 C 
BRANCH   3   4
ATOM      4  C   UNL     1      -2.868  35.438  98.238  1.00  0.00     0.000 C 
BRANCH   4   5
ATOM      5  C   UNL     1      -3.244  36.640  97.356  1.00  0.00     0.006 C 
BRANCH   5   6
ATOM      6  C   UNL     1      -4.725  36.639  96.953  1.00  0.00     0.053 C 
BRANCH   6   7
ATOM      7  C   UNL     1      -5.381  37.916  97.373  1.00  0.00     0.041 C 
ATOM      8  O   UNL     1      -4.721  38.795  97.986  1.00  0.00    -0.550 OA
ATOM      9  O   UNL     1      -6.735  38.114  97.133  1.00  0.00    -0.550 OA
ENDBRANCH   6   7
ENDBRANCH   5   6
ENDBRANCH   4   5
ENDBRANCH   3   4
ENDBRANCH   2   3
ENDBRANCH   1   2
BRANCH   1  10
ATOM     10  C   UNL     1      -4.404  37.028 100.928  1.00  0.00     0.000 C 
BRANCH  10  11
ATOM     11  C   UNL     1      -3.027  36.876 101.595  1.00  0.00    -0.000 C 
BRANCH  11  12
ATOM     12  C   UNL     1      -2.149  38.128 101.427  1.00  0.00    -0.000 C 
BRANCH  12  13
ATOM     13  C   UNL     1      -2.974  39.426 101.373  1.00  0.00    -0.000 C 
BRANCH  13  14
ATOM     14  C   UNL     1      -2.494  40.477 102.389  1.00  0.00    -0.000 C 
BRANCH  14  15
ATOM     15  C   UNL     1      -1.041  40.243 102.832  1.00  0.00    -0.003 C 
ATOM     16  C   UNL     1      -0.286  41.546 103.097  1.00  0.00     0.004 C 
ENDBRANCH  14  15
ENDBRANCH  13  14
ENDBRANCH  12  13
ENDBRANCH  11  12
ENDBRANCH  10  11
ENDBRANCH   1  10
TORSDOF 12
ENDMDL
MODEL 2
REMARK VINA RESULT:    -6.036      2.561      5.820
REMARK INTER + INTRA:         -11.533
REMARK INTER:                  -9.932
REMARK INTRA:                  -1.601
REMARK UNBOUND:                -1.262
REMARK SMILES CCCCCCCCCCCCCC(=O)[O-]
REMARK SMILES IDX 8 1 9 2 10 3 11 4 12 5 13 6 14 7 15 8 16 9 7 10 6 11 5 12
REMARK SMILES IDX 4 13 3 14 2 15 1 16
REMARK H PARENT
REMARK Flexibility Score: inf
ROOT
ATOM      1  C   UNL     1      -4.842  36.734 101.421  1.00  0.00     0.000 C 
ENDROOT
BRANCH   1   2
ATOM      2  C   UNL     1      -3.323  36.600 101.612  1.00  0.00     0.000 C 
BRANCH   2   3
ATOM      3  C   UNL     1      -2.532  37.700 100.885  1.00  0.00     0.000 C 
BRANCH   3   4
ATOM      4  C   UNL     1      -3.008  39.114 101.258  1.00  0.00     0.000 C 
BRANCH   4   5
ATOM      5  C   UNL     1      -2.640  39.500 102.700  1.00  0.00     0.006 C 
BRANCH   5   6
ATOM      6  C   UNL     1      -1.462  40.481 102.768  1.00  0.00     0.053 C 
BRANCH   6   7
ATOM      7  C   UNL     1      -1.943  41.850 103.130  1.00  0.00     0.041 C 
ATOM      8  O   UNL     1      -1.217  42.616 103.816  1.00  0.00    -0.550 OA
ATOM      9  O   UNL     1      -3.216  42.262 102.756  1.00  0.00    -0.550 OA
ENDBRANCH   6   7
ENDBRANCH   5   6
ENDBRANCH   4   5
ENDBRANCH   3   4
ENDBRANCH   2   3
ENDBRANCH   1   2
BRANCH   1  10
ATOM     10  C   UNL     1      -5.392  35.577 100.574  1.00  0.00     0.000 C 
BRANCH  10  11
ATOM     11  C   UNL     1      -4.299  34.589 100.133  1.00  0.00    -0.000 C 
BRANCH  11  12
ATOM     12  C   UNL     1      -4.089  34.584  98.609  1.00  0.00    -0.000 C 
BRANCH  12  13
ATOM     13  C   UNL     1      -2.851  35.389  98.180  1.00  0.00    -0.000 C 
BRANCH  13  14
ATOM     14  C   UNL     1      -3.202  36.577  97.267  1.00  0.00    -0.000 C 
BRANCH  14  15
ATOM     15  C   UNL     1      -4.682  36.977  97.370  1.00  0.00    -0.003 C 
ATOM     16  C   UNL     1      -4.884  38.336  98.041  1.00  0.00     0.004 C 
ENDBRANCH  14  15
ENDBRANCH  13  14
ENDBRANCH  12  13
ENDBRANCH  11  12
ENDBRANCH  10  11
ENDBRANCH   1  10
TORSDOF 12
ENDMDL
MODEL 3
REMARK VINA RESULT:    -5.680      3.285      6.459
REMARK INTER + INTRA:         -10.927
REMARK INTER:                  -9.555
REMARK INTRA:                  -1.372
REMARK UNBOUND:                -1.262
REMARK SMILES CCCCCCCCCCCCCC(=O)[O-]
REMARK SMILES IDX 8 1 9 2 10 3 11 4 12 5 13 6 14 7 15 8 16 9 7 10 6 11 5 12
REMARK SMILES IDX 4 13 3 14 2 15 1 16
REMARK H PARENT
REMARK Flexibility Score: inf
ROOT
ATOM      1  C   UNL     1      -3.980  38.874  98.959  1.00  0.00     0.000 C 
ENDROOT
BRANCH   1   2
ATOM      2  C   UNL     1      -3.899  38.348 100.401  1.00  0.00     0.000 C 
BRANCH   2   3
ATOM      3  C   UNL     1      -2.514  38.557 101.034  1.00  0.00     0.000 C 
BRANCH   3   4
ATOM      4  C   UNL     1      -2.578  39.370 102.338  1.00  0.00     0.000 C 
BRANCH   4   5
ATOM      5  C   UNL     1      -2.852  40.862 102.091  1.00  0.00     0.006 C 
BRANCH   5   6
ATOM      6  C   UNL     1      -2.846  41.688 103.384  1.00  0.00     0.053 C 
BRANCH   6   7
ATOM      7  C   UNL     1      -1.705  42.655 103.380  1.00  0.00     0.041 C 
ATOM      8  O   UNL     1      -1.925  43.894 103.408  1.00  0.00    -0.550 OA
ATOM      9  O   UNL     1      -0.399  42.190 103.293  1.00  0.00    -0.550 OA
ENDBRANCH   6   7
ENDBRANCH   5   6
ENDBRANCH   4   5
ENDBRANCH   3   4
ENDBRANCH   2   3
ENDBRANCH   1   2
BRANCH   1  10
ATOM     10  C   UNL     1      -5.125  38.196  98.192  1.00  0.00     0.000 C 
BRANCH  10  11
ATOM     11  C   UNL     1      -4.632  37.366  96.995  1.00  0.00    -0.000 C 
BRANCH  11  12
ATOM     12  C   UNL     1      -3.268  36.706  97.258  1.00  0.00    -0.000 C 
BRANCH  12  13
ATOM     13  C   UNL     1      -3.399  35.289  97.843  1.00  0.00    -0.000 C 
BRANCH  13  14
ATOM     14  C   UNL     1      -2.650  35.127  99.177  1.00  0.00    -0.000 C 
BRANCH  14  15
ATOM     15  C   UNL     1      -3.596  34.812 100.346  1.00  0.00    -0.003 C 
ATOM     16  C   UNL     1      -5.071  34.889  99.952  1.00  0.00     0.004 C 
ENDBRANCH  14  15
ENDBRANCH  13  14
ENDBRANCH  12  13
ENDBRANCH  11  12
ENDBRANCH  10  11
ENDBRANCH   1  10
TORSDOF 12
ENDMDL
MODEL 4
REMARK VINA RESULT:    -5.651      2.844      6.152
REMARK INTER + INTRA:         -10.877
REMARK INTER:                  -9.561
REMARK INTRA:                  -1.316
REMARK UNBOUND:                -1.262
REMARK SMILES CCCCCCCCCCCCCC(=O)[O-]
REMARK SMILES IDX 8 1 9 2 10 3 11 4 12 5 13 6 14 7 15 8 16 9 7 10 6 11 5 12
REMARK SMILES IDX 4 13 3 14 2 15 1 16
REMARK H PARENT
REMARK Flexibility Score: inf
ROOT
ATOM      1  C   UNL     1      -3.109  36.676 101.929  1.00  0.00     0.000 C 
ENDROOT
BRANCH   1   2
ATOM      2  C   UNL     1      -2.160  37.774 101.425  1.00  0.00     0.000 C 
BRANCH   2   3
ATOM      3  C   UNL     1      -2.794  39.174 101.466  1.00  0.00     0.000 C 
BRANCH   3   4
ATOM      4  C   UNL     1      -2.060  40.127 102.424  1.00  0.00     0.000 C 
BRANCH   4   5
ATOM      5  C   UNL     1      -3.026  40.987 103.256  1.00  0.00     0.006 C 
BRANCH   5   6
ATOM      6  C   UNL     1      -3.265  42.373 102.643  1.00  0.00     0.053 C 
BRANCH   6   7
ATOM      7  C   UNL     1      -4.353  43.089 103.379  1.00  0.00     0.041 C 
ATOM      8  O   UNL     1      -4.440  42.992 104.631  1.00  0.00    -0.550 OA
ATOM      9  O   UNL     1      -5.303  43.819 102.678  1.00  0.00    -0.550 OA
ENDBRANCH   6   7
ENDBRANCH   5   6
ENDBRANCH   4   5
ENDBRANCH   3   4
ENDBRANCH   2   3
ENDBRANCH   1   2
BRANCH   1  10
ATOM     10  C   UNL     1      -4.539  36.912 101.421  1.00  0.00     0.000 C 
BRANCH  10  11
ATOM     11  C   UNL     1      -5.140  35.675 100.734  1.00  0.00    -0.000 C 
BRANCH  11  12
ATOM     12  C   UNL     1      -4.074  34.630 100.362  1.00  0.00    -0.000 C 
BRANCH  12  13
ATOM     13  C   UNL     1      -3.907  34.470  98.842  1.00  0.00    -0.000 C 
BRANCH  13  14
ATOM     14  C   UNL     1      -2.843  35.417  98.259  1.00  0.00    -0.000 C 
BRANCH  14  15
ATOM     15  C   UNL     1      -3.447  36.464  97.310  1.00  0.00    -0.003 C 
ATOM     16  C   UNL     1      -3.733  37.797  98.004  1.00  0.00     0.004 C 
ENDBRANCH  14  15
ENDBRANCH  13  14
ENDBRANCH  12  13
ENDBRANCH  11  12
ENDBRANCH  10  11
ENDBRANCH   1  10
TORSDOF 12
ENDMDL
MODEL 5
REMARK VINA RESULT:    -5.520      1.473      2.133
REMARK INTER + INTRA:         -10.654
REMARK INTER:                  -9.732
REMARK INTRA:                  -0.922
REMARK UNBOUND:                -1.262
REMARK SMILES CCCCCCCCCCCCCC(=O)[O-]
REMARK SMILES IDX 8 1 9 2 10 3 11 4 12 5 13 6 14 7 15 8 16 9 7 10 6 11 5 12
REMARK SMILES IDX 4 13 3 14 2 15 1 16
REMARK H PARENT
REMARK Flexibility Score: inf
ROOT
ATOM      1  C   UNL     1      -3.517  37.120 101.934  1.00  0.00     0.000 C 
ENDROOT
BRANCH   1   2
ATOM      2  C   UNL     1      -3.888  36.158 100.794  1.00  0.00     0.000 C 
BRANCH   2   3
ATOM      3  C   UNL     1      -2.663  35.664 100.009  1.00  0.00     0.000 C 
BRANCH   3   4
ATOM      4  C   UNL     1      -3.004  35.284  98.558  1.00  0.00     0.000 C 
BRANCH   4   5
ATOM      5  C   UNL     1      -3.213  36.513  97.659  1.00  0.00     0.006 C 
BRANCH   5   6
ATOM      6  C   UNL     1      -4.619  36.569  97.047  1.00  0.00     0.053 C 
BRANCH   6   7
ATOM      7  C   UNL     1      -5.336  37.802  97.497  1.00  0.00     0.041 C 
ATOM      8  O   UNL     1      -4.767  38.619  98.267  1.00  0.00    -0.550 OA
ATOM      9  O   UNL     1      -6.651  38.022  97.109  1.00  0.00    -0.550 OA
ENDBRANCH   6   7
ENDBRANCH   5   6
ENDBRANCH   4   5
ENDBRANCH   3   4
ENDBRANCH   2   3
ENDBRANCH   1   2
BRANCH   1  10
ATOM     10  C   UNL     1      -3.244  38.531 101.392  1.00  0.00     0.000 C 
BRANCH  10  11
ATOM     11  C   UNL     1      -1.775  38.955 101.547  1.00  0.00    -0.000 C 
BRANCH  11  12
ATOM     12  C   UNL     1      -1.583  40.031 102.630  1.00  0.00    -0.000 C 
BRANCH  12  13
ATOM     13  C   UNL     1      -2.916  40.612 103.130  1.00  0.00    -0.000 C 
BRANCH  13  14
ATOM     14  C   UNL     1      -3.183  42.030 102.593  1.00  0.00    -0.000 C 
BRANCH  14  15
ATOM     15  C   UNL     1      -3.321  43.067 103.719  1.00  0.00    -0.003 C 
ATOM     16  C   UNL     1      -4.565  42.845 104.579  1.00  0.00     0.004 C 
ENDBRANCH  14  15
ENDBRANCH  13  14
ENDBRANCH  12  13
ENDBRANCH  11  12
ENDBRANCH  10  11
ENDBRANCH   1  10
TORSDOF 12
ENDMDL
MODEL 6
REMARK VINA RESULT:    -5.482      3.055      6.624
REMARK INTER + INTRA:         -10.590
REMARK INTER:                  -9.536
REMARK INTRA:                  -1.055
REMARK UNBOUND:                -1.262
REMARK SMILES CCCCCCCCCCCCCC(=O)[O-]
REMARK SMILES IDX 8 1 9 2 10 3 11 4 12 5 13 6 14 7 15 8 16 9 7 10 6 11 5 12
REMARK SMILES IDX 4 13 3 14 2 15 1 16
REMARK H PARENT
REMARK Flexibility Score: inf
ROOT
ATOM      1  C   UNL     1      -3.085  38.486 100.571  1.00  0.00     0.000 C 
ENDROOT
BRANCH   1   2
ATOM      2  C   UNL     1      -1.960  38.881 101.540  1.00  0.00     0.000 C 
BRANCH   2   3
ATOM      3  C   UNL     1      -2.488  39.471 102.858  1.00  0.00     0.000 C 
BRANCH   3   4
ATOM      4  C   UNL     1      -2.049  40.929 103.070  1.00  0.00     0.000 C 
BRANCH   4   5
ATOM      5  C   UNL     1      -3.238  41.877 103.297  1.00  0.00     0.006 C 
BRANCH   5   6
ATOM      6  C   UNL     1      -3.650  42.626 102.022  1.00  0.00     0.053 C 
BRANCH   6   7
ATOM      7  C   UNL     1      -3.407  44.094 102.178  1.00  0.00     0.041 C 
ATOM      8  O   UNL     1      -4.366  44.906 102.104  1.00  0.00    -0.550 OA
ATOM      9  O   UNL     1      -2.113  44.570 102.353  1.00  0.00    -0.550 OA
ENDBRANCH   6   7
ENDBRANCH   5   6
ENDBRANCH   4   5
ENDBRANCH   3   4
ENDBRANCH   2   3
ENDBRANCH   1   2
BRANCH   1  10
ATOM     10  C   UNL     1      -3.774  37.192 101.030  1.00  0.00     0.000 C 
BRANCH  10  11
ATOM     11  C   UNL     1      -2.895  35.946 100.836  1.00  0.00    -0.000 C 
BRANCH  11  12
ATOM     12  C   UNL     1      -3.703  34.721 100.374  1.00  0.00    -0.000 C 
BRANCH  12  13
ATOM     13  C   UNL     1      -3.728  34.572  98.844  1.00  0.00    -0.000 C 
BRANCH  13  14
ATOM     14  C   UNL     1      -5.098  34.923  98.237  1.00  0.00    -0.000 C 
BRANCH  14  15
ATOM     15  C   UNL     1      -5.117  36.322  97.601  1.00  0.00    -0.003 C 
ATOM     16  C   UNL     1      -3.737  36.772  97.119  1.00  0.00     0.004 C 
ENDBRANCH  14  15
ENDBRANCH  13  14
ENDBRANCH  12  13
ENDBRANCH  11  12
ENDBRANCH  10  11
ENDBRANCH   1  10
TORSDOF 12
ENDMDL
MODEL 7
REMARK VINA RESULT:    -5.353      3.116      6.658
REMARK INTER + INTRA:         -10.370
REMARK INTER:                  -9.233
REMARK INTRA:                  -1.137
REMARK UNBOUND:                -1.262
REMARK SMILES CCCCCCCCCCCCCC(=O)[O-]
REMARK SMILES IDX 8 1 9 2 10 3 11 4 12 5 13 6 14 7 15 8 16 9 7 10 6 11 5 12
REMARK SMILES IDX 4 13 3 14 2 15 1 16
REMARK H PARENT
REMARK Flexibility Score: inf
ROOT
ATOM      1  C   UNL     1      -2.848  37.789 100.760  1.00  0.00     0.000 C 
ENDROOT
BRANCH   1   2
ATOM      2  C   UNL     1      -2.888  37.387 102.243  1.00  0.00     0.000 C 
BRANCH   2   3
ATOM      3  C   UNL     1      -2.894  38.600 103.189  1.00  0.00     0.000 C 
BRANCH   3   4
ATOM      4  C   UNL     1      -1.896  39.689 102.758  1.00  0.00     0.000 C 
BRANCH   4   5
ATOM      5  C   UNL     1      -2.560  41.066 102.595  1.00  0.00     0.006 C 
BRANCH   5   6
ATOM      6  C   UNL     1      -1.761  42.192 103.264  1.00  0.00     0.053 C 
BRANCH   6   7
ATOM      7  C   UNL     1      -2.680  43.271 103.742  1.00  0.00     0.041 C 
ATOM      8  O   UNL     1      -3.889  43.014 103.979  1.00  0.00    -0.550 OA
ATOM      9  O   UNL     1      -2.215  44.573 103.874  1.00  0.00    -0.550 OA
ENDBRANCH   6   7
ENDBRANCH   5   6
ENDBRANCH   4   5
ENDBRANCH   3   4
ENDBRANCH   2   3
ENDBRANCH   1   2
BRANCH   1  10
ATOM     10  C   UNL     1      -4.263  38.048 100.224  1.00  0.00     0.000 C 
BRANCH  10  11
ATOM     11  C   UNL     1      -4.275  38.452  98.741  1.00  0.00    -0.000 C 
BRANCH  11  12
ATOM     12  C   UNL     1      -5.300  37.651  97.920  1.00  0.00    -0.000 C 
BRANCH  12  13
ATOM     13  C   UNL     1      -4.730  36.323  97.394  1.00  0.00    -0.000 C 
BRANCH  13  14
ATOM     14  C   UNL     1      -5.192  35.110  98.222  1.00  0.00    -0.000 C 
BRANCH  14  15
ATOM     15  C   UNL     1      -4.051  34.495  99.047  1.00  0.00    -0.003 C 
ATOM     16  C   UNL     1      -2.669  34.963  98.589  1.00  0.00     0.004 C 
ENDBRANCH  14  15
ENDBRANCH  13  14
ENDBRANCH  12  13
ENDBRANCH  11  12
ENDBRANCH  10  11
ENDBRANCH   1  10
TORSDOF 12
ENDMDL
MODEL 8
REMARK VINA RESULT:    -5.281      3.382      6.834
REMARK INTER + INTRA:         -10.249
REMARK INTER:                  -9.298
REMARK INTRA:                  -0.951
REMARK UNBOUND:                -1.262
REMARK SMILES CCCCCCCCCCCCCC(=O)[O-]
REMARK SMILES IDX 8 1 9 2 10 3 11 4 12 5 13 6 14 7 15 8 16 9 7 10 6 11 5 12
REMARK SMILES IDX 4 13 3 14 2 15 1 16
REMARK H PARENT
REMARK Flexibility Score: inf
ROOT
ATOM      1  C   UNL     1      -1.748  38.948 101.528  1.00  0.00     0.000 C 
ENDROOT
BRANCH   1   2
ATOM      2  C   UNL     1      -1.606  39.690 102.867  1.00  0.00     0.000 C 
BRANCH   2   3
ATOM      3  C   UNL     1      -2.803  40.605 103.171  1.00  0.00     0.000 C 
BRANCH   3   4
ATOM      4  C   UNL     1      -3.119  41.568 102.014  1.00  0.00     0.000 C 
BRANCH   4   5
ATOM      5  C   UNL     1      -3.729  42.894 102.498  1.00  0.00     0.006 C 
BRANCH   5   6
ATOM      6  C   UNL     1      -4.091  42.869 103.989  1.00  0.00     0.053 C 
BRANCH   6   7
ATOM      7  C   UNL     1      -5.396  43.561 104.221  1.00  0.00     0.041 C 
ATOM      8  O   UNL     1      -5.729  43.914 105.382  1.00  0.00    -0.550 OA
ATOM      9  O   UNL     1      -6.271  43.769 103.162  1.00  0.00    -0.550 OA
ENDBRANCH   6   7
ENDBRANCH   5   6
ENDBRANCH   4   5
ENDBRANCH   3   4
ENDBRANCH   2   3
ENDBRANCH   1   2
BRANCH   1  10
ATOM     10  C   UNL     1      -2.580  37.668 101.697  1.00  0.00     0.000 C 
BRANCH  10  11
ATOM     11  C   UNL     1      -3.944  37.745 100.992  1.00  0.00    -0.000 C 
BRANCH  11  12
ATOM     12  C   UNL     1      -4.799  36.488 101.225  1.00  0.00    -0.000 C 
BRANCH  12  13
ATOM     13  C   UNL     1      -4.892  35.596  99.976  1.00  0.00    -0.000 C 
BRANCH  13  14
ATOM     14  C   UNL     1      -3.702  34.628  99.849  1.00  0.00    -0.000 C 
BRANCH  14  15
ATOM     15  C   UNL     1      -2.765  34.998  98.689  1.00  0.00    -0.003 C 
ATOM     16  C   UNL     1      -3.304  36.147  97.835  1.00  0.00     0.004 C 
ENDBRANCH  14  15
ENDBRANCH  13  14
ENDBRANCH  12  13
ENDBRANCH  11  12
ENDBRANCH  10  11
ENDBRANCH   1  10
TORSDOF 12
ENDMDL
MODEL 9
REMARK VINA RESULT:    -5.162      2.158      3.692
REMARK INTER + INTRA:         -10.045
REMARK INTER:                  -9.286
REMARK INTRA:                  -0.759
REMARK UNBOUND:                -1.262
REMARK SMILES CCCCCCCCCCCCCC(=O)[O-]
REMARK SMILES IDX 8 1 9 2 10 3 11 4 12 5 13 6 14 7 15 8 16 9 7 10 6 11 5 12
REMARK SMILES IDX 4 13 3 14 2 15 1 16
REMARK H PARENT
REMARK Flexibility Score: inf
ROOT
ATOM      1  C   UNL     1      -2.993  39.435 100.874  1.00  0.00     0.000 C 
ENDROOT
BRANCH   1   2
ATOM      2  C   UNL     1      -3.637  38.191 100.240  1.00  0.00     0.000 C 
BRANCH   2   3
ATOM      3  C   UNL     1      -3.938  37.088 101.267  1.00  0.00     0.000 C 
BRANCH   3   4
ATOM      4  C   UNL     1      -5.089  36.168 100.826  1.00  0.00     0.000 C 
BRANCH   4   5
ATOM      5  C   UNL     1      -4.598  34.947 100.032  1.00  0.00     0.006 C 
BRANCH   5   6
ATOM      6  C   UNL     1      -5.226  34.856  98.635  1.00  0.00     0.053 C 
BRANCH   6   7
ATOM      7  C   UNL     1      -4.699  35.945  97.755  1.00  0.00     0.041 C 
ATOM      8  O   UNL     1      -5.494  36.730  97.174  1.00  0.00    -0.550 OA
ATOM      9  O   UNL     1      -3.333  36.061  97.533  1.00  0.00    -0.550 OA
ENDBRANCH   6   7
ENDBRANCH   5   6
ENDBRANCH   4   5
ENDBRANCH   3   4
ENDBRANCH   2   3
ENDBRANCH   1   2
BRANCH   1  10
ATOM     10  C   UNL     1      -1.789  39.045 101.744  1.00  0.00     0.000 C 
BRANCH  10  11
ATOM     11  C   UNL     1      -1.431  40.120 102.783  1.00  0.00    -0.000 C 
BRANCH  11  12
ATOM     12  C   UNL     1      -2.623  41.031 103.124  1.00  0.00    -0.000 C 
BRANCH  12  13
ATOM     13  C   UNL     1      -2.230  42.516 103.203  1.00  0.00    -0.000 C 
BRANCH  13  14
ATOM     14  C   UNL     1      -3.318  43.383 103.861  1.00  0.00    -0.000 C 
BRANCH  14  15
ATOM     15  C   UNL     1      -4.504  42.550 104.370  1.00  0.00    -0.003 C 
ATOM     16  C   UNL     1      -5.599  43.405 105.009  1.00  0.00     0.004 C 
ENDBRANCH  14  15
ENDBRANCH  13  14
ENDBRANCH  12  13
ENDBRANCH  11  12
ENDBRANCH  10  11
ENDBRANCH   1  10
TORSDOF 12
ENDMDL
