MODEL 1
REMARK VINA RESULT:    14.800      0.000      0.000
REMARK INTER + INTRA:          17.513
REMARK INTER:                  17.828
REMARK INTRA:                  -0.314
REMARK UNBOUND:                -0.314
REMARK SMILES O=c1c(O)c(-c2ccc(O)c(O)c2)oc2cc(O)cc(O)c12
REMARK SMILES IDX 5 1 3 2 2 3 1 4 22 5 20 6 19 7 17 8 16 9 15 10 14 11 6 12
REMARK SMILES IDX 7 13 8 14 9 15 13 16 11 17 10 18 12 20 4 22 21 24 18 26
REMARK H PARENT 10 19 12 21 4 23 21 25 18 27
REMARK Flexibility Score: inf
ROOT
ATOM      1  C   UNL     1      -9.269 -16.569  -5.048  1.00  0.00     0.180 A 
ATOM      2  C   UNL     1      -8.866 -15.252  -4.766  1.00  0.00     0.208 A 
ATOM      3  C   UNL     1      -7.941 -14.626  -5.617  1.00  0.00     0.238 A 
ATOM      4  O   UNL     1      -7.542 -13.467  -5.328  1.00  0.00    -0.285 OA
ATOM      5  C   UNL     1      -7.445 -15.317  -6.748  1.00  0.00     0.111 A 
ATOM      6  C   UNL     1      -6.535 -14.765  -7.700  1.00  0.00     0.134 A 
ATOM      7  C   UNL     1      -6.009 -15.584  -8.708  1.00  0.00     0.093 A 
ATOM      8  C   UNL     1      -6.408 -16.913  -8.837  1.00  0.00     0.123 A 
ATOM      9  C   UNL     1      -7.342 -17.446  -7.947  1.00  0.00     0.094 A 
ATOM     10  C   UNL     1      -7.857 -16.665  -6.910  1.00  0.00     0.146 A 
ATOM     11  O   UNL     1      -8.735 -17.213  -6.079  1.00  0.00    -0.452 OA
ENDROOT
BRANCH   1  12
ATOM     12  C   UNL     1     -10.258 -17.286  -4.211  1.00  0.00     0.025 A 
ATOM     13  C   UNL     1     -11.619 -17.332  -4.563  1.00  0.00     0.016 A 
ATOM     14  C   UNL     1     -12.530 -18.035  -3.772  1.00  0.00     0.051 A 
ATOM     15  C   UNL     1     -12.094 -18.713  -2.626  1.00  0.00     0.157 A 
ATOM     16  C   UNL     1      -9.824 -17.985  -3.073  1.00  0.00     0.062 A 
ATOM     17  C   UNL     1     -10.738 -18.690  -2.278  1.00  0.00     0.158 A 
BRANCH  15  18
ATOM     18  O   UNL     1     -13.001 -19.414  -1.833  1.00  0.00    -0.504 OA
ATOM     19  H   UNL     1     -13.019 -19.307  -0.826  1.00  0.00     0.293 HD
ENDBRANCH  15  18
BRANCH  17  20
ATOM     20  O   UNL     1     -10.306 -19.372  -1.141  1.00  0.00    -0.504 OA
ATOM     21  H   UNL     1     -10.265 -18.919  -0.236  1.00  0.00     0.293 HD
ENDBRANCH  17  20
ENDBRANCH   1  12
BRANCH   2  22
ATOM     22  O   UNL     1      -9.351 -14.595  -3.632  1.00  0.00    -0.502 OA
ATOM     23  H   UNL     1      -8.784 -13.959  -3.086  1.00  0.00     0.293 HD
ENDBRANCH   2  22
BRANCH   6  24
ATOM     24  O   UNL     1      -6.142 -13.424  -7.717  1.00  0.00    -0.507 OA
ATOM     25  H   UNL     1      -5.247 -13.091  -8.043  1.00  0.00     0.293 HD
ENDBRANCH   6  24
BRANCH   8  26
ATOM     26  O   UNL     1      -5.877 -17.694  -9.861  1.00  0.00    -0.508 OA
ATOM     27  H   UNL     1      -6.472 -18.229 -10.483  1.00  0.00     0.293 HD
ENDBRANCH   8  26
TORSDOF 6
ENDMDL
MODEL 2
REMARK VINA RESULT:    17.070      3.817      4.931
REMARK INTER + INTRA:          20.249
REMARK INTER:                  19.761
REMARK INTRA:                   0.488
REMARK UNBOUND:                -0.314
REMARK SMILES O=c1c(O)c(-c2ccc(O)c(O)c2)oc2cc(O)cc(O)c12
REMARK SMILES IDX 5 1 3 2 2 3 1 4 22 5 20 6 19 7 17 8 16 9 15 10 14 11 6 12
REMARK SMILES IDX 7 13 8 14 9 15 13 16 11 17 10 18 12 20 4 22 21 24 18 26
REMARK H PARENT 10 19 12 21 4 23 21 25 18 27
REMARK Flexibility Score: inf
ROOT
ATOM      1  C   UNL     1      -6.113 -18.380  -5.914  1.00  0.00     0.180 A 
ATOM      2  C   UNL     1      -5.989 -19.086  -7.123  1.00  0.00     0.208 A 
ATOM      3  C   UNL     1      -6.021 -18.375  -8.334  1.00  0.00     0.238 A 
ATOM      4  O   UNL     1      -5.965 -19.019  -9.414  1.00  0.00    -0.285 OA
ATOM      5  C   UNL     1      -6.158 -16.967  -8.320  1.00  0.00     0.111 A 
ATOM      6  C   UNL     1      -6.162 -16.141  -9.485  1.00  0.00     0.134 A 
ATOM      7  C   UNL     1      -6.436 -14.773  -9.361  1.00  0.00     0.093 A 
ATOM      8  C   UNL     1      -6.642 -14.190  -8.112  1.00  0.00     0.123 A 
ATOM      9  C   UNL     1      -6.581 -14.977  -6.961  1.00  0.00     0.094 A 
ATOM     10  C   UNL     1      -6.346 -16.352  -7.055  1.00  0.00     0.146 A 
ATOM     11  O   UNL     1      -6.306 -17.066  -5.938  1.00  0.00    -0.452 OA
ENDROOT
BRANCH   1  12
ATOM     12  C   UNL     1      -6.064 -19.056  -4.598  1.00  0.00     0.025 A 
ATOM     13  C   UNL     1      -5.898 -18.328  -3.406  1.00  0.00     0.016 A 
ATOM     14  C   UNL     1      -5.879 -18.986  -2.174  1.00  0.00     0.051 A 
ATOM     15  C   UNL     1      -6.038 -20.377  -2.113  1.00  0.00     0.157 A 
ATOM     16  C   UNL     1      -6.244 -20.447  -4.529  1.00  0.00     0.062 A 
ATOM     17  C   UNL     1      -6.223 -21.108  -3.293  1.00  0.00     0.158 A 
BRANCH  15  18
ATOM     18  O   UNL     1      -6.017 -21.036  -0.885  1.00  0.00    -0.504 OA
ATOM     19  H   UNL     1      -6.657 -21.794  -0.679  1.00  0.00     0.293 HD
ENDBRANCH  15  18
BRANCH  17  20
ATOM     20  O   UNL     1      -6.389 -22.490  -3.228  1.00  0.00    -0.504 OA
ATOM     21  H   UNL     1      -7.305 -22.918  -3.306  1.00  0.00     0.293 HD
ENDBRANCH  17  20
ENDBRANCH   1  12
BRANCH   2  22
ATOM     22  O   UNL     1      -5.876 -20.479  -7.116  1.00  0.00    -0.502 OA
ATOM     23  H   UNL     1      -5.346 -20.986  -7.814  1.00  0.00     0.293 HD
ENDBRANCH   2  22
BRANCH   6  24
ATOM     24  O   UNL     1      -5.878 -16.607 -10.772  1.00  0.00    -0.507 OA
ATOM     25  H   UNL     1      -4.975 -16.547 -11.219  1.00  0.00     0.293 HD
ENDBRANCH   6  24
BRANCH   8  26
ATOM     26  O   UNL     1      -6.896 -12.823  -8.024  1.00  0.00    -0.508 OA
ATOM     27  H   UNL     1      -6.632 -12.286  -7.206  1.00  0.00     0.293 HD
ENDBRANCH   8  26
TORSDOF 6
ENDMDL
