MODEL 1
REMARK VINA RESULT:    -6.762      0.000      0.000
REMARK INTER + INTRA:          -8.212
REMARK INTER:                  -7.948
REMARK INTRA:                  -0.263
REMARK UNBOUND:                -0.263
REMARK SMILES O=c1cc(-c2ccc(O)c(O)c2)oc2cc(O)cc(O)c12
REMARK SMILES IDX 4 1 3 2 2 3 1 4 21 5 19 6 18 7 16 8 15 9 14 10 13 11 5 12
REMARK SMILES IDX 6 13 7 14 8 15 12 16 10 17 9 18 11 20 20 22 17 24
REMARK H PARENT 9 19 11 21 20 23 17 25
REMARK Flexibility Score: inf
ROOT
ATOM      1  C   UNL     1     -60.318  20.300 -30.225  1.00  0.00     0.138 A 
ATOM      2  C   UNL     1     -59.483  20.820 -29.227  1.00  0.00     0.100 A 
ATOM      3  C   UNL     1     -59.488  22.191 -28.968  1.00  0.00     0.197 A 
ATOM      4  O   UNL     1     -58.775  22.619 -28.025  1.00  0.00    -0.289 OA
ATOM      5  C   UNL     1     -60.311  23.049 -29.735  1.00  0.00     0.107 A 
ATOM      6  C   UNL     1     -60.368  24.467 -29.587  1.00  0.00     0.134 A 
ATOM      7  C   UNL     1     -61.307  25.201 -30.323  1.00  0.00     0.093 A 
ATOM      8  C   UNL     1     -62.148  24.577 -31.244  1.00  0.00     0.123 A 
ATOM      9  C   UNL     1     -62.064  23.197 -31.436  1.00  0.00     0.094 A 
ATOM     10  C   UNL     1     -61.162  22.433 -30.692  1.00  0.00     0.146 A 
ATOM     11  O   UNL     1     -61.123  21.120 -30.894  1.00  0.00    -0.456 OA
ENDROOT
BRANCH   1  12
ATOM     12  C   UNL     1     -60.352  18.850 -30.544  1.00  0.00     0.021 A 
ATOM     13  C   UNL     1     -59.908  18.408 -31.802  1.00  0.00     0.016 A 
ATOM     14  C   UNL     1     -59.923  17.048 -32.124  1.00  0.00     0.051 A 
ATOM     15  C   UNL     1     -60.372  16.107 -31.190  1.00  0.00     0.157 A 
ATOM     16  C   UNL     1     -60.790  17.895 -29.605  1.00  0.00     0.062 A 
ATOM     17  C   UNL     1     -60.804  16.531 -29.927  1.00  0.00     0.158 A 
BRANCH  15  18
ATOM     18  O   UNL     1     -60.390  14.750 -31.508  1.00  0.00    -0.504 OA
ATOM     19  H   UNL     1     -60.830  14.410 -32.356  1.00  0.00     0.293 HD
ENDBRANCH  15  18
BRANCH  17  20
ATOM     20  O   UNL     1     -61.240  15.590 -28.997  1.00  0.00    -0.504 OA
ATOM     21  H   UNL     1     -61.438  15.846 -28.036  1.00  0.00     0.293 HD
ENDBRANCH  17  20
ENDBRANCH   1  12
BRANCH   6  22
ATOM     22  O   UNL     1     -59.516  25.201 -28.757  1.00  0.00    -0.507 OA
ATOM     23  H   UNL     1     -58.855  24.799 -28.109  1.00  0.00     0.293 HD
ENDBRANCH   6  22
BRANCH   8  24
ATOM     24  O   UNL     1     -63.059  25.340 -31.970  1.00  0.00    -0.508 OA
ATOM     25  H   UNL     1     -64.022  25.443 -31.671  1.00  0.00     0.293 HD
ENDBRANCH   8  24
TORSDOF 5
ENDMDL
MODEL 2
REMARK VINA RESULT:    -6.756      2.114      7.067
REMARK INTER + INTRA:          -8.204
REMARK INTER:                  -7.932
REMARK INTRA:                  -0.272
REMARK UNBOUND:                -0.263
REMARK SMILES O=c1cc(-c2ccc(O)c(O)c2)oc2cc(O)cc(O)c12
REMARK SMILES IDX 4 1 3 2 2 3 1 4 21 5 19 6 18 7 16 8 15 9 14 10 13 11 5 12
REMARK SMILES IDX 6 13 7 14 8 15 12 16 10 17 9 18 11 20 20 22 17 24
REMARK H PARENT 9 19 11 21 20 23 17 25
REMARK Flexibility Score: inf
ROOT
ATOM      1  C   UNL     1     -60.557  22.333 -30.529  1.00  0.00     0.138 A 
ATOM      2  C   UNL     1     -59.307  21.790 -30.854  1.00  0.00     0.100 A 
ATOM      3  C   UNL     1     -59.226  20.481 -31.331  1.00  0.00     0.197 A 
ATOM      4  O   UNL     1     -58.097  20.042 -31.673  1.00  0.00    -0.289 OA
ATOM      5  C   UNL     1     -60.400  19.702 -31.452  1.00  0.00     0.107 A 
ATOM      6  C   UNL     1     -60.434  18.344 -31.889  1.00  0.00     0.134 A 
ATOM      7  C   UNL     1     -61.668  17.711 -32.081  1.00  0.00     0.093 A 
ATOM      8  C   UNL     1     -62.866  18.365 -31.797  1.00  0.00     0.123 A 
ATOM      9  C   UNL     1     -62.844  19.677 -31.318  1.00  0.00     0.094 A 
ATOM     10  C   UNL     1     -61.630  20.346 -31.148  1.00  0.00     0.146 A 
ATOM     11  O   UNL     1     -61.652  21.599 -30.705  1.00  0.00    -0.456 OA
ENDROOT
BRANCH   1  12
ATOM     12  C   UNL     1     -60.701  23.719 -30.016  1.00  0.00     0.021 A 
ATOM     13  C   UNL     1     -60.152  24.055 -28.767  1.00  0.00     0.016 A 
ATOM     14  C   UNL     1     -60.268  25.353 -28.264  1.00  0.00     0.051 A 
ATOM     15  C   UNL     1     -60.926  26.340 -29.008  1.00  0.00     0.157 A 
ATOM     16  C   UNL     1     -61.350  24.722 -30.764  1.00  0.00     0.062 A 
ATOM     17  C   UNL     1     -61.466  26.025 -30.260  1.00  0.00     0.158 A 
BRANCH  15  18
ATOM     18  O   UNL     1     -61.045  27.637 -28.510  1.00  0.00    -0.504 OA
ATOM     19  H   UNL     1     -60.298  28.072 -27.981  1.00  0.00     0.293 HD
ENDBRANCH  15  18
BRANCH  17  20
ATOM     20  O   UNL     1     -62.110  27.014 -31.001  1.00  0.00    -0.504 OA
ATOM     21  H   UNL     1     -62.249  27.947 -30.632  1.00  0.00     0.293 HD
ENDBRANCH  17  20
ENDBRANCH   1  12
BRANCH   6  22
ATOM     22  O   UNL     1     -59.293  17.569 -32.121  1.00  0.00    -0.507 OA
ATOM     23  H   UNL     1     -59.249  16.566 -32.022  1.00  0.00     0.293 HD
ENDBRANCH   6  22
BRANCH   8  24
ATOM     24  O   UNL     1     -64.075  17.700 -31.985  1.00  0.00    -0.508 OA
ATOM     25  H   UNL     1     -64.378  16.962 -31.361  1.00  0.00     0.293 HD
ENDBRANCH   8  24
TORSDOF 5
ENDMDL
MODEL 3
REMARK VINA RESULT:    -6.584      1.205      2.970
REMARK INTER + INTRA:          -8.003
REMARK INTER:                  -7.740
REMARK INTRA:                  -0.263
REMARK UNBOUND:                -0.263
REMARK SMILES O=c1cc(-c2ccc(O)c(O)c2)oc2cc(O)cc(O)c12
REMARK SMILES IDX 4 1 3 2 2 3 1 4 21 5 19 6 18 7 16 8 15 9 14 10 13 11 5 12
REMARK SMILES IDX 6 13 7 14 8 15 12 16 10 17 9 18 11 20 20 22 17 24
REMARK H PARENT 9 19 11 21 20 23 17 25
REMARK Flexibility Score: inf
ROOT
ATOM      1  C   UNL     1     -61.311  20.355 -30.381  1.00  0.00     0.138 A 
ATOM      2  C   UNL     1     -62.424  20.852 -31.072  1.00  0.00     0.100 A 
ATOM      3  C   UNL     1     -62.580  22.229 -31.231  1.00  0.00     0.197 A 
ATOM      4  O   UNL     1     -63.556  22.642 -31.909  1.00  0.00    -0.289 OA
ATOM      5  C   UNL     1     -61.631  23.114 -30.668  1.00  0.00     0.107 A 
ATOM      6  C   UNL     1     -61.708  24.537 -30.732  1.00  0.00     0.134 A 
ATOM      7  C   UNL     1     -60.648  25.309 -30.238  1.00  0.00     0.093 A 
ATOM      8  C   UNL     1     -59.544  24.713 -29.631  1.00  0.00     0.123 A 
ATOM      9  C   UNL     1     -59.483  23.323 -29.514  1.00  0.00     0.094 A 
ATOM     10  C   UNL     1     -60.508  22.525 -30.027  1.00  0.00     0.146 A 
ATOM     11  O   UNL     1     -60.404  21.205 -29.910  1.00  0.00    -0.456 OA
ENDROOT
BRANCH   1  12
ATOM     12  C   UNL     1     -61.097  18.899 -30.181  1.00  0.00     0.021 A 
ATOM     13  C   UNL     1     -61.500  18.300 -28.975  1.00  0.00     0.016 A 
ATOM     14  C   UNL     1     -61.316  16.931 -28.765  1.00  0.00     0.051 A 
ATOM     15  C   UNL     1     -60.735  16.137 -29.760  1.00  0.00     0.157 A 
ATOM     16  C   UNL     1     -60.525  18.090 -31.183  1.00  0.00     0.062 A 
ATOM     17  C   UNL     1     -60.341  16.716 -30.972  1.00  0.00     0.158 A 
BRANCH  15  18
ATOM     18  O   UNL     1     -60.548  14.771 -29.554  1.00  0.00    -0.504 OA
ATOM     19  H   UNL     1     -60.215  14.163 -30.294  1.00  0.00     0.293 HD
ENDBRANCH  15  18
BRANCH  17  20
ATOM     20  O   UNL     1     -59.773  15.919 -31.964  1.00  0.00    -0.504 OA
ATOM     21  H   UNL     1     -60.277  15.139 -32.371  1.00  0.00     0.293 HD
ENDBRANCH  17  20
ENDBRANCH   1  12
BRANCH   6  22
ATOM     22  O   UNL     1     -62.805  25.239 -31.242  1.00  0.00    -0.507 OA
ATOM     23  H   UNL     1     -63.621  24.812 -31.653  1.00  0.00     0.293 HD
ENDBRANCH   6  22
BRANCH   8  24
ATOM     24  O   UNL     1     -58.516  25.513 -29.137  1.00  0.00    -0.508 OA
ATOM     25  H   UNL     1     -57.542  25.276 -29.287  1.00  0.00     0.293 HD
ENDBRANCH   8  24
TORSDOF 5
ENDMDL
MODEL 4
REMARK VINA RESULT:    -6.504      1.596      3.385
REMARK INTER + INTRA:          -7.907
REMARK INTER:                  -7.631
REMARK INTRA:                  -0.276
REMARK UNBOUND:                -0.263
REMARK SMILES O=c1cc(-c2ccc(O)c(O)c2)oc2cc(O)cc(O)c12
REMARK SMILES IDX 4 1 3 2 2 3 1 4 21 5 19 6 18 7 16 8 15 9 14 10 13 11 5 12
REMARK SMILES IDX 6 13 7 14 8 15 12 16 10 17 9 18 11 20 20 22 17 24
REMARK H PARENT 9 19 11 21 20 23 17 25
REMARK Flexibility Score: inf
ROOT
ATOM      1  C   UNL     1     -61.274  22.274 -30.622  1.00  0.00     0.138 A 
ATOM      2  C   UNL     1     -62.208  22.957 -31.412  1.00  0.00     0.100 A 
ATOM      3  C   UNL     1     -62.270  24.350 -31.359  1.00  0.00     0.197 A 
ATOM      4  O   UNL     1     -63.076  24.939 -32.125  1.00  0.00    -0.289 OA
ATOM      5  C   UNL     1     -61.412  25.060 -30.486  1.00  0.00     0.107 A 
ATOM      6  C   UNL     1     -61.413  26.477 -30.319  1.00  0.00     0.134 A 
ATOM      7  C   UNL     1     -60.438  27.077 -29.513  1.00  0.00     0.093 A 
ATOM      8  C   UNL     1     -59.501  26.311 -28.822  1.00  0.00     0.123 A 
ATOM      9  C   UNL     1     -59.524  24.919 -28.936  1.00  0.00     0.094 A 
ATOM     10  C   UNL     1     -60.462  24.293 -29.759  1.00  0.00     0.146 A 
ATOM     11  O   UNL     1     -60.441  22.967 -29.852  1.00  0.00    -0.456 OA
ENDROOT
BRANCH   1  12
ATOM     12  C   UNL     1     -61.167  20.793 -30.638  1.00  0.00     0.021 A 
ATOM     13  C   UNL     1     -59.901  20.192 -30.754  1.00  0.00     0.016 A 
ATOM     14  C   UNL     1     -59.772  18.801 -30.765  1.00  0.00     0.051 A 
ATOM     15  C   UNL     1     -60.906  17.987 -30.650  1.00  0.00     0.157 A 
ATOM     16  C   UNL     1     -62.301  19.967 -30.510  1.00  0.00     0.062 A 
ATOM     17  C   UNL     1     -62.172  18.571 -30.520  1.00  0.00     0.158 A 
BRANCH  15  18
ATOM     18  O   UNL     1     -60.782  16.599 -30.662  1.00  0.00    -0.504 OA
ATOM     19  H   UNL     1     -60.508  16.084 -29.833  1.00  0.00     0.293 HD
ENDBRANCH  15  18
BRANCH  17  20
ATOM     20  O   UNL     1     -63.296  17.757 -30.395  1.00  0.00    -0.504 OA
ATOM     21  H   UNL     1     -64.108  18.051 -29.865  1.00  0.00     0.293 HD
ENDBRANCH  17  20
ENDBRANCH   1  12
BRANCH   6  22
ATOM     22  O   UNL     1     -62.357  27.331 -30.896  1.00  0.00    -0.507 OA
ATOM     23  H   UNL     1     -62.458  27.493 -31.887  1.00  0.00     0.293 HD
ENDBRANCH   6  22
BRANCH   8  24
ATOM     24  O   UNL     1     -58.555  26.941 -28.017  1.00  0.00    -0.508 OA
ATOM     25  H   UNL     1     -57.779  27.456 -28.415  1.00  0.00     0.293 HD
ENDBRANCH   8  24
TORSDOF 5
ENDMDL
MODEL 5
REMARK VINA RESULT:    -6.456      2.101      6.994
REMARK INTER + INTRA:          -7.851
REMARK INTER:                  -7.573
REMARK INTRA:                  -0.278
REMARK UNBOUND:                -0.263
REMARK SMILES O=c1cc(-c2ccc(O)c(O)c2)oc2cc(O)cc(O)c12
REMARK SMILES IDX 4 1 3 2 2 3 1 4 21 5 19 6 18 7 16 8 15 9 14 10 13 11 5 12
REMARK SMILES IDX 6 13 7 14 8 15 12 16 10 17 9 18 11 20 20 22 17 24
REMARK H PARENT 9 19 11 21 20 23 17 25
REMARK Flexibility Score: inf
ROOT
ATOM      1  C   UNL     1     -60.692  22.261 -30.827  1.00  0.00     0.138 A 
ATOM      2  C   UNL     1     -59.443  21.691 -31.113  1.00  0.00     0.100 A 
ATOM      3  C   UNL     1     -59.369  20.355 -31.510  1.00  0.00     0.197 A 
ATOM      4  O   UNL     1     -58.241  19.890 -31.819  1.00  0.00    -0.289 OA
ATOM      5  C   UNL     1     -60.548  19.578 -31.591  1.00  0.00     0.107 A 
ATOM      6  C   UNL     1     -60.589  18.197 -31.946  1.00  0.00     0.134 A 
ATOM      7  C   UNL     1     -61.827  17.561 -32.107  1.00  0.00     0.093 A 
ATOM      8  C   UNL     1     -63.021  18.239 -31.868  1.00  0.00     0.123 A 
ATOM      9  C   UNL     1     -62.992  19.577 -31.468  1.00  0.00     0.094 A 
ATOM     10  C   UNL     1     -61.774  20.247 -31.333  1.00  0.00     0.146 A 
ATOM     11  O   UNL     1     -61.790  21.525 -30.965  1.00  0.00    -0.456 OA
ENDROOT
BRANCH   1  12
ATOM     12  C   UNL     1     -60.829  23.676 -30.399  1.00  0.00     0.021 A 
ATOM     13  C   UNL     1     -61.824  24.481 -30.979  1.00  0.00     0.016 A 
ATOM     14  C   UNL     1     -61.978  25.813 -30.589  1.00  0.00     0.051 A 
ATOM     15  C   UNL     1     -61.146  26.360 -29.604  1.00  0.00     0.157 A 
ATOM     16  C   UNL     1     -60.004  24.230 -29.400  1.00  0.00     0.062 A 
ATOM     17  C   UNL     1     -60.160  25.567 -29.007  1.00  0.00     0.158 A 
BRANCH  15  18
ATOM     18  O   UNL     1     -61.295  27.689 -29.213  1.00  0.00    -0.504 OA
ATOM     19  H   UNL     1     -62.132  28.012 -28.739  1.00  0.00     0.293 HD
ENDBRANCH  15  18
BRANCH  17  20
ATOM     20  O   UNL     1     -59.341  26.112 -28.020  1.00  0.00    -0.504 OA
ATOM     21  H   UNL     1     -59.125  25.605 -27.170  1.00  0.00     0.293 HD
ENDBRANCH  17  20
ENDBRANCH   1  12
BRANCH   6  22
ATOM     22  O   UNL     1     -59.452  17.402 -32.125  1.00  0.00    -0.507 OA
ATOM     23  H   UNL     1     -58.680  17.629 -32.733  1.00  0.00     0.293 HD
ENDBRANCH   6  22
BRANCH   8  24
ATOM     24  O   UNL     1     -64.234  17.572 -32.023  1.00  0.00    -0.508 OA
ATOM     25  H   UNL     1     -65.081  17.899 -31.573  1.00  0.00     0.293 HD
ENDBRANCH   8  24
TORSDOF 5
ENDMDL
MODEL 6
REMARK VINA RESULT:    -6.355      2.441      8.101
REMARK INTER + INTRA:          -7.733
REMARK INTER:                  -7.443
REMARK INTRA:                  -0.290
REMARK UNBOUND:                -0.263
REMARK SMILES O=c1cc(-c2ccc(O)c(O)c2)oc2cc(O)cc(O)c12
REMARK SMILES IDX 4 1 3 2 2 3 1 4 21 5 19 6 18 7 16 8 15 9 14 10 13 11 5 12
REMARK SMILES IDX 6 13 7 14 8 15 12 16 10 17 9 18 11 20 20 22 17 24
REMARK H PARENT 9 19 11 21 20 23 17 25
REMARK Flexibility Score: inf
ROOT
ATOM      1  C   UNL     1     -60.480  24.477 -29.716  1.00  0.00     0.138 A 
ATOM      2  C   UNL     1     -61.240  23.962 -30.775  1.00  0.00     0.100 A 
ATOM      3  C   UNL     1     -61.230  22.589 -31.028  1.00  0.00     0.197 A 
ATOM      4  O   UNL     1     -61.971  22.150 -31.945  1.00  0.00    -0.289 OA
ATOM      5  C   UNL     1     -60.431  21.733 -30.235  1.00  0.00     0.107 A 
ATOM      6  C   UNL     1     -60.312  20.325 -30.426  1.00  0.00     0.134 A 
ATOM      7  C   UNL     1     -59.581  19.562 -29.506  1.00  0.00     0.093 A 
ATOM      8  C   UNL     1     -58.917  20.164 -28.438  1.00  0.00     0.123 A 
ATOM      9  C   UNL     1     -58.982  21.549 -28.272  1.00  0.00     0.094 A 
ATOM     10  C   UNL     1     -59.731  22.332 -29.153  1.00  0.00     0.146 A 
ATOM     11  O   UNL     1     -59.781  23.645 -28.951  1.00  0.00    -0.456 OA
ENDROOT
BRANCH   1  12
ATOM     12  C   UNL     1     -60.452  25.928 -29.404  1.00  0.00     0.021 A 
ATOM     13  C   UNL     1     -59.345  26.469 -28.728  1.00  0.00     0.016 A 
ATOM     14  C   UNL     1     -59.291  27.832 -28.428  1.00  0.00     0.051 A 
ATOM     15  C   UNL     1     -60.338  28.680 -28.808  1.00  0.00     0.157 A 
ATOM     16  C   UNL     1     -61.496  26.790 -29.795  1.00  0.00     0.062 A 
ATOM     17  C   UNL     1     -61.441  28.159 -29.495  1.00  0.00     0.158 A 
BRANCH  15  18
ATOM     18  O   UNL     1     -60.290  30.040 -28.510  1.00  0.00    -0.504 OA
ATOM     19  H   UNL     1     -59.633  30.411 -27.831  1.00  0.00     0.293 HD
ENDBRANCH  15  18
BRANCH  17  20
ATOM     20  O   UNL     1     -62.476  29.008 -29.881  1.00  0.00    -0.504 OA
ATOM     21  H   UNL     1     -63.283  29.165 -29.288  1.00  0.00     0.293 HD
ENDBRANCH  17  20
ENDBRANCH   1  12
BRANCH   6  22
ATOM     22  O   UNL     1     -60.865  19.633 -31.508  1.00  0.00    -0.507 OA
ATOM     23  H   UNL     1     -61.551  18.897 -31.432  1.00  0.00     0.293 HD
ENDBRANCH   6  22
BRANCH   8  24
ATOM     24  O   UNL     1     -58.186  19.377 -27.550  1.00  0.00    -0.508 OA
ATOM     25  H   UNL     1     -57.225  19.596 -27.315  1.00  0.00     0.293 HD
ENDBRANCH   8  24
TORSDOF 5
ENDMDL
MODEL 7
REMARK VINA RESULT:    -6.144      2.016      4.060
REMARK INTER + INTRA:          -7.484
REMARK INTER:                  -7.167
REMARK INTRA:                  -0.317
REMARK UNBOUND:                -0.263
REMARK SMILES O=c1cc(-c2ccc(O)c(O)c2)oc2cc(O)cc(O)c12
REMARK SMILES IDX 4 1 3 2 2 3 1 4 21 5 19 6 18 7 16 8 15 9 14 10 13 11 5 12
REMARK SMILES IDX 6 13 7 14 8 15 12 16 10 17 9 18 11 20 20 22 17 24
REMARK H PARENT 9 19 11 21 20 23 17 25
REMARK Flexibility Score: inf
ROOT
ATOM      1  C   UNL     1     -60.921  23.308 -30.375  1.00  0.00     0.138 A 
ATOM      2  C   UNL     1     -61.772  23.943 -31.290  1.00  0.00     0.100 A 
ATOM      3  C   UNL     1     -61.919  25.330 -31.249  1.00  0.00     0.197 A 
ATOM      4  O   UNL     1     -62.641  25.876 -32.122  1.00  0.00    -0.289 OA
ATOM      5  C   UNL     1     -61.234  26.081 -30.266  1.00  0.00     0.107 A 
ATOM      6  C   UNL     1     -61.338  27.495 -30.104  1.00  0.00     0.134 A 
ATOM      7  C   UNL     1     -60.522  28.145 -29.170  1.00  0.00     0.093 A 
ATOM      8  C   UNL     1     -59.649  27.428 -28.352  1.00  0.00     0.123 A 
ATOM      9  C   UNL     1     -59.578  26.038 -28.465  1.00  0.00     0.094 A 
ATOM     10  C   UNL     1     -60.354  25.365 -29.411  1.00  0.00     0.146 A 
ATOM     11  O   UNL     1     -60.246  24.043 -29.497  1.00  0.00    -0.456 OA
ENDROOT
BRANCH   1  12
ATOM     12  C   UNL     1     -60.730  21.836 -30.372  1.00  0.00     0.021 A 
ATOM     13  C   UNL     1     -61.313  21.060 -31.389  1.00  0.00     0.016 A 
ATOM     14  C   UNL     1     -61.142  19.674 -31.413  1.00  0.00     0.051 A 
ATOM     15  C   UNL     1     -60.377  19.041 -30.426  1.00  0.00     0.157 A 
ATOM     16  C   UNL     1     -59.951  21.192 -29.390  1.00  0.00     0.062 A 
ATOM     17  C   UNL     1     -59.778  19.801 -29.415  1.00  0.00     0.158 A 
BRANCH  15  18
ATOM     18  O   UNL     1     -60.206  17.658 -30.445  1.00  0.00    -0.504 OA
ATOM     19  H   UNL     1     -60.831  17.039 -29.941  1.00  0.00     0.293 HD
ENDBRANCH  15  18
BRANCH  17  20
ATOM     20  O   UNL     1     -59.009  19.167 -28.441  1.00  0.00    -0.504 OA
ATOM     21  H   UNL     1     -59.152  19.345 -27.453  1.00  0.00     0.293 HD
ENDBRANCH  17  20
ENDBRANCH   1  12
BRANCH   6  22
ATOM     22  O   UNL     1     -62.238  28.298 -30.810  1.00  0.00    -0.507 OA
ATOM     23  H   UNL     1     -62.609  29.176 -30.480  1.00  0.00     0.293 HD
ENDBRANCH   6  22
BRANCH   8  24
ATOM     24  O   UNL     1     -58.863  28.106 -27.423  1.00  0.00    -0.508 OA
ATOM     25  H   UNL     1     -59.035  28.031 -26.428  1.00  0.00     0.293 HD
ENDBRANCH   8  24
TORSDOF 5
ENDMDL
MODEL 8
REMARK VINA RESULT:    -5.908      2.194      7.315
REMARK INTER + INTRA:          -7.208
REMARK INTER:                  -6.912
REMARK INTRA:                  -0.296
REMARK UNBOUND:                -0.263
REMARK SMILES O=c1cc(-c2ccc(O)c(O)c2)oc2cc(O)cc(O)c12
REMARK SMILES IDX 4 1 3 2 2 3 1 4 21 5 19 6 18 7 16 8 15 9 14 10 13 11 5 12
REMARK SMILES IDX 6 13 7 14 8 15 12 16 10 17 9 18 11 20 20 22 17 24
REMARK H PARENT 9 19 11 21 20 23 17 25
REMARK Flexibility Score: inf
ROOT
ATOM      1  C   UNL     1     -60.223  23.585 -29.449  1.00  0.00     0.138 A 
ATOM      2  C   UNL     1     -59.237  22.910 -28.716  1.00  0.00     0.100 A 
ATOM      3  C   UNL     1     -59.169  21.517 -28.770  1.00  0.00     0.197 A 
ATOM      4  O   UNL     1     -58.235  20.944 -28.151  1.00  0.00    -0.289 OA
ATOM      5  C   UNL     1     -60.112  20.795 -29.539  1.00  0.00     0.107 A 
ATOM      6  C   UNL     1     -60.162  19.373 -29.637  1.00  0.00     0.134 A 
ATOM      7  C   UNL     1     -61.068  18.774 -30.522  1.00  0.00     0.093 A 
ATOM      8  C   UNL     1     -61.964  19.541 -31.266  1.00  0.00     0.123 A 
ATOM      9  C   UNL     1     -61.959  20.932 -31.138  1.00  0.00     0.094 A 
ATOM     10  C   UNL     1     -61.044  21.560 -30.290  1.00  0.00     0.146 A 
ATOM     11  O   UNL     1     -61.062  22.887 -30.208  1.00  0.00    -0.456 OA
ENDROOT
BRANCH   1  12
ATOM     12  C   UNL     1     -60.343  25.064 -29.425  1.00  0.00     0.021 A 
ATOM     13  C   UNL     1     -61.429  25.680 -30.071  1.00  0.00     0.016 A 
ATOM     14  C   UNL     1     -61.568  27.070 -30.058  1.00  0.00     0.051 A 
ATOM     15  C   UNL     1     -60.630  27.867 -29.391  1.00  0.00     0.157 A 
ATOM     16  C   UNL     1     -59.410  25.872 -28.745  1.00  0.00     0.062 A 
ATOM     17  C   UNL     1     -59.551  27.267 -28.731  1.00  0.00     0.158 A 
BRANCH  15  18
ATOM     18  O   UNL     1     -60.765  29.254 -29.377  1.00  0.00    -0.504 OA
ATOM     19  H   UNL     1     -60.639  29.791 -28.525  1.00  0.00     0.293 HD
ENDBRANCH  15  18
BRANCH  17  20
ATOM     20  O   UNL     1     -58.626  28.063 -28.059  1.00  0.00    -0.504 OA
ATOM     21  H   UNL     1     -57.951  27.665 -27.416  1.00  0.00     0.293 HD
ENDBRANCH  17  20
ENDBRANCH   1  12
BRANCH   6  22
ATOM     22  O   UNL     1     -59.371  18.508 -28.876  1.00  0.00    -0.507 OA
ATOM     23  H   UNL     1     -58.411  18.682 -28.618  1.00  0.00     0.293 HD
ENDBRANCH   6  22
BRANCH   8  24
ATOM     24  O   UNL     1     -62.861  18.911 -32.125  1.00  0.00    -0.508 OA
ATOM     25  H   UNL     1     -63.725  18.505 -31.785  1.00  0.00     0.293 HD
ENDBRANCH   8  24
TORSDOF 5
ENDMDL
MODEL 9
REMARK VINA RESULT:    -5.828      2.181      2.866
REMARK INTER + INTRA:          -7.114
REMARK INTER:                  -6.796
REMARK INTRA:                  -0.318
REMARK UNBOUND:                -0.263
REMARK SMILES O=c1cc(-c2ccc(O)c(O)c2)oc2cc(O)cc(O)c12
REMARK SMILES IDX 4 1 3 2 2 3 1 4 21 5 19 6 18 7 16 8 15 9 14 10 13 11 5 12
REMARK SMILES IDX 6 13 7 14 8 15 12 16 10 17 9 18 11 20 20 22 17 24
REMARK H PARENT 9 19 11 21 20 23 17 25
REMARK Flexibility Score: inf
ROOT
ATOM      1  C   UNL     1     -60.500  22.253 -30.419  1.00  0.00     0.138 A 
ATOM      2  C   UNL     1     -59.119  22.418 -30.250  1.00  0.00     0.100 A 
ATOM      3  C   UNL     1     -58.617  23.650 -29.828  1.00  0.00     0.197 A 
ATOM      4  O   UNL     1     -57.379  23.749 -29.626  1.00  0.00    -0.289 OA
ATOM      5  C   UNL     1     -59.502  24.731 -29.604  1.00  0.00     0.107 A 
ATOM      6  C   UNL     1     -59.100  26.042 -29.211  1.00  0.00     0.134 A 
ATOM      7  C   UNL     1     -60.075  27.000 -28.906  1.00  0.00     0.093 A 
ATOM      8  C   UNL     1     -61.433  26.714 -29.036  1.00  0.00     0.123 A 
ATOM      9  C   UNL     1     -61.837  25.450 -29.472  1.00  0.00     0.094 A 
ATOM     10  C   UNL     1     -60.889  24.463 -29.751  1.00  0.00     0.146 A 
ATOM     11  O   UNL     1     -61.315  23.268 -30.149  1.00  0.00    -0.456 OA
ENDROOT
BRANCH   1  12
ATOM     12  C   UNL     1     -61.088  20.965 -30.868  1.00  0.00     0.021 A 
ATOM     13  C   UNL     1     -60.237  19.911 -31.243  1.00  0.00     0.016 A 
ATOM     14  C   UNL     1     -60.765  18.687 -31.663  1.00  0.00     0.051 A 
ATOM     15  C   UNL     1     -62.151  18.494 -31.705  1.00  0.00     0.157 A 
ATOM     16  C   UNL     1     -62.481  20.759 -30.901  1.00  0.00     0.062 A 
ATOM     17  C   UNL     1     -63.010  19.530 -31.321  1.00  0.00     0.158 A 
BRANCH  15  18
ATOM     18  O   UNL     1     -62.681  17.276 -32.125  1.00  0.00    -0.504 OA
ATOM     19  H   UNL     1     -63.248  16.704 -31.509  1.00  0.00     0.293 HD
ENDBRANCH  15  18
BRANCH  17  20
ATOM     20  O   UNL     1     -64.389  19.330 -31.354  1.00  0.00    -0.504 OA
ATOM     21  H   UNL     1     -64.916  19.406 -32.217  1.00  0.00     0.293 HD
ENDBRANCH  17  20
ENDBRANCH   1  12
BRANCH   6  22
ATOM     22  O   UNL     1     -57.768  26.460 -29.130  1.00  0.00    -0.507 OA
ATOM     23  H   UNL     1     -57.440  27.233 -28.570  1.00  0.00     0.293 HD
ENDBRANCH   6  22
BRANCH   8  24
ATOM     24  O   UNL     1     -62.375  27.696 -28.738  1.00  0.00    -0.508 OA
ATOM     25  H   UNL     1     -62.325  28.620 -29.149  1.00  0.00     0.293 HD
ENDBRANCH   8  24
TORSDOF 5
ENDMDL
