MODEL 1
REMARK VINA RESULT:    -5.222      0.000      0.000
REMARK INTER + INTRA:         -12.049
REMARK INTER:                  -9.800
REMARK INTRA:                  -2.248
REMARK UNBOUND:                -2.248
REMARK SMILES CCCCCCCCC=CCCCCCCCC(=O)[O-]
REMARK SMILES IDX 10 1 9 2 11 3 12 4 13 5 14 6 15 7 16 8 17 9 18 10 19 11
REMARK SMILES IDX 20 12 8 13 7 14 6 15 5 16 4 17 3 18 2 19 1 20
REMARK H PARENT
REMARK Flexibility Score: inf
ROOT
ATOM      1  C   UNL     1      12.709   8.221  50.882  1.00  0.00    -0.031 C 
ATOM      2  C   UNL     1      13.790   7.664  51.451  1.00  0.00    -0.031 C 
ENDROOT
BRANCH   1   3
ATOM      3  C   UNL     1      11.324   7.692  51.138  1.00  0.00     0.027 C 
BRANCH   3   4
ATOM      4  C   UNL     1      11.013   7.660  52.639  1.00  0.00     0.004 C 
BRANCH   4   5
ATOM      5  C   UNL     1       9.618   7.079  52.899  1.00  0.00     0.000 C 
BRANCH   5   6
ATOM      6  C   UNL     1       9.091   7.507  54.277  1.00  0.00     0.000 C 
BRANCH   6   7
ATOM      7  C   UNL     1       9.869   6.871  55.443  1.00  0.00     0.000 C 
BRANCH   7   8
ATOM      8  C   UNL     1      10.613   7.868  56.349  1.00  0.00     0.006 C 
BRANCH   8   9
ATOM      9  C   UNL     1      11.881   7.272  56.977  1.00  0.00     0.053 C 
BRANCH   9  10
ATOM     10  C   UNL     1      12.539   8.274  57.873  1.00  0.00     0.041 C 
ATOM     11  O   UNL     1      12.137   9.467  57.893  1.00  0.00    -0.550 OA
ATOM     12  O   UNL     1      13.564   7.878  58.723  1.00  0.00    -0.550 OA
ENDBRANCH   9  10
ENDBRANCH   8   9
ENDBRANCH   7   8
ENDBRANCH   6   7
ENDBRANCH   5   6
ENDBRANCH   4   5
ENDBRANCH   3   4
ENDBRANCH   1   3
BRANCH   2  13
ATOM     13  C   UNL     1      15.174   8.183  51.180  1.00  0.00     0.027 C 
BRANCH  13  14
ATOM     14  C   UNL     1      15.175   9.713  51.053  1.00  0.00     0.004 C 
BRANCH  14  15
ATOM     15  C   UNL     1      15.598  10.424  52.351  1.00  0.00     0.000 C 
BRANCH  15  16
ATOM     16  C   UNL     1      14.446  11.069  53.143  1.00  0.00     0.000 C 
BRANCH  16  17
ATOM     17  C   UNL     1      14.411  10.632  54.615  1.00  0.00    -0.000 C 
BRANCH  17  18
ATOM     18  C   UNL     1      14.183   9.118  54.732  1.00  0.00    -0.000 C 
BRANCH  18  19
ATOM     19  C   UNL     1      15.339   8.400  55.448  1.00  0.00    -0.003 C 
ATOM     20  C   UNL     1      16.010   7.340  54.573  1.00  0.00     0.004 C 
ENDBRANCH  18  19
ENDBRANCH  17  18
ENDBRANCH  16  17
ENDBRANCH  15  16
ENDBRANCH  14  15
ENDBRANCH  13  14
ENDBRANCH   2  13
TORSDOF 15
ENDMDL
MODEL 2
REMARK VINA RESULT:    -5.188      2.196      5.004
REMARK INTER + INTRA:         -11.986
REMARK INTER:                 -10.107
REMARK INTRA:                  -1.880
REMARK UNBOUND:                -2.248
REMARK SMILES CCCCCCCCC=CCCCCCCCC(=O)[O-]
REMARK SMILES IDX 10 1 9 2 11 3 12 4 13 5 14 6 15 7 16 8 17 9 18 10 19 11
REMARK SMILES IDX 20 12 8 13 7 14 6 15 5 16 4 17 3 18 2 19 1 20
REMARK H PARENT
REMARK Flexibility Score: inf
ROOT
ATOM      1  C   UNL     1      13.773   8.229  57.507  1.00  0.00    -0.031 C 
ATOM      2  C   UNL     1      13.639   9.196  56.586  1.00  0.00    -0.031 C 
ENDROOT
BRANCH   1   3
ATOM      3  C   UNL     1      13.243   8.395  58.905  1.00  0.00     0.027 C 
BRANCH   3   4
ATOM      4  C   UNL     1      12.916   7.037  59.538  1.00  0.00     0.004 C 
BRANCH   4   5
ATOM      5  C   UNL     1      13.561   5.893  58.748  1.00  0.00     0.000 C 
BRANCH   5   6
ATOM      6  C   UNL     1      12.520   4.829  58.370  1.00  0.00     0.000 C 
BRANCH   6   7
ATOM      7  C   UNL     1      11.079   5.369  58.370  1.00  0.00     0.000 C 
BRANCH   7   8
ATOM      8  C   UNL     1      10.426   5.480  56.981  1.00  0.00     0.006 C 
BRANCH   8   9
ATOM      9  C   UNL     1      10.719   6.818  56.288  1.00  0.00     0.053 C 
BRANCH   9  10
ATOM     10  C   UNL     1       9.570   7.217  55.417  1.00  0.00     0.041 C 
ATOM     11  O   UNL     1       9.343   6.598  54.345  1.00  0.00    -0.550 OA
ATOM     12  O   UNL     1       8.720   8.242  55.814  1.00  0.00    -0.550 OA
ENDBRANCH   9  10
ENDBRANCH   8   9
ENDBRANCH   7   8
ENDBRANCH   6   7
ENDBRANCH   5   6
ENDBRANCH   4   5
ENDBRANCH   3   4
ENDBRANCH   1   3
BRANCH   2  13
ATOM     13  C   UNL     1      14.186   9.036  55.195  1.00  0.00     0.027 C 
BRANCH  13  14
ATOM     14  C   UNL     1      15.630   8.517  55.226  1.00  0.00     0.004 C 
BRANCH  14  15
ATOM     15  C   UNL     1      15.904   7.438  54.163  1.00  0.00     0.000 C 
BRANCH  15  16
ATOM     16  C   UNL     1      16.137   7.974  52.738  1.00  0.00     0.000 C 
BRANCH  16  17
ATOM     17  C   UNL     1      14.879   7.904  51.858  1.00  0.00    -0.000 C 
BRANCH  17  18
ATOM     18  C   UNL     1      14.498   9.296  51.335  1.00  0.00    -0.000 C 
BRANCH  18  19
ATOM     19  C   UNL     1      15.392  10.407  51.907  1.00  0.00    -0.003 C 
ATOM     20  C   UNL     1      14.619  11.402  52.774  1.00  0.00     0.004 C 
ENDBRANCH  18  19
ENDBRANCH  17  18
ENDBRANCH  16  17
ENDBRANCH  15  16
ENDBRANCH  14  15
ENDBRANCH  13  14
ENDBRANCH   2  13
TORSDOF 15
ENDMDL
MODEL 3
REMARK VINA RESULT:    -5.186      2.124      4.466
REMARK INTER + INTRA:         -11.982
REMARK INTER:                  -9.709
REMARK INTRA:                  -2.272
REMARK UNBOUND:                -2.248
REMARK SMILES CCCCCCCCC=CCCCCCCCC(=O)[O-]
REMARK SMILES IDX 10 1 9 2 11 3 12 4 13 5 14 6 15 7 16 8 17 9 18 10 19 11
REMARK SMILES IDX 20 12 8 13 7 14 6 15 5 16 4 17 3 18 2 19 1 20
REMARK H PARENT
REMARK Flexibility Score: inf
ROOT
ATOM      1  C   UNL     1      11.908   8.167  56.467  1.00  0.00    -0.031 C 
ATOM      2  C   UNL     1      13.135   8.193  55.924  1.00  0.00    -0.031 C 
ENDROOT
BRANCH   1   3
ATOM      3  C   UNL     1      10.974   7.008  56.249  1.00  0.00     0.027 C 
BRANCH   3   4
ATOM      4  C   UNL     1      10.634   6.315  57.574  1.00  0.00     0.004 C 
BRANCH   4   5
ATOM      5  C   UNL     1      11.541   5.101  57.807  1.00  0.00     0.000 C 
BRANCH   5   6
ATOM      6  C   UNL     1      12.681   5.443  58.778  1.00  0.00     0.000 C 
BRANCH   6   7
ATOM      7  C   UNL     1      12.306   6.551  59.779  1.00  0.00     0.000 C 
BRANCH   7   8
ATOM      8  C   UNL     1      13.307   7.718  59.862  1.00  0.00     0.006 C 
BRANCH   8   9
ATOM      9  C   UNL     1      12.644   9.088  59.664  1.00  0.00     0.053 C 
BRANCH   9  10
ATOM     10  C   UNL     1      11.364   9.165  60.436  1.00  0.00     0.041 C 
ATOM     11  O   UNL     1      11.386   9.293  61.688  1.00  0.00    -0.550 OA
ATOM     12  O   UNL     1      10.147   9.143  59.767  1.00  0.00    -0.550 OA
ENDBRANCH   9  10
ENDBRANCH   8   9
ENDBRANCH   7   8
ENDBRANCH   6   7
ENDBRANCH   5   6
ENDBRANCH   4   5
ENDBRANCH   3   4
ENDBRANCH   1   3
BRANCH   2  13
ATOM     13  C   UNL     1      14.060   9.360  56.128  1.00  0.00     0.027 C 
BRANCH  13  14
ATOM     14  C   UNL     1      15.481   9.029  55.651  1.00  0.00     0.004 C 
BRANCH  14  15
ATOM     15  C   UNL     1      15.536   7.783  54.748  1.00  0.00     0.000 C 
BRANCH  15  16
ATOM     16  C   UNL     1      15.868   8.065  53.271  1.00  0.00     0.000 C 
BRANCH  16  17
ATOM     17  C   UNL     1      14.636   7.993  52.355  1.00  0.00    -0.000 C 
BRANCH  17  18
ATOM     18  C   UNL     1      14.362   9.352  51.697  1.00  0.00    -0.000 C 
BRANCH  18  19
ATOM     19  C   UNL     1      15.262  10.469  52.249  1.00  0.00    -0.003 C 
ATOM     20  C   UNL     1      14.486  11.513  53.052  1.00  0.00     0.004 C 
ENDBRANCH  18  19
ENDBRANCH  17  18
ENDBRANCH  16  17
ENDBRANCH  15  16
ENDBRANCH  14  15
ENDBRANCH  13  14
ENDBRANCH   2  13
TORSDOF 15
ENDMDL
MODEL 4
REMARK VINA RESULT:    -5.110      2.904      7.101
REMARK INTER + INTRA:         -11.839
REMARK INTER:                  -9.943
REMARK INTRA:                  -1.896
REMARK UNBOUND:                -2.248
REMARK SMILES CCCCCCCCC=CCCCCCCCC(=O)[O-]
REMARK SMILES IDX 10 1 9 2 11 3 12 4 13 5 14 6 15 7 16 8 17 9 18 10 19 11
REMARK SMILES IDX 20 12 8 13 7 14 6 15 5 16 4 17 3 18 2 19 1 20
REMARK H PARENT
REMARK Flexibility Score: inf
ROOT
ATOM      1  C   UNL     1      13.530   8.963  57.436  1.00  0.00    -0.031 C 
ATOM      2  C   UNL     1      12.626   9.621  58.179  1.00  0.00    -0.031 C 
ENDROOT
BRANCH   1   3
ATOM      3  C   UNL     1      13.966   9.476  56.092  1.00  0.00     0.027 C 
BRANCH   3   4
ATOM      4  C   UNL     1      14.417   8.328  55.181  1.00  0.00     0.004 C 
BRANCH   4   5
ATOM      5  C   UNL     1      15.699   8.697  54.425  1.00  0.00     0.000 C 
BRANCH   5   6
ATOM      6  C   UNL     1      16.158   7.542  53.522  1.00  0.00     0.000 C 
BRANCH   6   7
ATOM      7  C   UNL     1      15.145   7.208  52.412  1.00  0.00     0.000 C 
BRANCH   7   8
ATOM      8  C   UNL     1      14.980   8.294  51.334  1.00  0.00     0.006 C 
BRANCH   8   9
ATOM      9  C   UNL     1      13.589   8.943  51.348  1.00  0.00     0.053 C 
BRANCH   9  10
ATOM     10  C   UNL     1      12.602   8.075  50.634  1.00  0.00     0.041 C 
ATOM     11  O   UNL     1      12.942   7.450  49.595  1.00  0.00    -0.550 OA
ATOM     12  O   UNL     1      11.319   7.917  51.143  1.00  0.00    -0.550 OA
ENDBRANCH   9  10
ENDBRANCH   8   9
ENDBRANCH   7   8
ENDBRANCH   6   7
ENDBRANCH   5   6
ENDBRANCH   4   5
ENDBRANCH   3   4
ENDBRANCH   1   3
BRANCH   2  13
ATOM     13  C   UNL     1      12.177   9.097  59.515  1.00  0.00     0.027 C 
BRANCH  13  14
ATOM     14  C   UNL     1      13.039   7.906  59.958  1.00  0.00     0.004 C 
BRANCH  14  15
ATOM     15  C   UNL     1      12.291   6.564  59.889  1.00  0.00     0.000 C 
BRANCH  15  16
ATOM     16  C   UNL     1      12.747   5.622  58.759  1.00  0.00     0.000 C 
BRANCH  16  17
ATOM     17  C   UNL     1      11.575   5.033  57.959  1.00  0.00    -0.000 C 
BRANCH  17  18
ATOM     18  C   UNL     1      10.525   6.109  57.651  1.00  0.00    -0.000 C 
BRANCH  18  19
ATOM     19  C   UNL     1      10.828   6.876  56.354  1.00  0.00    -0.003 C 
ATOM     20  C   UNL     1       9.602   7.599  55.794  1.00  0.00     0.004 C 
ENDBRANCH  18  19
ENDBRANCH  17  18
ENDBRANCH  16  17
ENDBRANCH  15  16
ENDBRANCH  14  15
ENDBRANCH  13  14
ENDBRANCH   2  13
TORSDOF 15
ENDMDL
MODEL 5
REMARK VINA RESULT:    -5.097      3.136      7.069
REMARK INTER + INTRA:         -11.814
REMARK INTER:                 -10.486
REMARK INTRA:                  -1.329
REMARK UNBOUND:                -2.248
REMARK SMILES CCCCCCCCC=CCCCCCCCC(=O)[O-]
REMARK SMILES IDX 10 1 9 2 11 3 12 4 13 5 14 6 15 7 16 8 17 9 18 10 19 11
REMARK SMILES IDX 20 12 8 13 7 14 6 15 5 16 4 17 3 18 2 19 1 20
REMARK H PARENT
REMARK Flexibility Score: inf
ROOT
ATOM      1  C   UNL     1      14.449   8.040  56.581  1.00  0.00    -0.031 C 
ATOM      2  C   UNL     1      13.929   7.536  57.711  1.00  0.00    -0.031 C 
ENDROOT
BRANCH   1   3
ATOM      3  C   UNL     1      13.980   9.352  56.015  1.00  0.00     0.027 C 
BRANCH   3   4
ATOM      4  C   UNL     1      14.809   9.754  54.789  1.00  0.00     0.004 C 
BRANCH   4   5
ATOM      5  C   UNL     1      14.399  11.140  54.278  1.00  0.00     0.000 C 
BRANCH   5   6
ATOM      6  C   UNL     1      14.732  11.299  52.787  1.00  0.00     0.000 C 
BRANCH   6   7
ATOM      7  C   UNL     1      15.416  10.057  52.188  1.00  0.00     0.000 C 
BRANCH   7   8
ATOM      8  C   UNL     1      14.603   9.325  51.105  1.00  0.00     0.006 C 
BRANCH   8   9
ATOM      9  C   UNL     1      13.792   8.146  51.662  1.00  0.00     0.053 C 
BRANCH   9  10
ATOM     10  C   UNL     1      12.605   7.873  50.794  1.00  0.00     0.041 C 
ATOM     11  O   UNL     1      12.758   7.641  49.565  1.00  0.00    -0.550 OA
ATOM     12  O   UNL     1      11.333   7.826  51.350  1.00  0.00    -0.550 OA
ENDBRANCH   9  10
ENDBRANCH   8   9
ENDBRANCH   7   8
ENDBRANCH   6   7
ENDBRANCH   5   6
ENDBRANCH   4   5
ENDBRANCH   3   4
ENDBRANCH   1   3
BRANCH   2  13
ATOM     13  C   UNL     1      14.386   6.216  58.265  1.00  0.00     0.027 C 
BRANCH  13  14
ATOM     14  C   UNL     1      13.190   5.313  58.597  1.00  0.00     0.004 C 
BRANCH  14  15
ATOM     15  C   UNL     1      11.921   6.105  58.958  1.00  0.00     0.000 C 
BRANCH  15  16
ATOM     16  C   UNL     1      11.914   6.711  60.374  1.00  0.00     0.000 C 
BRANCH  16  17
ATOM     17  C   UNL     1      11.042   7.971  60.484  1.00  0.00    -0.000 C 
BRANCH  17  18
ATOM     18  C   UNL     1      11.746   9.182  59.856  1.00  0.00    -0.000 C 
BRANCH  18  19
ATOM     19  C   UNL     1      11.101   9.619  58.532  1.00  0.00    -0.003 C 
ATOM     20  C   UNL     1       9.574   9.668  58.604  1.00  0.00     0.004 C 
ENDBRANCH  18  19
ENDBRANCH  17  18
ENDBRANCH  16  17
ENDBRANCH  15  16
ENDBRANCH  14  15
ENDBRANCH  13  14
ENDBRANCH   2  13
TORSDOF 15
ENDMDL
MODEL 6
REMARK VINA RESULT:    -5.060      1.563      5.094
REMARK INTER + INTRA:         -11.745
REMARK INTER:                  -9.848
REMARK INTRA:                  -1.896
REMARK UNBOUND:                -2.248
REMARK SMILES CCCCCCCCC=CCCCCCCCC(=O)[O-]
REMARK SMILES IDX 10 1 9 2 11 3 12 4 13 5 14 6 15 7 16 8 17 9 18 10 19 11
REMARK SMILES IDX 20 12 8 13 7 14 6 15 5 16 4 17 3 18 2 19 1 20
REMARK H PARENT
REMARK Flexibility Score: inf
ROOT
ATOM      1  C   UNL     1      11.067   7.759  51.482  1.00  0.00    -0.031 C 
ATOM      2  C   UNL     1      10.575   7.370  52.669  1.00  0.00    -0.031 C 
ENDROOT
BRANCH   1   3
ATOM      3  C   UNL     1      12.533   7.651  51.165  1.00  0.00     0.027 C 
BRANCH   3   4
ATOM      4  C   UNL     1      13.196   9.033  51.135  1.00  0.00     0.004 C 
BRANCH   4   5
ATOM      5  C   UNL     1      14.724   8.910  51.105  1.00  0.00     0.000 C 
BRANCH   5   6
ATOM      6  C   UNL     1      15.191   7.663  51.870  1.00  0.00     0.000 C 
BRANCH   6   7
ATOM      7  C   UNL     1      16.259   7.975  52.933  1.00  0.00     0.000 C 
BRANCH   7   8
ATOM      8  C   UNL     1      15.763   7.922  54.389  1.00  0.00     0.006 C 
BRANCH   8   9
ATOM      9  C   UNL     1      14.353   8.504  54.561  1.00  0.00     0.053 C 
BRANCH   9  10
ATOM     10  C   UNL     1      14.429   9.945  54.956  1.00  0.00     0.041 C 
ATOM     11  O   UNL     1      14.432  10.845  54.075  1.00  0.00    -0.550 OA
ATOM     12  O   UNL     1      14.446  10.298  56.300  1.00  0.00    -0.550 OA
ENDBRANCH   9  10
ENDBRANCH   8   9
ENDBRANCH   7   8
ENDBRANCH   6   7
ENDBRANCH   5   6
ENDBRANCH   4   5
ENDBRANCH   3   4
ENDBRANCH   1   3
BRANCH   2  13
ATOM     13  C   UNL     1       9.112   7.495  52.991  1.00  0.00     0.027 C 
BRANCH  13  14
ATOM     14  C   UNL     1       8.851   7.234  54.481  1.00  0.00     0.004 C 
BRANCH  14  15
ATOM     15  C   UNL     1      10.140   7.206  55.321  1.00  0.00     0.000 C 
BRANCH  15  16
ATOM     16  C   UNL     1      10.212   6.075  56.365  1.00  0.00     0.000 C 
BRANCH  16  17
ATOM     17  C   UNL     1      11.389   6.232  57.339  1.00  0.00    -0.000 C 
BRANCH  17  18
ATOM     18  C   UNL     1      11.979   7.648  57.264  1.00  0.00    -0.000 C 
BRANCH  18  19
ATOM     19  C   UNL     1      13.287   7.786  58.059  1.00  0.00    -0.003 C 
ATOM     20  C   UNL     1      14.201   6.569  57.910  1.00  0.00     0.004 C 
ENDBRANCH  18  19
ENDBRANCH  17  18
ENDBRANCH  16  17
ENDBRANCH  15  16
ENDBRANCH  14  15
ENDBRANCH  13  14
ENDBRANCH   2  13
TORSDOF 15
ENDMDL
MODEL 7
REMARK VINA RESULT:    -5.058      2.577      5.085
REMARK INTER + INTRA:         -11.742
REMARK INTER:                 -10.164
REMARK INTRA:                  -1.577
REMARK UNBOUND:                -2.248
REMARK SMILES CCCCCCCCC=CCCCCCCCC(=O)[O-]
REMARK SMILES IDX 10 1 9 2 11 3 12 4 13 5 14 6 15 7 16 8 17 9 18 10 19 11
REMARK SMILES IDX 20 12 8 13 7 14 6 15 5 16 4 17 3 18 2 19 1 20
REMARK H PARENT
REMARK Flexibility Score: inf
ROOT
ATOM      1  C   UNL     1      13.569   7.161  57.698  1.00  0.00    -0.031 C 
ATOM      2  C   UNL     1      14.364   7.876  56.887  1.00  0.00    -0.031 C 
ENDROOT
BRANCH   1   3
ATOM      3  C   UNL     1      14.014   5.846  58.276  1.00  0.00     0.027 C 
BRANCH   3   4
ATOM      4  C   UNL     1      12.812   4.960  58.627  1.00  0.00     0.004 C 
BRANCH   4   5
ATOM      5  C   UNL     1      11.496   5.634  58.222  1.00  0.00     0.000 C 
BRANCH   5   6
ATOM      6  C   UNL     1      10.561   4.639  57.518  1.00  0.00     0.000 C 
BRANCH   6   7
ATOM      7  C   UNL     1       9.900   5.223  56.257  1.00  0.00     0.000 C 
BRANCH   7   8
ATOM      8  C   UNL     1      10.311   6.667  55.916  1.00  0.00     0.006 C 
BRANCH   8   9
ATOM      9  C   UNL     1       9.215   7.439  55.169  1.00  0.00     0.053 C 
BRANCH   9  10
ATOM     10  C   UNL     1       9.127   6.977  53.749  1.00  0.00     0.041 C 
ATOM     11  O   UNL     1       9.981   7.356  52.905  1.00  0.00    -0.550 OA
ATOM     12  O   UNL     1       8.130   6.087  53.368  1.00  0.00    -0.550 OA
ENDBRANCH   9  10
ENDBRANCH   8   9
ENDBRANCH   7   8
ENDBRANCH   6   7
ENDBRANCH   5   6
ENDBRANCH   4   5
ENDBRANCH   3   4
ENDBRANCH   1   3
BRANCH   2  13
ATOM     13  C   UNL     1      13.911   9.182  56.296  1.00  0.00     0.027 C 
BRANCH  13  14
ATOM     14  C   UNL     1      14.840   9.624  55.157  1.00  0.00     0.004 C 
BRANCH  14  15
ATOM     15  C   UNL     1      15.768   8.498  54.667  1.00  0.00     0.000 C 
BRANCH  15  16
ATOM     16  C   UNL     1      15.686   8.199  53.158  1.00  0.00     0.000 C 
BRANCH  16  17
ATOM     17  C   UNL     1      15.657   9.470  52.295  1.00  0.00    -0.000 C 
BRANCH  17  18
ATOM     18  C   UNL     1      14.642   9.333  51.151  1.00  0.00    -0.000 C 
BRANCH  18  19
ATOM     19  C   UNL     1      13.557   8.285  51.446  1.00  0.00    -0.003 C 
ATOM     20  C   UNL     1      12.821   7.824  50.187  1.00  0.00     0.004 C 
ENDBRANCH  18  19
ENDBRANCH  17  18
ENDBRANCH  16  17
ENDBRANCH  15  16
ENDBRANCH  14  15
ENDBRANCH  13  14
ENDBRANCH   2  13
TORSDOF 15
ENDMDL
MODEL 8
REMARK VINA RESULT:    -5.050      1.031      2.310
REMARK INTER + INTRA:         -11.726
REMARK INTER:                  -9.836
REMARK INTRA:                  -1.891
REMARK UNBOUND:                -2.248
REMARK SMILES CCCCCCCCC=CCCCCCCCC(=O)[O-]
REMARK SMILES IDX 10 1 9 2 11 3 12 4 13 5 14 6 15 7 16 8 17 9 18 10 19 11
REMARK SMILES IDX 20 12 8 13 7 14 6 15 5 16 4 17 3 18 2 19 1 20
REMARK H PARENT
REMARK Flexibility Score: inf
ROOT
ATOM      1  C   UNL     1      11.036   7.290  51.916  1.00  0.00    -0.031 C 
ATOM      2  C   UNL     1      11.708   8.138  51.120  1.00  0.00    -0.031 C 
ENDROOT
BRANCH   1   3
ATOM      3  C   UNL     1       9.693   7.648  52.490  1.00  0.00     0.027 C 
BRANCH   3   4
ATOM      4  C   UNL     1       9.337   6.738  53.673  1.00  0.00     0.004 C 
BRANCH   4   5
ATOM      5  C   UNL     1       9.165   7.552  54.960  1.00  0.00     0.000 C 
BRANCH   5   6
ATOM      6  C   UNL     1      10.078   7.020  56.075  1.00  0.00     0.000 C 
BRANCH   6   7
ATOM      7  C   UNL     1      11.437   7.739  56.134  1.00  0.00     0.000 C 
BRANCH   7   8
ATOM      8  C   UNL     1      12.458   7.122  57.108  1.00  0.00     0.006 C 
BRANCH   8   9
ATOM      9  C   UNL     1      13.508   8.132  57.591  1.00  0.00     0.053 C 
BRANCH   9  10
ATOM     10  C   UNL     1      13.166   8.624  58.961  1.00  0.00     0.041 C 
ATOM     11  O   UNL     1      12.424   9.631  59.107  1.00  0.00    -0.550 OA
ATOM     12  O   UNL     1      13.627   7.942  60.081  1.00  0.00    -0.550 OA
ENDBRANCH   9  10
ENDBRANCH   8   9
ENDBRANCH   7   8
ENDBRANCH   6   7
ENDBRANCH   5   6
ENDBRANCH   4   5
ENDBRANCH   3   4
ENDBRANCH   1   3
BRANCH   2  13
ATOM     13  C   UNL     1      13.058   7.786  50.561  1.00  0.00     0.027 C 
BRANCH  13  14
ATOM     14  C   UNL     1      14.138   8.746  51.081  1.00  0.00     0.004 C 
BRANCH  14  15
ATOM     15  C   UNL     1      15.457   8.035  51.428  1.00  0.00     0.000 C 
BRANCH  15  16
ATOM     16  C   UNL     1      15.533   7.464  52.856  1.00  0.00     0.000 C 
BRANCH  16  17
ATOM     17  C   UNL     1      14.533   8.123  53.819  1.00  0.00    -0.000 C 
BRANCH  17  18
ATOM     18  C   UNL     1      15.208   9.235  54.635  1.00  0.00    -0.000 C 
BRANCH  18  19
ATOM     19  C   UNL     1      14.376  10.526  54.675  1.00  0.00    -0.003 C 
ATOM     20  C   UNL     1      14.695  11.472  53.516  1.00  0.00     0.004 C 
ENDBRANCH  18  19
ENDBRANCH  17  18
ENDBRANCH  16  17
ENDBRANCH  15  16
ENDBRANCH  14  15
ENDBRANCH  13  14
ENDBRANCH   2  13
TORSDOF 15
ENDMDL
MODEL 9
REMARK VINA RESULT:    -5.031      2.937      7.023
REMARK INTER + INTRA:         -11.691
REMARK INTER:                  -9.559
REMARK INTRA:                  -2.132
REMARK UNBOUND:                -2.248
REMARK SMILES CCCCCCCCC=CCCCCCCCC(=O)[O-]
REMARK SMILES IDX 10 1 9 2 11 3 12 4 13 5 14 6 15 7 16 8 17 9 18 10 19 11
REMARK SMILES IDX 20 12 8 13 7 14 6 15 5 16 4 17 3 18 2 19 1 20
REMARK H PARENT
REMARK Flexibility Score: inf
ROOT
ATOM      1  C   UNL     1      13.603   8.300  58.004  1.00  0.00    -0.031 C 
ATOM      2  C   UNL     1      13.539   7.020  57.603  1.00  0.00    -0.031 C 
ENDROOT
BRANCH   1   3
ATOM      3  C   UNL     1      13.593   9.434  57.017  1.00  0.00     0.027 C 
BRANCH   3   4
ATOM      4  C   UNL     1      13.588   8.913  55.575  1.00  0.00     0.004 C 
BRANCH   4   5
ATOM      5  C   UNL     1      14.828   9.396  54.812  1.00  0.00     0.000 C 
BRANCH   5   6
ATOM      6  C   UNL     1      14.704  10.881  54.443  1.00  0.00     0.000 C 
BRANCH   6   7
ATOM      7  C   UNL     1      14.445  11.109  52.943  1.00  0.00     0.000 C 
BRANCH   7   8
ATOM      8  C   UNL     1      14.282   9.825  52.109  1.00  0.00     0.006 C 
BRANCH   8   9
ATOM      9  C   UNL     1      15.574   9.411  51.392  1.00  0.00     0.053 C 
BRANCH   9  10
ATOM     10  C   UNL     1      15.713   7.922  51.385  1.00  0.00     0.041 C 
ATOM     11  O   UNL     1      14.884   7.205  52.005  1.00  0.00    -0.550 OA
ATOM     12  O   UNL     1      16.729   7.321  50.651  1.00  0.00    -0.550 OA
ENDBRANCH   9  10
ENDBRANCH   8   9
ENDBRANCH   7   8
ENDBRANCH   6   7
ENDBRANCH   5   6
ENDBRANCH   4   5
ENDBRANCH   3   4
ENDBRANCH   1   3
BRANCH   2  13
ATOM     13  C   UNL     1      13.567   5.886  58.590  1.00  0.00     0.027 C 
BRANCH  13  14
ATOM     14  C   UNL     1      12.147   5.490  59.015  1.00  0.00     0.004 C 
BRANCH  14  15
ATOM     15  C   UNL     1      11.349   4.811  57.888  1.00  0.00     0.000 C 
BRANCH  15  16
ATOM     16  C   UNL     1      10.077   5.560  57.450  1.00  0.00     0.000 C 
BRANCH  16  17
ATOM     17  C   UNL     1      10.243   6.292  56.109  1.00  0.00    -0.000 C 
BRANCH  17  18
ATOM     18  C   UNL     1      10.180   7.813  56.303  1.00  0.00    -0.000 C 
BRANCH  18  19
ATOM     19  C   UNL     1       9.383   8.217  57.553  1.00  0.00    -0.003 C 
ATOM     20  C   UNL     1      10.116   9.245  58.416  1.00  0.00     0.004 C 
ENDBRANCH  18  19
ENDBRANCH  17  18
ENDBRANCH  16  17
ENDBRANCH  15  16
ENDBRANCH  14  15
ENDBRANCH  13  14
ENDBRANCH   2  13
TORSDOF 15
ENDMDL
