MODEL 1
REMARK VINA RESULT:     6.563      0.000      0.000
REMARK INTER + INTRA:          21.487
REMARK INTER:                  16.539
REMARK INTRA:                   4.948
REMARK UNBOUND:                 4.948
REMARK SMILES CCCCCCCCCCCCCCCCCCCCCCCCCCCC(=O)[O-]
REMARK SMILES IDX 15 1 16 2 17 3 18 4 19 5 20 6 21 7 22 8 23 9 24 10 25 11
REMARK SMILES IDX 26 12 27 13 28 14 29 15 30 16 14 17 13 18 12 19 11 20 10 21
REMARK SMILES IDX 9 22 8 23 7 24 6 25 5 26 4 27 3 28 2 29 1 30
REMARK H PARENT
REMARK Flexibility Score: inf
ROOT
ATOM      1  C   UNL     1      -9.062  14.305 -14.737  1.00  0.00     0.000 C 
ENDROOT
BRANCH   1   2
ATOM      2  C   UNL     1      -8.297  15.220 -15.717  1.00  0.00     0.000 C 
BRANCH   2   3
ATOM      3  C   UNL     1      -6.775  15.248 -15.487  1.00  0.00     0.000 C 
BRANCH   3   4
ATOM      4  C   UNL     1      -6.296  16.227 -14.399  1.00  0.00     0.000 C 
BRANCH   4   5
ATOM      5  C   UNL     1      -5.958  17.648 -14.894  1.00  0.00     0.000 C 
BRANCH   5   6
ATOM      6  C   UNL     1      -6.756  18.116 -16.121  1.00  0.00     0.000 C 
BRANCH   6   7
ATOM      7  C   UNL     1      -7.706  19.281 -15.810  1.00  0.00     0.000 C 
BRANCH   7   8
ATOM      8  C   UNL     1      -6.940  20.608 -15.758  1.00  0.00     0.000 C 
BRANCH   8   9
ATOM      9  C   UNL     1      -6.108  20.714 -14.470  1.00  0.00     0.000 C 
BRANCH   9  10
ATOM     10  C   UNL     1      -6.957  20.567 -13.197  1.00  0.00     0.000 C 
BRANCH  10  11
ATOM     11  C   UNL     1      -8.396  20.114 -13.495  1.00  0.00     0.000 C 
BRANCH  11  12
ATOM     12  C   UNL     1      -8.861  18.990 -12.556  1.00  0.00     0.006 C 
BRANCH  12  13
ATOM     13  C   UNL     1      -8.941  17.632 -13.266  1.00  0.00     0.053 C 
BRANCH  13  14
ATOM     14  C   UNL     1      -9.021  16.521 -12.265  1.00  0.00     0.041 C 
ATOM     15  O   UNL     1     -10.142  16.149 -11.823  1.00  0.00    -0.550 OA
ATOM     16  O   UNL     1      -7.867  15.872 -11.849  1.00  0.00    -0.550 OA
ENDBRANCH  13  14
ENDBRANCH  12  13
ENDBRANCH  11  12
ENDBRANCH  10  11
ENDBRANCH   9  10
ENDBRANCH   8   9
ENDBRANCH   7   8
ENDBRANCH   6   7
ENDBRANCH   5   6
ENDBRANCH   4   5
ENDBRANCH   3   4
ENDBRANCH   2   3
ENDBRANCH   1   2
BRANCH   1  17
ATOM     17  C   UNL     1      -9.438  12.948 -15.362  1.00  0.00     0.000 C 
BRANCH  17  18
ATOM     18  C   UNL     1      -8.269  12.296 -16.117  1.00  0.00     0.000 C 
BRANCH  18  19
ATOM     19  C   UNL     1      -6.930  13.013 -15.874  1.00  0.00     0.000 C 
BRANCH  19  20
ATOM     20  C   UNL     1      -5.907  12.130 -15.138  1.00  0.00     0.000 C 
BRANCH  20  21
ATOM     21  C   UNL     1      -6.067  12.089 -13.605  1.00  0.00     0.000 C 
BRANCH  21  22
ATOM     22  C   UNL     1      -7.096  13.082 -13.031  1.00  0.00    -0.000 C 
BRANCH  22  23
ATOM     23  C   UNL     1      -7.324  12.989 -11.506  1.00  0.00    -0.000 C 
BRANCH  23  24
ATOM     24  C   UNL     1      -8.801  12.940 -11.071  1.00  0.00    -0.000 C 
BRANCH  24  25
ATOM     25  C   UNL     1      -9.074  13.726  -9.777  1.00  0.00    -0.000 C 
BRANCH  25  26
ATOM     26  C   UNL     1     -10.040  13.001  -8.824  1.00  0.00    -0.000 C 
BRANCH  26  27
ATOM     27  C   UNL     1      -9.412  12.580  -7.478  1.00  0.00    -0.000 C 
BRANCH  27  28
ATOM     28  C   UNL     1     -10.407  12.394  -6.315  1.00  0.00    -0.000 C 
BRANCH  28  29
ATOM     29  C   UNL     1      -9.834  11.569  -5.150  1.00  0.00    -0.003 C 
ATOM     30  C   UNL     1      -8.878  10.493  -5.656  1.00  0.00     0.004 C 
ENDBRANCH  28  29
ENDBRANCH  27  28
ENDBRANCH  26  27
ENDBRANCH  25  26
ENDBRANCH  24  25
ENDBRANCH  23  24
ENDBRANCH  22  23
ENDBRANCH  21  22
ENDBRANCH  20  21
ENDBRANCH  19  20
ENDBRANCH  18  19
ENDBRANCH  17  18
ENDBRANCH   1  17
TORSDOF 26
ENDMDL
MODEL 2
REMARK VINA RESULT:     6.664      1.762      4.746
REMARK INTER + INTRA:          21.740
REMARK INTER:                  22.587
REMARK INTRA:                  -0.847
REMARK UNBOUND:                 4.948
REMARK SMILES CCCCCCCCCCCCCCCCCCCCCCCCCCCC(=O)[O-]
REMARK SMILES IDX 15 1 16 2 17 3 18 4 19 5 20 6 21 7 22 8 23 9 24 10 25 11
REMARK SMILES IDX 26 12 27 13 28 14 29 15 30 16 14 17 13 18 12 19 11 20 10 21
REMARK SMILES IDX 9 22 8 23 7 24 6 25 5 26 4 27 3 28 2 29 1 30
REMARK H PARENT
REMARK Flexibility Score: inf
ROOT
ATOM      1  C   UNL     1      -7.164  14.367 -12.360  1.00  0.00     0.000 C 
ENDROOT
BRANCH   1   2
ATOM      2  C   UNL     1      -7.039  12.926 -12.902  1.00  0.00     0.000 C 
BRANCH   2   3
ATOM      3  C   UNL     1      -7.367  12.792 -14.400  1.00  0.00     0.000 C 
BRANCH   3   4
ATOM      4  C   UNL     1      -8.869  12.771 -14.741  1.00  0.00     0.000 C 
BRANCH   4   5
ATOM      5  C   UNL     1      -9.275  13.595 -15.980  1.00  0.00     0.000 C 
BRANCH   5   6
ATOM      6  C   UNL     1      -8.559  14.947 -16.125  1.00  0.00     0.000 C 
BRANCH   6   7
ATOM      7  C   UNL     1      -7.029  14.819 -16.125  1.00  0.00     0.000 C 
BRANCH   7   8
ATOM      8  C   UNL     1      -6.374  16.141 -15.712  1.00  0.00     0.000 C 
BRANCH   8   9
ATOM      9  C   UNL     1      -7.415  17.268 -15.617  1.00  0.00     0.000 C 
BRANCH   9  10
ATOM     10  C   UNL     1      -6.864  18.630 -16.069  1.00  0.00     0.000 C 
BRANCH  10  11
ATOM     11  C   UNL     1      -7.031  19.720 -14.997  1.00  0.00     0.000 C 
BRANCH  11  12
ATOM     12  C   UNL     1      -7.469  19.143 -13.642  1.00  0.00     0.006 C 
BRANCH  12  13
ATOM     13  C   UNL     1      -8.973  18.849 -13.591  1.00  0.00     0.053 C 
BRANCH  13  14
ATOM     14  C   UNL     1      -9.233  17.568 -12.861  1.00  0.00     0.041 C 
ATOM     15  O   UNL     1      -9.859  16.633 -13.430  1.00  0.00    -0.550 OA
ATOM     16  O   UNL     1      -8.755  17.390 -11.570  1.00  0.00    -0.550 OA
ENDBRANCH  13  14
ENDBRANCH  12  13
ENDBRANCH  11  12
ENDBRANCH  10  11
ENDBRANCH   9  10
ENDBRANCH   8   9
ENDBRANCH   7   8
ENDBRANCH   6   7
ENDBRANCH   5   6
ENDBRANCH   4   5
ENDBRANCH   3   4
ENDBRANCH   2   3
ENDBRANCH   1   2
BRANCH   1  17
ATOM     17  C   UNL     1      -7.675  14.413 -10.907  1.00  0.00     0.000 C 
BRANCH  17  18
ATOM     18  C   UNL     1      -6.745  13.683  -9.926  1.00  0.00     0.000 C 
BRANCH  18  19
ATOM     19  C   UNL     1      -7.499  13.075  -8.731  1.00  0.00     0.000 C 
BRANCH  19  20
ATOM     20  C   UNL     1      -6.557  12.444  -7.691  1.00  0.00     0.000 C 
BRANCH  20  21
ATOM     21  C   UNL     1      -6.741  12.960  -6.250  1.00  0.00     0.000 C 
BRANCH  21  22
ATOM     22  C   UNL     1      -6.998  11.868  -5.194  1.00  0.00    -0.000 C 
BRANCH  22  23
ATOM     23  C   UNL     1      -8.242  12.086  -4.306  1.00  0.00    -0.000 C 
BRANCH  23  24
ATOM     24  C   UNL     1      -9.483  11.267  -4.711  1.00  0.00    -0.000 C 
BRANCH  24  25
ATOM     25  C   UNL     1      -9.899  11.489  -6.175  1.00  0.00    -0.000 C 
BRANCH  25  26
ATOM     26  C   UNL     1     -11.021  12.530  -6.331  1.00  0.00    -0.000 C 
BRANCH  26  27
ATOM     27  C   UNL     1     -10.888  13.428  -7.581  1.00  0.00    -0.000 C 
BRANCH  27  28
ATOM     28  C   UNL     1     -12.206  13.722  -8.325  1.00  0.00    -0.000 C 
BRANCH  28  29
ATOM     29  C   UNL     1     -12.706  15.163  -8.131  1.00  0.00    -0.003 C 
ATOM     30  C   UNL     1     -12.581  15.597  -6.674  1.00  0.00     0.004 C 
ENDBRANCH  28  29
ENDBRANCH  27  28
ENDBRANCH  26  27
ENDBRANCH  25  26
ENDBRANCH  24  25
ENDBRANCH  23  24
ENDBRANCH  22  23
ENDBRANCH  21  22
ENDBRANCH  20  21
ENDBRANCH  19  20
ENDBRANCH  18  19
ENDBRANCH  17  18
ENDBRANCH   1  17
TORSDOF 26
ENDMDL
MODEL 3
REMARK VINA RESULT:     7.000      1.461      2.130
REMARK INTER + INTRA:          22.588
REMARK INTER:                  19.517
REMARK INTRA:                   3.070
REMARK UNBOUND:                 4.948
REMARK SMILES CCCCCCCCCCCCCCCCCCCCCCCCCCCC(=O)[O-]
REMARK SMILES IDX 15 1 16 2 17 3 18 4 19 5 20 6 21 7 22 8 23 9 24 10 25 11
REMARK SMILES IDX 26 12 27 13 28 14 29 15 30 16 14 17 13 18 12 19 11 20 10 21
REMARK SMILES IDX 9 22 8 23 7 24 6 25 5 26 4 27 3 28 2 29 1 30
REMARK H PARENT
REMARK Flexibility Score: inf
ROOT
ATOM      1  C   UNL     1      -9.453  13.176 -13.989  1.00  0.00     0.000 C 
ENDROOT
BRANCH   1   2
ATOM      2  C   UNL     1      -9.715  14.662 -14.317  1.00  0.00     0.000 C 
BRANCH   2   3
ATOM      3  C   UNL     1      -8.487  15.405 -14.875  1.00  0.00     0.000 C 
BRANCH   3   4
ATOM      4  C   UNL     1      -7.320  15.571 -13.884  1.00  0.00     0.000 C 
BRANCH   4   5
ATOM      5  C   UNL     1      -5.953  15.892 -14.523  1.00  0.00     0.000 C 
BRANCH   5   6
ATOM      6  C   UNL     1      -6.018  16.431 -15.961  1.00  0.00     0.000 C 
BRANCH   6   7
ATOM      7  C   UNL     1      -6.986  17.612 -16.116  1.00  0.00     0.000 C 
BRANCH   7   8
ATOM      8  C   UNL     1      -6.318  18.923 -15.685  1.00  0.00     0.000 C 
BRANCH   8   9
ATOM      9  C   UNL     1      -5.980  18.903 -14.186  1.00  0.00     0.000 C 
BRANCH   9  10
ATOM     10  C   UNL     1      -5.880  20.311 -13.577  1.00  0.00     0.000 C 
BRANCH  10  11
ATOM     11  C   UNL     1      -7.251  20.880 -13.178  1.00  0.00     0.000 C 
BRANCH  11  12
ATOM     12  C   UNL     1      -8.413  20.005 -13.671  1.00  0.00     0.006 C 
BRANCH  12  13
ATOM     13  C   UNL     1      -9.262  19.457 -12.517  1.00  0.00     0.053 C 
BRANCH  13  14
ATOM     14  C   UNL     1      -9.025  17.989 -12.341  1.00  0.00     0.041 C 
ATOM     15  O   UNL     1      -9.986  17.178 -12.436  1.00  0.00    -0.550 OA
ATOM     16  O   UNL     1      -7.742  17.512 -12.110  1.00  0.00    -0.550 OA
ENDBRANCH  13  14
ENDBRANCH  12  13
ENDBRANCH  11  12
ENDBRANCH  10  11
ENDBRANCH   9  10
ENDBRANCH   8   9
ENDBRANCH   7   8
ENDBRANCH   6   7
ENDBRANCH   5   6
ENDBRANCH   4   5
ENDBRANCH   3   4
ENDBRANCH   2   3
ENDBRANCH   1   2
BRANCH   1  17
ATOM     17  C   UNL     1      -9.756  12.244 -15.178  1.00  0.00     0.000 C 
BRANCH  17  18
ATOM     18  C   UNL     1      -8.533  12.013 -16.080  1.00  0.00     0.000 C 
BRANCH  18  19
ATOM     19  C   UNL     1      -7.397  13.013 -15.810  1.00  0.00     0.000 C 
BRANCH  19  20
ATOM     20  C   UNL     1      -6.127  12.339 -15.262  1.00  0.00     0.000 C 
BRANCH  20  21
ATOM     21  C   UNL     1      -5.942  12.443 -13.735  1.00  0.00     0.000 C 
BRANCH  21  22
ATOM     22  C   UNL     1      -7.231  12.731 -12.941  1.00  0.00    -0.000 C 
BRANCH  22  23
ATOM     23  C   UNL     1      -7.020  13.330 -11.533  1.00  0.00    -0.000 C 
BRANCH  23  24
ATOM     24  C   UNL     1      -8.303  13.817 -10.834  1.00  0.00    -0.000 C 
BRANCH  24  25
ATOM     25  C   UNL     1      -8.660  12.990  -9.587  1.00  0.00    -0.000 C 
BRANCH  25  26
ATOM     26  C   UNL     1     -10.157  12.644  -9.502  1.00  0.00    -0.000 C 
BRANCH  26  27
ATOM     27  C   UNL     1     -10.874  13.217  -8.260  1.00  0.00    -0.000 C 
BRANCH  27  28
ATOM     28  C   UNL     1     -11.527  14.601  -8.455  1.00  0.00    -0.000 C 
BRANCH  28  29
ATOM     29  C   UNL     1     -12.883  14.739  -7.744  1.00  0.00    -0.003 C 
ATOM     30  C   UNL     1     -12.917  15.983  -6.861  1.00  0.00     0.004 C 
ENDBRANCH  28  29
ENDBRANCH  27  28
ENDBRANCH  26  27
ENDBRANCH  25  26
ENDBRANCH  24  25
ENDBRANCH  23  24
ENDBRANCH  22  23
ENDBRANCH  21  22
ENDBRANCH  20  21
ENDBRANCH  19  20
ENDBRANCH  18  19
ENDBRANCH  17  18
ENDBRANCH   1  17
TORSDOF 26
ENDMDL
MODEL 4
REMARK VINA RESULT:     7.027      1.894      8.371
REMARK INTER + INTRA:          22.656
REMARK INTER:                  24.497
REMARK INTRA:                  -1.841
REMARK UNBOUND:                 4.948
REMARK SMILES CCCCCCCCCCCCCCCCCCCCCCCCCCCC(=O)[O-]
REMARK SMILES IDX 15 1 16 2 17 3 18 4 19 5 20 6 21 7 22 8 23 9 24 10 25 11
REMARK SMILES IDX 26 12 27 13 28 14 29 15 30 16 14 17 13 18 12 19 11 20 10 21
REMARK SMILES IDX 9 22 8 23 7 24 6 25 5 26 4 27 3 28 2 29 1 30
REMARK H PARENT
REMARK Flexibility Score: inf
ROOT
ATOM      1  C   UNL     1      -8.086  14.235 -12.038  1.00  0.00     0.000 C 
ENDROOT
BRANCH   1   2
ATOM      2  C   UNL     1      -7.658  14.680 -10.623  1.00  0.00     0.000 C 
BRANCH   2   3
ATOM      3  C   UNL     1      -7.652  13.541  -9.586  1.00  0.00     0.000 C 
BRANCH   3   4
ATOM      4  C   UNL     1      -6.731  13.767  -8.373  1.00  0.00     0.000 C 
BRANCH   4   5
ATOM      5  C   UNL     1      -6.620  12.578  -7.397  1.00  0.00     0.000 C 
BRANCH   5   6
ATOM      6  C   UNL     1      -7.041  12.882  -5.951  1.00  0.00     0.000 C 
BRANCH   6   7
ATOM      7  C   UNL     1      -6.842  11.691  -5.004  1.00  0.00     0.000 C 
BRANCH   7   8
ATOM      8  C   UNL     1      -8.192  11.136  -4.537  1.00  0.00     0.000 C 
BRANCH   8   9
ATOM      9  C   UNL     1      -8.851  10.289  -5.636  1.00  0.00     0.000 C 
BRANCH   9  10
ATOM     10  C   UNL     1     -10.156  10.907  -6.164  1.00  0.00     0.000 C 
BRANCH  10  11
ATOM     11  C   UNL     1     -10.593  12.142  -5.360  1.00  0.00     0.000 C 
BRANCH  11  12
ATOM     12  C   UNL     1     -10.786  13.380  -6.250  1.00  0.00     0.006 C 
BRANCH  12  13
ATOM     13  C   UNL     1     -11.718  13.105  -7.437  1.00  0.00     0.053 C 
BRANCH  13  14
ATOM     14  C   UNL     1     -12.187  14.391  -8.044  1.00  0.00     0.041 C 
ATOM     15  O   UNL     1     -11.909  14.661  -9.244  1.00  0.00    -0.550 OA
ATOM     16  O   UNL     1     -12.958  15.274  -7.300  1.00  0.00    -0.550 OA
ENDBRANCH  13  14
ENDBRANCH  12  13
ENDBRANCH  11  12
ENDBRANCH  10  11
ENDBRANCH   9  10
ENDBRANCH   8   9
ENDBRANCH   7   8
ENDBRANCH   6   7
ENDBRANCH   5   6
ENDBRANCH   4   5
ENDBRANCH   3   4
ENDBRANCH   2   3
ENDBRANCH   1   2
BRANCH   1  17
ATOM     17  C   UNL     1      -7.142  13.175 -12.638  1.00  0.00     0.000 C 
BRANCH  17  18
ATOM     18  C   UNL     1      -6.804  13.446 -14.112  1.00  0.00     0.000 C 
BRANCH  18  19
ATOM     19  C   UNL     1      -7.810  12.804 -15.082  1.00  0.00     0.000 C 
BRANCH  19  20
ATOM     20  C   UNL     1      -8.935  13.768 -15.498  1.00  0.00     0.000 C 
BRANCH  20  21
ATOM     21  C   UNL     1      -8.556  15.262 -15.462  1.00  0.00     0.000 C 
BRANCH  21  22
ATOM     22  C   UNL     1      -7.209  15.608 -16.125  1.00  0.00    -0.000 C 
BRANCH  22  23
ATOM     23  C   UNL     1      -6.734  17.066 -15.933  1.00  0.00    -0.000 C 
BRANCH  23  24
ATOM     24  C   UNL     1      -5.885  17.314 -14.672  1.00  0.00    -0.000 C 
BRANCH  24  25
ATOM     25  C   UNL     1      -5.875  18.788 -14.233  1.00  0.00    -0.000 C 
BRANCH  25  26
ATOM     26  C   UNL     1      -7.000  19.616 -14.879  1.00  0.00    -0.000 C 
BRANCH  26  27
ATOM     27  C   UNL     1      -8.404  19.347 -14.294  1.00  0.00    -0.000 C 
BRANCH  27  28
ATOM     28  C   UNL     1      -8.472  19.256 -12.756  1.00  0.00    -0.000 C 
BRANCH  28  29
ATOM     29  C   UNL     1      -9.478  18.208 -12.253  1.00  0.00    -0.003 C 
ATOM     30  C   UNL     1      -9.481  16.973 -13.149  1.00  0.00     0.004 C 
ENDBRANCH  28  29
ENDBRANCH  27  28
ENDBRANCH  26  27
ENDBRANCH  25  26
ENDBRANCH  24  25
ENDBRANCH  23  24
ENDBRANCH  22  23
ENDBRANCH  21  22
ENDBRANCH  20  21
ENDBRANCH  19  20
ENDBRANCH  18  19
ENDBRANCH  17  18
ENDBRANCH   1  17
TORSDOF 26
ENDMDL
MODEL 5
REMARK VINA RESULT:     7.316      2.280      7.195
REMARK INTER + INTRA:          23.385
REMARK INTER:                  22.231
REMARK INTRA:                   1.153
REMARK UNBOUND:                 4.948
REMARK SMILES CCCCCCCCCCCCCCCCCCCCCCCCCCCC(=O)[O-]
REMARK SMILES IDX 15 1 16 2 17 3 18 4 19 5 20 6 21 7 22 8 23 9 24 10 25 11
REMARK SMILES IDX 26 12 27 13 28 14 29 15 30 16 14 17 13 18 12 19 11 20 10 21
REMARK SMILES IDX 9 22 8 23 7 24 6 25 5 26 4 27 3 28 2 29 1 30
REMARK H PARENT
REMARK Flexibility Score: inf
ROOT
ATOM      1  C   UNL     1      -8.621  14.764 -15.131  1.00  0.00     0.000 C 
ENDROOT
BRANCH   1   2
ATOM      2  C   UNL     1      -8.788  13.457 -15.937  1.00  0.00     0.000 C 
BRANCH   2   3
ATOM      3  C   UNL     1      -7.531  12.569 -15.953  1.00  0.00     0.000 C 
BRANCH   3   4
ATOM      4  C   UNL     1      -6.220  13.286 -15.581  1.00  0.00     0.000 C 
BRANCH   4   5
ATOM      5  C   UNL     1      -5.875  13.293 -14.077  1.00  0.00     0.000 C 
BRANCH   5   6
ATOM      6  C   UNL     1      -6.072  11.948 -13.359  1.00  0.00     0.000 C 
BRANCH   6   7
ATOM      7  C   UNL     1      -7.318  11.924 -12.462  1.00  0.00     0.000 C 
BRANCH   7   8
ATOM      8  C   UNL     1      -7.781  13.348 -12.137  1.00  0.00     0.000 C 
BRANCH   8   9
ATOM      9  C   UNL     1      -7.839  13.576 -10.618  1.00  0.00     0.000 C 
BRANCH   9  10
ATOM     10  C   UNL     1      -9.218  13.255 -10.019  1.00  0.00     0.000 C 
BRANCH  10  11
ATOM     11  C   UNL     1      -9.165  13.039  -8.497  1.00  0.00     0.000 C 
BRANCH  11  12
ATOM     12  C   UNL     1      -9.966  11.805  -8.055  1.00  0.00     0.006 C 
BRANCH  12  13
ATOM     13  C   UNL     1      -9.168  10.901  -7.106  1.00  0.00     0.053 C 
BRANCH  13  14
ATOM     14  C   UNL     1      -9.022  11.549  -5.764  1.00  0.00     0.041 C 
ATOM     15  O   UNL     1      -9.939  11.438  -4.906  1.00  0.00    -0.550 OA
ATOM     16  O   UNL     1      -7.862  12.242  -5.446  1.00  0.00    -0.550 OA
ENDBRANCH  13  14
ENDBRANCH  12  13
ENDBRANCH  11  12
ENDBRANCH  10  11
ENDBRANCH   9  10
ENDBRANCH   8   9
ENDBRANCH   7   8
ENDBRANCH   6   7
ENDBRANCH   5   6
ENDBRANCH   4   5
ENDBRANCH   3   4
ENDBRANCH   2   3
ENDBRANCH   1   2
BRANCH   1  17
ATOM     17  C   UNL     1      -8.140  15.941 -16.002  1.00  0.00     0.000 C 
BRANCH  17  18
ATOM     18  C   UNL     1      -6.609  16.051 -16.061  1.00  0.00     0.000 C 
BRANCH  18  19
ATOM     19  C   UNL     1      -6.068  17.254 -15.271  1.00  0.00     0.000 C 
BRANCH  19  20
ATOM     20  C   UNL     1      -5.972  18.532 -16.124  1.00  0.00     0.000 C 
BRANCH  20  21
ATOM     21  C   UNL     1      -5.995  19.850 -15.324  1.00  0.00     0.000 C 
BRANCH  21  22
ATOM     22  C   UNL     1      -7.033  20.884 -15.802  1.00  0.00    -0.000 C 
BRANCH  22  23
ATOM     23  C   UNL     1      -8.339  20.938 -14.980  1.00  0.00    -0.000 C 
BRANCH  23  24
ATOM     24  C   UNL     1      -8.145  21.033 -13.455  1.00  0.00    -0.000 C 
BRANCH  24  25
ATOM     25  C   UNL     1      -7.020  20.123 -12.933  1.00  0.00    -0.000 C 
BRANCH  25  26
ATOM     26  C   UNL     1      -7.529  18.755 -12.445  1.00  0.00    -0.000 C 
BRANCH  26  27
ATOM     27  C   UNL     1      -8.854  18.300 -13.094  1.00  0.00    -0.000 C 
BRANCH  27  28
ATOM     28  C   UNL     1      -8.954  16.793 -13.404  1.00  0.00    -0.000 C 
BRANCH  28  29
ATOM     29  C   UNL     1      -9.811  16.019 -12.388  1.00  0.00    -0.003 C 
ATOM     30  C   UNL     1     -11.295  16.314 -12.583  1.00  0.00     0.004 C 
ENDBRANCH  28  29
ENDBRANCH  27  28
ENDBRANCH  26  27
ENDBRANCH  25  26
ENDBRANCH  24  25
ENDBRANCH  23  24
ENDBRANCH  22  23
ENDBRANCH  21  22
ENDBRANCH  20  21
ENDBRANCH  19  20
ENDBRANCH  18  19
ENDBRANCH  17  18
ENDBRANCH   1  17
TORSDOF 26
ENDMDL
MODEL 6
REMARK VINA RESULT:     7.551      1.891      6.977
REMARK INTER + INTRA:          23.977
REMARK INTER:                  22.426
REMARK INTRA:                   1.551
REMARK UNBOUND:                 4.948
REMARK SMILES CCCCCCCCCCCCCCCCCCCCCCCCCCCC(=O)[O-]
REMARK SMILES IDX 15 1 16 2 17 3 18 4 19 5 20 6 21 7 22 8 23 9 24 10 25 11
REMARK SMILES IDX 26 12 27 13 28 14 29 15 30 16 14 17 13 18 12 19 11 20 10 21
REMARK SMILES IDX 9 22 8 23 7 24 6 25 5 26 4 27 3 28 2 29 1 30
REMARK H PARENT
REMARK Flexibility Score: inf
ROOT
ATOM      1  C   UNL     1      -9.457  14.282 -13.894  1.00  0.00     0.000 C 
ENDROOT
BRANCH   1   2
ATOM      2  C   UNL     1      -9.580  13.532 -15.238  1.00  0.00     0.000 C 
BRANCH   2   3
ATOM      3  C   UNL     1      -8.867  12.168 -15.259  1.00  0.00     0.000 C 
BRANCH   3   4
ATOM      4  C   UNL     1      -7.485  12.162 -15.939  1.00  0.00     0.000 C 
BRANCH   4   5
ATOM      5  C   UNL     1      -6.294  11.850 -15.010  1.00  0.00     0.000 C 
BRANCH   5   6
ATOM      6  C   UNL     1      -6.089  12.847 -13.859  1.00  0.00     0.000 C 
BRANCH   6   7
ATOM      7  C   UNL     1      -6.619  12.330 -12.515  1.00  0.00     0.000 C 
BRANCH   7   8
ATOM      8  C   UNL     1      -6.950  13.496 -11.576  1.00  0.00     0.000 C 
BRANCH   8   9
ATOM      9  C   UNL     1      -8.463  13.583 -11.317  1.00  0.00     0.000 C 
BRANCH   9  10
ATOM     10  C   UNL     1      -8.874  12.964  -9.971  1.00  0.00     0.000 C 
BRANCH  10  11
ATOM     11  C   UNL     1     -10.041  13.714  -9.308  1.00  0.00     0.000 C 
BRANCH  11  12
ATOM     12  C   UNL     1     -10.843  12.817  -8.352  1.00  0.00     0.006 C 
BRANCH  12  13
ATOM     13  C   UNL     1     -11.736  13.627  -7.403  1.00  0.00     0.053 C 
BRANCH  13  14
ATOM     14  C   UNL     1     -12.547  14.624  -8.170  1.00  0.00     0.041 C 
ATOM     15  O   UNL     1     -13.543  14.245  -8.843  1.00  0.00    -0.550 OA
ATOM     16  O   UNL     1     -12.228  15.974  -8.114  1.00  0.00    -0.550 OA
ENDBRANCH  13  14
ENDBRANCH  12  13
ENDBRANCH  11  12
ENDBRANCH  10  11
ENDBRANCH   9  10
ENDBRANCH   8   9
ENDBRANCH   7   8
ENDBRANCH   6   7
ENDBRANCH   5   6
ENDBRANCH   4   5
ENDBRANCH   3   4
ENDBRANCH   2   3
ENDBRANCH   1   2
BRANCH   1  17
ATOM     17  C   UNL     1      -8.197  15.168 -13.822  1.00  0.00     0.000 C 
BRANCH  17  18
ATOM     18  C   UNL     1      -7.427  15.216 -15.149  1.00  0.00     0.000 C 
BRANCH  18  19
ATOM     19  C   UNL     1      -6.051  15.891 -15.015  1.00  0.00     0.000 C 
BRANCH  19  20
ATOM     20  C   UNL     1      -5.883  17.095 -15.959  1.00  0.00     0.000 C 
BRANCH  20  21
ATOM     21  C   UNL     1      -6.617  18.376 -15.514  1.00  0.00     0.000 C 
BRANCH  21  22
ATOM     22  C   UNL     1      -6.076  19.683 -16.125  1.00  0.00    -0.000 C 
BRANCH  22  23
ATOM     23  C   UNL     1      -5.970  20.875 -15.148  1.00  0.00    -0.000 C 
BRANCH  23  24
ATOM     24  C   UNL     1      -5.879  20.490 -13.659  1.00  0.00    -0.000 C 
BRANCH  24  25
ATOM     25  C   UNL     1      -7.080  20.984 -12.835  1.00  0.00    -0.000 C 
BRANCH  25  26
ATOM     26  C   UNL     1      -8.367  21.122 -13.669  1.00  0.00    -0.000 C 
BRANCH  26  27
ATOM     27  C   UNL     1      -9.276  19.874 -13.647  1.00  0.00    -0.000 C 
BRANCH  27  28
ATOM     28  C   UNL     1      -8.539  18.521 -13.593  1.00  0.00    -0.000 C 
BRANCH  28  29
ATOM     29  C   UNL     1      -8.435  17.940 -12.173  1.00  0.00    -0.003 C 
ATOM     30  C   UNL     1      -9.559  16.944 -11.902  1.00  0.00     0.004 C 
ENDBRANCH  28  29
ENDBRANCH  27  28
ENDBRANCH  26  27
ENDBRANCH  25  26
ENDBRANCH  24  25
ENDBRANCH  23  24
ENDBRANCH  22  23
ENDBRANCH  21  22
ENDBRANCH  20  21
ENDBRANCH  19  20
ENDBRANCH  18  19
ENDBRANCH  17  18
ENDBRANCH   1  17
TORSDOF 26
ENDMDL
MODEL 7
REMARK VINA RESULT:     7.600      3.148      8.747
REMARK INTER + INTRA:          24.100
REMARK INTER:                  23.610
REMARK INTRA:                   0.490
REMARK UNBOUND:                 4.948
REMARK SMILES CCCCCCCCCCCCCCCCCCCCCCCCCCCC(=O)[O-]
REMARK SMILES IDX 15 1 16 2 17 3 18 4 19 5 20 6 21 7 22 8 23 9 24 10 25 11
REMARK SMILES IDX 26 12 27 13 28 14 29 15 30 16 14 17 13 18 12 19 11 20 10 21
REMARK SMILES IDX 9 22 8 23 7 24 6 25 5 26 4 27 3 28 2 29 1 30
REMARK H PARENT
REMARK Flexibility Score: inf
ROOT
ATOM      1  C   UNL     1      -8.382  14.206 -12.027  1.00  0.00     0.000 C 
ENDROOT
BRANCH   1   2
ATOM      2  C   UNL     1      -8.614  15.704 -11.732  1.00  0.00     0.000 C 
BRANCH   2   3
ATOM      3  C   UNL     1      -9.630  15.967 -10.605  1.00  0.00     0.000 C 
BRANCH   3   4
ATOM      4  C   UNL     1     -10.527  14.769 -10.241  1.00  0.00     0.000 C 
BRANCH   4   5
ATOM      5  C   UNL     1     -11.937  15.131  -9.732  1.00  0.00     0.000 C 
BRANCH   5   6
ATOM      6  C   UNL     1     -12.258  14.647  -8.309  1.00  0.00     0.000 C 
BRANCH   6   7
ATOM      7  C   UNL     1     -11.707  13.245  -8.013  1.00  0.00     0.000 C 
BRANCH   7   8
ATOM      8  C   UNL     1     -10.433  13.330  -7.165  1.00  0.00     0.000 C 
BRANCH   8   9
ATOM      9  C   UNL     1     -10.422  12.246  -6.076  1.00  0.00     0.000 C 
BRANCH   9  10
ATOM     10  C   UNL     1      -9.073  11.515  -5.975  1.00  0.00     0.000 C 
BRANCH  10  11
ATOM     11  C   UNL     1      -7.888  12.481  -5.823  1.00  0.00     0.000 C 
BRANCH  11  12
ATOM     12  C   UNL     1      -6.622  11.776  -5.311  1.00  0.00     0.006 C 
BRANCH  12  13
ATOM     13  C   UNL     1      -6.502  11.830  -3.782  1.00  0.00     0.053 C 
BRANCH  13  14
ATOM     14  C   UNL     1      -7.463  10.873  -3.147  1.00  0.00     0.041 C 
ATOM     15  O   UNL     1      -7.991   9.958  -3.835  1.00  0.00    -0.550 OA
ATOM     16  O   UNL     1      -7.747  10.966  -1.791  1.00  0.00    -0.550 OA
ENDBRANCH  13  14
ENDBRANCH  12  13
ENDBRANCH  11  12
ENDBRANCH  10  11
ENDBRANCH   9  10
ENDBRANCH   8   9
ENDBRANCH   7   8
ENDBRANCH   6   7
ENDBRANCH   5   6
ENDBRANCH   4   5
ENDBRANCH   3   4
ENDBRANCH   2   3
ENDBRANCH   1   2
BRANCH   1  17
ATOM     17  C   UNL     1      -7.032  13.940 -12.721  1.00  0.00     0.000 C 
BRANCH  17  18
ATOM     18  C   UNL     1      -6.835  12.463 -13.094  1.00  0.00     0.000 C 
BRANCH  18  19
ATOM     19  C   UNL     1      -6.052  12.279 -14.405  1.00  0.00     0.000 C 
BRANCH  19  20
ATOM     20  C   UNL     1      -6.766  12.900 -15.618  1.00  0.00     0.000 C 
BRANCH  20  21
ATOM     21  C   UNL     1      -8.304  12.931 -15.521  1.00  0.00     0.000 C 
BRANCH  21  22
ATOM     22  C   UNL     1      -8.911  14.317 -15.231  1.00  0.00    -0.000 C 
BRANCH  22  23
ATOM     23  C   UNL     1      -8.337  15.478 -16.072  1.00  0.00    -0.000 C 
BRANCH  23  24
ATOM     24  C   UNL     1      -6.800  15.584 -16.072  1.00  0.00    -0.000 C 
BRANCH  24  25
ATOM     25  C   UNL     1      -6.274  16.706 -15.161  1.00  0.00    -0.000 C 
BRANCH  25  26
ATOM     26  C   UNL     1      -6.067  18.038 -15.904  1.00  0.00    -0.000 C 
BRANCH  26  27
ATOM     27  C   UNL     1      -7.360  18.852 -16.125  1.00  0.00    -0.000 C 
BRANCH  27  28
ATOM     28  C   UNL     1      -7.658  19.922 -15.055  1.00  0.00    -0.000 C 
BRANCH  28  29
ATOM     29  C   UNL     1      -8.156  19.331 -13.725  1.00  0.00    -0.003 C 
ATOM     30  C   UNL     1      -8.986  18.073 -13.959  1.00  0.00     0.004 C 
ENDBRANCH  28  29
ENDBRANCH  27  28
ENDBRANCH  26  27
ENDBRANCH  25  26
ENDBRANCH  24  25
ENDBRANCH  23  24
ENDBRANCH  22  23
ENDBRANCH  21  22
ENDBRANCH  20  21
ENDBRANCH  19  20
ENDBRANCH  18  19
ENDBRANCH  17  18
ENDBRANCH   1  17
TORSDOF 26
ENDMDL
MODEL 8
REMARK VINA RESULT:     8.340      1.834      8.189
REMARK INTER + INTRA:          25.963
REMARK INTER:                  26.083
REMARK INTRA:                  -0.120
REMARK UNBOUND:                 4.948
REMARK SMILES CCCCCCCCCCCCCCCCCCCCCCCCCCCC(=O)[O-]
REMARK SMILES IDX 15 1 16 2 17 3 18 4 19 5 20 6 21 7 22 8 23 9 24 10 25 11
REMARK SMILES IDX 26 12 27 13 28 14 29 15 30 16 14 17 13 18 12 19 11 20 10 21
REMARK SMILES IDX 9 22 8 23 7 24 6 25 5 26 4 27 3 28 2 29 1 30
REMARK H PARENT
REMARK Flexibility Score: inf
ROOT
ATOM      1  C   UNL     1      -8.572  16.555 -11.676  1.00  0.00     0.000 C 
ENDROOT
BRANCH   1   2
ATOM      2  C   UNL     1      -8.625  15.075 -12.113  1.00  0.00     0.000 C 
BRANCH   2   3
ATOM      3  C   UNL     1      -8.264  14.080 -10.994  1.00  0.00     0.000 C 
BRANCH   3   4
ATOM      4  C   UNL     1      -6.957  13.298 -11.212  1.00  0.00     0.000 C 
BRANCH   4   5
ATOM      5  C   UNL     1      -6.372  12.624  -9.953  1.00  0.00     0.000 C 
BRANCH   5   6
ATOM      6  C   UNL     1      -7.183  12.841  -8.665  1.00  0.00     0.000 C 
BRANCH   6   7
ATOM      7  C   UNL     1      -6.385  12.523  -7.393  1.00  0.00     0.000 C 
BRANCH   7   8
ATOM      8  C   UNL     1      -7.212  12.833  -6.141  1.00  0.00     0.000 C 
BRANCH   8   9
ATOM      9  C   UNL     1      -7.918  11.572  -5.620  1.00  0.00     0.000 C 
BRANCH   9  10
ATOM     10  C   UNL     1      -9.274  11.322  -6.300  1.00  0.00     0.000 C 
BRANCH  10  11
ATOM     11  C   UNL     1     -10.393  12.208  -5.730  1.00  0.00     0.000 C 
BRANCH  11  12
ATOM     12  C   UNL     1     -10.675  13.433  -6.614  1.00  0.00     0.006 C 
BRANCH  12  13
ATOM     13  C   UNL     1     -12.134  13.488  -7.087  1.00  0.00     0.053 C 
BRANCH  13  14
ATOM     14  C   UNL     1     -12.331  14.618  -8.049  1.00  0.00     0.041 C 
ATOM     15  O   UNL     1     -12.191  14.425  -9.287  1.00  0.00    -0.550 OA
ATOM     16  O   UNL     1     -12.704  15.872  -7.585  1.00  0.00    -0.550 OA
ENDBRANCH  13  14
ENDBRANCH  12  13
ENDBRANCH  11  12
ENDBRANCH  10  11
ENDBRANCH   9  10
ENDBRANCH   8   9
ENDBRANCH   7   8
ENDBRANCH   6   7
ENDBRANCH   5   6
ENDBRANCH   4   5
ENDBRANCH   3   4
ENDBRANCH   2   3
ENDBRANCH   1   2
BRANCH   1  17
ATOM     17  C   UNL     1      -9.099  17.513 -12.762  1.00  0.00     0.000 C 
BRANCH  17  18
ATOM     18  C   UNL     1      -8.023  18.483 -13.272  1.00  0.00     0.000 C 
BRANCH  18  19
ATOM     19  C   UNL     1      -8.507  19.943 -13.312  1.00  0.00     0.000 C 
BRANCH  19  20
ATOM     20  C   UNL     1      -8.438  20.555 -14.722  1.00  0.00     0.000 C 
BRANCH  20  21
ATOM     21  C   UNL     1      -7.507  19.817 -15.706  1.00  0.00     0.000 C 
BRANCH  21  22
ATOM     22  C   UNL     1      -6.624  18.725 -15.073  1.00  0.00    -0.000 C 
BRANCH  22  23
ATOM     23  C   UNL     1      -5.875  17.818 -16.074  1.00  0.00    -0.000 C 
BRANCH  23  24
ATOM     24  C   UNL     1      -6.349  16.353 -16.105  1.00  0.00    -0.000 C 
BRANCH  24  25
ATOM     25  C   UNL     1      -7.815  16.185 -15.672  1.00  0.00    -0.000 C 
BRANCH  25  26
ATOM     26  C   UNL     1      -8.426  14.846 -16.123  1.00  0.00    -0.000 C 
BRANCH  26  27
ATOM     27  C   UNL     1      -7.571  13.608 -15.779  1.00  0.00    -0.000 C 
BRANCH  27  28
ATOM     28  C   UNL     1      -8.328  12.452 -15.095  1.00  0.00    -0.000 C 
BRANCH  28  29
ATOM     29  C   UNL     1      -9.472  11.883 -15.951  1.00  0.00    -0.003 C 
ATOM     30  C   UNL     1     -10.766  12.660 -15.726  1.00  0.00     0.004 C 
ENDBRANCH  28  29
ENDBRANCH  27  28
ENDBRANCH  26  27
ENDBRANCH  25  26
ENDBRANCH  24  25
ENDBRANCH  23  24
ENDBRANCH  22  23
ENDBRANCH  21  22
ENDBRANCH  20  21
ENDBRANCH  19  20
ENDBRANCH  18  19
ENDBRANCH  17  18
ENDBRANCH   1  17
TORSDOF 26
ENDMDL
