MODEL 1
REMARK VINA RESULT:    -3.510      0.000      0.000
REMARK INTER + INTRA:          -4.167
REMARK INTER:                  -4.023
REMARK INTRA:                  -0.143
REMARK UNBOUND:                -0.143
REMARK SMILES O=C([O-])C=Cc1ccc(O)cc1
REMARK SMILES IDX 6 1 7 2 12 3 8 4 11 5 9 6 5 7 4 8 2 9 1 10 3 11 10 12
REMARK H PARENT 10 13
REMARK Flexibility Score: inf
ROOT
ATOM      1  C   UNL     1       0.172  27.788  30.462  1.00  0.00    -0.025 A 
ATOM      2  C   UNL     1       0.191  28.676  29.367  1.00  0.00     0.012 A 
ATOM      3  C   UNL     1       0.030  26.411  30.215  1.00  0.00     0.012 A 
ATOM      4  C   UNL     1       0.095  28.188  28.059  1.00  0.00     0.047 A 
ATOM      5  C   UNL     1      -0.066  25.929  28.908  1.00  0.00     0.047 A 
ATOM      6  C   UNL     1      -0.031  26.817  27.826  1.00  0.00     0.115 A 
ENDROOT
BRANCH   1   7
ATOM      7  C   UNL     1       0.260  28.252  31.869  1.00  0.00     0.010 C 
ATOM      8  C   UNL     1      -0.122  29.469  32.277  1.00  0.00     0.025 C 
BRANCH   8   9
ATOM      9  C   UNL     1      -0.007  29.891  33.682  1.00  0.00     0.064 C 
ATOM     10  O   UNL     1       0.203  29.029  34.575  1.00  0.00    -0.545 OA
ATOM     11  O   UNL     1      -0.124  31.229  34.040  1.00  0.00    -0.545 OA
ENDBRANCH   8   9
ENDBRANCH   1   7
BRANCH   6  12
ATOM     12  O   UNL     1      -0.125  26.347  26.518  1.00  0.00    -0.508 OA
ATOM     13  H   UNL     1      -0.573  26.892  25.790  1.00  0.00     0.293 HD
ENDBRANCH   6  12
TORSDOF 3
ENDMDL
MODEL 2
REMARK VINA RESULT:    -3.460      1.276      5.940
REMARK INTER + INTRA:          -4.109
REMARK INTER:                  -3.958
REMARK INTRA:                  -0.151
REMARK UNBOUND:                -0.143
REMARK SMILES O=C([O-])C=Cc1ccc(O)cc1
REMARK SMILES IDX 6 1 7 2 12 3 8 4 11 5 9 6 5 7 4 8 2 9 1 10 3 11 10 12
REMARK H PARENT 10 13
REMARK Flexibility Score: inf
ROOT
ATOM      1  C   UNL     1       0.171  27.769  31.958  1.00  0.00    -0.025 A 
ATOM      2  C   UNL     1       0.096  26.997  33.136  1.00  0.00     0.012 A 
ATOM      3  C   UNL     1       0.122  29.169  32.062  1.00  0.00     0.012 A 
ATOM      4  C   UNL     1       0.001  27.621  34.385  1.00  0.00     0.047 A 
ATOM      5  C   UNL     1       0.027  29.788  33.311  1.00  0.00     0.047 A 
ATOM      6  C   UNL     1      -0.031  29.014  34.476  1.00  0.00     0.115 A 
ENDROOT
BRANCH   1   7
ATOM      7  C   UNL     1       0.262  27.159  30.608  1.00  0.00     0.010 C 
ATOM      8  C   UNL     1      -0.033  27.809  29.475  1.00  0.00     0.025 C 
BRANCH   8   9
ATOM      9  C   UNL     1       0.060  27.160  28.158  1.00  0.00     0.064 C 
ATOM     10  O   UNL     1       0.313  27.855  27.139  1.00  0.00    -0.545 OA
ATOM     11  O   UNL     1      -0.124  25.789  28.019  1.00  0.00    -0.545 OA
ENDBRANCH   8   9
ENDBRANCH   1   7
BRANCH   6  12
ATOM     12  O   UNL     1      -0.125  29.620  35.727  1.00  0.00    -0.508 OA
ATOM     13  H   UNL     1      -0.779  30.373  35.903  1.00  0.00     0.293 HD
ENDBRANCH   6  12
TORSDOF 3
ENDMDL
MODEL 3
REMARK VINA RESULT:    -3.451      1.240      5.796
REMARK INTER + INTRA:          -4.099
REMARK INTER:                  -3.960
REMARK INTRA:                  -0.139
REMARK UNBOUND:                -0.143
REMARK SMILES O=C([O-])C=Cc1ccc(O)cc1
REMARK SMILES IDX 6 1 7 2 12 3 8 4 11 5 9 6 5 7 4 8 2 9 1 10 3 11 10 12
REMARK H PARENT 10 13
REMARK Flexibility Score: inf
ROOT
ATOM      1  C   UNL     1       0.366  28.245  31.986  1.00  0.00    -0.025 A 
ATOM      2  C   UNL     1       0.031  29.599  32.194  1.00  0.00     0.012 A 
ATOM      3  C   UNL     1       0.566  27.417  33.103  1.00  0.00     0.012 A 
ATOM      4  C   UNL     1      -0.124  30.097  33.492  1.00  0.00     0.047 A 
ATOM      5  C   UNL     1       0.410  27.919  34.398  1.00  0.00     0.047 A 
ATOM      6  C   UNL     1       0.061  29.261  34.595  1.00  0.00     0.115 A 
ENDROOT
BRANCH   1   7
ATOM      7  C   UNL     1       0.554  27.668  30.631  1.00  0.00     0.010 C 
ATOM      8  C   UNL     1      -0.058  28.129  29.533  1.00  0.00     0.025 C 
BRANCH   8   9
ATOM      9  C   UNL     1       0.149  27.518  28.211  1.00  0.00     0.064 C 
ATOM     10  O   UNL     1       0.573  28.224  27.259  1.00  0.00    -0.545 OA
ATOM     11  O   UNL     1      -0.115  26.170  27.995  1.00  0.00    -0.545 OA
ENDBRANCH   8   9
ENDBRANCH   1   7
BRANCH   6  12
ATOM     12  O   UNL     1      -0.097  29.773  35.881  1.00  0.00    -0.508 OA
ATOM     13  H   UNL     1       0.010  30.762  36.074  1.00  0.00     0.293 HD
ENDBRANCH   6  12
TORSDOF 3
ENDMDL
MODEL 4
REMARK VINA RESULT:    -3.147      1.957      5.567
REMARK INTER + INTRA:          -3.750
REMARK INTER:                  -3.596
REMARK INTRA:                  -0.155
REMARK UNBOUND:                -0.143
REMARK SMILES O=C([O-])C=Cc1ccc(O)cc1
REMARK SMILES IDX 6 1 7 2 12 3 8 4 11 5 9 6 5 7 4 8 2 9 1 10 3 11 10 12
REMARK H PARENT 10 13
REMARK Flexibility Score: inf
ROOT
ATOM      1  C   UNL     1       0.188  27.728  31.674  1.00  0.00    -0.025 A 
ATOM      2  C   UNL     1       0.445  28.607  32.746  1.00  0.00     0.012 A 
ATOM      3  C   UNL     1      -0.084  26.378  31.955  1.00  0.00     0.012 A 
ATOM      4  C   UNL     1       0.403  28.145  34.065  1.00  0.00     0.047 A 
ATOM      5  C   UNL     1      -0.125  25.921  33.275  1.00  0.00     0.047 A 
ATOM      6  C   UNL     1       0.116  26.805  34.334  1.00  0.00     0.115 A 
ENDROOT
BRANCH   1   7
ATOM      7  C   UNL     1       0.231  28.163  30.255  1.00  0.00     0.010 C 
ATOM      8  C   UNL     1      -0.074  27.368  29.222  1.00  0.00     0.025 C 
BRANCH   8   9
ATOM      9  C   UNL     1      -0.006  27.839  27.830  1.00  0.00     0.064 C 
ATOM     10  O   UNL     1       0.139  29.068  27.596  1.00  0.00    -0.545 OA
ATOM     11  O   UNL     1      -0.100  26.949  26.766  1.00  0.00    -0.545 OA
ENDBRANCH   8   9
ENDBRANCH   1   7
BRANCH   6  12
ATOM     12  O   UNL     1       0.077  26.360  35.653  1.00  0.00    -0.508 OA
ATOM     13  H   UNL     1       0.699  25.632  35.985  1.00  0.00     0.293 HD
ENDBRANCH   6  12
TORSDOF 3
ENDMDL
