MODEL 1
REMARK VINA RESULT:    -6.349      0.000      0.000
REMARK INTER + INTRA:          -6.534
REMARK INTER:                  -6.534
REMARK INTRA:                   0.000
REMARK UNBOUND:                 0.000
REMARK SMILES CC1(C)CC[C@]2(C)CC[C@@]3(C)C(=CC[C@@H]4[C@]5(C)CC[C@H](O)C(C)(C)[C@@H]5CC[C@]43C)[C@@H]2C1
REMARK SMILES IDX 1 1 2 2 4 3 5 4 6 5 8 6 9 7 10 8 12 9 13 10 14 11 15 12
REMARK SMILES IDX 28 13 27 14 26 15 25 16 16 17 18 18 19 19 20 20 22 21 23 22
REMARK SMILES IDX 24 23 17 24 29 25 30 26 31 27 11 28 7 29 3 30 21 31
REMARK H PARENT 21 32
REMARK Flexibility Score: inf
ROOT
ATOM      1  C   UNL     1     -21.118  48.476  12.532  1.00  0.00     0.011 C 
ATOM      2  C   UNL     1     -22.161  48.678  11.408  1.00  0.00    -0.035 C 
ATOM      3  C   UNL     1     -21.782  47.876  10.149  1.00  0.00     0.007 C 
ATOM      4  C   UNL     1     -20.503  48.399   9.497  1.00  0.00     0.008 C 
ATOM      5  C   UNL     1     -20.591  49.881   9.025  1.00  0.00    -0.026 C 
ATOM      6  C   UNL     1     -19.121  50.339   8.735  1.00  0.00     0.008 C 
ATOM      7  C   UNL     1     -18.929  51.862   8.559  1.00  0.00     0.012 C 
ATOM      8  C   UNL     1     -19.568  52.756   9.692  1.00  0.00    -0.006 C 
ATOM      9  C   UNL     1     -20.277  51.807  10.700  1.00  0.00    -0.064 C 
ATOM     10  C   UNL     1     -19.823  51.633  11.967  1.00  0.00    -0.027 C 
ATOM     11  C   UNL     1     -18.534  52.207  12.506  1.00  0.00     0.032 C 
ATOM     12  C   UNL     1     -17.635  52.765  11.376  1.00  0.00     0.006 C 
ATOM     13  C   UNL     1     -18.496  53.687  10.453  1.00  0.00    -0.020 C 
ATOM     14  C   UNL     1     -17.570  54.488   9.474  1.00  0.00     0.008 C 
ATOM     15  C   UNL     1     -16.119  53.999   9.256  1.00  0.00     0.005 C 
ATOM     16  C   UNL     1     -15.315  53.389  10.465  1.00  0.00     0.003 C 
ATOM     17  C   UNL     1     -16.187  53.293  11.785  1.00  0.00    -0.025 C 
ATOM     18  C   UNL     1     -16.186  54.677  12.490  1.00  0.00     0.010 C 
ATOM     19  C   UNL     1     -14.777  55.230  12.753  1.00  0.00     0.033 C 
ATOM     20  C   UNL     1     -13.963  55.380  11.448  1.00  0.00     0.120 C 
ATOM     21  C   UNL     1     -13.859  54.041  10.647  1.00  0.00    -0.006 C 
ATOM     22  C   UNL     1     -12.876  53.062  11.379  1.00  0.00     0.014 C 
ATOM     23  C   UNL     1     -13.169  54.315   9.270  1.00  0.00     0.014 C 
ATOM     24  C   UNL     1     -15.598  52.237  12.771  1.00  0.00     0.012 C 
ATOM     25  C   UNL     1     -19.302  54.741  11.308  1.00  0.00     0.012 C 
ATOM     26  C   UNL     1     -21.288  50.830  10.084  1.00  0.00     0.022 C 
ATOM     27  C   UNL     1     -22.343  50.178  11.042  1.00  0.00     0.015 C 
ATOM     28  C   UNL     1     -20.659  53.659   9.017  1.00  0.00     0.017 C 
ATOM     29  C   UNL     1     -21.388  49.920   7.693  1.00  0.00     0.012 C 
ATOM     30  C   UNL     1     -23.509  48.133  11.938  1.00  0.00     0.011 C 
ENDROOT
BRANCH  20  31
ATOM     31  O   UNL     1     -14.549  56.382  10.653  1.00  0.00    -0.393 OA
ATOM     32  H   UNL     1     -14.794  55.961   9.788  1.00  0.00     0.210 HD
ENDBRANCH  20  31
TORSDOF 1
ENDMDL
MODEL 2
REMARK VINA RESULT:    -6.273      3.001      6.315
REMARK INTER + INTRA:          -6.457
REMARK INTER:                  -6.457
REMARK INTRA:                   0.000
REMARK UNBOUND:                 0.000
REMARK SMILES CC1(C)CC[C@]2(C)CC[C@@]3(C)C(=CC[C@@H]4[C@]5(C)CC[C@H](O)C(C)(C)[C@@H]5CC[C@]43C)[C@@H]2C1
REMARK SMILES IDX 1 1 2 2 4 3 5 4 6 5 8 6 9 7 10 8 12 9 13 10 14 11 15 12
REMARK SMILES IDX 28 13 27 14 26 15 25 16 16 17 18 18 19 19 20 20 22 21 23 22
REMARK SMILES IDX 24 23 17 24 29 25 30 26 31 27 11 28 7 29 3 30 21 31
REMARK H PARENT 21 32
REMARK Flexibility Score: inf
ROOT
ATOM      1  C   UNL     1     -21.446  56.473   8.715  1.00  0.00     0.011 C 
ATOM      2  C   UNL     1     -21.073  57.352   9.931  1.00  0.00    -0.035 C 
ATOM      3  C   UNL     1     -19.904  58.297   9.594  1.00  0.00     0.007 C 
ATOM      4  C   UNL     1     -18.604  57.536   9.339  1.00  0.00     0.008 C 
ATOM      5  C   UNL     1     -18.111  56.695  10.554  1.00  0.00    -0.026 C 
ATOM      6  C   UNL     1     -17.011  55.725  10.001  1.00  0.00     0.008 C 
ATOM      7  C   UNL     1     -16.604  54.580  10.956  1.00  0.00     0.012 C 
ATOM      8  C   UNL     1     -17.803  53.756  11.568  1.00  0.00    -0.006 C 
ATOM      9  C   UNL     1     -19.126  54.382  11.041  1.00  0.00    -0.064 C 
ATOM     10  C   UNL     1     -19.940  53.724  10.177  1.00  0.00    -0.027 C 
ATOM     11  C   UNL     1     -19.615  52.400   9.526  1.00  0.00     0.032 C 
ATOM     12  C   UNL     1     -18.126  52.018   9.712  1.00  0.00     0.006 C 
ATOM     13  C   UNL     1     -17.745  52.185  11.218  1.00  0.00    -0.020 C 
ATOM     14  C   UNL     1     -16.341  51.543  11.496  1.00  0.00     0.008 C 
ATOM     15  C   UNL     1     -15.409  51.250  10.298  1.00  0.00     0.005 C 
ATOM     16  C   UNL     1     -16.026  50.757   8.935  1.00  0.00     0.003 C 
ATOM     17  C   UNL     1     -17.609  50.703   8.972  1.00  0.00    -0.025 C 
ATOM     18  C   UNL     1     -18.051  49.374   9.647  1.00  0.00     0.010 C 
ATOM     19  C   UNL     1     -17.433  48.125   9.000  1.00  0.00     0.033 C 
ATOM     20  C   UNL     1     -15.888  48.163   9.031  1.00  0.00     0.120 C 
ATOM     21  C   UNL     1     -15.305  49.446   8.353  1.00  0.00    -0.006 C 
ATOM     22  C   UNL     1     -15.466  49.341   6.796  1.00  0.00     0.014 C 
ATOM     23  C   UNL     1     -13.756  49.488   8.574  1.00  0.00     0.014 C 
ATOM     24  C   UNL     1     -18.207  50.747   7.532  1.00  0.00     0.012 C 
ATOM     25  C   UNL     1     -18.790  51.451  12.147  1.00  0.00     0.012 C 
ATOM     26  C   UNL     1     -19.275  55.893  11.267  1.00  0.00     0.022 C 
ATOM     27  C   UNL     1     -20.717  56.500  11.182  1.00  0.00     0.015 C 
ATOM     28  C   UNL     1     -17.756  53.948  13.125  1.00  0.00     0.017 C 
ATOM     29  C   UNL     1     -17.446  57.658  11.574  1.00  0.00     0.012 C 
ATOM     30  C   UNL     1     -22.311  58.218  10.261  1.00  0.00     0.011 C 
ENDROOT
BRANCH  20  31
ATOM     31  O   UNL     1     -15.452  48.074  10.366  1.00  0.00    -0.393 OA
ATOM     32  H   UNL     1     -15.996  48.716  10.893  1.00  0.00     0.210 HD
ENDBRANCH  20  31
TORSDOF 1
ENDMDL
MODEL 3
REMARK VINA RESULT:    -6.177      2.617      7.737
REMARK INTER + INTRA:          -6.357
REMARK INTER:                  -6.357
REMARK INTRA:                   0.000
REMARK UNBOUND:                 0.000
REMARK SMILES CC1(C)CC[C@]2(C)CC[C@@]3(C)C(=CC[C@@H]4[C@]5(C)CC[C@H](O)C(C)(C)[C@@H]5CC[C@]43C)[C@@H]2C1
REMARK SMILES IDX 1 1 2 2 4 3 5 4 6 5 8 6 9 7 10 8 12 9 13 10 14 11 15 12
REMARK SMILES IDX 28 13 27 14 26 15 25 16 16 17 18 18 19 19 20 20 22 21 23 22
REMARK SMILES IDX 24 23 17 24 29 25 30 26 31 27 11 28 7 29 3 30 21 31
REMARK H PARENT 21 32
REMARK Flexibility Score: inf
ROOT
ATOM      1  C   UNL     1     -17.044  57.827   8.825  1.00  0.00     0.011 C 
ATOM      2  C   UNL     1     -15.565  57.712   9.264  1.00  0.00    -0.035 C 
ATOM      3  C   UNL     1     -14.656  57.376   8.067  1.00  0.00     0.007 C 
ATOM      4  C   UNL     1     -14.933  55.982   7.507  1.00  0.00     0.008 C 
ATOM      5  C   UNL     1     -14.703  54.830   8.530  1.00  0.00    -0.026 C 
ATOM      6  C   UNL     1     -15.373  53.554   7.915  1.00  0.00     0.008 C 
ATOM      7  C   UNL     1     -15.548  52.368   8.890  1.00  0.00     0.012 C 
ATOM      8  C   UNL     1     -16.219  52.727  10.273  1.00  0.00    -0.006 C 
ATOM      9  C   UNL     1     -16.498  54.257  10.280  1.00  0.00    -0.064 C 
ATOM     10  C   UNL     1     -17.758  54.760  10.254  1.00  0.00    -0.027 C 
ATOM     11  C   UNL     1     -19.011  53.934  10.078  1.00  0.00     0.032 C 
ATOM     12  C   UNL     1     -18.689  52.487   9.629  1.00  0.00     0.006 C 
ATOM     13  C   UNL     1     -17.576  51.905  10.558  1.00  0.00    -0.020 C 
ATOM     14  C   UNL     1     -17.424  50.363  10.320  1.00  0.00     0.008 C 
ATOM     15  C   UNL     1     -18.013  49.750   9.029  1.00  0.00     0.005 C 
ATOM     16  C   UNL     1     -19.368  50.307   8.452  1.00  0.00     0.003 C 
ATOM     17  C   UNL     1     -19.921  51.535   9.285  1.00  0.00    -0.025 C 
ATOM     18  C   UNL     1     -20.680  50.997  10.531  1.00  0.00     0.010 C 
ATOM     19  C   UNL     1     -21.775  49.977  10.186  1.00  0.00     0.033 C 
ATOM     20  C   UNL     1     -21.208  48.754   9.430  1.00  0.00     0.120 C 
ATOM     21  C   UNL     1     -20.438  49.155   8.129  1.00  0.00    -0.006 C 
ATOM     22  C   UNL     1     -21.460  49.607   7.028  1.00  0.00     0.014 C 
ATOM     23  C   UNL     1     -19.758  47.884   7.519  1.00  0.00     0.014 C 
ATOM     24  C   UNL     1     -20.912  52.390   8.437  1.00  0.00     0.012 C 
ATOM     25  C   UNL     1     -17.947  52.114  12.079  1.00  0.00     0.012 C 
ATOM     26  C   UNL     1     -15.289  55.148   9.966  1.00  0.00     0.022 C 
ATOM     27  C   UNL     1     -15.369  56.655  10.387  1.00  0.00     0.015 C 
ATOM     28  C   UNL     1     -15.171  52.413  11.398  1.00  0.00     0.017 C 
ATOM     29  C   UNL     1     -13.175  54.575   8.640  1.00  0.00     0.012 C 
ATOM     30  C   UNL     1     -15.146  59.097   9.812  1.00  0.00     0.011 C 
ENDROOT
BRANCH  20  31
ATOM     31  O   UNL     1     -20.366  48.029  10.294  1.00  0.00    -0.393 OA
ATOM     32  H   UNL     1     -20.304  48.545  11.140  1.00  0.00     0.210 HD
ENDBRANCH  20  31
TORSDOF 1
ENDMDL
MODEL 4
REMARK VINA RESULT:    -5.793      1.725      3.927
REMARK INTER + INTRA:          -5.963
REMARK INTER:                  -5.963
REMARK INTRA:                   0.000
REMARK UNBOUND:                 0.000
REMARK SMILES CC1(C)CC[C@]2(C)CC[C@@]3(C)C(=CC[C@@H]4[C@]5(C)CC[C@H](O)C(C)(C)[C@@H]5CC[C@]43C)[C@@H]2C1
REMARK SMILES IDX 1 1 2 2 4 3 5 4 6 5 8 6 9 7 10 8 12 9 13 10 14 11 15 12
REMARK SMILES IDX 28 13 27 14 26 15 25 16 16 17 18 18 19 19 20 20 22 21 23 22
REMARK SMILES IDX 24 23 17 24 29 25 30 26 31 27 11 28 7 29 3 30 21 31
REMARK H PARENT 21 32
REMARK Flexibility Score: inf
ROOT
ATOM      1  C   UNL     1     -18.903  50.140   5.885  1.00  0.00     0.011 C 
ATOM      2  C   UNL     1     -19.757  49.281   6.847  1.00  0.00    -0.035 C 
ATOM      3  C   UNL     1     -21.124  49.939   7.113  1.00  0.00     0.007 C 
ATOM      4  C   UNL     1     -20.991  51.250   7.886  1.00  0.00     0.008 C 
ATOM      5  C   UNL     1     -20.333  51.096   9.289  1.00  0.00    -0.026 C 
ATOM      6  C   UNL     1     -19.952  52.541   9.760  1.00  0.00     0.008 C 
ATOM      7  C   UNL     1     -19.005  52.608  10.979  1.00  0.00     0.012 C 
ATOM      8  C   UNL     1     -17.713  51.707  10.877  1.00  0.00    -0.006 C 
ATOM      9  C   UNL     1     -17.777  50.939   9.526  1.00  0.00    -0.064 C 
ATOM     10  C   UNL     1     -16.913  51.193   8.511  1.00  0.00    -0.027 C 
ATOM     11  C   UNL     1     -15.899  52.312   8.504  1.00  0.00     0.032 C 
ATOM     12  C   UNL     1     -16.152  53.326   9.647  1.00  0.00     0.006 C 
ATOM     13  C   UNL     1     -16.340  52.542  10.986  1.00  0.00    -0.020 C 
ATOM     14  C   UNL     1     -16.315  53.533  12.201  1.00  0.00     0.008 C 
ATOM     15  C   UNL     1     -16.531  55.040  11.934  1.00  0.00     0.005 C 
ATOM     16  C   UNL     1     -15.939  55.691  10.627  1.00  0.00     0.003 C 
ATOM     17  C   UNL     1     -15.232  54.628   9.688  1.00  0.00    -0.025 C 
ATOM     18  C   UNL     1     -13.790  54.376  10.210  1.00  0.00     0.010 C 
ATOM     19  C   UNL     1     -12.965  55.661  10.371  1.00  0.00     0.033 C 
ATOM     20  C   UNL     1     -13.635  56.660  11.341  1.00  0.00     0.120 C 
ATOM     21  C   UNL     1     -15.094  57.026  10.914  1.00  0.00    -0.006 C 
ATOM     22  C   UNL     1     -15.057  57.967   9.660  1.00  0.00     0.014 C 
ATOM     23  C   UNL     1     -15.754  57.903  12.030  1.00  0.00     0.014 C 
ATOM     24  C   UNL     1     -15.141  55.148   8.220  1.00  0.00     0.012 C 
ATOM     25  C   UNL     1     -15.168  51.506  11.199  1.00  0.00     0.012 C 
ATOM     26  C   UNL     1     -19.068  50.144   9.281  1.00  0.00     0.022 C 
ATOM     27  C   UNL     1     -19.029  49.015   8.196  1.00  0.00     0.015 C 
ATOM     28  C   UNL     1     -17.781  50.658  12.042  1.00  0.00     0.017 C 
ATOM     29  C   UNL     1     -21.399  50.529  10.266  1.00  0.00     0.012 C 
ATOM     30  C   UNL     1     -20.004  47.925   6.145  1.00  0.00     0.011 C 
ENDROOT
BRANCH  20  31
ATOM     31  O   UNL     1     -13.626  56.117  12.640  1.00  0.00    -0.393 OA
ATOM     32  H   UNL     1     -12.675  55.994  12.898  1.00  0.00     0.210 HD
ENDBRANCH  20  31
TORSDOF 1
ENDMDL
MODEL 5
REMARK VINA RESULT:    -5.629      2.807      7.487
REMARK INTER + INTRA:          -5.793
REMARK INTER:                  -5.793
REMARK INTRA:                   0.000
REMARK UNBOUND:                 0.000
REMARK SMILES CC1(C)CC[C@]2(C)CC[C@@]3(C)C(=CC[C@@H]4[C@]5(C)CC[C@H](O)C(C)(C)[C@@H]5CC[C@]43C)[C@@H]2C1
REMARK SMILES IDX 1 1 2 2 4 3 5 4 6 5 8 6 9 7 10 8 12 9 13 10 14 11 15 12
REMARK SMILES IDX 28 13 27 14 26 15 25 16 16 17 18 18 19 19 20 20 22 21 23 22
REMARK SMILES IDX 24 23 17 24 29 25 30 26 31 27 11 28 7 29 3 30 21 31
REMARK H PARENT 21 32
REMARK Flexibility Score: inf
ROOT
ATOM      1  C   UNL     1     -18.150  57.999   7.838  1.00  0.00     0.011 C 
ATOM      2  C   UNL     1     -16.773  58.466   8.368  1.00  0.00    -0.035 C 
ATOM      3  C   UNL     1     -15.631  57.957   7.469  1.00  0.00     0.007 C 
ATOM      4  C   UNL     1     -15.495  56.436   7.518  1.00  0.00     0.008 C 
ATOM      5  C   UNL     1     -15.180  55.872   8.935  1.00  0.00    -0.026 C 
ATOM      6  C   UNL     1     -15.438  54.328   8.863  1.00  0.00     0.008 C 
ATOM      7  C   UNL     1     -15.497  53.606  10.228  1.00  0.00     0.012 C 
ATOM      8  C   UNL     1     -16.445  54.271  11.301  1.00  0.00    -0.006 C 
ATOM      9  C   UNL     1     -17.058  55.550  10.662  1.00  0.00    -0.064 C 
ATOM     10  C   UNL     1     -18.378  55.643  10.360  1.00  0.00    -0.027 C 
ATOM     11  C   UNL     1     -19.368  54.508  10.469  1.00  0.00     0.032 C 
ATOM     12  C   UNL     1     -18.662  53.145  10.674  1.00  0.00     0.006 C 
ATOM     13  C   UNL     1     -17.611  53.288  11.822  1.00  0.00    -0.020 C 
ATOM     14  C   UNL     1     -17.080  51.875  12.248  1.00  0.00     0.008 C 
ATOM     15  C   UNL     1     -17.301  50.680  11.293  1.00  0.00     0.005 C 
ATOM     16  C   UNL     1     -18.635  50.585  10.461  1.00  0.00     0.003 C 
ATOM     17  C   UNL     1     -19.577  51.839  10.683  1.00  0.00    -0.025 C 
ATOM     18  C   UNL     1     -20.386  51.635  11.995  1.00  0.00     0.010 C 
ATOM     19  C   UNL     1     -21.154  50.305  12.039  1.00  0.00     0.033 C 
ATOM     20  C   UNL     1     -20.212  49.089  11.887  1.00  0.00     0.120 C 
ATOM     21  C   UNL     1     -19.353  49.154  10.582  1.00  0.00    -0.006 C 
ATOM     22  C   UNL     1     -20.259  48.856   9.337  1.00  0.00     0.014 C 
ATOM     23  C   UNL     1     -18.316  47.982  10.588  1.00  0.00     0.014 C 
ATOM     24  C   UNL     1     -20.585  52.001   9.504  1.00  0.00     0.012 C 
ATOM     25  C   UNL     1     -18.259  53.953  13.098  1.00  0.00     0.012 C 
ATOM     26  C   UNL     1     -16.045  56.544  10.078  1.00  0.00     0.022 C 
ATOM     27  C   UNL     1     -16.529  58.015   9.836  1.00  0.00     0.015 C 
ATOM     28  C   UNL     1     -15.549  54.708  12.512  1.00  0.00     0.017 C 
ATOM     29  C   UNL     1     -13.672  56.102   9.226  1.00  0.00     0.012 C 
ATOM     30  C   UNL     1     -16.770  60.012   8.321  1.00  0.00     0.011 C 
ENDROOT
BRANCH  20  31
ATOM     31  O   UNL     1     -19.379  49.008  13.018  1.00  0.00    -0.393 OA
ATOM     32  H   UNL     1     -19.147  48.050  13.141  1.00  0.00     0.210 HD
ENDBRANCH  20  31
TORSDOF 1
ENDMDL
MODEL 6
REMARK VINA RESULT:    -5.609      3.402      7.837
REMARK INTER + INTRA:          -5.773
REMARK INTER:                  -5.773
REMARK INTRA:                   0.000
REMARK UNBOUND:                 0.000
REMARK SMILES CC1(C)CC[C@]2(C)CC[C@@]3(C)C(=CC[C@@H]4[C@]5(C)CC[C@H](O)C(C)(C)[C@@H]5CC[C@]43C)[C@@H]2C1
REMARK SMILES IDX 1 1 2 2 4 3 5 4 6 5 8 6 9 7 10 8 12 9 13 10 14 11 15 12
REMARK SMILES IDX 28 13 27 14 26 15 25 16 16 17 18 18 19 19 20 20 22 21 23 22
REMARK SMILES IDX 24 23 17 24 29 25 30 26 31 27 11 28 7 29 3 30 21 31
REMARK H PARENT 21 32
REMARK Flexibility Score: inf
ROOT
ATOM      1  C   UNL     1     -17.887  58.531   7.581  1.00  0.00     0.011 C 
ATOM      2  C   UNL     1     -16.465  59.137   7.534  1.00  0.00    -0.035 C 
ATOM      3  C   UNL     1     -15.835  58.968   6.139  1.00  0.00     0.007 C 
ATOM      4  C   UNL     1     -15.569  57.502   5.802  1.00  0.00     0.008 C 
ATOM      5  C   UNL     1     -14.587  56.793   6.780  1.00  0.00    -0.026 C 
ATOM      6  C   UNL     1     -14.724  55.256   6.507  1.00  0.00     0.008 C 
ATOM      7  C   UNL     1     -14.082  54.339   7.572  1.00  0.00     0.012 C 
ATOM      8  C   UNL     1     -14.473  54.666   9.066  1.00  0.00    -0.006 C 
ATOM      9  C   UNL     1     -15.413  55.905   9.048  1.00  0.00    -0.064 C 
ATOM     10  C   UNL     1     -16.725  55.819   9.386  1.00  0.00    -0.027 C 
ATOM     11  C   UNL     1     -17.455  54.529   9.680  1.00  0.00     0.032 C 
ATOM     12  C   UNL     1     -16.627  53.290   9.260  1.00  0.00     0.006 C 
ATOM     13  C   UNL     1     -15.178  53.434   9.827  1.00  0.00    -0.020 C 
ATOM     14  C   UNL     1     -14.398  52.083   9.668  1.00  0.00     0.008 C 
ATOM     15  C   UNL     1     -14.940  51.024   8.680  1.00  0.00     0.005 C 
ATOM     16  C   UNL     1     -16.496  50.832   8.524  1.00  0.00     0.003 C 
ATOM     17  C   UNL     1     -17.324  51.862   9.397  1.00  0.00    -0.025 C 
ATOM     18  C   UNL     1     -17.410  51.330  10.855  1.00  0.00     0.010 C 
ATOM     19  C   UNL     1     -17.959  49.899  10.953  1.00  0.00     0.033 C 
ATOM     20  C   UNL     1     -17.102  48.895  10.149  1.00  0.00     0.120 C 
ATOM     21  C   UNL     1     -16.957  49.299   8.645  1.00  0.00    -0.006 C 
ATOM     22  C   UNL     1     -18.311  49.042   7.896  1.00  0.00     0.014 C 
ATOM     23  C   UNL     1     -15.945  48.331   7.946  1.00  0.00     0.014 C 
ATOM     24  C   UNL     1     -18.774  52.027   8.847  1.00  0.00     0.012 C 
ATOM     25  C   UNL     1     -15.210  53.782  11.367  1.00  0.00     0.012 C 
ATOM     26  C   UNL     1     -14.872  57.131   8.300  1.00  0.00     0.022 C 
ATOM     27  C   UNL     1     -15.529  58.519   8.612  1.00  0.00     0.015 C 
ATOM     28  C   UNL     1     -13.154  55.061   9.818  1.00  0.00     0.017 C 
ATOM     29  C   UNL     1     -13.141  57.227   6.417  1.00  0.00     0.012 C 
ATOM     30  C   UNL     1     -16.609  60.651   7.817  1.00  0.00     0.011 C 
ENDROOT
BRANCH  20  31
ATOM     31  O   UNL     1     -15.835  48.787  10.751  1.00  0.00    -0.393 OA
ATOM     32  H   UNL     1     -15.166  48.751  10.018  1.00  0.00     0.210 HD
ENDBRANCH  20  31
TORSDOF 1
ENDMDL
MODEL 7
REMARK VINA RESULT:    -5.591      2.921      5.431
REMARK INTER + INTRA:          -5.754
REMARK INTER:                  -5.754
REMARK INTRA:                   0.000
REMARK UNBOUND:                 0.000
REMARK SMILES CC1(C)CC[C@]2(C)CC[C@@]3(C)C(=CC[C@@H]4[C@]5(C)CC[C@H](O)C(C)(C)[C@@H]5CC[C@]43C)[C@@H]2C1
REMARK SMILES IDX 1 1 2 2 4 3 5 4 6 5 8 6 9 7 10 8 12 9 13 10 14 11 15 12
REMARK SMILES IDX 28 13 27 14 26 15 25 16 16 17 18 18 19 19 20 20 22 21 23 22
REMARK SMILES IDX 24 23 17 24 29 25 30 26 31 27 11 28 7 29 3 30 21 31
REMARK H PARENT 21 32
REMARK Flexibility Score: inf
ROOT
ATOM      1  C   UNL     1     -13.389  50.197   8.666  1.00  0.00     0.011 C 
ATOM      2  C   UNL     1     -14.029  48.880   9.163  1.00  0.00    -0.035 C 
ATOM      3  C   UNL     1     -14.974  48.287   8.101  1.00  0.00     0.007 C 
ATOM      4  C   UNL     1     -16.199  49.169   7.865  1.00  0.00     0.008 C 
ATOM      5  C   UNL     1     -17.085  49.376   9.130  1.00  0.00    -0.026 C 
ATOM      6  C   UNL     1     -18.051  50.567   8.802  1.00  0.00     0.008 C 
ATOM      7  C   UNL     1     -18.803  51.157  10.016  1.00  0.00     0.012 C 
ATOM      8  C   UNL     1     -17.899  51.511  11.260  1.00  0.00    -0.006 C 
ATOM      9  C   UNL     1     -16.436  51.114  10.911  1.00  0.00    -0.064 C 
ATOM     10  C   UNL     1     -15.460  52.040  10.734  1.00  0.00    -0.027 C 
ATOM     11  C   UNL     1     -15.685  53.534  10.714  1.00  0.00     0.032 C 
ATOM     12  C   UNL     1     -17.190  53.889  10.615  1.00  0.00     0.006 C 
ATOM     13  C   UNL     1     -17.975  53.064  11.685  1.00  0.00    -0.020 C 
ATOM     14  C   UNL     1     -19.444  53.597  11.809  1.00  0.00     0.008 C 
ATOM     15  C   UNL     1     -20.010  54.482  10.674  1.00  0.00     0.005 C 
ATOM     16  C   UNL     1     -19.066  55.511   9.946  1.00  0.00     0.003 C 
ATOM     17  C   UNL     1     -17.570  55.430  10.462  1.00  0.00    -0.025 C 
ATOM     18  C   UNL     1     -17.446  56.253  11.774  1.00  0.00     0.010 C 
ATOM     19  C   UNL     1     -17.945  57.700  11.638  1.00  0.00     0.033 C 
ATOM     20  C   UNL     1     -19.426  57.761  11.198  1.00  0.00     0.120 C 
ATOM     21  C   UNL     1     -19.687  56.989   9.863  1.00  0.00    -0.006 C 
ATOM     22  C   UNL     1     -19.092  57.799   8.659  1.00  0.00     0.014 C 
ATOM     23  C   UNL     1     -21.226  56.957   9.578  1.00  0.00     0.014 C 
ATOM     24  C   UNL     1     -16.580  56.023   9.412  1.00  0.00     0.012 C 
ATOM     25  C   UNL     1     -17.302  53.201  13.107  1.00  0.00     0.012 C 
ATOM     26  C   UNL     1     -16.242  49.667  10.438  1.00  0.00     0.022 C 
ATOM     27  C   UNL     1     -14.795  49.070  10.503  1.00  0.00     0.015 C 
ATOM     28  C   UNL     1     -18.379  50.617  12.457  1.00  0.00     0.017 C 
ATOM     29  C   UNL     1     -17.940  48.097   9.339  1.00  0.00     0.012 C 
ATOM     30  C   UNL     1     -12.875  47.875   9.393  1.00  0.00     0.011 C 
ENDROOT
BRANCH  20  31
ATOM     31  O   UNL     1     -20.234  57.245  12.228  1.00  0.00    -0.393 OA
ATOM     32  H   UNL     1     -20.236  56.257  12.129  1.00  0.00     0.210 HD
ENDBRANCH  20  31
TORSDOF 1
ENDMDL
MODEL 8
REMARK VINA RESULT:    -5.265      1.664      3.724
REMARK INTER + INTRA:          -5.418
REMARK INTER:                  -5.418
REMARK INTRA:                   0.000
REMARK UNBOUND:                 0.000
REMARK SMILES CC1(C)CC[C@]2(C)CC[C@@]3(C)C(=CC[C@@H]4[C@]5(C)CC[C@H](O)C(C)(C)[C@@H]5CC[C@]43C)[C@@H]2C1
REMARK SMILES IDX 1 1 2 2 4 3 5 4 6 5 8 6 9 7 10 8 12 9 13 10 14 11 15 12
REMARK SMILES IDX 28 13 27 14 26 15 25 16 16 17 18 18 19 19 20 20 22 21 23 22
REMARK SMILES IDX 24 23 17 24 29 25 30 26 31 27 11 28 7 29 3 30 21 31
REMARK H PARENT 21 32
REMARK Flexibility Score: inf
ROOT
ATOM      1  C   UNL     1     -21.543  50.430   8.005  1.00  0.00     0.011 C 
ATOM      2  C   UNL     1     -21.366  49.051   8.683  1.00  0.00    -0.035 C 
ATOM      3  C   UNL     1     -22.028  49.027  10.073  1.00  0.00     0.007 C 
ATOM      4  C   UNL     1     -21.329  49.961  11.060  1.00  0.00     0.008 C 
ATOM      5  C   UNL     1     -19.833  49.610  11.315  1.00  0.00    -0.026 C 
ATOM      6  C   UNL     1     -19.205  50.853  12.035  1.00  0.00     0.008 C 
ATOM      7  C   UNL     1     -17.661  50.863  12.103  1.00  0.00     0.012 C 
ATOM      8  C   UNL     1     -16.925  50.593  10.733  1.00  0.00    -0.006 C 
ATOM      9  C   UNL     1     -18.015  50.346   9.652  1.00  0.00    -0.064 C 
ATOM     10  C   UNL     1     -18.236  51.222   8.638  1.00  0.00    -0.027 C 
ATOM     11  C   UNL     1     -17.574  52.573   8.508  1.00  0.00     0.032 C 
ATOM     12  C   UNL     1     -16.843  52.984   9.811  1.00  0.00     0.006 C 
ATOM     13  C   UNL     1     -15.948  51.794  10.285  1.00  0.00    -0.020 C 
ATOM     14  C   UNL     1     -14.985  52.265  11.430  1.00  0.00     0.008 C 
ATOM     15  C   UNL     1     -15.304  53.581  12.174  1.00  0.00     0.005 C 
ATOM     16  C   UNL     1     -15.917  54.795  11.380  1.00  0.00     0.003 C 
ATOM     17  C   UNL     1     -16.201  54.443   9.861  1.00  0.00    -0.025 C 
ATOM     18  C   UNL     1     -14.880  54.588   9.055  1.00  0.00     0.010 C 
ATOM     19  C   UNL     1     -14.207  55.959   9.227  1.00  0.00     0.033 C 
ATOM     20  C   UNL     1     -13.876  56.259  10.707  1.00  0.00     0.120 C 
ATOM     21  C   UNL     1     -15.134  56.174  11.632  1.00  0.00    -0.006 C 
ATOM     22  C   UNL     1     -16.058  57.417  11.383  1.00  0.00     0.014 C 
ATOM     23  C   UNL     1     -14.688  56.324  13.125  1.00  0.00     0.014 C 
ATOM     24  C   UNL     1     -17.261  55.410   9.249  1.00  0.00     0.012 C 
ATOM     25  C   UNL     1     -15.050  51.260   9.102  1.00  0.00     0.012 C 
ATOM     26  C   UNL     1     -19.043  49.258   9.989  1.00  0.00     0.022 C 
ATOM     27  C   UNL     1     -19.869  48.648   8.806  1.00  0.00     0.015 C 
ATOM     28  C   UNL     1     -16.091  49.275  10.901  1.00  0.00     0.017 C 
ATOM     29  C   UNL     1     -19.776  48.402  12.288  1.00  0.00     0.012 C 
ATOM     30  C   UNL     1     -22.084  48.012   7.790  1.00  0.00     0.011 C 
ENDROOT
BRANCH  20  31
ATOM     31  O   UNL     1     -12.883  55.364  11.147  1.00  0.00    -0.393 OA
ATOM     32  H   UNL     1     -12.143  55.403  10.487  1.00  0.00     0.210 HD
ENDBRANCH  20  31
TORSDOF 1
ENDMDL
MODEL 9
REMARK VINA RESULT:    -5.229      3.605      6.290
REMARK INTER + INTRA:          -5.382
REMARK INTER:                  -5.382
REMARK INTRA:                   0.000
REMARK UNBOUND:                 0.000
REMARK SMILES CC1(C)CC[C@]2(C)CC[C@@]3(C)C(=CC[C@@H]4[C@]5(C)CC[C@H](O)C(C)(C)[C@@H]5CC[C@]43C)[C@@H]2C1
REMARK SMILES IDX 1 1 2 2 4 3 5 4 6 5 8 6 9 7 10 8 12 9 13 10 14 11 15 12
REMARK SMILES IDX 28 13 27 14 26 15 25 16 16 17 18 18 19 19 20 20 22 21 23 22
REMARK SMILES IDX 24 23 17 24 29 25 30 26 31 27 11 28 7 29 3 30 21 31
REMARK H PARENT 21 32
REMARK Flexibility Score: inf
ROOT
ATOM      1  C   UNL     1     -15.124  49.660   7.133  1.00  0.00     0.011 C 
ATOM      2  C   UNL     1     -15.434  49.302   8.605  1.00  0.00    -0.035 C 
ATOM      3  C   UNL     1     -16.952  49.284   8.863  1.00  0.00     0.007 C 
ATOM      4  C   UNL     1     -17.574  50.673   8.735  1.00  0.00     0.008 C 
ATOM      5  C   UNL     1     -17.003  51.720   9.736  1.00  0.00    -0.026 C 
ATOM      6  C   UNL     1     -17.473  53.124   9.222  1.00  0.00     0.008 C 
ATOM      7  C   UNL     1     -16.766  54.334   9.874  1.00  0.00     0.012 C 
ATOM      8  C   UNL     1     -15.190  54.259   9.898  1.00  0.00    -0.006 C 
ATOM      9  C   UNL     1     -14.771  52.904   9.259  1.00  0.00    -0.064 C 
ATOM     10  C   UNL     1     -14.127  52.839   8.065  1.00  0.00    -0.027 C 
ATOM     11  C   UNL     1     -13.866  54.021   7.163  1.00  0.00     0.032 C 
ATOM     12  C   UNL     1     -14.675  55.269   7.599  1.00  0.00     0.006 C 
ATOM     13  C   UNL     1     -14.479  55.486   9.134  1.00  0.00    -0.020 C 
ATOM     14  C   UNL     1     -15.044  56.886   9.558  1.00  0.00     0.008 C 
ATOM     15  C   UNL     1     -16.016  57.615   8.602  1.00  0.00     0.005 C 
ATOM     16  C   UNL     1     -15.800  57.511   7.045  1.00  0.00     0.003 C 
ATOM     17  C   UNL     1     -14.592  56.558   6.664  1.00  0.00    -0.025 C 
ATOM     18  C   UNL     1     -13.264  57.355   6.790  1.00  0.00     0.010 C 
ATOM     19  C   UNL     1     -13.258  58.665   5.987  1.00  0.00     0.033 C 
ATOM     20  C   UNL     1     -14.403  59.611   6.416  1.00  0.00     0.120 C 
ATOM     21  C   UNL     1     -15.810  58.938   6.310  1.00  0.00    -0.006 C 
ATOM     22  C   UNL     1     -16.221  58.807   4.802  1.00  0.00     0.014 C 
ATOM     23  C   UNL     1     -16.888  59.896   6.917  1.00  0.00     0.014 C 
ATOM     24  C   UNL     1     -14.722  56.046   5.197  1.00  0.00     0.012 C 
ATOM     25  C   UNL     1     -12.947  55.461   9.514  1.00  0.00     0.012 C 
ATOM     26  C   UNL     1     -15.426  51.658   9.868  1.00  0.00     0.022 C 
ATOM     27  C   UNL     1     -14.742  50.274   9.603  1.00  0.00     0.015 C 
ATOM     28  C   UNL     1     -14.744  54.251  11.402  1.00  0.00     0.017 C 
ATOM     29  C   UNL     1     -17.649  51.467  11.125  1.00  0.00     0.012 C 
ATOM     30  C   UNL     1     -14.887  47.875   8.848  1.00  0.00     0.011 C 
ENDROOT
BRANCH  20  31
ATOM     31  O   UNL     1     -14.168  60.049   7.733  1.00  0.00    -0.393 OA
ATOM     32  H   UNL     1     -15.000  60.491   8.046  1.00  0.00     0.210 HD
ENDBRANCH  20  31
TORSDOF 1
ENDMDL
