MODEL 1
REMARK VINA RESULT:    -3.571      0.000      0.000
REMARK INTER + INTRA:          -9.040
REMARK INTER:                  -7.746
REMARK INTRA:                  -1.294
REMARK UNBOUND:                -1.294
REMARK SMILES CCCCCCCCCCCCCCCCCCCCCC(=O)[O-]
REMARK SMILES IDX 12 1 11 2 10 3 9 4 8 5 7 6 6 7 5 8 4 9 3 10 2 11 1 12 13 13
REMARK SMILES IDX 14 14 15 15 16 16 17 17 18 18 19 19 20 20 21 21 22 22 23 23
REMARK SMILES IDX 24 24
REMARK H PARENT
REMARK Flexibility Score: inf
ROOT
ATOM      1  C   UNL     1      -2.731  26.141  24.994  1.00  0.00     0.000 C 
ENDROOT
BRANCH   1   2
ATOM      2  C   UNL     1      -3.722  25.584  26.037  1.00  0.00     0.000 C 
BRANCH   2   3
ATOM      3  C   UNL     1      -4.531  24.370  25.543  1.00  0.00     0.000 C 
BRANCH   3   4
ATOM      4  C   UNL     1      -4.847  23.313  26.618  1.00  0.00    -0.000 C 
BRANCH   4   5
ATOM      5  C   UNL     1      -6.135  22.503  26.376  1.00  0.00    -0.000 C 
BRANCH   5   6
ATOM      6  C   UNL     1      -7.409  23.339  26.560  1.00  0.00    -0.000 C 
BRANCH   6   7
ATOM      7  C   UNL     1      -8.654  22.446  26.603  1.00  0.00    -0.000 C 
BRANCH   7   8
ATOM      8  C   UNL     1      -9.611  22.781  25.452  1.00  0.00    -0.000 C 
BRANCH   8   9
ATOM      9  C   UNL     1      -9.195  24.082  24.748  1.00  0.00    -0.000 C 
BRANCH   9  10
ATOM     10  C   UNL     1      -9.981  24.340  23.450  1.00  0.00    -0.000 C 
BRANCH  10  11
ATOM     11  C   UNL     1     -10.988  23.239  23.073  1.00  0.00    -0.003 C 
ATOM     12  C   UNL     1     -11.746  23.539  21.781  1.00  0.00     0.004 C 
ENDBRANCH  10  11
ENDBRANCH   9  10
ENDBRANCH   8   9
ENDBRANCH   7   8
ENDBRANCH   6   7
ENDBRANCH   5   6
ENDBRANCH   4   5
ENDBRANCH   3   4
ENDBRANCH   2   3
ENDBRANCH   1   2
BRANCH   1  13
ATOM     13  C   UNL     1      -2.406  27.628  25.222  1.00  0.00     0.000 C 
BRANCH  13  14
ATOM     14  C   UNL     1      -1.023  28.013  24.664  1.00  0.00     0.000 C 
BRANCH  14  15
ATOM     15  C   UNL     1      -0.860  27.693  23.167  1.00  0.00     0.000 C 
BRANCH  15  16
ATOM     16  C   UNL     1       0.462  26.957  22.872  1.00  0.00     0.000 C 
BRANCH  16  17
ATOM     17  C   UNL     1       0.723  25.796  23.844  1.00  0.00     0.000 C 
BRANCH  17  18
ATOM     18  C   UNL     1       0.215  24.446  23.307  1.00  0.00     0.000 C 
BRANCH  18  19
ATOM     19  C   UNL     1       1.294  23.661  22.541  1.00  0.00     0.000 C 
BRANCH  19  20
ATOM     20  C   UNL     1       1.326  23.909  21.022  1.00  0.00     0.006 C 
BRANCH  20  21
ATOM     21  C   UNL     1       1.737  22.668  20.219  1.00  0.00     0.053 C 
BRANCH  21  22
ATOM     22  C   UNL     1       0.573  21.743  20.056  1.00  0.00     0.041 C 
ATOM     23  O   UNL     1       0.673  20.533  20.389  1.00  0.00    -0.550 OA
ATOM     24  O   UNL     1      -0.606  22.205  19.485  1.00  0.00    -0.550 OA
ENDBRANCH  21  22
ENDBRANCH  20  21
ENDBRANCH  19  20
ENDBRANCH  18  19
ENDBRANCH  17  18
ENDBRANCH  16  17
ENDBRANCH  15  16
ENDBRANCH  14  15
ENDBRANCH  13  14
ENDBRANCH   1  13
TORSDOF 20
ENDMDL
MODEL 2
REMARK VINA RESULT:    -3.436      1.416      1.935
REMARK INTER + INTRA:          -8.748
REMARK INTER:                  -7.543
REMARK INTRA:                  -1.205
REMARK UNBOUND:                -1.294
REMARK SMILES CCCCCCCCCCCCCCCCCCCCCC(=O)[O-]
REMARK SMILES IDX 12 1 11 2 10 3 9 4 8 5 7 6 6 7 5 8 4 9 3 10 2 11 1 12 13 13
REMARK SMILES IDX 14 14 15 15 16 16 17 17 18 18 19 19 20 20 21 21 22 22 23 23
REMARK SMILES IDX 24 24
REMARK H PARENT
REMARK Flexibility Score: inf
ROOT
ATOM      1  C   UNL     1      -3.689  25.424  25.277  1.00  0.00     0.000 C 
ENDROOT
BRANCH   1   2
ATOM      2  C   UNL     1      -3.501  24.074  26.000  1.00  0.00     0.000 C 
BRANCH   2   3
ATOM      3  C   UNL     1      -4.750  23.597  26.767  1.00  0.00     0.000 C 
BRANCH   3   4
ATOM      4  C   UNL     1      -6.006  23.383  25.901  1.00  0.00    -0.000 C 
BRANCH   4   5
ATOM      5  C   UNL     1      -7.206  22.758  26.638  1.00  0.00    -0.000 C 
BRANCH   5   6
ATOM      6  C   UNL     1      -8.557  23.197  26.058  1.00  0.00    -0.000 C 
BRANCH   6   7
ATOM      7  C   UNL     1      -8.404  24.451  25.189  1.00  0.00    -0.000 C 
BRANCH   7   8
ATOM      8  C   UNL     1      -9.512  24.526  24.132  1.00  0.00    -0.000 C 
BRANCH   8   9
ATOM      9  C   UNL     1     -10.198  23.163  23.952  1.00  0.00    -0.000 C 
BRANCH   9  10
ATOM     10  C   UNL     1     -11.436  23.230  23.041  1.00  0.00    -0.000 C 
BRANCH  10  11
ATOM     11  C   UNL     1     -11.154  23.681  21.596  1.00  0.00    -0.003 C 
ATOM     12  C   UNL     1     -12.270  23.302  20.624  1.00  0.00     0.004 C 
ENDBRANCH  10  11
ENDBRANCH   9  10
ENDBRANCH   8   9
ENDBRANCH   7   8
ENDBRANCH   6   7
ENDBRANCH   5   6
ENDBRANCH   4   5
ENDBRANCH   3   4
ENDBRANCH   2   3
ENDBRANCH   1   2
BRANCH   1  13
ATOM     13  C   UNL     1      -3.246  26.621  26.136  1.00  0.00     0.000 C 
BRANCH  13  14
ATOM     14  C   UNL     1      -2.505  27.688  25.308  1.00  0.00     0.000 C 
BRANCH  14  15
ATOM     15  C   UNL     1      -1.016  27.822  25.679  1.00  0.00     0.000 C 
BRANCH  15  16
ATOM     16  C   UNL     1      -0.092  27.261  24.581  1.00  0.00     0.000 C 
BRANCH  16  17
ATOM     17  C   UNL     1      -0.310  25.760  24.333  1.00  0.00     0.000 C 
BRANCH  17  18
ATOM     18  C   UNL     1       0.781  25.141  23.441  1.00  0.00     0.000 C 
BRANCH  18  19
ATOM     19  C   UNL     1       0.403  23.746  22.912  1.00  0.00     0.000 C 
BRANCH  19  20
ATOM     20  C   UNL     1       1.308  23.210  21.788  1.00  0.00     0.006 C 
BRANCH  20  21
ATOM     21  C   UNL     1       1.993  24.324  20.985  1.00  0.00     0.053 C 
BRANCH  21  22
ATOM     22  C   UNL     1       1.264  24.566  19.702  1.00  0.00     0.041 C 
ATOM     23  O   UNL     1       1.351  23.738  18.757  1.00  0.00    -0.550 OA
ATOM     24  O   UNL     1       0.531  25.734  19.530  1.00  0.00    -0.550 OA
ENDBRANCH  21  22
ENDBRANCH  20  21
ENDBRANCH  19  20
ENDBRANCH  18  19
ENDBRANCH  17  18
ENDBRANCH  16  17
ENDBRANCH  15  16
ENDBRANCH  14  15
ENDBRANCH  13  14
ENDBRANCH   1  13
TORSDOF 20
ENDMDL
MODEL 3
REMARK VINA RESULT:    -3.347      1.471      2.673
REMARK INTER + INTRA:          -8.554
REMARK INTER:                  -7.426
REMARK INTRA:                  -1.129
REMARK UNBOUND:                -1.294
REMARK SMILES CCCCCCCCCCCCCCCCCCCCCC(=O)[O-]
REMARK SMILES IDX 12 1 11 2 10 3 9 4 8 5 7 6 6 7 5 8 4 9 3 10 2 11 1 12 13 13
REMARK SMILES IDX 14 14 15 15 16 16 17 17 18 18 19 19 20 20 21 21 22 22 23 23
REMARK SMILES IDX 24 24
REMARK H PARENT
REMARK Flexibility Score: inf
ROOT
ATOM      1  C   UNL     1      -1.543  26.660  24.376  1.00  0.00     0.000 C 
ENDROOT
BRANCH   1   2
ATOM      2  C   UNL     1      -2.292  27.267  25.581  1.00  0.00     0.000 C 
BRANCH   2   3
ATOM      3  C   UNL     1      -3.480  26.417  26.071  1.00  0.00     0.000 C 
BRANCH   3   4
ATOM      4  C   UNL     1      -3.253  24.893  26.032  1.00  0.00    -0.000 C 
BRANCH   4   5
ATOM      5  C   UNL     1      -4.365  24.087  25.334  1.00  0.00    -0.000 C 
BRANCH   5   6
ATOM      6  C   UNL     1      -5.222  23.277  26.317  1.00  0.00    -0.000 C 
BRANCH   6   7
ATOM      7  C   UNL     1      -6.715  23.548  26.100  1.00  0.00    -0.000 C 
BRANCH   7   8
ATOM      8  C   UNL     1      -7.571  22.446  26.736  1.00  0.00    -0.000 C 
BRANCH   8   9
ATOM      9  C   UNL     1      -9.065  22.680  26.466  1.00  0.00    -0.000 C 
BRANCH   9  10
ATOM     10  C   UNL     1      -9.330  23.363  25.112  1.00  0.00    -0.000 C 
BRANCH  10  11
ATOM     11  C   UNL     1     -10.204  22.552  24.138  1.00  0.00    -0.003 C 
ATOM     12  C   UNL     1     -10.993  23.432  23.170  1.00  0.00     0.004 C 
ENDBRANCH  10  11
ENDBRANCH   9  10
ENDBRANCH   8   9
ENDBRANCH   7   8
ENDBRANCH   6   7
ENDBRANCH   5   6
ENDBRANCH   4   5
ENDBRANCH   3   4
ENDBRANCH   2   3
ENDBRANCH   1   2
BRANCH   1  13
ATOM     13  C   UNL     1      -0.069  26.353  24.690  1.00  0.00     0.000 C 
BRANCH  13  14
ATOM     14  C   UNL     1       0.512  25.273  23.757  1.00  0.00     0.000 C 
BRANCH  14  15
ATOM     15  C   UNL     1       0.646  25.740  22.296  1.00  0.00     0.000 C 
BRANCH  15  16
ATOM     16  C   UNL     1       1.335  24.683  21.411  1.00  0.00     0.000 C 
BRANCH  16  17
ATOM     17  C   UNL     1       1.292  23.276  22.026  1.00  0.00     0.000 C 
BRANCH  17  18
ATOM     18  C   UNL     1       0.203  22.387  21.399  1.00  0.00     0.000 C 
BRANCH  18  19
ATOM     19  C   UNL     1       0.291  22.323  19.863  1.00  0.00     0.000 C 
BRANCH  19  20
ATOM     20  C   UNL     1       1.006  21.080  19.303  1.00  0.00     0.006 C 
BRANCH  20  21
ATOM     21  C   UNL     1       0.668  19.796  20.072  1.00  0.00     0.053 C 
BRANCH  21  22
ATOM     22  C   UNL     1       0.635  18.625  19.142  1.00  0.00     0.041 C 
ATOM     23  O   UNL     1       1.117  17.518  19.499  1.00  0.00    -0.550 OA
ATOM     24  O   UNL     1       0.121  18.772  17.860  1.00  0.00    -0.550 OA
ENDBRANCH  21  22
ENDBRANCH  20  21
ENDBRANCH  19  20
ENDBRANCH  18  19
ENDBRANCH  17  18
ENDBRANCH  16  17
ENDBRANCH  15  16
ENDBRANCH  14  15
ENDBRANCH  13  14
ENDBRANCH   1  13
TORSDOF 20
ENDMDL
MODEL 4
REMARK VINA RESULT:    -3.316      1.588      2.219
REMARK INTER + INTRA:          -8.487
REMARK INTER:                  -7.355
REMARK INTRA:                  -1.132
REMARK UNBOUND:                -1.294
REMARK SMILES CCCCCCCCCCCCCCCCCCCCCC(=O)[O-]
REMARK SMILES IDX 12 1 11 2 10 3 9 4 8 5 7 6 6 7 5 8 4 9 3 10 2 11 1 12 13 13
REMARK SMILES IDX 14 14 15 15 16 16 17 17 18 18 19 19 20 20 21 21 22 22 23 23
REMARK SMILES IDX 24 24
REMARK H PARENT
REMARK Flexibility Score: inf
ROOT
ATOM      1  C   UNL     1      -3.766  25.459  25.206  1.00  0.00     0.000 C 
ENDROOT
BRANCH   1   2
ATOM      2  C   UNL     1      -3.505  24.073  25.833  1.00  0.00     0.000 C 
BRANCH   2   3
ATOM      3  C   UNL     1      -4.712  23.497  26.598  1.00  0.00     0.000 C 
BRANCH   3   4
ATOM      4  C   UNL     1      -6.069  23.641  25.883  1.00  0.00    -0.000 C 
BRANCH   4   5
ATOM      5  C   UNL     1      -7.252  22.951  26.587  1.00  0.00    -0.000 C 
BRANCH   5   6
ATOM      6  C   UNL     1      -8.606  23.287  25.946  1.00  0.00    -0.000 C 
BRANCH   6   7
ATOM      7  C   UNL     1      -9.490  22.039  25.838  1.00  0.00    -0.000 C 
BRANCH   7   8
ATOM      8  C   UNL     1     -10.452  22.149  24.648  1.00  0.00    -0.000 C 
BRANCH   8   9
ATOM      9  C   UNL     1     -10.406  23.554  24.028  1.00  0.00    -0.000 C 
BRANCH   9  10
ATOM     10  C   UNL     1     -10.529  23.536  22.494  1.00  0.00    -0.000 C 
BRANCH  10  11
ATOM     11  C   UNL     1     -11.964  23.682  21.956  1.00  0.00    -0.003 C 
ATOM     12  C   UNL     1     -12.091  23.302  20.482  1.00  0.00     0.004 C 
ENDBRANCH  10  11
ENDBRANCH   9  10
ENDBRANCH   8   9
ENDBRANCH   7   8
ENDBRANCH   6   7
ENDBRANCH   5   6
ENDBRANCH   4   5
ENDBRANCH   3   4
ENDBRANCH   2   3
ENDBRANCH   1   2
BRANCH   1  13
ATOM     13  C   UNL     1      -3.190  26.608  26.053  1.00  0.00     0.000 C 
BRANCH  13  14
ATOM     14  C   UNL     1      -2.719  27.790  25.185  1.00  0.00     0.000 C 
BRANCH  14  15
ATOM     15  C   UNL     1      -1.188  27.869  25.043  1.00  0.00     0.000 C 
BRANCH  15  16
ATOM     16  C   UNL     1      -0.725  27.598  23.599  1.00  0.00     0.000 C 
BRANCH  16  17
ATOM     17  C   UNL     1       0.745  27.978  23.366  1.00  0.00     0.000 C 
BRANCH  17  18
ATOM     18  C   UNL     1       1.309  27.399  22.056  1.00  0.00     0.000 C 
BRANCH  18  19
ATOM     19  C   UNL     1       0.888  25.938  21.815  1.00  0.00     0.000 C 
BRANCH  19  20
ATOM     20  C   UNL     1       1.678  24.891  22.621  1.00  0.00     0.006 C 
BRANCH  20  21
ATOM     21  C   UNL     1       1.163  23.461  22.414  1.00  0.00     0.053 C 
BRANCH  21  22
ATOM     22  C   UNL     1      -0.006  23.193  23.309  1.00  0.00     0.041 C 
ATOM     23  O   UNL     1      -0.716  22.168  23.135  1.00  0.00    -0.550 OA
ATOM     24  O   UNL     1      -0.343  24.105  24.301  1.00  0.00    -0.550 OA
ENDBRANCH  21  22
ENDBRANCH  20  21
ENDBRANCH  19  20
ENDBRANCH  18  19
ENDBRANCH  17  18
ENDBRANCH  16  17
ENDBRANCH  15  16
ENDBRANCH  14  15
ENDBRANCH  13  14
ENDBRANCH   1  13
TORSDOF 20
ENDMDL
MODEL 5
REMARK VINA RESULT:    -3.176      3.525      9.512
REMARK INTER + INTRA:          -8.184
REMARK INTER:                  -6.821
REMARK INTRA:                  -1.363
REMARK UNBOUND:                -1.294
REMARK SMILES CCCCCCCCCCCCCCCCCCCCCC(=O)[O-]
REMARK SMILES IDX 12 1 11 2 10 3 9 4 8 5 7 6 6 7 5 8 4 9 3 10 2 11 1 12 13 13
REMARK SMILES IDX 14 14 15 15 16 16 17 17 18 18 19 19 20 20 21 21 22 22 23 23
REMARK SMILES IDX 24 24
REMARK H PARENT
REMARK Flexibility Score: inf
ROOT
ATOM      1  C   UNL     1      -1.512  27.108  24.507  1.00  0.00     0.000 C 
ENDROOT
BRANCH   1   2
ATOM      2  C   UNL     1      -1.370  28.097  23.330  1.00  0.00     0.000 C 
BRANCH   2   3
ATOM      3  C   UNL     1      -0.516  27.561  22.165  1.00  0.00     0.000 C 
BRANCH   3   4
ATOM      4  C   UNL     1      -0.912  28.081  20.770  1.00  0.00    -0.000 C 
BRANCH   4   5
ATOM      5  C   UNL     1       0.228  28.097  19.734  1.00  0.00    -0.000 C 
BRANCH   5   6
ATOM      6  C   UNL     1       0.129  26.947  18.721  1.00  0.00    -0.000 C 
BRANCH   6   7
ATOM      7  C   UNL     1       1.330  26.002  18.841  1.00  0.00    -0.000 C 
BRANCH   7   8
ATOM      8  C   UNL     1       0.871  24.543  18.954  1.00  0.00    -0.000 C 
BRANCH   8   9
ATOM      9  C   UNL     1       1.798  23.741  19.880  1.00  0.00    -0.000 C 
BRANCH   9  10
ATOM     10  C   UNL     1       1.059  23.126  21.082  1.00  0.00    -0.000 C 
BRANCH  10  11
ATOM     11  C   UNL     1       1.453  23.710  22.451  1.00  0.00    -0.003 C 
ATOM     12  C   UNL     1       0.246  24.071  23.316  1.00  0.00     0.004 C 
ENDBRANCH  10  11
ENDBRANCH   9  10
ENDBRANCH   8   9
ENDBRANCH   7   8
ENDBRANCH   6   7
ENDBRANCH   5   6
ENDBRANCH   4   5
ENDBRANCH   3   4
ENDBRANCH   2   3
ENDBRANCH   1   2
BRANCH   1  13
ATOM     13  C   UNL     1      -2.243  27.726  25.712  1.00  0.00     0.000 C 
BRANCH  13  14
ATOM     14  C   UNL     1      -3.211  26.729  26.377  1.00  0.00     0.000 C 
BRANCH  14  15
ATOM     15  C   UNL     1      -3.781  25.687  25.397  1.00  0.00     0.000 C 
BRANCH  15  16
ATOM     16  C   UNL     1      -3.468  24.244  25.838  1.00  0.00     0.000 C 
BRANCH  16  17
ATOM     17  C   UNL     1      -4.584  23.631  26.698  1.00  0.00     0.000 C 
BRANCH  17  18
ATOM     18  C   UNL     1      -5.952  23.643  25.992  1.00  0.00     0.000 C 
BRANCH  18  19
ATOM     19  C   UNL     1      -6.915  22.570  26.533  1.00  0.00     0.000 C 
BRANCH  19  20
ATOM     20  C   UNL     1      -8.405  22.951  26.486  1.00  0.00     0.006 C 
BRANCH  20  21
ATOM     21  C   UNL     1      -8.785  23.734  25.222  1.00  0.00     0.053 C 
BRANCH  21  22
ATOM     22  C   UNL     1      -9.876  23.029  24.481  1.00  0.00     0.041 C 
ATOM     23  O   UNL     1     -10.412  23.568  23.477  1.00  0.00    -0.550 OA
ATOM     24  O   UNL     1     -10.339  21.799  24.931  1.00  0.00    -0.550 OA
ENDBRANCH  21  22
ENDBRANCH  20  21
ENDBRANCH  19  20
ENDBRANCH  18  19
ENDBRANCH  17  18
ENDBRANCH  16  17
ENDBRANCH  15  16
ENDBRANCH  14  15
ENDBRANCH  13  14
ENDBRANCH   1  13
TORSDOF 20
ENDMDL
MODEL 6
REMARK VINA RESULT:    -3.167      3.606      7.029
REMARK INTER + INTRA:          -8.165
REMARK INTER:                  -6.201
REMARK INTRA:                  -1.964
REMARK UNBOUND:                -1.294
REMARK SMILES CCCCCCCCCCCCCCCCCCCCCC(=O)[O-]
REMARK SMILES IDX 12 1 11 2 10 3 9 4 8 5 7 6 6 7 5 8 4 9 3 10 2 11 1 12 13 13
REMARK SMILES IDX 14 14 15 15 16 16 17 17 18 18 19 19 20 20 21 21 22 22 23 23
REMARK SMILES IDX 24 24
REMARK H PARENT
REMARK Flexibility Score: inf
ROOT
ATOM      1  C   UNL     1       0.884  24.629  22.526  1.00  0.00     0.000 C 
ENDROOT
BRANCH   1   2
ATOM      2  C   UNL     1       1.853  25.823  22.390  1.00  0.00     0.000 C 
BRANCH   2   3
ATOM      3  C   UNL     1       1.441  26.839  21.308  1.00  0.00     0.000 C 
BRANCH   3   4
ATOM      4  C   UNL     1       0.710  28.090  21.830  1.00  0.00    -0.000 C 
BRANCH   4   5
ATOM      5  C   UNL     1       0.163  27.973  23.265  1.00  0.00    -0.000 C 
BRANCH   5   6
ATOM      6  C   UNL     1      -1.360  27.781  23.310  1.00  0.00    -0.000 C 
BRANCH   6   7
ATOM      7  C   UNL     1      -1.748  26.674  24.296  1.00  0.00    -0.000 C 
BRANCH   7   8
ATOM      8  C   UNL     1      -2.369  27.265  25.568  1.00  0.00    -0.000 C 
BRANCH   8   9
ATOM      9  C   UNL     1      -3.576  26.435  26.031  1.00  0.00    -0.000 C 
BRANCH   9  10
ATOM     10  C   UNL     1      -3.427  24.935  25.721  1.00  0.00    -0.000 C 
BRANCH  10  11
ATOM     11  C   UNL     1      -4.737  24.217  25.348  1.00  0.00    -0.003 C 
ATOM     12  C   UNL     1      -5.233  23.273  26.441  1.00  0.00     0.004 C 
ENDBRANCH  10  11
ENDBRANCH   9  10
ENDBRANCH   8   9
ENDBRANCH   7   8
ENDBRANCH   6   7
ENDBRANCH   5   6
ENDBRANCH   4   5
ENDBRANCH   3   4
ENDBRANCH   2   3
ENDBRANCH   1   2
BRANCH   1  13
ATOM     13  C   UNL     1       1.529  23.295  22.109  1.00  0.00     0.000 C 
BRANCH  13  14
ATOM     14  C   UNL     1       1.333  23.000  20.610  1.00  0.00     0.000 C 
BRANCH  14  15
ATOM     15  C   UNL     1       0.220  21.973  20.331  1.00  0.00     0.000 C 
BRANCH  15  16
ATOM     16  C   UNL     1      -0.231  21.993  18.858  1.00  0.00     0.000 C 
BRANCH  16  17
ATOM     17  C   UNL     1       0.565  22.994  18.008  1.00  0.00     0.000 C 
BRANCH  17  18
ATOM     18  C   UNL     1      -0.266  24.226  17.606  1.00  0.00     0.000 C 
BRANCH  18  19
ATOM     19  C   UNL     1       0.447  25.556  17.908  1.00  0.00     0.000 C 
BRANCH  19  20
ATOM     20  C   UNL     1      -0.211  26.802  17.290  1.00  0.00     0.006 C 
BRANCH  20  21
ATOM     21  C   UNL     1      -0.500  27.901  18.321  1.00  0.00     0.053 C 
BRANCH  21  22
ATOM     22  C   UNL     1      -1.970  27.998  18.582  1.00  0.00     0.041 C 
ATOM     23  O   UNL     1      -2.778  28.108  17.623  1.00  0.00    -0.550 OA
ATOM     24  O   UNL     1      -2.443  28.020  19.888  1.00  0.00    -0.550 OA
ENDBRANCH  21  22
ENDBRANCH  20  21
ENDBRANCH  19  20
ENDBRANCH  18  19
ENDBRANCH  17  18
ENDBRANCH  16  17
ENDBRANCH  15  16
ENDBRANCH  14  15
ENDBRANCH  13  14
ENDBRANCH   1  13
TORSDOF 20
ENDMDL
MODEL 7
REMARK VINA RESULT:    -3.155      3.678      9.687
REMARK INTER + INTRA:          -8.137
REMARK INTER:                  -7.406
REMARK INTRA:                  -0.731
REMARK UNBOUND:                -1.294
REMARK SMILES CCCCCCCCCCCCCCCCCCCCCC(=O)[O-]
REMARK SMILES IDX 12 1 11 2 10 3 9 4 8 5 7 6 6 7 5 8 4 9 3 10 2 11 1 12 13 13
REMARK SMILES IDX 14 14 15 15 16 16 17 17 18 18 19 19 20 20 21 21 22 22 23 23
REMARK SMILES IDX 24 24
REMARK H PARENT
REMARK Flexibility Score: inf
ROOT
ATOM      1  C   UNL     1      -0.753  25.652  24.514  1.00  0.00     0.000 C 
ENDROOT
BRANCH   1   2
ATOM      2  C   UNL     1       0.176  25.810  23.291  1.00  0.00     0.000 C 
BRANCH   2   3
ATOM      3  C   UNL     1       0.860  24.500  22.855  1.00  0.00     0.000 C 
BRANCH   3   4
ATOM      4  C   UNL     1       1.522  24.540  21.465  1.00  0.00    -0.000 C 
BRANCH   4   5
ATOM      5  C   UNL     1       1.799  23.161  20.835  1.00  0.00    -0.000 C 
BRANCH   5   6
ATOM      6  C   UNL     1       0.515  22.418  20.439  1.00  0.00    -0.000 C 
BRANCH   6   7
ATOM      7  C   UNL     1       0.826  20.991  19.974  1.00  0.00    -0.000 C 
BRANCH   7   8
ATOM      8  C   UNL     1       0.369  20.774  18.526  1.00  0.00    -0.000 C 
BRANCH   8   9
ATOM      9  C   UNL     1       0.695  19.350  18.050  1.00  0.00    -0.000 C 
BRANCH   9  10
ATOM     10  C   UNL     1       1.400  18.505  19.126  1.00  0.00    -0.000 C 
BRANCH  10  11
ATOM     11  C   UNL     1       0.546  17.370  19.721  1.00  0.00    -0.003 C 
ATOM     12  C   UNL     1       1.345  16.432  20.625  1.00  0.00     0.004 C 
ENDBRANCH  10  11
ENDBRANCH   9  10
ENDBRANCH   8   9
ENDBRANCH   7   8
ENDBRANCH   6   7
ENDBRANCH   5   6
ENDBRANCH   4   5
ENDBRANCH   3   4
ENDBRANCH   2   3
ENDBRANCH   1   2
BRANCH   1  13
ATOM     13  C   UNL     1      -1.680  26.865  24.712  1.00  0.00     0.000 C 
BRANCH  13  14
ATOM     14  C   UNL     1      -2.734  26.617  25.808  1.00  0.00     0.000 C 
BRANCH  14  15
ATOM     15  C   UNL     1      -3.851  25.651  25.371  1.00  0.00     0.000 C 
BRANCH  15  16
ATOM     16  C   UNL     1      -3.568  24.202  25.810  1.00  0.00     0.000 C 
BRANCH  16  17
ATOM     17  C   UNL     1      -4.675  23.626  26.705  1.00  0.00     0.000 C 
BRANCH  17  18
ATOM     18  C   UNL     1      -6.052  23.620  26.017  1.00  0.00     0.000 C 
BRANCH  18  19
ATOM     19  C   UNL     1      -7.010  22.568  26.603  1.00  0.00     0.000 C 
BRANCH  19  20
ATOM     20  C   UNL     1      -8.504  22.932  26.526  1.00  0.00     0.006 C 
BRANCH  20  21
ATOM     21  C   UNL     1      -8.869  23.699  25.248  1.00  0.00     0.053 C 
BRANCH  21  22
ATOM     22  C   UNL     1      -9.929  22.969  24.486  1.00  0.00     0.041 C 
ATOM     23  O   UNL     1     -10.285  21.815  24.844  1.00  0.00    -0.550 OA
ATOM     24  O   UNL     1     -10.485  23.539  23.349  1.00  0.00    -0.550 OA
ENDBRANCH  21  22
ENDBRANCH  20  21
ENDBRANCH  19  20
ENDBRANCH  18  19
ENDBRANCH  17  18
ENDBRANCH  16  17
ENDBRANCH  15  16
ENDBRANCH  14  15
ENDBRANCH  13  14
ENDBRANCH   1  13
TORSDOF 20
ENDMDL
MODEL 8
REMARK VINA RESULT:    -3.115      4.251      8.065
REMARK INTER + INTRA:          -8.050
REMARK INTER:                  -6.654
REMARK INTRA:                  -1.396
REMARK UNBOUND:                -1.294
REMARK SMILES CCCCCCCCCCCCCCCCCCCCCC(=O)[O-]
REMARK SMILES IDX 12 1 11 2 10 3 9 4 8 5 7 6 6 7 5 8 4 9 3 10 2 11 1 12 13 13
REMARK SMILES IDX 14 14 15 15 16 16 17 17 18 18 19 19 20 20 21 21 22 22 23 23
REMARK SMILES IDX 24 24
REMARK H PARENT
REMARK Flexibility Score: inf
ROOT
ATOM      1  C   UNL     1       0.265  22.497  21.828  1.00  0.00     0.000 C 
ENDROOT
BRANCH   1   2
ATOM      2  C   UNL     1       0.564  23.675  22.779  1.00  0.00     0.000 C 
BRANCH   2   3
ATOM      3  C   UNL     1       1.815  24.486  22.392  1.00  0.00     0.000 C 
BRANCH   3   4
ATOM      4  C   UNL     1       1.845  25.934  22.919  1.00  0.00    -0.000 C 
BRANCH   4   5
ATOM      5  C   UNL     1       0.532  26.719  22.741  1.00  0.00    -0.000 C 
BRANCH   5   6
ATOM      6  C   UNL     1       0.408  27.902  23.711  1.00  0.00    -0.000 C 
BRANCH   6   7
ATOM      7  C   UNL     1       0.442  27.426  25.168  1.00  0.00    -0.000 C 
BRANCH   7   8
ATOM      8  C   UNL     1      -0.830  27.847  25.913  1.00  0.00    -0.000 C 
BRANCH   8   9
ATOM      9  C   UNL     1      -2.080  27.607  25.053  1.00  0.00    -0.000 C 
BRANCH   9  10
ATOM     10  C   UNL     1      -2.461  26.119  24.950  1.00  0.00    -0.000 C 
BRANCH  10  11
ATOM     11  C   UNL     1      -3.800  25.746  25.611  1.00  0.00    -0.003 C 
ATOM     12  C   UNL     1      -3.900  24.263  25.963  1.00  0.00     0.004 C 
ENDBRANCH  10  11
ENDBRANCH   9  10
ENDBRANCH   8   9
ENDBRANCH   7   8
ENDBRANCH   6   7
ENDBRANCH   5   6
ENDBRANCH   4   5
ENDBRANCH   3   4
ENDBRANCH   2   3
ENDBRANCH   1   2
BRANCH   1  13
ATOM     13  C   UNL     1       1.033  22.600  20.499  1.00  0.00     0.000 C 
BRANCH  13  14
ATOM     14  C   UNL     1       0.114  22.402  19.279  1.00  0.00     0.000 C 
BRANCH  14  15
ATOM     15  C   UNL     1       0.283  21.027  18.606  1.00  0.00     0.000 C 
BRANCH  15  16
ATOM     16  C   UNL     1       1.738  20.525  18.670  1.00  0.00     0.000 C 
BRANCH  16  17
ATOM     17  C   UNL     1       1.922  19.366  19.661  1.00  0.00     0.000 C 
BRANCH  17  18
ATOM     18  C   UNL     1       0.654  18.506  19.812  1.00  0.00     0.000 C 
BRANCH  18  19
ATOM     19  C   UNL     1       0.510  17.449  18.702  1.00  0.00     0.000 C 
BRANCH  19  20
ATOM     20  C   UNL     1       1.643  16.409  18.642  1.00  0.00     0.006 C 
BRANCH  20  21
ATOM     21  C   UNL     1       1.413  15.217  19.581  1.00  0.00     0.053 C 
BRANCH  21  22
ATOM     22  C   UNL     1       1.184  13.968  18.790  1.00  0.00     0.041 C 
ATOM     23  O   UNL     1       1.078  14.022  17.536  1.00  0.00    -0.550 OA
ATOM     24  O   UNL     1       1.031  12.752  19.442  1.00  0.00    -0.550 OA
ENDBRANCH  21  22
ENDBRANCH  20  21
ENDBRANCH  19  20
ENDBRANCH  18  19
ENDBRANCH  17  18
ENDBRANCH  16  17
ENDBRANCH  15  16
ENDBRANCH  14  15
ENDBRANCH  13  14
ENDBRANCH   1  13
TORSDOF 20
ENDMDL
MODEL 9
REMARK VINA RESULT:    -2.920      3.783      7.238
REMARK INTER + INTRA:          -7.627
REMARK INTER:                  -6.120
REMARK INTRA:                  -1.507
REMARK UNBOUND:                -1.294
REMARK SMILES CCCCCCCCCCCCCCCCCCCCCC(=O)[O-]
REMARK SMILES IDX 12 1 11 2 10 3 9 4 8 5 7 6 6 7 5 8 4 9 3 10 2 11 1 12 13 13
REMARK SMILES IDX 14 14 15 15 16 16 17 17 18 18 19 19 20 20 21 21 22 22 23 23
REMARK SMILES IDX 24 24
REMARK H PARENT
REMARK Flexibility Score: inf
ROOT
ATOM      1  C   UNL     1       1.036  24.404  22.653  1.00  0.00     0.000 C 
ENDROOT
BRANCH   1   2
ATOM      2  C   UNL     1       1.538  25.796  22.215  1.00  0.00     0.000 C 
BRANCH   2   3
ATOM      3  C   UNL     1       0.677  26.454  21.120  1.00  0.00     0.000 C 
BRANCH   3   4
ATOM      4  C   UNL     1       0.068  27.818  21.498  1.00  0.00    -0.000 C 
BRANCH   4   5
ATOM      5  C   UNL     1      -0.864  27.798  22.724  1.00  0.00    -0.000 C 
BRANCH   5   6
ATOM      6  C   UNL     1      -0.126  28.087  24.039  1.00  0.00    -0.000 C 
BRANCH   6   7
ATOM      7  C   UNL     1      -0.600  27.150  25.155  1.00  0.00    -0.000 C 
BRANCH   7   8
ATOM      8  C   UNL     1      -1.762  27.773  25.938  1.00  0.00    -0.000 C 
BRANCH   8   9
ATOM      9  C   UNL     1      -3.090  27.074  25.608  1.00  0.00    -0.000 C 
BRANCH   9  10
ATOM     10  C   UNL     1      -2.926  25.567  25.345  1.00  0.00    -0.000 C 
BRANCH  10  11
ATOM     11  C   UNL     1      -4.220  24.743  25.468  1.00  0.00    -0.003 C 
ATOM     12  C   UNL     1      -4.230  23.825  26.689  1.00  0.00     0.004 C 
ENDBRANCH  10  11
ENDBRANCH   9  10
ENDBRANCH   8   9
ENDBRANCH   7   8
ENDBRANCH   6   7
ENDBRANCH   5   6
ENDBRANCH   4   5
ENDBRANCH   3   4
ENDBRANCH   2   3
ENDBRANCH   1   2
BRANCH   1  13
ATOM     13  C   UNL     1       1.926  23.263  22.128  1.00  0.00     0.000 C 
BRANCH  13  14
ATOM     14  C   UNL     1       1.562  22.859  20.687  1.00  0.00     0.000 C 
BRANCH  14  15
ATOM     15  C   UNL     1       0.242  22.073  20.589  1.00  0.00     0.000 C 
BRANCH  15  16
ATOM     16  C   UNL     1      -0.379  22.155  19.182  1.00  0.00     0.000 C 
BRANCH  16  17
ATOM     17  C   UNL     1       0.641  21.875  18.067  1.00  0.00     0.000 C 
BRANCH  17  18
ATOM     18  C   UNL     1       0.559  20.433  17.535  1.00  0.00     0.000 C 
BRANCH  18  19
ATOM     19  C   UNL     1       1.432  19.449  18.334  1.00  0.00     0.000 C 
BRANCH  19  20
ATOM     20  C   UNL     1       0.688  18.219  18.885  1.00  0.00     0.006 C 
BRANCH  20  21
ATOM     21  C   UNL     1       0.578  17.078  17.864  1.00  0.00     0.053 C 
BRANCH  21  22
ATOM     22  C   UNL     1       0.849  15.762  18.522  1.00  0.00     0.041 C 
ATOM     23  O   UNL     1       0.375  14.701  18.037  1.00  0.00    -0.550 OA
ATOM     24  O   UNL     1       1.580  15.714  19.702  1.00  0.00    -0.550 OA
ENDBRANCH  21  22
ENDBRANCH  20  21
ENDBRANCH  19  20
ENDBRANCH  18  19
ENDBRANCH  17  18
ENDBRANCH  16  17
ENDBRANCH  15  16
ENDBRANCH  14  15
ENDBRANCH  13  14
ENDBRANCH   1  13
TORSDOF 20
ENDMDL
