MODEL 1
REMARK VINA RESULT:    -6.224      0.000      0.000
REMARK INTER + INTRA:         -21.865
REMARK INTER:                 -16.412
REMARK INTRA:                  -5.453
REMARK UNBOUND:                -5.453
REMARK SMILES CCCCCCCCCCCCCCCCCCCCCCCCCCCCCC(=O)[O-]
REMARK SMILES IDX 16 1 17 2 18 3 19 4 20 5 21 6 22 7 23 8 24 9 25 10 26 11
REMARK SMILES IDX 27 12 28 13 29 14 30 15 31 16 32 17 15 18 14 19 13 20 12 21
REMARK SMILES IDX 11 22 10 23 9 24 8 25 7 26 6 27 5 28 4 29 3 30 2 31 1 32
REMARK H PARENT
REMARK Flexibility Score: inf
ROOT
ATOM      1  C   UNL     1      18.479  -3.220  16.608  1.00  0.00     0.000 C 
ENDROOT
BRANCH   1   2
ATOM      2  C   UNL     1      18.514  -4.598  15.931  1.00  0.00     0.000 C 
BRANCH   2   3
ATOM      3  C   UNL     1      17.139  -5.023  15.386  1.00  0.00     0.000 C 
BRANCH   3   4
ATOM      4  C   UNL     1      16.526  -6.201  16.166  1.00  0.00     0.000 C 
BRANCH   4   5
ATOM      5  C   UNL     1      15.683  -7.166  15.314  1.00  0.00     0.000 C 
BRANCH   5   6
ATOM      6  C   UNL     1      14.595  -6.446  14.498  1.00  0.00     0.000 C 
BRANCH   6   7
ATOM      7  C   UNL     1      14.762  -6.648  12.984  1.00  0.00     0.000 C 
BRANCH   7   8
ATOM      8  C   UNL     1      16.237  -6.744  12.562  1.00  0.00     0.000 C 
BRANCH   8   9
ATOM      9  C   UNL     1      16.629  -5.561  11.665  1.00  0.00     0.000 C 
BRANCH   9  10
ATOM     10  C   UNL     1      16.258  -5.780  10.188  1.00  0.00     0.000 C 
BRANCH  10  11
ATOM     11  C   UNL     1      14.984  -5.050   9.717  1.00  0.00     0.000 C 
BRANCH  11  12
ATOM     12  C   UNL     1      13.877  -5.960   9.154  1.00  0.00     0.000 C 
BRANCH  12  13
ATOM     13  C   UNL     1      12.481  -5.323   9.235  1.00  0.00     0.006 C 
BRANCH  13  14
ATOM     14  C   UNL     1      12.339  -4.394  10.449  1.00  0.00     0.053 C 
BRANCH  14  15
ATOM     15  C   UNL     1      11.151  -3.491  10.322  1.00  0.00     0.041 C 
ATOM     16  O   UNL     1       9.984  -3.964  10.390  1.00  0.00    -0.550 OA
ATOM     17  O   UNL     1      11.330  -2.131  10.098  1.00  0.00    -0.550 OA
ENDBRANCH  14  15
ENDBRANCH  13  14
ENDBRANCH  12  13
ENDBRANCH  11  12
ENDBRANCH  10  11
ENDBRANCH   9  10
ENDBRANCH   8   9
ENDBRANCH   7   8
ENDBRANCH   6   7
ENDBRANCH   5   6
ENDBRANCH   4   5
ENDBRANCH   3   4
ENDBRANCH   2   3
ENDBRANCH   1   2
BRANCH   1  18
ATOM     18  C   UNL     1      18.496  -3.316  18.144  1.00  0.00     0.000 C 
BRANCH  18  19
ATOM     19  C   UNL     1      17.172  -2.859  18.783  1.00  0.00     0.000 C 
BRANCH  19  20
ATOM     20  C   UNL     1      16.152  -2.255  17.798  1.00  0.00     0.000 C 
BRANCH  20  21
ATOM     21  C   UNL     1      14.839  -3.050  17.648  1.00  0.00     0.000 C 
BRANCH  21  22
ATOM     22  C   UNL     1      14.258  -3.086  16.219  1.00  0.00     0.000 C 
BRANCH  22  23
ATOM     23  C   UNL     1      12.897  -3.794  16.086  1.00  0.00     0.000 C 
BRANCH  23  24
ATOM     24  C   UNL     1      11.924  -3.149  15.082  1.00  0.00    -0.000 C 
BRANCH  24  25
ATOM     25  C   UNL     1      12.507  -2.996  13.661  1.00  0.00    -0.000 C 
BRANCH  25  26
ATOM     26  C   UNL     1      12.619  -1.526  13.225  1.00  0.00    -0.000 C 
BRANCH  26  27
ATOM     27  C   UNL     1      14.009  -1.173  12.668  1.00  0.00    -0.000 C 
BRANCH  27  28
ATOM     28  C   UNL     1      14.870  -2.410  12.331  1.00  0.00    -0.000 C 
BRANCH  28  29
ATOM     29  C   UNL     1      16.012  -2.615  13.343  1.00  0.00    -0.000 C 
BRANCH  29  30
ATOM     30  C   UNL     1      16.710  -1.298  13.720  1.00  0.00    -0.000 C 
BRANCH  30  31
ATOM     31  C   UNL     1      18.101  -1.165  13.087  1.00  0.00    -0.003 C 
ATOM     32  C   UNL     1      18.811  -2.515  13.025  1.00  0.00     0.004 C 
ENDBRANCH  30  31
ENDBRANCH  29  30
ENDBRANCH  28  29
ENDBRANCH  27  28
ENDBRANCH  26  27
ENDBRANCH  25  26
ENDBRANCH  24  25
ENDBRANCH  23  24
ENDBRANCH  22  23
ENDBRANCH  21  22
ENDBRANCH  20  21
ENDBRANCH  19  20
ENDBRANCH  18  19
ENDBRANCH   1  18
TORSDOF 28
ENDMDL
MODEL 2
REMARK VINA RESULT:    -6.187      1.289      5.426
REMARK INTER + INTRA:         -21.768
REMARK INTER:                 -16.589
REMARK INTRA:                  -5.179
REMARK UNBOUND:                -5.453
REMARK SMILES CCCCCCCCCCCCCCCCCCCCCCCCCCCCCC(=O)[O-]
REMARK SMILES IDX 16 1 17 2 18 3 19 4 20 5 21 6 22 7 23 8 24 9 25 10 26 11
REMARK SMILES IDX 27 12 28 13 29 14 30 15 31 16 32 17 15 18 14 19 13 20 12 21
REMARK SMILES IDX 11 22 10 23 9 24 8 25 7 26 6 27 5 28 4 29 3 30 2 31 1 32
REMARK H PARENT
REMARK Flexibility Score: inf
ROOT
ATOM      1  C   UNL     1      14.135  -3.371  15.635  1.00  0.00     0.000 C 
ENDROOT
BRANCH   1   2
ATOM      2  C   UNL     1      14.787  -3.551  17.014  1.00  0.00     0.000 C 
BRANCH   2   3
ATOM      3  C   UNL     1      15.937  -2.559  17.257  1.00  0.00     0.000 C 
BRANCH   3   4
ATOM      4  C   UNL     1      16.766  -2.901  18.509  1.00  0.00     0.000 C 
BRANCH   4   5
ATOM      5  C   UNL     1      18.226  -3.296  18.224  1.00  0.00     0.000 C 
BRANCH   5   6
ATOM      6  C   UNL     1      18.609  -3.135  16.743  1.00  0.00     0.000 C 
BRANCH   6   7
ATOM      7  C   UNL     1      18.737  -4.484  16.017  1.00  0.00     0.000 C 
BRANCH   7   8
ATOM      8  C   UNL     1      19.760  -4.442  14.871  1.00  0.00     0.000 C 
BRANCH   8   9
ATOM      9  C   UNL     1      19.059  -4.261  13.517  1.00  0.00     0.000 C 
BRANCH   9  10
ATOM     10  C   UNL     1      19.237  -2.848  12.934  1.00  0.00     0.000 C 
BRANCH  10  11
ATOM     11  C   UNL     1      18.060  -1.882  13.184  1.00  0.00     0.000 C 
BRANCH  11  12
ATOM     12  C   UNL     1      16.761  -2.547  13.674  1.00  0.00     0.000 C 
BRANCH  12  13
ATOM     13  C   UNL     1      15.546  -2.201  12.798  1.00  0.00     0.006 C 
BRANCH  13  14
ATOM     14  C   UNL     1      15.507  -0.713  12.425  1.00  0.00     0.053 C 
BRANCH  14  15
ATOM     15  C   UNL     1      14.237  -0.349  11.719  1.00  0.00     0.041 C 
ATOM     16  O   UNL     1      13.239  -1.116  11.774  1.00  0.00    -0.550 OA
ATOM     17  O   UNL     1      14.166   0.822  10.974  1.00  0.00    -0.550 OA
ENDBRANCH  14  15
ENDBRANCH  13  14
ENDBRANCH  12  13
ENDBRANCH  11  12
ENDBRANCH  10  11
ENDBRANCH   9  10
ENDBRANCH   8   9
ENDBRANCH   7   8
ENDBRANCH   6   7
ENDBRANCH   5   6
ENDBRANCH   4   5
ENDBRANCH   3   4
ENDBRANCH   2   3
ENDBRANCH   1   2
BRANCH   1  18
ATOM     18  C   UNL     1      12.599  -3.449  15.693  1.00  0.00     0.000 C 
BRANCH  18  19
ATOM     19  C   UNL     1      11.934  -3.057  14.362  1.00  0.00     0.000 C 
BRANCH  19  20
ATOM     20  C   UNL     1      12.030  -4.122  13.251  1.00  0.00     0.000 C 
BRANCH  20  21
ATOM     21  C   UNL     1      11.211  -3.816  11.981  1.00  0.00     0.000 C 
BRANCH  21  22
ATOM     22  C   UNL     1      11.904  -4.186  10.653  1.00  0.00     0.000 C 
BRANCH  22  23
ATOM     23  C   UNL     1      13.053  -5.204  10.780  1.00  0.00     0.000 C 
BRANCH  23  24
ATOM     24  C   UNL     1      13.607  -5.728   9.441  1.00  0.00    -0.000 C 
BRANCH  24  25
ATOM     25  C   UNL     1      15.140  -5.600   9.309  1.00  0.00    -0.000 C 
BRANCH  25  26
ATOM     26  C   UNL     1      15.801  -5.077  10.595  1.00  0.00    -0.000 C 
BRANCH  26  27
ATOM     27  C   UNL     1      16.987  -5.945  11.050  1.00  0.00    -0.000 C 
BRANCH  27  28
ATOM     28  C   UNL     1      16.826  -6.507  12.479  1.00  0.00    -0.000 C 
BRANCH  28  29
ATOM     29  C   UNL     1      15.567  -5.963  13.178  1.00  0.00    -0.000 C 
BRANCH  29  30
ATOM     30  C   UNL     1      14.686  -7.080  13.761  1.00  0.00    -0.000 C 
BRANCH  30  31
ATOM     31  C   UNL     1      14.544  -6.984  15.286  1.00  0.00    -0.003 C 
ATOM     32  C   UNL     1      15.906  -6.834  15.960  1.00  0.00     0.004 C 
ENDBRANCH  30  31
ENDBRANCH  29  30
ENDBRANCH  28  29
ENDBRANCH  27  28
ENDBRANCH  26  27
ENDBRANCH  25  26
ENDBRANCH  24  25
ENDBRANCH  23  24
ENDBRANCH  22  23
ENDBRANCH  21  22
ENDBRANCH  20  21
ENDBRANCH  19  20
ENDBRANCH  18  19
ENDBRANCH   1  18
TORSDOF 28
ENDMDL
MODEL 3
REMARK VINA RESULT:    -6.088      1.545      4.186
REMARK INTER + INTRA:         -21.505
REMARK INTER:                 -16.204
REMARK INTRA:                  -5.301
REMARK UNBOUND:                -5.453
REMARK SMILES CCCCCCCCCCCCCCCCCCCCCCCCCCCCCC(=O)[O-]
REMARK SMILES IDX 16 1 17 2 18 3 19 4 20 5 21 6 22 7 23 8 24 9 25 10 26 11
REMARK SMILES IDX 27 12 28 13 29 14 30 15 31 16 32 17 15 18 14 19 13 20 12 21
REMARK SMILES IDX 11 22 10 23 9 24 8 25 7 26 6 27 5 28 4 29 3 30 2 31 1 32
REMARK H PARENT
REMARK Flexibility Score: inf
ROOT
ATOM      1  C   UNL     1      15.485  -6.438  15.938  1.00  0.00     0.000 C 
ENDROOT
BRANCH   1   2
ATOM      2  C   UNL     1      14.854  -7.565  15.108  1.00  0.00     0.000 C 
BRANCH   2   3
ATOM      3  C   UNL     1      14.499  -7.119  13.679  1.00  0.00     0.000 C 
BRANCH   3   4
ATOM      4  C   UNL     1      15.460  -6.047  13.133  1.00  0.00     0.000 C 
BRANCH   4   5
ATOM      5  C   UNL     1      16.737  -6.603  12.477  1.00  0.00     0.000 C 
BRANCH   5   6
ATOM      6  C   UNL     1      17.090  -5.890  11.161  1.00  0.00     0.000 C 
BRANCH   6   7
ATOM      7  C   UNL     1      15.887  -5.156  10.546  1.00  0.00     0.000 C 
BRANCH   7   8
ATOM      8  C   UNL     1      15.578  -5.627   9.116  1.00  0.00     0.000 C 
BRANCH   8   9
ATOM      9  C   UNL     1      14.123  -6.102   8.997  1.00  0.00     0.000 C 
BRANCH   9  10
ATOM     10  C   UNL     1      13.235  -5.609  10.152  1.00  0.00     0.000 C 
BRANCH  10  11
ATOM     11  C   UNL     1      12.033  -4.739   9.730  1.00  0.00     0.000 C 
BRANCH  11  12
ATOM     12  C   UNL     1      11.510  -3.775  10.811  1.00  0.00     0.000 C 
BRANCH  12  13
ATOM     13  C   UNL     1      12.542  -3.502  11.917  1.00  0.00     0.006 C 
BRANCH  13  14
ATOM     14  C   UNL     1      12.079  -4.027  13.282  1.00  0.00     0.053 C 
BRANCH  14  15
ATOM     15  C   UNL     1      11.936  -2.922  14.283  1.00  0.00     0.041 C 
ATOM     16  O   UNL     1      11.507  -3.168  15.443  1.00  0.00    -0.550 OA
ATOM     17  O   UNL     1      12.250  -1.616  13.928  1.00  0.00    -0.550 OA
ENDBRANCH  14  15
ENDBRANCH  13  14
ENDBRANCH  12  13
ENDBRANCH  11  12
ENDBRANCH  10  11
ENDBRANCH   9  10
ENDBRANCH   8   9
ENDBRANCH   7   8
ENDBRANCH   6   7
ENDBRANCH   5   6
ENDBRANCH   4   5
ENDBRANCH   3   4
ENDBRANCH   2   3
ENDBRANCH   1   2
BRANCH   1  18
ATOM     18  C   UNL     1      14.449  -5.407  16.420  1.00  0.00     0.000 C 
BRANCH  18  19
ATOM     19  C   UNL     1      14.887  -3.956  16.154  1.00  0.00     0.000 C 
BRANCH  19  20
ATOM     20  C   UNL     1      14.758  -3.009  17.363  1.00  0.00     0.000 C 
BRANCH  20  21
ATOM     21  C   UNL     1      16.032  -2.211  17.707  1.00  0.00     0.000 C 
BRANCH  21  22
ATOM     22  C   UNL     1      17.149  -3.029  18.387  1.00  0.00     0.000 C 
BRANCH  22  23
ATOM     23  C   UNL     1      18.466  -3.119  17.594  1.00  0.00     0.000 C 
BRANCH  23  24
ATOM     24  C   UNL     1      18.425  -4.049  16.367  1.00  0.00    -0.000 C 
BRANCH  24  25
ATOM     25  C   UNL     1      19.578  -3.815  15.368  1.00  0.00    -0.000 C 
BRANCH  25  26
ATOM     26  C   UNL     1      19.324  -4.484  14.007  1.00  0.00    -0.000 C 
BRANCH  26  27
ATOM     27  C   UNL     1      18.850  -3.490  12.933  1.00  0.00    -0.000 C 
BRANCH  27  28
ATOM     28  C   UNL     1      19.027  -2.012  13.341  1.00  0.00    -0.000 C 
BRANCH  28  29
ATOM     29  C   UNL     1      17.679  -1.319  13.609  1.00  0.00    -0.000 C 
BRANCH  29  30
ATOM     30  C   UNL     1      16.510  -2.314  13.690  1.00  0.00    -0.000 C 
BRANCH  30  31
ATOM     31  C   UNL     1      15.526  -2.164  12.522  1.00  0.00    -0.003 C 
ATOM     32  C   UNL     1      15.234  -0.694  12.231  1.00  0.00     0.004 C 
ENDBRANCH  30  31
ENDBRANCH  29  30
ENDBRANCH  28  29
ENDBRANCH  27  28
ENDBRANCH  26  27
ENDBRANCH  25  26
ENDBRANCH  24  25
ENDBRANCH  23  24
ENDBRANCH  22  23
ENDBRANCH  21  22
ENDBRANCH  20  21
ENDBRANCH  19  20
ENDBRANCH  18  19
ENDBRANCH   1  18
TORSDOF 28
ENDMDL
MODEL 4
REMARK VINA RESULT:    -6.073      3.146      6.536
REMARK INTER + INTRA:         -21.466
REMARK INTER:                 -16.414
REMARK INTRA:                  -5.053
REMARK UNBOUND:                -5.453
REMARK SMILES CCCCCCCCCCCCCCCCCCCCCCCCCCCCCC(=O)[O-]
REMARK SMILES IDX 16 1 17 2 18 3 19 4 20 5 21 6 22 7 23 8 24 9 25 10 26 11
REMARK SMILES IDX 27 12 28 13 29 14 30 15 31 16 32 17 15 18 14 19 13 20 12 21
REMARK SMILES IDX 11 22 10 23 9 24 8 25 7 26 6 27 5 28 4 29 3 30 2 31 1 32
REMARK H PARENT
REMARK Flexibility Score: inf
ROOT
ATOM      1  C   UNL     1      18.909  -5.427  12.814  1.00  0.00     0.000 C 
ENDROOT
BRANCH   1   2
ATOM      2  C   UNL     1      17.858  -5.762  11.745  1.00  0.00     0.000 C 
BRANCH   2   3
ATOM      3  C   UNL     1      16.429  -5.801  12.313  1.00  0.00     0.000 C 
BRANCH   3   4
ATOM      4  C   UNL     1      16.114  -7.116  13.049  1.00  0.00     0.000 C 
BRANCH   4   5
ATOM      5  C   UNL     1      15.126  -6.976  14.221  1.00  0.00     0.000 C 
BRANCH   5   6
ATOM      6  C   UNL     1      15.797  -7.166  15.592  1.00  0.00     0.000 C 
BRANCH   6   7
ATOM      7  C   UNL     1      16.343  -5.851  16.169  1.00  0.00     0.000 C 
BRANCH   7   8
ATOM      8  C   UNL     1      15.641  -4.614  15.585  1.00  0.00     0.000 C 
BRANCH   8   9
ATOM      9  C   UNL     1      14.516  -4.132  16.513  1.00  0.00     0.000 C 
BRANCH   9  10
ATOM     10  C   UNL     1      14.937  -2.948  17.399  1.00  0.00     0.000 C 
BRANCH  10  11
ATOM     11  C   UNL     1      16.438  -2.594  17.351  1.00  0.00     0.000 C 
BRANCH  11  12
ATOM     12  C   UNL     1      17.266  -3.085  18.552  1.00  0.00     0.000 C 
BRANCH  12  13
ATOM     13  C   UNL     1      18.780  -2.940  18.332  1.00  0.00     0.006 C 
BRANCH  13  14
ATOM     14  C   UNL     1      19.168  -3.095  16.856  1.00  0.00     0.053 C 
BRANCH  14  15
ATOM     15  C   UNL     1      20.544  -2.568  16.585  1.00  0.00     0.041 C 
ATOM     16  O   UNL     1      20.697  -1.454  16.016  1.00  0.00    -0.550 OA
ATOM     17  O   UNL     1      21.659  -3.322  16.934  1.00  0.00    -0.550 OA
ENDBRANCH  14  15
ENDBRANCH  13  14
ENDBRANCH  12  13
ENDBRANCH  11  12
ENDBRANCH  10  11
ENDBRANCH   9  10
ENDBRANCH   8   9
ENDBRANCH   7   8
ENDBRANCH   6   7
ENDBRANCH   5   6
ENDBRANCH   4   5
ENDBRANCH   3   4
ENDBRANCH   2   3
ENDBRANCH   1   2
BRANCH   1  18
ATOM     18  C   UNL     1      18.568  -4.145  13.595  1.00  0.00     0.000 C 
BRANCH  18  19
ATOM     19  C   UNL     1      19.043  -2.869  12.878  1.00  0.00     0.000 C 
BRANCH  19  20
ATOM     20  C   UNL     1      18.261  -1.592  13.242  1.00  0.00     0.000 C 
BRANCH  20  21
ATOM     21  C   UNL     1      16.827  -1.829  13.757  1.00  0.00     0.000 C 
BRANCH  21  22
ATOM     22  C   UNL     1      15.776  -2.098  12.660  1.00  0.00     0.000 C 
BRANCH  22  23
ATOM     23  C   UNL     1      14.729  -0.984  12.473  1.00  0.00     0.000 C 
BRANCH  23  24
ATOM     24  C   UNL     1      13.275  -1.405  12.759  1.00  0.00    -0.000 C 
BRANCH  24  25
ATOM     25  C   UNL     1      13.140  -2.460  13.878  1.00  0.00    -0.000 C 
BRANCH  25  26
ATOM     26  C   UNL     1      11.717  -3.033  13.979  1.00  0.00    -0.000 C 
BRANCH  26  27
ATOM     27  C   UNL     1      11.433  -4.113  12.921  1.00  0.00    -0.000 C 
BRANCH  27  28
ATOM     28  C   UNL     1      12.593  -5.116  12.738  1.00  0.00    -0.000 C 
BRANCH  28  29
ATOM     29  C   UNL     1      13.404  -4.838  11.461  1.00  0.00    -0.000 C 
BRANCH  29  30
ATOM     30  C   UNL     1      12.523  -4.789  10.201  1.00  0.00    -0.000 C 
BRANCH  30  31
ATOM     31  C   UNL     1      12.966  -5.797   9.132  1.00  0.00    -0.003 C 
ATOM     32  C   UNL     1      14.486  -5.946   9.109  1.00  0.00     0.004 C 
ENDBRANCH  30  31
ENDBRANCH  29  30
ENDBRANCH  28  29
ENDBRANCH  27  28
ENDBRANCH  26  27
ENDBRANCH  25  26
ENDBRANCH  24  25
ENDBRANCH  23  24
ENDBRANCH  22  23
ENDBRANCH  21  22
ENDBRANCH  20  21
ENDBRANCH  19  20
ENDBRANCH  18  19
ENDBRANCH   1  18
TORSDOF 28
ENDMDL
MODEL 5
REMARK VINA RESULT:    -6.069      2.512      6.183
REMARK INTER + INTRA:         -21.456
REMARK INTER:                 -15.918
REMARK INTRA:                  -5.538
REMARK UNBOUND:                -5.453
REMARK SMILES CCCCCCCCCCCCCCCCCCCCCCCCCCCCCC(=O)[O-]
REMARK SMILES IDX 16 1 17 2 18 3 19 4 20 5 21 6 22 7 23 8 24 9 25 10 26 11
REMARK SMILES IDX 27 12 28 13 29 14 30 15 31 16 32 17 15 18 14 19 13 20 12 21
REMARK SMILES IDX 11 22 10 23 9 24 8 25 7 26 6 27 5 28 4 29 3 30 2 31 1 32
REMARK H PARENT
REMARK Flexibility Score: inf
ROOT
ATOM      1  C   UNL     1      16.282  -5.717  12.298  1.00  0.00     0.000 C 
ENDROOT
BRANCH   1   2
ATOM      2  C   UNL     1      15.222  -6.699  12.819  1.00  0.00     0.000 C 
BRANCH   2   3
ATOM      3  C   UNL     1      15.836  -7.851  13.634  1.00  0.00     0.000 C 
BRANCH   3   4
ATOM      4  C   UNL     1      15.173  -8.026  15.013  1.00  0.00     0.000 C 
BRANCH   4   5
ATOM      5  C   UNL     1      14.409  -6.790  15.520  1.00  0.00     0.000 C 
BRANCH   5   6
ATOM      6  C   UNL     1      15.337  -5.725  16.131  1.00  0.00     0.000 C 
BRANCH   6   7
ATOM      7  C   UNL     1      14.953  -4.298  15.711  1.00  0.00     0.000 C 
BRANCH   7   8
ATOM      8  C   UNL     1      14.744  -3.365  16.915  1.00  0.00     0.000 C 
BRANCH   8   9
ATOM      9  C   UNL     1      15.912  -2.377  17.052  1.00  0.00     0.000 C 
BRANCH   9  10
ATOM     10  C   UNL     1      16.945  -2.812  18.105  1.00  0.00     0.000 C 
BRANCH  10  11
ATOM     11  C   UNL     1      18.069  -3.730  17.581  1.00  0.00     0.000 C 
BRANCH  11  12
ATOM     12  C   UNL     1      19.202  -3.012  16.826  1.00  0.00     0.000 C 
BRANCH  12  13
ATOM     13  C   UNL     1      19.002  -3.019  15.302  1.00  0.00     0.006 C 
BRANCH  13  14
ATOM     14  C   UNL     1      18.933  -4.443  14.734  1.00  0.00     0.053 C 
BRANCH  14  15
ATOM     15  C   UNL     1      19.473  -4.512  13.339  1.00  0.00     0.041 C 
ATOM     16  O   UNL     1      19.395  -3.510  12.578  1.00  0.00    -0.550 OA
ATOM     17  O   UNL     1      20.038  -5.691  12.868  1.00  0.00    -0.550 OA
ENDBRANCH  14  15
ENDBRANCH  13  14
ENDBRANCH  12  13
ENDBRANCH  11  12
ENDBRANCH  10  11
ENDBRANCH   9  10
ENDBRANCH   8   9
ENDBRANCH   7   8
ENDBRANCH   6   7
ENDBRANCH   5   6
ENDBRANCH   4   5
ENDBRANCH   3   4
ENDBRANCH   2   3
ENDBRANCH   1   2
BRANCH   1  18
ATOM     18  C   UNL     1      16.567  -5.897  10.796  1.00  0.00     0.000 C 
BRANCH  18  19
ATOM     19  C   UNL     1      15.609  -5.083   9.908  1.00  0.00     0.000 C 
BRANCH  19  20
ATOM     20  C   UNL     1      14.619  -5.926   9.080  1.00  0.00     0.000 C 
BRANCH  20  21
ATOM     21  C   UNL     1      13.143  -5.812   9.513  1.00  0.00     0.000 C 
BRANCH  21  22
ATOM     22  C   UNL     1      12.816  -4.589  10.396  1.00  0.00     0.000 C 
BRANCH  22  23
ATOM     23  C   UNL     1      12.343  -4.923  11.822  1.00  0.00     0.000 C 
BRANCH  23  24
ATOM     24  C   UNL     1      11.447  -3.856  12.477  1.00  0.00    -0.000 C 
BRANCH  24  25
ATOM     25  C   UNL     1      11.802  -3.561  13.950  1.00  0.00    -0.000 C 
BRANCH  25  26
ATOM     26  C   UNL     1      12.479  -2.193  14.131  1.00  0.00    -0.000 C 
BRANCH  26  27
ATOM     27  C   UNL     1      12.622  -1.419  12.810  1.00  0.00    -0.000 C 
BRANCH  27  28
ATOM     28  C   UNL     1      14.087  -1.110  12.433  1.00  0.00    -0.000 C 
BRANCH  28  29
ATOM     29  C   UNL     1      14.966  -2.373  12.436  1.00  0.00    -0.000 C 
BRANCH  29  30
ATOM     30  C   UNL     1      16.394  -2.097  12.935  1.00  0.00    -0.000 C 
BRANCH  30  31
ATOM     31  C   UNL     1      16.661  -0.603  13.162  1.00  0.00    -0.003 C 
ATOM     32  C   UNL     1      18.159  -0.310  13.205  1.00  0.00     0.004 C 
ENDBRANCH  30  31
ENDBRANCH  29  30
ENDBRANCH  28  29
ENDBRANCH  27  28
ENDBRANCH  26  27
ENDBRANCH  25  26
ENDBRANCH  24  25
ENDBRANCH  23  24
ENDBRANCH  22  23
ENDBRANCH  21  22
ENDBRANCH  20  21
ENDBRANCH  19  20
ENDBRANCH  18  19
ENDBRANCH   1  18
TORSDOF 28
ENDMDL
MODEL 6
REMARK VINA RESULT:    -6.058      2.653      6.047
REMARK INTER + INTRA:         -21.428
REMARK INTER:                 -15.898
REMARK INTRA:                  -5.530
REMARK UNBOUND:                -5.453
REMARK SMILES CCCCCCCCCCCCCCCCCCCCCCCCCCCCCC(=O)[O-]
REMARK SMILES IDX 16 1 17 2 18 3 19 4 20 5 21 6 22 7 23 8 24 9 25 10 26 11
REMARK SMILES IDX 27 12 28 13 29 14 30 15 31 16 32 17 15 18 14 19 13 20 12 21
REMARK SMILES IDX 11 22 10 23 9 24 8 25 7 26 6 27 5 28 4 29 3 30 2 31 1 32
REMARK H PARENT
REMARK Flexibility Score: inf
ROOT
ATOM      1  C   UNL     1      16.848  -3.593  16.456  1.00  0.00     0.000 C 
ENDROOT
BRANCH   1   2
ATOM      2  C   UNL     1      16.008  -2.840  17.499  1.00  0.00     0.000 C 
BRANCH   2   3
ATOM      3  C   UNL     1      14.496  -3.008  17.270  1.00  0.00     0.000 C 
BRANCH   3   4
ATOM      4  C   UNL     1      14.146  -3.342  15.808  1.00  0.00     0.000 C 
BRANCH   4   5
ATOM      5  C   UNL     1      12.672  -3.712  15.569  1.00  0.00     0.000 C 
BRANCH   5   6
ATOM      6  C   UNL     1      12.167  -3.279  14.181  1.00  0.00     0.000 C 
BRANCH   6   7
ATOM      7  C   UNL     1      12.228  -1.757  13.980  1.00  0.00     0.000 C 
BRANCH   7   8
ATOM      8  C   UNL     1      12.887  -1.365  12.648  1.00  0.00     0.000 C 
BRANCH   8   9
ATOM      9  C   UNL     1      14.314  -1.924  12.556  1.00  0.00     0.000 C 
BRANCH   9  10
ATOM     10  C   UNL     1      15.332  -0.888  12.049  1.00  0.00     0.000 C 
BRANCH  10  11
ATOM     11  C   UNL     1      16.615  -0.760  12.898  1.00  0.00     0.000 C 
BRANCH  11  12
ATOM     12  C   UNL     1      17.116  -2.072  13.529  1.00  0.00     0.000 C 
BRANCH  12  13
ATOM     13  C   UNL     1      18.492  -2.502  12.998  1.00  0.00     0.006 C 
BRANCH  13  14
ATOM     14  C   UNL     1      19.403  -3.033  14.114  1.00  0.00     0.053 C 
BRANCH  14  15
ATOM     15  C   UNL     1      19.746  -4.477  13.911  1.00  0.00     0.041 C 
ATOM     16  O   UNL     1      20.029  -5.207  14.898  1.00  0.00    -0.550 OA
ATOM     17  O   UNL     1      19.784  -5.010  12.628  1.00  0.00    -0.550 OA
ENDBRANCH  14  15
ENDBRANCH  13  14
ENDBRANCH  12  13
ENDBRANCH  11  12
ENDBRANCH  10  11
ENDBRANCH   9  10
ENDBRANCH   8   9
ENDBRANCH   7   8
ENDBRANCH   6   7
ENDBRANCH   5   6
ENDBRANCH   4   5
ENDBRANCH   3   4
ENDBRANCH   2   3
ENDBRANCH   1   2
BRANCH   1  18
ATOM     18  C   UNL     1      17.166  -5.036  16.885  1.00  0.00     0.000 C 
BRANCH  18  19
ATOM     19  C   UNL     1      16.660  -6.081  15.875  1.00  0.00     0.000 C 
BRANCH  19  20
ATOM     20  C   UNL     1      15.309  -6.729  16.235  1.00  0.00     0.000 C 
BRANCH  20  21
ATOM     21  C   UNL     1      14.844  -7.845  15.278  1.00  0.00     0.000 C 
BRANCH  21  22
ATOM     22  C   UNL     1      15.159  -7.599  13.788  1.00  0.00     0.000 C 
BRANCH  22  23
ATOM     23  C   UNL     1      14.404  -6.420  13.148  1.00  0.00     0.000 C 
BRANCH  23  24
ATOM     24  C   UNL     1      15.283  -5.211  12.776  1.00  0.00    -0.000 C 
BRANCH  24  25
ATOM     25  C   UNL     1      16.584  -5.589  12.038  1.00  0.00    -0.000 C 
BRANCH  25  26
ATOM     26  C   UNL     1      16.385  -5.719  10.519  1.00  0.00    -0.000 C 
BRANCH  26  27
ATOM     27  C   UNL     1      15.207  -4.876   9.999  1.00  0.00    -0.000 C 
BRANCH  27  28
ATOM     28  C   UNL     1      14.219  -5.674   9.121  1.00  0.00    -0.000 C 
BRANCH  28  29
ATOM     29  C   UNL     1      12.789  -5.652   9.690  1.00  0.00    -0.000 C 
BRANCH  29  30
ATOM     30  C   UNL     1      12.509  -4.397  10.534  1.00  0.00    -0.000 C 
BRANCH  30  31
ATOM     31  C   UNL     1      11.089  -3.854  10.329  1.00  0.00    -0.003 C 
ATOM     32  C   UNL     1      10.486  -4.361   9.021  1.00  0.00     0.004 C 
ENDBRANCH  30  31
ENDBRANCH  29  30
ENDBRANCH  28  29
ENDBRANCH  27  28
ENDBRANCH  26  27
ENDBRANCH  25  26
ENDBRANCH  24  25
ENDBRANCH  23  24
ENDBRANCH  22  23
ENDBRANCH  21  22
ENDBRANCH  20  21
ENDBRANCH  19  20
ENDBRANCH  18  19
ENDBRANCH   1  18
TORSDOF 28
ENDMDL
MODEL 7
REMARK VINA RESULT:    -6.038      2.206      5.814
REMARK INTER + INTRA:         -21.375
REMARK INTER:                 -16.277
REMARK INTRA:                  -5.098
REMARK UNBOUND:                -5.453
REMARK SMILES CCCCCCCCCCCCCCCCCCCCCCCCCCCCCC(=O)[O-]
REMARK SMILES IDX 16 1 17 2 18 3 19 4 20 5 21 6 22 7 23 8 24 9 25 10 26 11
REMARK SMILES IDX 27 12 28 13 29 14 30 15 31 16 32 17 15 18 14 19 13 20 12 21
REMARK SMILES IDX 11 22 10 23 9 24 8 25 7 26 6 27 5 28 4 29 3 30 2 31 1 32
REMARK H PARENT
REMARK Flexibility Score: inf
ROOT
ATOM      1  C   UNL     1      18.320  -4.844  12.390  1.00  0.00     0.000 C 
ENDROOT
BRANCH   1   2
ATOM      2  C   UNL     1      19.715  -5.279  12.864  1.00  0.00     0.000 C 
BRANCH   2   3
ATOM      3  C   UNL     1      19.871  -5.196  14.392  1.00  0.00     0.000 C 
BRANCH   3   4
ATOM      4  C   UNL     1      19.001  -4.093  15.023  1.00  0.00     0.000 C 
BRANCH   4   5
ATOM      5  C   UNL     1      19.791  -2.980  15.734  1.00  0.00     0.000 C 
BRANCH   5   6
ATOM      6  C   UNL     1      19.458  -2.876  17.232  1.00  0.00     0.000 C 
BRANCH   6   7
ATOM      7  C   UNL     1      18.117  -3.539  17.585  1.00  0.00     0.000 C 
BRANCH   7   8
ATOM      8  C   UNL     1      17.474  -2.935  18.844  1.00  0.00     0.000 C 
BRANCH   8   9
ATOM      9  C   UNL     1      16.019  -2.525  18.575  1.00  0.00     0.000 C 
BRANCH   9  10
ATOM     10  C   UNL     1      15.628  -2.645  17.092  1.00  0.00     0.000 C 
BRANCH  10  11
ATOM     11  C   UNL     1      14.258  -3.305  16.827  1.00  0.00     0.000 C 
BRANCH  11  12
ATOM     12  C   UNL     1      14.319  -4.735  16.262  1.00  0.00     0.000 C 
BRANCH  12  13
ATOM     13  C   UNL     1      15.391  -4.902  15.172  1.00  0.00     0.006 C 
BRANCH  13  14
ATOM     14  C   UNL     1      16.008  -6.307  15.179  1.00  0.00     0.053 C 
BRANCH  14  15
ATOM     15  C   UNL     1      15.167  -7.287  14.421  1.00  0.00     0.041 C 
ATOM     16  O   UNL     1      14.075  -6.924  13.908  1.00  0.00    -0.550 OA
ATOM     17  O   UNL     1      15.575  -8.611  14.306  1.00  0.00    -0.550 OA
ENDBRANCH  14  15
ENDBRANCH  13  14
ENDBRANCH  12  13
ENDBRANCH  11  12
ENDBRANCH  10  11
ENDBRANCH   9  10
ENDBRANCH   8   9
ENDBRANCH   7   8
ENDBRANCH   6   7
ENDBRANCH   5   6
ENDBRANCH   4   5
ENDBRANCH   3   4
ENDBRANCH   2   3
ENDBRANCH   1   2
BRANCH   1  18
ATOM     18  C   UNL     1      17.596  -5.945  11.596  1.00  0.00     0.000 C 
BRANCH  18  19
ATOM     19  C   UNL     1      16.109  -5.626  11.359  1.00  0.00     0.000 C 
BRANCH  19  20
ATOM     20  C   UNL     1      15.747  -5.269   9.904  1.00  0.00     0.000 C 
BRANCH  20  21
ATOM     21  C   UNL     1      14.317  -5.652   9.473  1.00  0.00     0.000 C 
BRANCH  21  22
ATOM     22  C   UNL     1      13.237  -5.466  10.559  1.00  0.00     0.000 C 
BRANCH  22  23
ATOM     23  C   UNL     1      12.097  -4.501  10.186  1.00  0.00     0.000 C 
BRANCH  23  24
ATOM     24  C   UNL     1      11.369  -3.861  11.383  1.00  0.00    -0.000 C 
BRANCH  24  25
ATOM     25  C   UNL     1      11.871  -4.358  12.756  1.00  0.00    -0.000 C 
BRANCH  25  26
ATOM     26  C   UNL     1      11.503  -3.400  13.900  1.00  0.00    -0.000 C 
BRANCH  26  27
ATOM     27  C   UNL     1      12.485  -2.222  14.030  1.00  0.00    -0.000 C 
BRANCH  27  28
ATOM     28  C   UNL     1      13.738  -2.363  13.140  1.00  0.00    -0.000 C 
BRANCH  28  29
ATOM     29  C   UNL     1      13.916  -1.162  12.195  1.00  0.00    -0.000 C 
BRANCH  29  30
ATOM     30  C   UNL     1      15.385  -0.727  12.063  1.00  0.00    -0.000 C 
BRANCH  30  31
ATOM     31  C   UNL     1      16.359  -1.749  12.665  1.00  0.00    -0.003 C 
ATOM     32  C   UNL     1      17.271  -1.098  13.702  1.00  0.00     0.004 C 
ENDBRANCH  30  31
ENDBRANCH  29  30
ENDBRANCH  28  29
ENDBRANCH  27  28
ENDBRANCH  26  27
ENDBRANCH  25  26
ENDBRANCH  24  25
ENDBRANCH  23  24
ENDBRANCH  22  23
ENDBRANCH  21  22
ENDBRANCH  20  21
ENDBRANCH  19  20
ENDBRANCH  18  19
ENDBRANCH   1  18
TORSDOF 28
ENDMDL
MODEL 8
REMARK VINA RESULT:    -6.004      1.278      4.774
REMARK INTER + INTRA:         -21.284
REMARK INTER:                 -15.849
REMARK INTRA:                  -5.435
REMARK UNBOUND:                -5.453
REMARK SMILES CCCCCCCCCCCCCCCCCCCCCCCCCCCCCC(=O)[O-]
REMARK SMILES IDX 16 1 17 2 18 3 19 4 20 5 21 6 22 7 23 8 24 9 25 10 26 11
REMARK SMILES IDX 27 12 28 13 29 14 30 15 31 16 32 17 15 18 14 19 13 20 12 21
REMARK SMILES IDX 11 22 10 23 9 24 8 25 7 26 6 27 5 28 4 29 3 30 2 31 1 32
REMARK H PARENT
REMARK Flexibility Score: inf
ROOT
ATOM      1  C   UNL     1      15.601  -7.886  13.614  1.00  0.00     0.000 C 
ENDROOT
BRANCH   1   2
ATOM      2  C   UNL     1      14.643  -6.788  13.127  1.00  0.00     0.000 C 
BRANCH   2   3
ATOM      3  C   UNL     1      15.386  -5.547  12.604  1.00  0.00     0.000 C 
BRANCH   3   4
ATOM      4  C   UNL     1      16.691  -5.898  11.866  1.00  0.00     0.000 C 
BRANCH   4   5
ATOM      5  C   UNL     1      16.586  -5.875  10.331  1.00  0.00     0.000 C 
BRANCH   5   6
ATOM      6  C   UNL     1      15.387  -5.053   9.827  1.00  0.00     0.000 C 
BRANCH   6   7
ATOM      7  C   UNL     1      14.357  -5.912   9.078  1.00  0.00     0.000 C 
BRANCH   7   8
ATOM      8  C   UNL     1      12.924  -5.694   9.590  1.00  0.00     0.000 C 
BRANCH   8   9
ATOM      9  C   UNL     1      12.827  -4.404  10.418  1.00  0.00     0.000 C 
BRANCH   9  10
ATOM     10  C   UNL     1      11.376  -3.984  10.706  1.00  0.00     0.000 C 
BRANCH  10  11
ATOM     11  C   UNL     1      10.947  -4.080  12.185  1.00  0.00     0.000 C 
BRANCH  11  12
ATOM     12  C   UNL     1      12.092  -3.971  13.207  1.00  0.00     0.000 C 
BRANCH  12  13
ATOM     13  C   UNL     1      12.364  -2.524  13.648  1.00  0.00     0.006 C 
BRANCH  13  14
ATOM     14  C   UNL     1      13.752  -2.037  13.211  1.00  0.00     0.053 C 
BRANCH  14  15
ATOM     15  C   UNL     1      13.664  -1.004  12.130  1.00  0.00     0.041 C 
ATOM     16  O   UNL     1      14.678  -0.326  11.816  1.00  0.00    -0.550 OA
ATOM     17  O   UNL     1      12.453  -0.769  11.489  1.00  0.00    -0.550 OA
ENDBRANCH  14  15
ENDBRANCH  13  14
ENDBRANCH  12  13
ENDBRANCH  11  12
ENDBRANCH  10  11
ENDBRANCH   9  10
ENDBRANCH   8   9
ENDBRANCH   7   8
ENDBRANCH   6   7
ENDBRANCH   5   6
ENDBRANCH   4   5
ENDBRANCH   3   4
ENDBRANCH   2   3
ENDBRANCH   1   2
BRANCH   1  18
ATOM     18  C   UNL     1      15.570  -8.060  15.143  1.00  0.00     0.000 C 
BRANCH  18  19
ATOM     19  C   UNL     1      14.547  -7.136  15.826  1.00  0.00     0.000 C 
BRANCH  19  20
ATOM     20  C   UNL     1      15.126  -5.811  16.360  1.00  0.00     0.000 C 
BRANCH  20  21
ATOM     21  C   UNL     1      14.311  -4.552  16.004  1.00  0.00     0.000 C 
BRANCH  21  22
ATOM     22  C   UNL     1      14.448  -3.383  17.003  1.00  0.00     0.000 C 
BRANCH  22  23
ATOM     23  C   UNL     1      15.764  -2.591  16.903  1.00  0.00     0.000 C 
BRANCH  23  24
ATOM     24  C   UNL     1      16.633  -2.611  18.175  1.00  0.00    -0.000 C 
BRANCH  24  25
ATOM     25  C   UNL     1      17.761  -3.663  18.142  1.00  0.00    -0.000 C 
BRANCH  25  26
ATOM     26  C   UNL     1      19.144  -3.038  17.894  1.00  0.00    -0.000 C 
BRANCH  26  27
ATOM     27  C   UNL     1      19.437  -2.814  16.400  1.00  0.00    -0.000 C 
BRANCH  27  28
ATOM     28  C   UNL     1      19.355  -4.105  15.556  1.00  0.00    -0.000 C 
BRANCH  28  29
ATOM     29  C   UNL     1      18.138  -4.105  14.614  1.00  0.00    -0.000 C 
BRANCH  29  30
ATOM     30  C   UNL     1      18.285  -3.099  13.461  1.00  0.00    -0.000 C 
BRANCH  30  31
ATOM     31  C   UNL     1      17.336  -1.901  13.599  1.00  0.00    -0.003 C 
ATOM     32  C   UNL     1      18.041  -0.594  13.240  1.00  0.00     0.004 C 
ENDBRANCH  30  31
ENDBRANCH  29  30
ENDBRANCH  28  29
ENDBRANCH  27  28
ENDBRANCH  26  27
ENDBRANCH  25  26
ENDBRANCH  24  25
ENDBRANCH  23  24
ENDBRANCH  22  23
ENDBRANCH  21  22
ENDBRANCH  20  21
ENDBRANCH  19  20
ENDBRANCH  18  19
ENDBRANCH   1  18
TORSDOF 28
ENDMDL
MODEL 9
REMARK VINA RESULT:    -5.875      1.449      5.199
REMARK INTER + INTRA:         -20.944
REMARK INTER:                 -16.159
REMARK INTRA:                  -4.785
REMARK UNBOUND:                -5.453
REMARK SMILES CCCCCCCCCCCCCCCCCCCCCCCCCCCCCC(=O)[O-]
REMARK SMILES IDX 16 1 17 2 18 3 19 4 20 5 21 6 22 7 23 8 24 9 25 10 26 11
REMARK SMILES IDX 27 12 28 13 29 14 30 15 31 16 32 17 15 18 14 19 13 20 12 21
REMARK SMILES IDX 11 22 10 23 9 24 8 25 7 26 6 27 5 28 4 29 3 30 2 31 1 32
REMARK H PARENT
REMARK Flexibility Score: inf
ROOT
ATOM      1  C   UNL     1      15.802  -2.936  16.469  1.00  0.00     0.000 C 
ENDROOT
BRANCH   1   2
ATOM      2  C   UNL     1      16.690  -2.623  17.684  1.00  0.00     0.000 C 
BRANCH   2   3
ATOM      3  C   UNL     1      17.839  -3.632  17.851  1.00  0.00     0.000 C 
BRANCH   3   4
ATOM      4  C   UNL     1      18.827  -3.612  16.670  1.00  0.00     0.000 C 
BRANCH   4   5
ATOM      5  C   UNL     1      18.555  -4.672  15.588  1.00  0.00     0.000 C 
BRANCH   5   6
ATOM      6  C   UNL     1      19.721  -4.822  14.595  1.00  0.00     0.000 C 
BRANCH   6   7
ATOM      7  C   UNL     1      19.435  -4.151  13.243  1.00  0.00     0.000 C 
BRANCH   7   8
ATOM      8  C   UNL     1      18.239  -3.187  13.305  1.00  0.00     0.000 C 
BRANCH   8   9
ATOM      9  C   UNL     1      18.709  -1.726  13.256  1.00  0.00     0.000 C 
BRANCH   9  10
ATOM     10  C   UNL     1      17.544  -0.722  13.245  1.00  0.00     0.000 C 
BRANCH  10  11
ATOM     11  C   UNL     1      16.136  -1.351  13.193  1.00  0.00     0.000 C 
BRANCH  11  12
ATOM     12  C   UNL     1      15.177  -0.725  12.165  1.00  0.00     0.000 C 
BRANCH  12  13
ATOM     13  C   UNL     1      13.820  -1.445  12.097  1.00  0.00     0.006 C 
BRANCH  13  14
ATOM     14  C   UNL     1      13.691  -2.535  13.169  1.00  0.00     0.053 C 
BRANCH  14  15
ATOM     15  C   UNL     1      12.331  -2.537  13.799  1.00  0.00     0.041 C 
ATOM     16  O   UNL     1      11.881  -1.492  14.340  1.00  0.00    -0.550 OA
ATOM     17  O   UNL     1      11.573  -3.702  13.814  1.00  0.00    -0.550 OA
ENDBRANCH  14  15
ENDBRANCH  13  14
ENDBRANCH  12  13
ENDBRANCH  11  12
ENDBRANCH  10  11
ENDBRANCH   9  10
ENDBRANCH   8   9
ENDBRANCH   7   8
ENDBRANCH   6   7
ENDBRANCH   5   6
ENDBRANCH   4   5
ENDBRANCH   3   4
ENDBRANCH   2   3
ENDBRANCH   1   2
BRANCH   1  18
ATOM     18  C   UNL     1      14.382  -3.370  16.872  1.00  0.00     0.000 C 
BRANCH  18  19
ATOM     19  C   UNL     1      14.023  -4.777  16.362  1.00  0.00     0.000 C 
BRANCH  19  20
ATOM     20  C   UNL     1      15.231  -5.696  16.091  1.00  0.00     0.000 C 
BRANCH  20  21
ATOM     21  C   UNL     1      14.875  -7.142  15.693  1.00  0.00     0.000 C 
BRANCH  21  22
ATOM     22  C   UNL     1      15.574  -7.657  14.417  1.00  0.00     0.000 C 
BRANCH  22  23
ATOM     23  C   UNL     1      15.604  -6.661  13.243  1.00  0.00     0.000 C 
BRANCH  23  24
ATOM     24  C   UNL     1      16.925  -6.630  12.451  1.00  0.00    -0.000 C 
BRANCH  24  25
ATOM     25  C   UNL     1      16.823  -5.892  11.099  1.00  0.00    -0.000 C 
BRANCH  25  26
ATOM     26  C   UNL     1      15.487  -5.151  10.931  1.00  0.00    -0.000 C 
BRANCH  26  27
ATOM     27  C   UNL     1      14.901  -5.293   9.515  1.00  0.00    -0.000 C 
BRANCH  27  28
ATOM     28  C   UNL     1      13.404  -5.666   9.502  1.00  0.00    -0.000 C 
BRANCH  28  29
ATOM     29  C   UNL     1      12.642  -5.051  10.689  1.00  0.00    -0.000 C 
BRANCH  29  30
ATOM     30  C   UNL     1      11.814  -3.820  10.285  1.00  0.00    -0.000 C 
BRANCH  30  31
ATOM     31  C   UNL     1      10.500  -4.196   9.587  1.00  0.00    -0.003 C 
ATOM     32  C   UNL     1       9.332  -4.196  10.570  1.00  0.00     0.004 C 
ENDBRANCH  30  31
ENDBRANCH  29  30
ENDBRANCH  28  29
ENDBRANCH  27  28
ENDBRANCH  26  27
ENDBRANCH  25  26
ENDBRANCH  24  25
ENDBRANCH  23  24
ENDBRANCH  22  23
ENDBRANCH  21  22
ENDBRANCH  20  21
ENDBRANCH  19  20
ENDBRANCH  18  19
ENDBRANCH   1  18
TORSDOF 28
ENDMDL
