MODEL 1
REMARK VINA RESULT:     8.556      0.000      0.000
REMARK INTER + INTRA:          20.942
REMARK INTER:                  21.561
REMARK INTRA:                  -0.619
REMARK UNBOUND:                -0.619
REMARK SMILES CCCCCCCCCCCCCCCCCCCCCCCCCCCC(=O)[O-]
REMARK SMILES IDX 15 1 16 2 17 3 18 4 19 5 20 6 21 7 22 8 23 9 24 10 25 11
REMARK SMILES IDX 26 12 27 13 28 14 29 15 30 16 14 17 13 18 12 19 11 20 10 21
REMARK SMILES IDX 9 22 8 23 7 24 6 25 5 26 4 27 3 28 2 29 1 30
REMARK H PARENT
REMARK Flexibility Score: inf
ROOT
ATOM      1  C   UNL     1       0.675   2.112   0.066  1.00  0.00     0.000 C 
ENDROOT
BRANCH   1   2
ATOM      2  C   UNL     1       1.921   1.321  -0.361  1.00  0.00     0.000 C 
BRANCH   2   3
ATOM      3  C   UNL     1       3.053   2.226  -0.877  1.00  0.00     0.000 C 
BRANCH   3   4
ATOM      4  C   UNL     1       3.154   3.547  -0.087  1.00  0.00     0.000 C 
BRANCH   4   5
ATOM      5  C   UNL     1       3.225   4.806  -0.975  1.00  0.00     0.000 C 
BRANCH   5   6
ATOM      6  C   UNL     1       2.018   5.752  -0.824  1.00  0.00     0.000 C 
BRANCH   6   7
ATOM      7  C   UNL     1       2.135   6.999  -1.715  1.00  0.00     0.000 C 
BRANCH   7   8
ATOM      8  C   UNL     1       1.081   8.048  -1.334  1.00  0.00     0.000 C 
BRANCH   8   9
ATOM      9  C   UNL     1      -0.345   7.647  -1.758  1.00  0.00     0.000 C 
BRANCH   9  10
ATOM     10  C   UNL     1      -1.461   8.574  -1.241  1.00  0.00     0.000 C 
BRANCH  10  11
ATOM     11  C   UNL     1      -2.673   7.806  -0.695  1.00  0.00     0.000 C 
BRANCH  11  12
ATOM     12  C   UNL     1      -3.462   8.664   0.307  1.00  0.00     0.006 C 
BRANCH  12  13
ATOM     13  C   UNL     1      -4.194   9.826  -0.377  1.00  0.00     0.053 C 
BRANCH  13  14
ATOM     14  C   UNL     1      -4.950   9.370  -1.587  1.00  0.00     0.041 C 
ATOM     15  O   UNL     1      -6.207   9.308  -1.563  1.00  0.00    -0.550 OA
ATOM     16  O   UNL     1      -4.263   8.981  -2.732  1.00  0.00    -0.550 OA
ENDBRANCH  13  14
ENDBRANCH  12  13
ENDBRANCH  11  12
ENDBRANCH  10  11
ENDBRANCH   9  10
ENDBRANCH   8   9
ENDBRANCH   7   8
ENDBRANCH   6   7
ENDBRANCH   5   6
ENDBRANCH   4   5
ENDBRANCH   3   4
ENDBRANCH   2   3
ENDBRANCH   1   2
BRANCH   1  17
ATOM     17  C   UNL     1      -0.040   1.488   1.276  1.00  0.00     0.000 C 
BRANCH  17  18
ATOM     18  C   UNL     1      -0.725   2.566   2.127  1.00  0.00     0.000 C 
BRANCH  18  19
ATOM     19  C   UNL     1      -2.260   2.498   2.060  1.00  0.00     0.000 C 
BRANCH  19  20
ATOM     20  C   UNL     1      -2.952   2.727   3.420  1.00  0.00     0.000 C 
BRANCH  20  21
ATOM     21  C   UNL     1      -2.372   3.939   4.169  1.00  0.00     0.000 C 
BRANCH  21  22
ATOM     22  C   UNL     1      -3.075   4.206   5.510  1.00  0.00    -0.000 C 
BRANCH  22  23
ATOM     23  C   UNL     1      -2.874   5.645   6.035  1.00  0.00    -0.000 C 
BRANCH  23  24
ATOM     24  C   UNL     1      -3.674   5.912   7.322  1.00  0.00    -0.000 C 
BRANCH  24  25
ATOM     25  C   UNL     1      -2.839   5.647   8.594  1.00  0.00    -0.000 C 
BRANCH  25  26
ATOM     26  C   UNL     1      -3.653   5.714   9.897  1.00  0.00    -0.000 C 
BRANCH  26  27
ATOM     27  C   UNL     1      -5.166   5.835   9.650  1.00  0.00    -0.000 C 
BRANCH  27  28
ATOM     28  C   UNL     1      -5.806   4.511   9.191  1.00  0.00    -0.000 C 
BRANCH  28  29
ATOM     29  C   UNL     1      -4.957   3.255   9.457  1.00  0.00    -0.003 C 
ATOM     30  C   UNL     1      -4.629   2.474   8.184  1.00  0.00     0.004 C 
ENDBRANCH  28  29
ENDBRANCH  27  28
ENDBRANCH  26  27
ENDBRANCH  25  26
ENDBRANCH  24  25
ENDBRANCH  23  24
ENDBRANCH  22  23
ENDBRANCH  21  22
ENDBRANCH  20  21
ENDBRANCH  19  20
ENDBRANCH  18  19
ENDBRANCH  17  18
ENDBRANCH   1  17
TORSDOF 26
ENDMDL
MODEL 2
REMARK VINA RESULT:     9.777      3.300      9.421
REMARK INTER + INTRA:          24.019
REMARK INTER:                  25.046
REMARK INTRA:                  -1.027
REMARK UNBOUND:                -0.619
REMARK SMILES CCCCCCCCCCCCCCCCCCCCCCCCCCCC(=O)[O-]
REMARK SMILES IDX 15 1 16 2 17 3 18 4 19 5 20 6 21 7 22 8 23 9 24 10 25 11
REMARK SMILES IDX 26 12 27 13 28 14 29 15 30 16 14 17 13 18 12 19 11 20 10 21
REMARK SMILES IDX 9 22 8 23 7 24 6 25 5 26 4 27 3 28 2 29 1 30
REMARK H PARENT
REMARK Flexibility Score: inf
ROOT
ATOM      1  C   UNL     1       0.233   1.097   1.111  1.00  0.00     0.000 C 
ENDROOT
BRANCH   1   2
ATOM      2  C   UNL     1      -0.629   2.296   1.537  1.00  0.00     0.000 C 
BRANCH   2   3
ATOM      3  C   UNL     1      -1.911   1.875   2.277  1.00  0.00     0.000 C 
BRANCH   3   4
ATOM      4  C   UNL     1      -2.685   3.083   2.844  1.00  0.00     0.000 C 
BRANCH   4   5
ATOM      5  C   UNL     1      -2.237   3.507   4.257  1.00  0.00     0.000 C 
BRANCH   5   6
ATOM      6  C   UNL     1      -3.160   4.545   4.924  1.00  0.00     0.000 C 
BRANCH   6   7
ATOM      7  C   UNL     1      -3.070   4.512   6.458  1.00  0.00     0.000 C 
BRANCH   7   8
ATOM      8  C   UNL     1      -3.108   5.931   7.043  1.00  0.00     0.000 C 
BRANCH   8   9
ATOM      9  C   UNL     1      -2.325   6.057   8.363  1.00  0.00     0.000 C 
BRANCH   9  10
ATOM     10  C   UNL     1      -3.181   6.409   9.594  1.00  0.00     0.000 C 
BRANCH  10  11
ATOM     11  C   UNL     1      -4.062   5.243  10.066  1.00  0.00     0.000 C 
BRANCH  11  12
ATOM     12  C   UNL     1      -5.508   5.413   9.575  1.00  0.00     0.006 C 
BRANCH  12  13
ATOM     13  C   UNL     1      -6.280   4.087   9.578  1.00  0.00     0.053 C 
BRANCH  13  14
ATOM     14  C   UNL     1      -5.452   2.961   9.038  1.00  0.00     0.041 C 
ATOM     15  O   UNL     1      -4.572   2.420   9.757  1.00  0.00    -0.550 OA
ATOM     16  O   UNL     1      -5.629   2.532   7.727  1.00  0.00    -0.550 OA
ENDBRANCH  13  14
ENDBRANCH  12  13
ENDBRANCH  11  12
ENDBRANCH  10  11
ENDBRANCH   9  10
ENDBRANCH   8   9
ENDBRANCH   7   8
ENDBRANCH   6   7
ENDBRANCH   5   6
ENDBRANCH   4   5
ENDBRANCH   3   4
ENDBRANCH   2   3
ENDBRANCH   1   2
BRANCH   1  17
ATOM     17  C   UNL     1       1.412   1.502   0.212  1.00  0.00     0.000 C 
BRANCH  17  18
ATOM     18  C   UNL     1       1.378   3.005  -0.097  1.00  0.00     0.000 C 
BRANCH  18  19
ATOM     19  C   UNL     1       2.737   3.552  -0.569  1.00  0.00     0.000 C 
BRANCH  19  20
ATOM     20  C   UNL     1       2.832   5.091  -0.537  1.00  0.00     0.000 C 
BRANCH  20  21
ATOM     21  C   UNL     1       1.541   5.763  -1.033  1.00  0.00     0.000 C 
BRANCH  21  22
ATOM     22  C   UNL     1       1.678   7.287  -1.181  1.00  0.00    -0.000 C 
BRANCH  22  23
ATOM     23  C   UNL     1       0.737   7.890  -2.248  1.00  0.00    -0.000 C 
BRANCH  23  24
ATOM     24  C   UNL     1      -0.737   7.528  -1.995  1.00  0.00    -0.000 C 
BRANCH  24  25
ATOM     25  C   UNL     1      -1.570   8.751  -1.552  1.00  0.00    -0.000 C 
BRANCH  25  26
ATOM     26  C   UNL     1      -2.100   8.653  -0.112  1.00  0.00    -0.000 C 
BRANCH  26  27
ATOM     27  C   UNL     1      -3.573   8.217  -0.047  1.00  0.00    -0.000 C 
BRANCH  27  28
ATOM     28  C   UNL     1      -4.555   9.394  -0.203  1.00  0.00    -0.000 C 
BRANCH  28  29
ATOM     29  C   UNL     1      -4.596  10.020  -1.608  1.00  0.00    -0.003 C 
ATOM     30  C   UNL     1      -4.969   9.017  -2.699  1.00  0.00     0.004 C 
ENDBRANCH  28  29
ENDBRANCH  27  28
ENDBRANCH  26  27
ENDBRANCH  25  26
ENDBRANCH  24  25
ENDBRANCH  23  24
ENDBRANCH  22  23
ENDBRANCH  21  22
ENDBRANCH  20  21
ENDBRANCH  19  20
ENDBRANCH  18  19
ENDBRANCH  17  18
ENDBRANCH   1  17
TORSDOF 26
ENDMDL
MODEL 3
REMARK VINA RESULT:     9.798      0.800      1.590
REMARK INTER + INTRA:          24.073
REMARK INTER:                  25.081
REMARK INTRA:                  -1.008
REMARK UNBOUND:                -0.619
REMARK SMILES CCCCCCCCCCCCCCCCCCCCCCCCCCCC(=O)[O-]
REMARK SMILES IDX 15 1 16 2 17 3 18 4 19 5 20 6 21 7 22 8 23 9 24 10 25 11
REMARK SMILES IDX 26 12 27 13 28 14 29 15 30 16 14 17 13 18 12 19 11 20 10 21
REMARK SMILES IDX 9 22 8 23 7 24 6 25 5 26 4 27 3 28 2 29 1 30
REMARK H PARENT
REMARK Flexibility Score: inf
ROOT
ATOM      1  C   UNL     1      -0.493   1.487   1.186  1.00  0.00     0.000 C 
ENDROOT
BRANCH   1   2
ATOM      2  C   UNL     1       1.028   1.301   1.079  1.00  0.00     0.000 C 
BRANCH   2   3
ATOM      3  C   UNL     1       1.537   1.376  -0.372  1.00  0.00     0.000 C 
BRANCH   3   4
ATOM      4  C   UNL     1       2.642   2.436  -0.551  1.00  0.00     0.000 C 
BRANCH   4   5
ATOM      5  C   UNL     1       2.245   3.846  -0.066  1.00  0.00     0.000 C 
BRANCH   5   6
ATOM      6  C   UNL     1       2.959   4.991  -0.810  1.00  0.00     0.000 C 
BRANCH   6   7
ATOM      7  C   UNL     1       1.981   5.885  -1.588  1.00  0.00     0.000 C 
BRANCH   7   8
ATOM      8  C   UNL     1       2.210   7.367  -1.260  1.00  0.00     0.000 C 
BRANCH   8   9
ATOM      9  C   UNL     1       0.912   8.195  -1.286  1.00  0.00     0.000 C 
BRANCH   9  10
ATOM     10  C   UNL     1      -0.368   7.387  -1.573  1.00  0.00     0.000 C 
BRANCH  10  11
ATOM     11  C   UNL     1      -1.592   8.276  -1.836  1.00  0.00     0.000 C 
BRANCH  11  12
ATOM     12  C   UNL     1      -2.251   8.709  -0.518  1.00  0.00     0.006 C 
BRANCH  12  13
ATOM     13  C   UNL     1      -3.735   8.323  -0.458  1.00  0.00     0.053 C 
BRANCH  13  14
ATOM     14  C   UNL     1      -4.536   9.031  -1.507  1.00  0.00     0.041 C 
ATOM     15  O   UNL     1      -4.083   9.152  -2.676  1.00  0.00    -0.550 OA
ATOM     16  O   UNL     1      -5.768   9.589  -1.186  1.00  0.00    -0.550 OA
ENDBRANCH  13  14
ENDBRANCH  12  13
ENDBRANCH  11  12
ENDBRANCH  10  11
ENDBRANCH   9  10
ENDBRANCH   8   9
ENDBRANCH   7   8
ENDBRANCH   6   7
ENDBRANCH   5   6
ENDBRANCH   4   5
ENDBRANCH   3   4
ENDBRANCH   2   3
ENDBRANCH   1   2
BRANCH   1  17
ATOM     17  C   UNL     1      -0.891   2.542   2.231  1.00  0.00     0.000 C 
BRANCH  17  18
ATOM     18  C   UNL     1      -2.415   2.712   2.290  1.00  0.00     0.000 C 
BRANCH  18  19
ATOM     19  C   UNL     1      -2.947   2.860   3.726  1.00  0.00     0.000 C 
BRANCH  19  20
ATOM     20  C   UNL     1      -2.298   4.018   4.513  1.00  0.00     0.000 C 
BRANCH  20  21
ATOM     21  C   UNL     1      -3.319   4.776   5.376  1.00  0.00     0.000 C 
BRANCH  21  22
ATOM     22  C   UNL     1      -2.946   4.794   6.868  1.00  0.00    -0.000 C 
BRANCH  22  23
ATOM     23  C   UNL     1      -2.822   6.217   7.455  1.00  0.00    -0.000 C 
BRANCH  23  24
ATOM     24  C   UNL     1      -1.964   6.248   8.732  1.00  0.00    -0.000 C 
BRANCH  24  25
ATOM     25  C   UNL     1      -2.805   6.537   9.994  1.00  0.00    -0.000 C 
BRANCH  25  26
ATOM     26  C   UNL     1      -4.320   6.380   9.780  1.00  0.00    -0.000 C 
BRANCH  26  27
ATOM     27  C   UNL     1      -4.828   4.970  10.124  1.00  0.00    -0.000 C 
BRANCH  27  28
ATOM     28  C   UNL     1      -6.312   4.763   9.766  1.00  0.00    -0.000 C 
BRANCH  28  29
ATOM     29  C   UNL     1      -6.693   3.317   9.400  1.00  0.00    -0.003 C 
ATOM     30  C   UNL     1      -5.676   2.645   8.479  1.00  0.00     0.004 C 
ENDBRANCH  28  29
ENDBRANCH  27  28
ENDBRANCH  26  27
ENDBRANCH  25  26
ENDBRANCH  24  25
ENDBRANCH  23  24
ENDBRANCH  22  23
ENDBRANCH  21  22
ENDBRANCH  20  21
ENDBRANCH  19  20
ENDBRANCH  18  19
ENDBRANCH  17  18
ENDBRANCH   1  17
TORSDOF 26
ENDMDL
MODEL 4
REMARK VINA RESULT:    10.058      1.186      2.281
REMARK INTER + INTRA:          24.728
REMARK INTER:                  26.232
REMARK INTRA:                  -1.504
REMARK UNBOUND:                -0.619
REMARK SMILES CCCCCCCCCCCCCCCCCCCCCCCCCCCC(=O)[O-]
REMARK SMILES IDX 15 1 16 2 17 3 18 4 19 5 20 6 21 7 22 8 23 9 24 10 25 11
REMARK SMILES IDX 26 12 27 13 28 14 29 15 30 16 14 17 13 18 12 19 11 20 10 21
REMARK SMILES IDX 9 22 8 23 7 24 6 25 5 26 4 27 3 28 2 29 1 30
REMARK H PARENT
REMARK Flexibility Score: inf
ROOT
ATOM      1  C   UNL     1       0.481   1.057   1.243  1.00  0.00     0.000 C 
ENDROOT
BRANCH   1   2
ATOM      2  C   UNL     1       1.464   1.058   0.063  1.00  0.00     0.000 C 
BRANCH   2   3
ATOM      3  C   UNL     1       1.622   2.448  -0.579  1.00  0.00     0.000 C 
BRANCH   3   4
ATOM      4  C   UNL     1       3.099   2.879  -0.688  1.00  0.00     0.000 C 
BRANCH   4   5
ATOM      5  C   UNL     1       3.299   4.400  -0.844  1.00  0.00     0.000 C 
BRANCH   5   6
ATOM      6  C   UNL     1       2.017   5.229  -0.629  1.00  0.00     0.000 C 
BRANCH   6   7
ATOM      7  C   UNL     1       2.198   6.703  -1.024  1.00  0.00     0.000 C 
BRANCH   7   8
ATOM      8  C   UNL     1       1.179   7.113  -2.096  1.00  0.00     0.000 C 
BRANCH   8   9
ATOM      9  C   UNL     1       0.285   8.288  -1.656  1.00  0.00     0.000 C 
BRANCH   9  10
ATOM     10  C   UNL     1      -1.196   7.929  -1.434  1.00  0.00     0.000 C 
BRANCH  10  11
ATOM     11  C   UNL     1      -1.811   8.641  -0.221  1.00  0.00     0.000 C 
BRANCH  11  12
ATOM     12  C   UNL     1      -3.284   8.244  -0.039  1.00  0.00     0.006 C 
BRANCH  12  13
ATOM     13  C   UNL     1      -4.238   9.415  -0.310  1.00  0.00     0.053 C 
BRANCH  13  14
ATOM     14  C   UNL     1      -4.876   9.310  -1.661  1.00  0.00     0.041 C 
ATOM     15  O   UNL     1      -4.168   9.102  -2.682  1.00  0.00    -0.550 OA
ATOM     16  O   UNL     1      -6.250   9.476  -1.798  1.00  0.00    -0.550 OA
ENDBRANCH  13  14
ENDBRANCH  12  13
ENDBRANCH  11  12
ENDBRANCH  10  11
ENDBRANCH   9  10
ENDBRANCH   8   9
ENDBRANCH   7   8
ENDBRANCH   6   7
ENDBRANCH   5   6
ENDBRANCH   4   5
ENDBRANCH   3   4
ENDBRANCH   2   3
ENDBRANCH   1   2
BRANCH   1  17
ATOM     17  C   UNL     1      -0.505   2.235   1.196  1.00  0.00     0.000 C 
BRANCH  17  18
ATOM     18  C   UNL     1      -0.971   2.621   2.606  1.00  0.00     0.000 C 
BRANCH  18  19
ATOM     19  C   UNL     1      -2.500   2.750   2.720  1.00  0.00     0.000 C 
BRANCH  19  20
ATOM     20  C   UNL     1      -2.962   3.679   3.862  1.00  0.00     0.000 C 
BRANCH  20  21
ATOM     21  C   UNL     1      -3.034   2.947   5.212  1.00  0.00     0.000 C 
BRANCH  21  22
ATOM     22  C   UNL     1      -3.343   3.889   6.387  1.00  0.00    -0.000 C 
BRANCH  22  23
ATOM     23  C   UNL     1      -3.500   3.157   7.739  1.00  0.00    -0.000 C 
BRANCH  23  24
ATOM     24  C   UNL     1      -4.818   3.518   8.447  1.00  0.00    -0.000 C 
BRANCH  24  25
ATOM     25  C   UNL     1      -4.907   5.024   8.781  1.00  0.00    -0.000 C 
BRANCH  25  26
ATOM     26  C   UNL     1      -4.236   5.405  10.112  1.00  0.00    -0.000 C 
BRANCH  26  27
ATOM     27  C   UNL     1      -3.663   6.832  10.104  1.00  0.00    -0.000 C 
BRANCH  27  28
ATOM     28  C   UNL     1      -2.467   6.992   9.147  1.00  0.00    -0.000 C 
BRANCH  28  29
ATOM     29  C   UNL     1      -1.086   6.940   9.823  1.00  0.00    -0.003 C 
ATOM     30  C   UNL     1      -0.458   8.321  10.011  1.00  0.00     0.004 C 
ENDBRANCH  28  29
ENDBRANCH  27  28
ENDBRANCH  26  27
ENDBRANCH  25  26
ENDBRANCH  24  25
ENDBRANCH  23  24
ENDBRANCH  22  23
ENDBRANCH  21  22
ENDBRANCH  20  21
ENDBRANCH  19  20
ENDBRANCH  18  19
ENDBRANCH  17  18
ENDBRANCH   1  17
TORSDOF 26
ENDMDL
MODEL 5
REMARK VINA RESULT:    10.108      3.206      9.825
REMARK INTER + INTRA:          24.854
REMARK INTER:                  26.806
REMARK INTRA:                  -1.952
REMARK UNBOUND:                -0.619
REMARK SMILES CCCCCCCCCCCCCCCCCCCCCCCCCCCC(=O)[O-]
REMARK SMILES IDX 15 1 16 2 17 3 18 4 19 5 20 6 21 7 22 8 23 9 24 10 25 11
REMARK SMILES IDX 26 12 27 13 28 14 29 15 30 16 14 17 13 18 12 19 11 20 10 21
REMARK SMILES IDX 9 22 8 23 7 24 6 25 5 26 4 27 3 28 2 29 1 30
REMARK H PARENT
REMARK Flexibility Score: inf
ROOT
ATOM      1  C   UNL     1      -1.323   2.823   2.304  1.00  0.00     0.000 C 
ENDROOT
BRANCH   1   2
ATOM      2  C   UNL     1      -2.767   2.489   2.709  1.00  0.00     0.000 C 
BRANCH   2   3
ATOM      3  C   UNL     1      -3.419   3.596   3.557  1.00  0.00     0.000 C 
BRANCH   3   4
ATOM      4  C   UNL     1      -2.522   4.041   4.730  1.00  0.00     0.000 C 
BRANCH   4   5
ATOM      5  C   UNL     1      -2.935   5.386   5.362  1.00  0.00     0.000 C 
BRANCH   5   6
ATOM      6  C   UNL     1      -3.544   5.257   6.772  1.00  0.00     0.000 C 
BRANCH   6   7
ATOM      7  C   UNL     1      -2.495   5.430   7.882  1.00  0.00     0.000 C 
BRANCH   7   8
ATOM      8  C   UNL     1      -2.960   6.459   8.923  1.00  0.00     0.000 C 
BRANCH   8   9
ATOM      9  C   UNL     1      -3.732   5.820  10.092  1.00  0.00     0.000 C 
BRANCH   9  10
ATOM     10  C   UNL     1      -5.239   6.137  10.125  1.00  0.00     0.000 C 
BRANCH  10  11
ATOM     11  C   UNL     1      -6.117   4.877  10.125  1.00  0.00     0.000 C 
BRANCH  11  12
ATOM     12  C   UNL     1      -5.266   3.614   9.919  1.00  0.00     0.006 C 
BRANCH  12  13
ATOM     13  C   UNL     1      -5.631   2.873   8.626  1.00  0.00     0.053 C 
BRANCH  13  14
ATOM     14  C   UNL     1      -4.421   2.303   7.952  1.00  0.00     0.041 C 
ATOM     15  O   UNL     1      -4.480   1.934   6.749  1.00  0.00    -0.550 OA
ATOM     16  O   UNL     1      -3.236   2.146   8.663  1.00  0.00    -0.550 OA
ENDBRANCH  13  14
ENDBRANCH  12  13
ENDBRANCH  11  12
ENDBRANCH  10  11
ENDBRANCH   9  10
ENDBRANCH   8   9
ENDBRANCH   7   8
ENDBRANCH   6   7
ENDBRANCH   5   6
ENDBRANCH   4   5
ENDBRANCH   3   4
ENDBRANCH   2   3
ENDBRANCH   1   2
BRANCH   1  17
ATOM     17  C   UNL     1      -0.788   1.902   1.196  1.00  0.00     0.000 C 
BRANCH  17  18
ATOM     18  C   UNL     1       0.728   2.064   1.029  1.00  0.00     0.000 C 
BRANCH  18  19
ATOM     19  C   UNL     1       1.108   3.177   0.036  1.00  0.00     0.000 C 
BRANCH  19  20
ATOM     20  C   UNL     1       2.545   3.057  -0.512  1.00  0.00     0.000 C 
BRANCH  20  21
ATOM     21  C   UNL     1       3.174   4.431  -0.795  1.00  0.00     0.000 C 
BRANCH  21  22
ATOM     22  C   UNL     1       2.131   5.507  -1.138  1.00  0.00    -0.000 C 
BRANCH  22  23
ATOM     23  C   UNL     1       2.721   6.932  -1.222  1.00  0.00    -0.000 C 
BRANCH  23  24
ATOM     24  C   UNL     1       1.644   7.992  -1.511  1.00  0.00    -0.000 C 
BRANCH  24  25
ATOM     25  C   UNL     1       0.225   7.492  -1.162  1.00  0.00    -0.000 C 
BRANCH  25  26
ATOM     26  C   UNL     1      -0.784   7.631  -2.315  1.00  0.00    -0.000 C 
BRANCH  26  27
ATOM     27  C   UNL     1      -1.959   8.562  -1.971  1.00  0.00    -0.000 C 
BRANCH  27  28
ATOM     28  C   UNL     1      -2.274   8.598  -0.463  1.00  0.00    -0.000 C 
BRANCH  28  29
ATOM     29  C   UNL     1      -3.771   8.676  -0.117  1.00  0.00    -0.003 C 
ATOM     30  C   UNL     1      -4.671   8.679  -1.353  1.00  0.00     0.004 C 
ENDBRANCH  28  29
ENDBRANCH  27  28
ENDBRANCH  26  27
ENDBRANCH  25  26
ENDBRANCH  24  25
ENDBRANCH  23  24
ENDBRANCH  22  23
ENDBRANCH  21  22
ENDBRANCH  20  21
ENDBRANCH  19  20
ENDBRANCH  18  19
ENDBRANCH  17  18
ENDBRANCH   1  17
TORSDOF 26
ENDMDL
MODEL 6
REMARK VINA RESULT:    10.313      2.877      9.451
REMARK INTER + INTRA:          25.371
REMARK INTER:                  26.581
REMARK INTRA:                  -1.210
REMARK UNBOUND:                -0.619
REMARK SMILES CCCCCCCCCCCCCCCCCCCCCCCCCCCC(=O)[O-]
REMARK SMILES IDX 15 1 16 2 17 3 18 4 19 5 20 6 21 7 22 8 23 9 24 10 25 11
REMARK SMILES IDX 26 12 27 13 28 14 29 15 30 16 14 17 13 18 12 19 11 20 10 21
REMARK SMILES IDX 9 22 8 23 7 24 6 25 5 26 4 27 3 28 2 29 1 30
REMARK H PARENT
REMARK Flexibility Score: inf
ROOT
ATOM      1  C   UNL     1       0.150   0.487   0.721  1.00  0.00     0.000 C 
ENDROOT
BRANCH   1   2
ATOM      2  C   UNL     1      -0.267   1.336   1.931  1.00  0.00     0.000 C 
BRANCH   2   3
ATOM      3  C   UNL     1      -1.707   1.870   1.817  1.00  0.00     0.000 C 
BRANCH   3   4
ATOM      4  C   UNL     1      -1.972   3.052   2.771  1.00  0.00     0.000 C 
BRANCH   4   5
ATOM      5  C   UNL     1      -3.239   2.889   3.635  1.00  0.00     0.000 C 
BRANCH   5   6
ATOM      6  C   UNL     1      -3.057   3.309   5.107  1.00  0.00     0.000 C 
BRANCH   6   7
ATOM      7  C   UNL     1      -3.798   2.377   6.078  1.00  0.00     0.000 C 
BRANCH   7   8
ATOM      8  C   UNL     1      -3.687   2.888   7.522  1.00  0.00     0.000 C 
BRANCH   8   9
ATOM      9  C   UNL     1      -4.866   2.445   8.408  1.00  0.00     0.000 C 
BRANCH   9  10
ATOM     10  C   UNL     1      -5.875   3.557   8.749  1.00  0.00     0.000 C 
BRANCH  10  11
ATOM     11  C   UNL     1      -5.552   4.277  10.066  1.00  0.00     0.000 C 
BRANCH  11  12
ATOM     12  C   UNL     1      -5.060   5.709   9.804  1.00  0.00     0.006 C 
BRANCH  12  13
ATOM     13  C   UNL     1      -3.529   5.808   9.822  1.00  0.00     0.053 C 
BRANCH  13  14
ATOM     14  C   UNL     1      -2.984   6.222   8.490  1.00  0.00     0.041 C 
ATOM     15  O   UNL     1      -3.667   6.053   7.445  1.00  0.00    -0.550 OA
ATOM     16  O   UNL     1      -1.707   6.763   8.397  1.00  0.00    -0.550 OA
ENDBRANCH  13  14
ENDBRANCH  12  13
ENDBRANCH  11  12
ENDBRANCH  10  11
ENDBRANCH   9  10
ENDBRANCH   8   9
ENDBRANCH   7   8
ENDBRANCH   6   7
ENDBRANCH   5   6
ENDBRANCH   4   5
ENDBRANCH   3   4
ENDBRANCH   2   3
ENDBRANCH   1   2
BRANCH   1  17
ATOM     17  C   UNL     1       1.675   0.367   0.577  1.00  0.00     0.000 C 
BRANCH  17  18
ATOM     18  C   UNL     1       2.161   1.038  -0.715  1.00  0.00     0.000 C 
BRANCH  18  19
ATOM     19  C   UNL     1       3.421   1.896  -0.509  1.00  0.00     0.000 C 
BRANCH  19  20
ATOM     20  C   UNL     1       3.382   3.247  -1.254  1.00  0.00     0.000 C 
BRANCH  20  21
ATOM     21  C   UNL     1       2.991   4.409  -0.327  1.00  0.00     0.000 C 
BRANCH  21  22
ATOM     22  C   UNL     1       2.872   5.752  -1.068  1.00  0.00    -0.000 C 
BRANCH  22  23
ATOM     23  C   UNL     1       1.433   6.312  -1.101  1.00  0.00    -0.000 C 
BRANCH  23  24
ATOM     24  C   UNL     1       1.398   7.806  -1.466  1.00  0.00    -0.000 C 
BRANCH  24  25
ATOM     25  C   UNL     1       0.023   8.240  -2.019  1.00  0.00    -0.000 C 
BRANCH  25  26
ATOM     26  C   UNL     1      -1.170   7.655  -1.245  1.00  0.00    -0.000 C 
BRANCH  26  27
ATOM     27  C   UNL     1      -1.981   8.728  -0.498  1.00  0.00    -0.000 C 
BRANCH  27  28
ATOM     28  C   UNL     1      -3.401   8.259  -0.131  1.00  0.00    -0.000 C 
BRANCH  28  29
ATOM     29  C   UNL     1      -4.519   8.816  -1.031  1.00  0.00    -0.003 C 
ATOM     30  C   UNL     1      -4.056   9.086  -2.462  1.00  0.00     0.004 C 
ENDBRANCH  28  29
ENDBRANCH  27  28
ENDBRANCH  26  27
ENDBRANCH  25  26
ENDBRANCH  24  25
ENDBRANCH  23  24
ENDBRANCH  22  23
ENDBRANCH  21  22
ENDBRANCH  20  21
ENDBRANCH  19  20
ENDBRANCH  18  19
ENDBRANCH  17  18
ENDBRANCH   1  17
TORSDOF 26
ENDMDL
MODEL 7
REMARK VINA RESULT:    10.354      3.429      8.976
REMARK INTER + INTRA:          25.473
REMARK INTER:                  25.532
REMARK INTRA:                  -0.060
REMARK UNBOUND:                -0.619
REMARK SMILES CCCCCCCCCCCCCCCCCCCCCCCCCCCC(=O)[O-]
REMARK SMILES IDX 15 1 16 2 17 3 18 4 19 5 20 6 21 7 22 8 23 9 24 10 25 11
REMARK SMILES IDX 26 12 27 13 28 14 29 15 30 16 14 17 13 18 12 19 11 20 10 21
REMARK SMILES IDX 9 22 8 23 7 24 6 25 5 26 4 27 3 28 2 29 1 30
REMARK H PARENT
REMARK Flexibility Score: inf
ROOT
ATOM      1  C   UNL     1       2.189   1.069  -0.816  1.00  0.00     0.000 C 
ENDROOT
BRANCH   1   2
ATOM      2  C   UNL     1       1.211   0.796   0.337  1.00  0.00     0.000 C 
BRANCH   2   3
ATOM      3  C   UNL     1       0.515   2.072   0.843  1.00  0.00     0.000 C 
BRANCH   3   4
ATOM      4  C   UNL     1      -1.001   1.873   1.044  1.00  0.00     0.000 C 
BRANCH   4   5
ATOM      5  C   UNL     1      -1.471   2.067   2.500  1.00  0.00     0.000 C 
BRANCH   5   6
ATOM      6  C   UNL     1      -2.706   2.978   2.647  1.00  0.00     0.000 C 
BRANCH   6   7
ATOM      7  C   UNL     1      -3.197   3.072   4.100  1.00  0.00     0.000 C 
BRANCH   7   8
ATOM      8  C   UNL     1      -2.635   4.322   4.791  1.00  0.00     0.000 C 
BRANCH   8   9
ATOM      9  C   UNL     1      -3.662   5.012   5.709  1.00  0.00     0.000 C 
BRANCH   9  10
ATOM     10  C   UNL     1      -3.062   5.710   6.944  1.00  0.00     0.000 C 
BRANCH  10  11
ATOM     11  C   UNL     1      -3.174   4.868   8.223  1.00  0.00     0.000 C 
BRANCH  11  12
ATOM     12  C   UNL     1      -3.995   3.594   7.972  1.00  0.00     0.006 C 
BRANCH  12  13
ATOM     13  C   UNL     1      -4.711   3.106   9.239  1.00  0.00     0.053 C 
BRANCH  13  14
ATOM     14  C   UNL     1      -5.996   3.841   9.467  1.00  0.00     0.041 C 
ATOM     15  O   UNL     1      -5.999   4.935  10.091  1.00  0.00    -0.550 OA
ATOM     16  O   UNL     1      -7.197   3.300   9.021  1.00  0.00    -0.550 OA
ENDBRANCH  13  14
ENDBRANCH  12  13
ENDBRANCH  11  12
ENDBRANCH  10  11
ENDBRANCH   9  10
ENDBRANCH   8   9
ENDBRANCH   7   8
ENDBRANCH   6   7
ENDBRANCH   5   6
ENDBRANCH   4   5
ENDBRANCH   3   4
ENDBRANCH   2   3
ENDBRANCH   1   2
BRANCH   1  17
ATOM     17  C   UNL     1       3.348   1.990  -0.406  1.00  0.00     0.000 C 
BRANCH  17  18
ATOM     18  C   UNL     1       3.346   3.282  -1.235  1.00  0.00     0.000 C 
BRANCH  18  19
ATOM     19  C   UNL     1       3.365   4.552  -0.367  1.00  0.00     0.000 C 
BRANCH  19  20
ATOM     20  C   UNL     1       3.009   5.839  -1.142  1.00  0.00     0.000 C 
BRANCH  20  21
ATOM     21  C   UNL     1       1.500   6.131  -1.118  1.00  0.00     0.000 C 
BRANCH  21  22
ATOM     22  C   UNL     1       1.144   7.489  -1.746  1.00  0.00    -0.000 C 
BRANCH  22  23
ATOM     23  C   UNL     1      -0.372   7.685  -1.970  1.00  0.00    -0.000 C 
BRANCH  23  24
ATOM     24  C   UNL     1      -1.052   8.375  -0.775  1.00  0.00    -0.000 C 
BRANCH  24  25
ATOM     25  C   UNL     1      -2.588   8.218  -0.808  1.00  0.00    -0.000 C 
BRANCH  25  26
ATOM     26  C   UNL     1      -3.272   8.517   0.537  1.00  0.00    -0.000 C 
BRANCH  26  27
ATOM     27  C   UNL     1      -4.190   9.750   0.479  1.00  0.00    -0.000 C 
BRANCH  27  28
ATOM     28  C   UNL     1      -5.072   9.782  -0.783  1.00  0.00    -0.000 C 
BRANCH  28  29
ATOM     29  C   UNL     1      -4.343   9.427  -2.091  1.00  0.00    -0.003 C 
ATOM     30  C   UNL     1      -5.270   9.407  -3.306  1.00  0.00     0.004 C 
ENDBRANCH  28  29
ENDBRANCH  27  28
ENDBRANCH  26  27
ENDBRANCH  25  26
ENDBRANCH  24  25
ENDBRANCH  23  24
ENDBRANCH  22  23
ENDBRANCH  21  22
ENDBRANCH  20  21
ENDBRANCH  19  20
ENDBRANCH  18  19
ENDBRANCH  17  18
ENDBRANCH   1  17
TORSDOF 26
ENDMDL
MODEL 8
REMARK VINA RESULT:    10.913      3.424      9.060
REMARK INTER + INTRA:          26.881
REMARK INTER:                  27.922
REMARK INTRA:                  -1.042
REMARK UNBOUND:                -0.619
REMARK SMILES CCCCCCCCCCCCCCCCCCCCCCCCCCCC(=O)[O-]
REMARK SMILES IDX 15 1 16 2 17 3 18 4 19 5 20 6 21 7 22 8 23 9 24 10 25 11
REMARK SMILES IDX 26 12 27 13 28 14 29 15 30 16 14 17 13 18 12 19 11 20 10 21
REMARK SMILES IDX 9 22 8 23 7 24 6 25 5 26 4 27 3 28 2 29 1 30
REMARK H PARENT
REMARK Flexibility Score: inf
ROOT
ATOM      1  C   UNL     1       1.211   0.462  -0.126  1.00  0.00     0.000 C 
ENDROOT
BRANCH   1   2
ATOM      2  C   UNL     1       0.575   0.706   1.251  1.00  0.00     0.000 C 
BRANCH   2   3
ATOM      3  C   UNL     1      -0.272   1.990   1.297  1.00  0.00     0.000 C 
BRANCH   3   4
ATOM      4  C   UNL     1      -1.628   1.774   1.999  1.00  0.00     0.000 C 
BRANCH   4   5
ATOM      5  C   UNL     1      -2.327   3.079   2.431  1.00  0.00     0.000 C 
BRANCH   5   6
ATOM      6  C   UNL     1      -2.950   3.024   3.839  1.00  0.00     0.000 C 
BRANCH   6   7
ATOM      7  C   UNL     1      -2.367   4.090   4.781  1.00  0.00     0.000 C 
BRANCH   7   8
ATOM      8  C   UNL     1      -3.406   5.179   5.087  1.00  0.00     0.000 C 
BRANCH   8   9
ATOM      9  C   UNL     1      -3.434   5.578   6.574  1.00  0.00     0.000 C 
BRANCH   9  10
ATOM     10  C   UNL     1      -3.660   4.413   7.556  1.00  0.00     0.000 C 
BRANCH  10  11
ATOM     11  C   UNL     1      -4.300   4.858   8.879  1.00  0.00     0.000 C 
BRANCH  11  12
ATOM     12  C   UNL     1      -3.721   6.203   9.345  1.00  0.00     0.006 C 
BRANCH  12  13
ATOM     13  C   UNL     1      -2.219   6.113   9.649  1.00  0.00     0.053 C 
BRANCH  13  14
ATOM     14  C   UNL     1      -1.611   7.467   9.850  1.00  0.00     0.041 C 
ATOM     15  O   UNL     1      -2.348   8.470  10.047  1.00  0.00    -0.550 OA
ATOM     16  O   UNL     1      -0.232   7.629   9.787  1.00  0.00    -0.550 OA
ENDBRANCH  13  14
ENDBRANCH  12  13
ENDBRANCH  11  12
ENDBRANCH  10  11
ENDBRANCH   9  10
ENDBRANCH   8   9
ENDBRANCH   7   8
ENDBRANCH   6   7
ENDBRANCH   5   6
ENDBRANCH   4   5
ENDBRANCH   3   4
ENDBRANCH   2   3
ENDBRANCH   1   2
BRANCH   1  17
ATOM     17  C   UNL     1       2.670   0.939  -0.199  1.00  0.00     0.000 C 
BRANCH  17  18
ATOM     18  C   UNL     1       2.806   2.158  -1.121  1.00  0.00     0.000 C 
BRANCH  18  19
ATOM     19  C   UNL     1       3.249   3.429  -0.376  1.00  0.00     0.000 C 
BRANCH  19  20
ATOM     20  C   UNL     1       2.369   4.662  -0.672  1.00  0.00     0.000 C 
BRANCH  20  21
ATOM     21  C   UNL     1       3.170   5.805  -1.315  1.00  0.00     0.000 C 
BRANCH  21  22
ATOM     22  C   UNL     1       2.364   7.110  -1.428  1.00  0.00    -0.000 C 
BRANCH  22  23
ATOM     23  C   UNL     1       0.877   6.952  -1.041  1.00  0.00    -0.000 C 
BRANCH  23  24
ATOM     24  C   UNL     1       0.025   8.145  -1.505  1.00  0.00    -0.000 C 
BRANCH  24  25
ATOM     25  C   UNL     1      -1.441   7.743  -1.781  1.00  0.00    -0.000 C 
BRANCH  25  26
ATOM     26  C   UNL     1      -2.296   8.878  -2.369  1.00  0.00    -0.000 C 
BRANCH  26  27
ATOM     27  C   UNL     1      -3.806   8.635  -2.203  1.00  0.00    -0.000 C 
BRANCH  27  28
ATOM     28  C   UNL     1      -4.349   9.131  -0.850  1.00  0.00    -0.000 C 
BRANCH  28  29
ATOM     29  C   UNL     1      -3.344   9.065   0.313  1.00  0.00    -0.003 C 
ATOM     30  C   UNL     1      -3.679  10.032   1.449  1.00  0.00     0.004 C 
ENDBRANCH  28  29
ENDBRANCH  27  28
ENDBRANCH  26  27
ENDBRANCH  25  26
ENDBRANCH  24  25
ENDBRANCH  23  24
ENDBRANCH  22  23
ENDBRANCH  21  22
ENDBRANCH  20  21
ENDBRANCH  19  20
ENDBRANCH  18  19
ENDBRANCH  17  18
ENDBRANCH   1  17
TORSDOF 26
ENDMDL
MODEL 9
REMARK VINA RESULT:    11.074      1.220      3.668
REMARK INTER + INTRA:          27.288
REMARK INTER:                  28.403
REMARK INTRA:                  -1.114
REMARK UNBOUND:                -0.619
REMARK SMILES CCCCCCCCCCCCCCCCCCCCCCCCCCCC(=O)[O-]
REMARK SMILES IDX 15 1 16 2 17 3 18 4 19 5 20 6 21 7 22 8 23 9 24 10 25 11
REMARK SMILES IDX 26 12 27 13 28 14 29 15 30 16 14 17 13 18 12 19 11 20 10 21
REMARK SMILES IDX 9 22 8 23 7 24 6 25 5 26 4 27 3 28 2 29 1 30
REMARK H PARENT
REMARK Flexibility Score: inf
ROOT
ATOM      1  C   UNL     1      -1.974   3.507   3.395  1.00  0.00     0.000 C 
ENDROOT
BRANCH   1   2
ATOM      2  C   UNL     1      -2.095   2.212   2.577  1.00  0.00     0.000 C 
BRANCH   2   3
ATOM      3  C   UNL     1      -1.457   2.327   1.181  1.00  0.00     0.000 C 
BRANCH   3   4
ATOM      4  C   UNL     1       0.062   2.583   1.250  1.00  0.00     0.000 C 
BRANCH   4   5
ATOM      5  C   UNL     1       0.576   3.602   0.212  1.00  0.00     0.000 C 
BRANCH   5   6
ATOM      6  C   UNL     1       2.111   3.652   0.086  1.00  0.00     0.000 C 
BRANCH   6   7
ATOM      7  C   UNL     1       2.595   4.880  -0.701  1.00  0.00     0.000 C 
BRANCH   7   8
ATOM      8  C   UNL     1       1.407   5.700  -1.225  1.00  0.00     0.000 C 
BRANCH   8   9
ATOM      9  C   UNL     1       1.636   7.220  -1.124  1.00  0.00     0.000 C 
BRANCH   9  10
ATOM     10  C   UNL     1       0.591   8.084  -1.854  1.00  0.00     0.000 C 
BRANCH  10  11
ATOM     11  C   UNL     1      -0.852   7.625  -1.598  1.00  0.00     0.000 C 
BRANCH  11  12
ATOM     12  C   UNL     1      -1.720   8.792  -1.102  1.00  0.00     0.006 C 
BRANCH  12  13
ATOM     13  C   UNL     1      -3.063   8.314  -0.535  1.00  0.00     0.053 C 
BRANCH  13  14
ATOM     14  C   UNL     1      -4.218   9.035  -1.159  1.00  0.00     0.041 C 
ATOM     15  O   UNL     1      -4.519   8.827  -2.364  1.00  0.00    -0.550 OA
ATOM     16  O   UNL     1      -4.942   9.964  -0.419  1.00  0.00    -0.550 OA
ENDBRANCH  13  14
ENDBRANCH  12  13
ENDBRANCH  11  12
ENDBRANCH  10  11
ENDBRANCH   9  10
ENDBRANCH   8   9
ENDBRANCH   7   8
ENDBRANCH   6   7
ENDBRANCH   5   6
ENDBRANCH   4   5
ENDBRANCH   3   4
ENDBRANCH   2   3
ENDBRANCH   1   2
BRANCH   1  17
ATOM     17  C   UNL     1      -2.914   3.533   4.610  1.00  0.00     0.000 C 
BRANCH  17  18
ATOM     18  C   UNL     1      -2.987   4.939   5.221  1.00  0.00     0.000 C 
BRANCH  18  19
ATOM     19  C   UNL     1      -3.063   4.923   6.757  1.00  0.00     0.000 C 
BRANCH  19  20
ATOM     20  C   UNL     1      -3.209   6.325   7.386  1.00  0.00     0.000 C 
BRANCH  20  21
ATOM     21  C   UNL     1      -2.605   6.392   8.799  1.00  0.00     0.000 C 
BRANCH  21  22
ATOM     22  C   UNL     1      -3.498   5.732   9.863  1.00  0.00    -0.000 C 
BRANCH  22  23
ATOM     23  C   UNL     1      -4.940   6.286   9.887  1.00  0.00    -0.000 C 
BRANCH  23  24
ATOM     24  C   UNL     1      -5.989   5.172  10.041  1.00  0.00    -0.000 C 
BRANCH  24  25
ATOM     25  C   UNL     1      -5.345   3.771  10.125  1.00  0.00    -0.000 C 
BRANCH  25  26
ATOM     26  C   UNL     1      -5.547   2.917   8.862  1.00  0.00    -0.000 C 
BRANCH  26  27
ATOM     27  C   UNL     1      -4.327   2.938   7.925  1.00  0.00    -0.000 C 
BRANCH  27  28
ATOM     28  C   UNL     1      -3.716   1.541   7.705  1.00  0.00    -0.000 C 
BRANCH  28  29
ATOM     29  C   UNL     1      -2.341   1.326   8.361  1.00  0.00    -0.003 C 
ATOM     30  C   UNL     1      -1.870  -0.126   8.301  1.00  0.00     0.004 C 
ENDBRANCH  28  29
ENDBRANCH  27  28
ENDBRANCH  26  27
ENDBRANCH  25  26
ENDBRANCH  24  25
ENDBRANCH  23  24
ENDBRANCH  22  23
ENDBRANCH  21  22
ENDBRANCH  20  21
ENDBRANCH  19  20
ENDBRANCH  18  19
ENDBRANCH  17  18
ENDBRANCH   1  17
TORSDOF 26
ENDMDL
