MODEL 1
REMARK VINA RESULT:    -3.714      0.000      0.000
REMARK INTER + INTRA:          -8.182
REMARK INTER:                  -6.320
REMARK INTRA:                  -1.862
REMARK UNBOUND:                -1.862
REMARK SMILES CCCCCCCCCCCCCC(=O)[O-]
REMARK SMILES IDX 8 1 9 2 10 3 11 4 12 5 13 6 14 7 15 8 16 9 7 10 6 11 5 12
REMARK SMILES IDX 4 13 3 14 2 15 1 16
REMARK H PARENT
REMARK Flexibility Score: inf
ROOT
ATOM      1  C   UNL     1       1.413  13.051   7.763  1.00  0.00     0.000 C 
ENDROOT
BRANCH   1   2
ATOM      2  C   UNL     1       2.773  13.668   7.395  1.00  0.00     0.000 C 
BRANCH   2   3
ATOM      3  C   UNL     1       3.954  12.889   7.998  1.00  0.00     0.000 C 
BRANCH   3   4
ATOM      4  C   UNL     1       3.579  11.452   8.403  1.00  0.00     0.000 C 
BRANCH   4   5
ATOM      5  C   UNL     1       4.569  10.761   9.364  1.00  0.00     0.006 C 
BRANCH   5   6
ATOM      6  C   UNL     1       5.921  10.396   8.732  1.00  0.00     0.053 C 
BRANCH   6   7
ATOM      7  C   UNL     1       7.059  10.619   9.679  1.00  0.00     0.041 C 
ATOM      8  O   UNL     1       6.897  10.453  10.917  1.00  0.00    -0.550 OA
ATOM      9  O   UNL     1       8.292  11.043   9.197  1.00  0.00    -0.550 OA
ENDBRANCH   6   7
ENDBRANCH   5   6
ENDBRANCH   4   5
ENDBRANCH   3   4
ENDBRANCH   2   3
ENDBRANCH   1   2
BRANCH   1  10
ATOM     10  C   UNL     1       0.767  13.735   8.979  1.00  0.00     0.000 C 
BRANCH  10  11
ATOM     11  C   UNL     1       1.445  15.068   9.347  1.00  0.00    -0.000 C 
BRANCH  11  12
ATOM     12  C   UNL     1       2.212  15.062  10.681  1.00  0.00    -0.000 C 
BRANCH  12  13
ATOM     13  C   UNL     1       2.072  13.740  11.449  1.00  0.00    -0.000 C 
BRANCH  13  14
ATOM     14  C   UNL     1       3.445  13.216  11.895  1.00  0.00    -0.000 C 
BRANCH  14  15
ATOM     15  C   UNL     1       4.531  14.302  11.868  1.00  0.00    -0.003 C 
ATOM     16  C   UNL     1       5.784  13.867  11.110  1.00  0.00     0.004 C 
ENDBRANCH  14  15
ENDBRANCH  13  14
ENDBRANCH  12  13
ENDBRANCH  11  12
ENDBRANCH  10  11
ENDBRANCH   1  10
TORSDOF 12
ENDMDL
MODEL 2
REMARK VINA RESULT:    -3.711      0.927      3.478
REMARK INTER + INTRA:          -8.177
REMARK INTER:                  -6.376
REMARK INTRA:                  -1.801
REMARK UNBOUND:                -1.862
REMARK SMILES CCCCCCCCCCCCCC(=O)[O-]
REMARK SMILES IDX 8 1 9 2 10 3 11 4 12 5 13 6 14 7 15 8 16 9 7 10 6 11 5 12
REMARK SMILES IDX 4 13 3 14 2 15 1 16
REMARK H PARENT
REMARK Flexibility Score: inf
ROOT
ATOM      1  C   UNL     1       2.180  13.834  11.797  1.00  0.00     0.000 C 
ENDROOT
BRANCH   1   2
ATOM      2  C   UNL     1       3.574  13.405  12.285  1.00  0.00     0.000 C 
BRANCH   2   3
ATOM      3  C   UNL     1       4.653  14.458  11.982  1.00  0.00     0.000 C 
BRANCH   3   4
ATOM      4  C   UNL     1       5.749  13.935  11.035  1.00  0.00     0.000 C 
BRANCH   4   5
ATOM      5  C   UNL     1       6.316  12.545  11.393  1.00  0.00     0.006 C 
BRANCH   5   6
ATOM      6  C   UNL     1       7.827  12.394  11.157  1.00  0.00     0.053 C 
BRANCH   6   7
ATOM      7  C   UNL     1       8.149  11.162  10.368  1.00  0.00     0.041 C 
ATOM      8  O   UNL     1       8.883  11.237   9.347  1.00  0.00    -0.550 OA
ATOM      9  O   UNL     1       7.612   9.936  10.742  1.00  0.00    -0.550 OA
ENDBRANCH   6   7
ENDBRANCH   5   6
ENDBRANCH   4   5
ENDBRANCH   3   4
ENDBRANCH   2   3
ENDBRANCH   1   2
BRANCH   1  10
ATOM     10  C   UNL     1       2.244  14.966  10.759  1.00  0.00     0.000 C 
BRANCH  10  11
ATOM     11  C   UNL     1       1.203  14.808   9.634  1.00  0.00    -0.000 C 
BRANCH  11  12
ATOM     12  C   UNL     1       1.536  13.733   8.584  1.00  0.00    -0.000 C 
BRANCH  12  13
ATOM     13  C   UNL     1       2.879  13.976   7.880  1.00  0.00    -0.000 C 
BRANCH  13  14
ATOM     14  C   UNL     1       3.778  12.734   7.970  1.00  0.00    -0.000 C 
BRANCH  14  15
ATOM     15  C   UNL     1       3.241  11.685   8.955  1.00  0.00    -0.003 C 
ATOM     16  C   UNL     1       4.178  10.488   9.113  1.00  0.00     0.004 C 
ENDBRANCH  14  15
ENDBRANCH  13  14
ENDBRANCH  12  13
ENDBRANCH  11  12
ENDBRANCH  10  11
ENDBRANCH   1  10
TORSDOF 12
ENDMDL
MODEL 3
REMARK VINA RESULT:    -3.674      1.811      2.775
REMARK INTER + INTRA:          -8.113
REMARK INTER:                  -6.579
REMARK INTRA:                  -1.534
REMARK UNBOUND:                -1.862
REMARK SMILES CCCCCCCCCCCCCC(=O)[O-]
REMARK SMILES IDX 8 1 9 2 10 3 11 4 12 5 13 6 14 7 15 8 16 9 7 10 6 11 5 12
REMARK SMILES IDX 4 13 3 14 2 15 1 16
REMARK H PARENT
REMARK Flexibility Score: inf
ROOT
ATOM      1  C   UNL     1       0.682  14.688   9.382  1.00  0.00     0.000 C 
ENDROOT
BRANCH   1   2
ATOM      2  C   UNL     1       1.112  13.705   8.280  1.00  0.00     0.000 C 
BRANCH   2   3
ATOM      3  C   UNL     1       2.421  14.129   7.593  1.00  0.00     0.000 C 
BRANCH   3   4
ATOM      4  C   UNL     1       3.434  12.975   7.472  1.00  0.00     0.000 C 
BRANCH   4   5
ATOM      5  C   UNL     1       4.065  12.513   8.802  1.00  0.00     0.006 C 
BRANCH   5   6
ATOM      6  C   UNL     1       3.477  11.212   9.368  1.00  0.00     0.053 C 
BRANCH   6   7
ATOM      7  C   UNL     1       3.906  10.014   8.579  1.00  0.00     0.041 C 
ATOM      8  O   UNL     1       5.118   9.670   8.556  1.00  0.00    -0.550 OA
ATOM      9  O   UNL     1       2.972   9.296   7.841  1.00  0.00    -0.550 OA
ENDBRANCH   6   7
ENDBRANCH   5   6
ENDBRANCH   4   5
ENDBRANCH   3   4
ENDBRANCH   2   3
ENDBRANCH   1   2
BRANCH   1  10
ATOM     10  C   UNL     1       1.881  15.293  10.130  1.00  0.00     0.000 C 
BRANCH  10  11
ATOM     11  C   UNL     1       2.350  14.426  11.313  1.00  0.00    -0.000 C 
BRANCH  11  12
ATOM     12  C   UNL     1       3.597  14.945  12.049  1.00  0.00    -0.000 C 
BRANCH  12  13
ATOM     13  C   UNL     1       4.649  13.853  12.294  1.00  0.00    -0.000 C 
BRANCH  13  14
ATOM     14  C   UNL     1       5.854  14.032  11.358  1.00  0.00    -0.000 C 
BRANCH  14  15
ATOM     15  C   UNL     1       6.720  12.768  11.260  1.00  0.00    -0.003 C 
ATOM     16  C   UNL     1       6.225  11.639  12.164  1.00  0.00     0.004 C 
ENDBRANCH  14  15
ENDBRANCH  13  14
ENDBRANCH  12  13
ENDBRANCH  11  12
ENDBRANCH  10  11
ENDBRANCH   1  10
TORSDOF 12
ENDMDL
MODEL 4
REMARK VINA RESULT:    -3.658      2.295      2.846
REMARK INTER + INTRA:          -8.086
REMARK INTER:                  -6.301
REMARK INTRA:                  -1.785
REMARK UNBOUND:                -1.862
REMARK SMILES CCCCCCCCCCCCCC(=O)[O-]
REMARK SMILES IDX 8 1 9 2 10 3 11 4 12 5 13 6 14 7 15 8 16 9 7 10 6 11 5 12
REMARK SMILES IDX 4 13 3 14 2 15 1 16
REMARK H PARENT
REMARK Flexibility Score: inf
ROOT
ATOM      1  C   UNL     1       1.802  14.562   8.367  1.00  0.00     0.000 C 
ENDROOT
BRANCH   1   2
ATOM      2  C   UNL     1       2.474  13.342   7.715  1.00  0.00     0.000 C 
BRANCH   2   3
ATOM      3  C   UNL     1       3.880  13.074   8.278  1.00  0.00     0.000 C 
BRANCH   3   4
ATOM      4  C   UNL     1       4.311  11.603   8.137  1.00  0.00     0.000 C 
BRANCH   4   5
ATOM      5  C   UNL     1       4.425  10.823   9.463  1.00  0.00     0.006 C 
BRANCH   5   6
ATOM      6  C   UNL     1       3.183  10.910  10.363  1.00  0.00     0.053 C 
BRANCH   6   7
ATOM      7  C   UNL     1       2.077  10.024   9.878  1.00  0.00     0.041 C 
ATOM      8  O   UNL     1       0.888  10.440   9.872  1.00  0.00    -0.550 OA
ATOM      9  O   UNL     1       2.356   8.727   9.463  1.00  0.00    -0.550 OA
ENDBRANCH   6   7
ENDBRANCH   5   6
ENDBRANCH   4   5
ENDBRANCH   3   4
ENDBRANCH   2   3
ENDBRANCH   1   2
BRANCH   1  10
ATOM     10  C   UNL     1       0.850  14.168   9.509  1.00  0.00     0.000 C 
BRANCH  10  11
ATOM     11  C   UNL     1       1.586  13.880  10.830  1.00  0.00    -0.000 C 
BRANCH  11  12
ATOM     12  C   UNL     1       2.647  14.923  11.227  1.00  0.00    -0.000 C 
BRANCH  12  13
ATOM     13  C   UNL     1       3.233  14.681  12.626  1.00  0.00    -0.000 C 
BRANCH  13  14
ATOM     14  C   UNL     1       4.457  13.755  12.555  1.00  0.00    -0.000 C 
BRANCH  14  15
ATOM     15  C   UNL     1       5.347  14.044  11.336  1.00  0.00    -0.003 C 
ATOM     16  C   UNL     1       6.610  13.184  11.309  1.00  0.00     0.004 C 
ENDBRANCH  14  15
ENDBRANCH  13  14
ENDBRANCH  12  13
ENDBRANCH  11  12
ENDBRANCH  10  11
ENDBRANCH   1  10
TORSDOF 12
ENDMDL
MODEL 5
REMARK VINA RESULT:    -3.601      3.416      6.046
REMARK INTER + INTRA:          -7.990
REMARK INTER:                  -6.672
REMARK INTRA:                  -1.318
REMARK UNBOUND:                -1.862
REMARK SMILES CCCCCCCCCCCCCC(=O)[O-]
REMARK SMILES IDX 8 1 9 2 10 3 11 4 12 5 13 6 14 7 15 8 16 9 7 10 6 11 5 12
REMARK SMILES IDX 4 13 3 14 2 15 1 16
REMARK H PARENT
REMARK Flexibility Score: inf
ROOT
ATOM      1  C   UNL     1       5.690  13.813  11.204  1.00  0.00     0.000 C 
ENDROOT
BRANCH   1   2
ATOM      2  C   UNL     1       4.923  13.928  12.532  1.00  0.00     0.000 C 
BRANCH   2   3
ATOM      3  C   UNL     1       3.830  15.009  12.488  1.00  0.00     0.000 C 
BRANCH   3   4
ATOM      4  C   UNL     1       2.509  14.500  11.883  1.00  0.00     0.000 C 
BRANCH   4   5
ATOM      5  C   UNL     1       2.119  15.135  10.532  1.00  0.00     0.006 C 
BRANCH   5   6
ATOM      6  C   UNL     1       2.259  14.197   9.323  1.00  0.00     0.053 C 
BRANCH   6   7
ATOM      7  C   UNL     1       0.927  13.787   8.775  1.00  0.00     0.041 C 
ATOM      8  O   UNL     1       0.855  12.913   7.871  1.00  0.00    -0.550 OA
ATOM      9  O   UNL     1      -0.233  14.393   9.241  1.00  0.00    -0.550 OA
ENDBRANCH   6   7
ENDBRANCH   5   6
ENDBRANCH   4   5
ENDBRANCH   3   4
ENDBRANCH   2   3
ENDBRANCH   1   2
BRANCH   1  10
ATOM     10  C   UNL     1       5.448  12.468  10.500  1.00  0.00     0.000 C 
BRANCH  10  11
ATOM     11  C   UNL     1       6.042  11.273  11.269  1.00  0.00    -0.000 C 
BRANCH  11  12
ATOM     12  C   UNL     1       7.260  10.609  10.602  1.00  0.00    -0.000 C 
BRANCH  12  13
ATOM     13  C   UNL     1       8.506  10.603  11.499  1.00  0.00    -0.000 C 
BRANCH  13  14
ATOM     14  C   UNL     1       8.742  11.988  12.119  1.00  0.00    -0.000 C 
BRANCH  14  15
ATOM     15  C   UNL     1       8.931  11.931  13.642  1.00  0.00    -0.003 C 
ATOM     16  C   UNL     1       7.611  12.024  14.406  1.00  0.00     0.004 C 
ENDBRANCH  14  15
ENDBRANCH  13  14
ENDBRANCH  12  13
ENDBRANCH  11  12
ENDBRANCH  10  11
ENDBRANCH   1  10
TORSDOF 12
ENDMDL
MODEL 6
REMARK VINA RESULT:    -3.596      2.102      3.859
REMARK INTER + INTRA:          -7.980
REMARK INTER:                  -6.072
REMARK INTRA:                  -1.908
REMARK UNBOUND:                -1.862
REMARK SMILES CCCCCCCCCCCCCC(=O)[O-]
REMARK SMILES IDX 8 1 9 2 10 3 11 4 12 5 13 6 14 7 15 8 16 9 7 10 6 11 5 12
REMARK SMILES IDX 4 13 3 14 2 15 1 16
REMARK H PARENT
REMARK Flexibility Score: inf
ROOT
ATOM      1  C   UNL     1       2.678  14.996  11.209  1.00  0.00     0.000 C 
ENDROOT
BRANCH   1   2
ATOM      2  C   UNL     1       1.763  14.980   9.972  1.00  0.00     0.000 C 
BRANCH   2   3
ATOM      3  C   UNL     1       1.841  13.651   9.201  1.00  0.00     0.000 C 
BRANCH   3   4
ATOM      4  C   UNL     1       3.012  13.608   8.201  1.00  0.00     0.000 C 
BRANCH   4   5
ATOM      5  C   UNL     1       4.051  12.496   8.454  1.00  0.00     0.006 C 
BRANCH   5   6
ATOM      6  C   UNL     1       3.514  11.289   9.238  1.00  0.00     0.053 C 
BRANCH   6   7
ATOM      7  C   UNL     1       3.120  10.164   8.333  1.00  0.00     0.041 C 
ATOM      8  O   UNL     1       3.863   9.153   8.217  1.00  0.00    -0.550 OA
ATOM      9  O   UNL     1       1.948  10.245   7.591  1.00  0.00    -0.550 OA
ENDBRANCH   6   7
ENDBRANCH   5   6
ENDBRANCH   4   5
ENDBRANCH   3   4
ENDBRANCH   2   3
ENDBRANCH   1   2
BRANCH   1  10
ATOM     10  C   UNL     1       2.581  13.699  12.028  1.00  0.00     0.000 C 
BRANCH  10  11
ATOM     11  C   UNL     1       3.959  13.129  12.413  1.00  0.00    -0.000 C 
BRANCH  11  12
ATOM     12  C   UNL     1       5.162  13.999  12.007  1.00  0.00    -0.000 C 
BRANCH  12  13
ATOM     13  C   UNL     1       6.269  13.201  11.304  1.00  0.00    -0.000 C 
BRANCH  13  14
ATOM     14  C   UNL     1       6.272  11.738  11.770  1.00  0.00    -0.000 C 
BRANCH  14  15
ATOM     15  C   UNL     1       7.495  10.958  11.263  1.00  0.00    -0.003 C 
ATOM     16  C   UNL     1       7.152   9.989  10.133  1.00  0.00     0.004 C 
ENDBRANCH  14  15
ENDBRANCH  13  14
ENDBRANCH  12  13
ENDBRANCH  11  12
ENDBRANCH  10  11
ENDBRANCH   1  10
TORSDOF 12
ENDMDL
MODEL 7
REMARK VINA RESULT:    -3.580      1.737      3.433
REMARK INTER + INTRA:          -7.954
REMARK INTER:                  -6.114
REMARK INTRA:                  -1.840
REMARK UNBOUND:                -1.862
REMARK SMILES CCCCCCCCCCCCCC(=O)[O-]
REMARK SMILES IDX 8 1 9 2 10 3 11 4 12 5 13 6 14 7 15 8 16 9 7 10 6 11 5 12
REMARK SMILES IDX 4 13 3 14 2 15 1 16
REMARK H PARENT
REMARK Flexibility Score: inf
ROOT
ATOM      1  C   UNL     1       2.148  15.282  10.730  1.00  0.00     0.000 C 
ENDROOT
BRANCH   1   2
ATOM      2  C   UNL     1       2.724  14.296  11.761  1.00  0.00     0.000 C 
BRANCH   2   3
ATOM      3  C   UNL     1       4.105  14.729  12.281  1.00  0.00     0.000 C 
BRANCH   3   4
ATOM      4  C   UNL     1       5.267  14.065  11.518  1.00  0.00     0.000 C 
BRANCH   4   5
ATOM      5  C   UNL     1       4.887  12.805  10.713  1.00  0.00     0.006 C 
BRANCH   5   6
ATOM      6  C   UNL     1       5.608  11.523  11.158  1.00  0.00     0.053 C 
BRANCH   6   7
ATOM      7  C   UNL     1       6.126  10.739   9.993  1.00  0.00     0.041 C 
ATOM      8  O   UNL     1       7.139  10.002  10.125  1.00  0.00    -0.550 OA
ATOM      9  O   UNL     1       5.511  10.847   8.752  1.00  0.00    -0.550 OA
ENDBRANCH   6   7
ENDBRANCH   5   6
ENDBRANCH   4   5
ENDBRANCH   3   4
ENDBRANCH   2   3
ENDBRANCH   1   2
BRANCH   1  10
ATOM     10  C   UNL     1       1.290  14.581   9.663  1.00  0.00     0.000 C 
BRANCH  10  11
ATOM     11  C   UNL     1       2.085  14.228   8.392  1.00  0.00    -0.000 C 
BRANCH  11  12
ATOM     12  C   UNL     1       2.327  12.724   8.171  1.00  0.00    -0.000 C 
BRANCH  12  13
ATOM     13  C   UNL     1       1.279  11.840   8.862  1.00  0.00    -0.000 C 
BRANCH  13  14
ATOM     14  C   UNL     1       1.953  10.739   9.695  1.00  0.00    -0.000 C 
BRANCH  14  15
ATOM     15  C   UNL     1       1.238  10.487  11.031  1.00  0.00    -0.003 C 
ATOM     16  C   UNL     1       2.173  10.607  12.234  1.00  0.00     0.004 C 
ENDBRANCH  14  15
ENDBRANCH  13  14
ENDBRANCH  12  13
ENDBRANCH  11  12
ENDBRANCH  10  11
ENDBRANCH   1  10
TORSDOF 12
ENDMDL
MODEL 8
REMARK VINA RESULT:    -3.579      3.029      4.993
REMARK INTER + INTRA:          -7.951
REMARK INTER:                  -6.053
REMARK INTRA:                  -1.898
REMARK UNBOUND:                -1.862
REMARK SMILES CCCCCCCCCCCCCC(=O)[O-]
REMARK SMILES IDX 8 1 9 2 10 3 11 4 12 5 13 6 14 7 15 8 16 9 7 10 6 11 5 12
REMARK SMILES IDX 4 13 3 14 2 15 1 16
REMARK H PARENT
REMARK Flexibility Score: inf
ROOT
ATOM      1  C   UNL     1       5.963  12.881  11.843  1.00  0.00     0.000 C 
ENDROOT
BRANCH   1   2
ATOM      2  C   UNL     1       5.665  11.678  10.932  1.00  0.00     0.000 C 
BRANCH   2   3
ATOM      3  C   UNL     1       4.300  11.794  10.233  1.00  0.00     0.000 C 
BRANCH   3   4
ATOM      4  C   UNL     1       4.167  13.075   9.389  1.00  0.00     0.000 C 
BRANCH   4   5
ATOM      5  C   UNL     1       3.618  12.866   7.962  1.00  0.00     0.006 C 
BRANCH   5   6
ATOM      6  C   UNL     1       2.670  13.973   7.476  1.00  0.00     0.053 C 
BRANCH   6   7
ATOM      7  C   UNL     1       1.543  14.205   8.434  1.00  0.00     0.041 C 
ATOM      8  O   UNL     1       1.394  15.332   8.977  1.00  0.00    -0.550 OA
ATOM      9  O   UNL     1       0.676  13.167   8.753  1.00  0.00    -0.550 OA
ENDBRANCH   6   7
ENDBRANCH   5   6
ENDBRANCH   4   5
ENDBRANCH   3   4
ENDBRANCH   2   3
ENDBRANCH   1   2
BRANCH   1  10
ATOM     10  C   UNL     1       5.525  12.639  13.297  1.00  0.00     0.000 C 
BRANCH  10  11
ATOM     11  C   UNL     1       4.483  13.662  13.787  1.00  0.00    -0.000 C 
BRANCH  11  12
ATOM     12  C   UNL     1       4.107  14.750  12.766  1.00  0.00    -0.000 C 
BRANCH  12  13
ATOM     13  C   UNL     1       2.657  14.634  12.272  1.00  0.00    -0.000 C 
BRANCH  13  14
ATOM     14  C   UNL     1       1.884  13.583  13.082  1.00  0.00    -0.000 C 
BRANCH  14  15
ATOM     15  C   UNL     1       1.293  12.473  12.201  1.00  0.00    -0.003 C 
ATOM     16  C   UNL     1       1.636  11.072  12.704  1.00  0.00     0.004 C 
ENDBRANCH  14  15
ENDBRANCH  13  14
ENDBRANCH  12  13
ENDBRANCH  11  12
ENDBRANCH  10  11
ENDBRANCH   1  10
TORSDOF 12
ENDMDL
MODEL 9
REMARK VINA RESULT:    -3.522      2.847      4.491
REMARK INTER + INTRA:          -7.854
REMARK INTER:                  -6.209
REMARK INTRA:                  -1.645
REMARK UNBOUND:                -1.862
REMARK SMILES CCCCCCCCCCCCCC(=O)[O-]
REMARK SMILES IDX 8 1 9 2 10 3 11 4 12 5 13 6 14 7 15 8 16 9 7 10 6 11 5 12
REMARK SMILES IDX 4 13 3 14 2 15 1 16
REMARK H PARENT
REMARK Flexibility Score: inf
ROOT
ATOM      1  C   UNL     1       2.558  14.584  12.013  1.00  0.00     0.000 C 
ENDROOT
BRANCH   1   2
ATOM      2  C   UNL     1       4.027  14.912  12.333  1.00  0.00     0.000 C 
BRANCH   2   3
ATOM      3  C   UNL     1       4.781  13.709  12.926  1.00  0.00     0.000 C 
BRANCH   3   4
ATOM      4  C   UNL     1       5.937  13.227  12.031  1.00  0.00     0.000 C 
BRANCH   4   5
ATOM      5  C   UNL     1       6.570  11.882  12.443  1.00  0.00     0.006 C 
BRANCH   5   6
ATOM      6  C   UNL     1       7.996  11.994  13.003  1.00  0.00     0.053 C 
BRANCH   6   7
ATOM      7  C   UNL     1       8.012  11.980  14.501  1.00  0.00     0.041 C 
ATOM      8  O   UNL     1       6.988  11.626  15.143  1.00  0.00    -0.550 OA
ATOM      9  O   UNL     1       9.148  12.391  15.188  1.00  0.00    -0.550 OA
ENDBRANCH   6   7
ENDBRANCH   5   6
ENDBRANCH   4   5
ENDBRANCH   3   4
ENDBRANCH   2   3
ENDBRANCH   1   2
BRANCH   1  10
ATOM     10  C   UNL     1       2.250  14.675  10.510  1.00  0.00     0.000 C 
BRANCH  10  11
ATOM     11  C   UNL     1       3.091  13.699   9.665  1.00  0.00    -0.000 C 
BRANCH  11  12
ATOM     12  C   UNL     1       2.529  12.270   9.568  1.00  0.00    -0.000 C 
BRANCH  12  13
ATOM     13  C   UNL     1       3.348  11.247  10.369  1.00  0.00    -0.000 C 
BRANCH  13  14
ATOM     14  C   UNL     1       2.624  10.860  11.667  1.00  0.00    -0.000 C 
BRANCH  14  15
ATOM     15  C   UNL     1       1.156  10.469  11.432  1.00  0.00    -0.003 C 
ATOM     16  C   UNL     1       0.236  10.915  12.567  1.00  0.00     0.004 C 
ENDBRANCH  14  15
ENDBRANCH  13  14
ENDBRANCH  12  13
ENDBRANCH  11  12
ENDBRANCH  10  11
ENDBRANCH   1  10
TORSDOF 12
ENDMDL
