MODEL 1
REMARK VINA RESULT:    -6.797      0.000      0.000
REMARK INTER + INTRA:          -8.523
REMARK INTER:                  -8.188
REMARK INTRA:                  -0.335
REMARK UNBOUND:                -0.335
REMARK SMILES O=c1c(O)c(-c2ccc(O)c(O)c2)oc2cc(O)cc(O)c12
REMARK SMILES IDX 5 1 3 2 2 3 1 4 22 5 20 6 19 7 17 8 16 9 15 10 14 11 6 12
REMARK SMILES IDX 7 13 8 14 9 15 13 16 11 17 10 18 12 20 4 22 21 24 18 26
REMARK H PARENT 10 19 12 21 4 23 21 25 18 27
REMARK Flexibility Score: inf
ROOT
ATOM      1  C   UNL     1      -6.302  53.295  31.356  1.00  0.00     0.180 A 
ATOM      2  C   UNL     1      -7.510  53.279  30.638  1.00  0.00     0.208 A 
ATOM      3  C   UNL     1      -8.544  54.147  31.024  1.00  0.00     0.238 A 
ATOM      4  O   UNL     1      -9.642  54.089  30.411  1.00  0.00    -0.285 OA
ATOM      5  C   UNL     1      -8.351  55.031  32.113  1.00  0.00     0.111 A 
ATOM      6  C   UNL     1      -9.315  55.981  32.565  1.00  0.00     0.134 A 
ATOM      7  C   UNL     1      -9.068  56.713  33.732  1.00  0.00     0.093 A 
ATOM      8  C   UNL     1      -7.863  56.577  34.427  1.00  0.00     0.123 A 
ATOM      9  C   UNL     1      -6.891  55.696  33.959  1.00  0.00     0.094 A 
ATOM     10  C   UNL     1      -7.124  54.925  32.818  1.00  0.00     0.146 A 
ATOM     11  O   UNL     1      -6.175  54.089  32.413  1.00  0.00    -0.452 OA
ENDROOT
BRANCH   1  12
ATOM     12  C   UNL     1      -5.158  52.428  30.993  1.00  0.00     0.025 A 
ATOM     13  C   UNL     1      -4.184  52.848  30.070  1.00  0.00     0.016 A 
ATOM     14  C   UNL     1      -3.101  52.023  29.761  1.00  0.00     0.051 A 
ATOM     15  C   UNL     1      -2.966  50.772  30.377  1.00  0.00     0.157 A 
ATOM     16  C   UNL     1      -5.007  51.182  31.624  1.00  0.00     0.062 A 
ATOM     17  C   UNL     1      -3.923  50.352  31.316  1.00  0.00     0.158 A 
BRANCH  15  18
ATOM     18  O   UNL     1      -1.884  49.949  30.065  1.00  0.00    -0.504 OA
ATOM     19  H   UNL     1      -1.812  49.006  30.429  1.00  0.00     0.293 HD
ENDBRANCH  15  18
BRANCH  17  20
ATOM     20  O   UNL     1      -3.814  49.116  31.953  1.00  0.00    -0.504 OA
ATOM     21  H   UNL     1      -2.921  48.657  32.087  1.00  0.00     0.293 HD
ENDBRANCH  17  20
ENDBRANCH   1  12
BRANCH   2  22
ATOM     22  O   UNL     1      -7.687  52.382  29.581  1.00  0.00    -0.502 OA
ATOM     23  H   UNL     1      -8.600  52.040  29.304  1.00  0.00     0.293 HD
ENDBRANCH   2  22
BRANCH   6  24
ATOM     24  O   UNL     1     -10.510  56.261  31.893  1.00  0.00    -0.507 OA
ATOM     25  H   UNL     1     -11.426  55.992  32.215  1.00  0.00     0.293 HD
ENDBRANCH   6  24
BRANCH   8  26
ATOM     26  O   UNL     1      -7.619  57.322  35.579  1.00  0.00    -0.508 OA
ATOM     27  H   UNL     1      -8.353  57.521  36.248  1.00  0.00     0.293 HD
ENDBRANCH   8  26
TORSDOF 6
ENDMDL
MODEL 2
REMARK VINA RESULT:    -6.460      1.530      6.910
REMARK INTER + INTRA:          -8.116
REMARK INTER:                  -7.826
REMARK INTRA:                  -0.290
REMARK UNBOUND:                -0.335
REMARK SMILES O=c1c(O)c(-c2ccc(O)c(O)c2)oc2cc(O)cc(O)c12
REMARK SMILES IDX 5 1 3 2 2 3 1 4 22 5 20 6 19 7 17 8 16 9 15 10 14 11 6 12
REMARK SMILES IDX 7 13 8 14 9 15 13 16 11 17 10 18 12 20 4 22 21 24 18 26
REMARK H PARENT 10 19 12 21 4 23 21 25 18 27
REMARK Flexibility Score: inf
ROOT
ATOM      1  C   UNL     1      -6.271  53.909  32.071  1.00  0.00     0.180 A 
ATOM      2  C   UNL     1      -5.427  54.184  30.981  1.00  0.00     0.208 A 
ATOM      3  C   UNL     1      -4.456  53.238  30.616  1.00  0.00     0.238 A 
ATOM      4  O   UNL     1      -3.668  53.515  29.674  1.00  0.00    -0.285 OA
ATOM      5  C   UNL     1      -4.352  52.023  31.334  1.00  0.00     0.111 A 
ATOM      6  C   UNL     1      -3.432  50.976  31.025  1.00  0.00     0.134 A 
ATOM      7  C   UNL     1      -3.328  49.874  31.882  1.00  0.00     0.093 A 
ATOM      8  C   UNL     1      -4.156  49.749  33.000  1.00  0.00     0.123 A 
ATOM      9  C   UNL     1      -5.099  50.736  33.275  1.00  0.00     0.094 A 
ATOM     10  C   UNL     1      -5.202  51.865  32.460  1.00  0.00     0.146 A 
ATOM     11  O   UNL     1      -6.106  52.789  32.765  1.00  0.00    -0.452 OA
ENDROOT
BRANCH   1  12
ATOM     12  C   UNL     1      -7.335  54.845  32.500  1.00  0.00     0.025 A 
ATOM     13  C   UNL     1      -7.145  55.726  33.579  1.00  0.00     0.016 A 
ATOM     14  C   UNL     1      -8.155  56.616  33.951  1.00  0.00     0.051 A 
ATOM     15  C   UNL     1      -9.363  56.651  33.243  1.00  0.00     0.157 A 
ATOM     16  C   UNL     1      -8.540  54.898  31.780  1.00  0.00     0.062 A 
ATOM     17  C   UNL     1      -9.554  55.789  32.149  1.00  0.00     0.158 A 
BRANCH  15  18
ATOM     18  O   UNL     1     -10.370  57.540  33.617  1.00  0.00    -0.504 OA
ATOM     19  H   UNL     1     -10.175  58.350  34.194  1.00  0.00     0.293 HD
ENDBRANCH  15  18
BRANCH  17  20
ATOM     20  O   UNL     1     -10.742  55.804  31.419  1.00  0.00    -0.504 OA
ATOM     21  H   UNL     1     -11.639  55.989  31.854  1.00  0.00     0.293 HD
ENDBRANCH  17  20
ENDBRANCH   1  12
BRANCH   2  22
ATOM     22  O   UNL     1      -5.532  55.401  30.301  1.00  0.00    -0.502 OA
ATOM     23  H   UNL     1      -5.073  56.245  30.622  1.00  0.00     0.293 HD
ENDBRANCH   2  22
BRANCH   6  24
ATOM     24  O   UNL     1      -2.624  50.958  29.883  1.00  0.00    -0.507 OA
ATOM     25  H   UNL     1      -2.103  51.748  29.536  1.00  0.00     0.293 HD
ENDBRANCH   6  24
BRANCH   8  26
ATOM     26  O   UNL     1      -4.057  48.640  33.838  1.00  0.00    -0.508 OA
ATOM     27  H   UNL     1      -3.215  48.450  34.368  1.00  0.00     0.293 HD
ENDBRANCH   8  26
TORSDOF 6
ENDMDL
MODEL 3
REMARK VINA RESULT:    -6.400      3.425      5.030
REMARK INTER + INTRA:          -8.045
REMARK INTER:                  -7.732
REMARK INTRA:                  -0.313
REMARK UNBOUND:                -0.335
REMARK SMILES O=c1c(O)c(-c2ccc(O)c(O)c2)oc2cc(O)cc(O)c12
REMARK SMILES IDX 5 1 3 2 2 3 1 4 22 5 20 6 19 7 17 8 16 9 15 10 14 11 6 12
REMARK SMILES IDX 7 13 8 14 9 15 13 16 11 17 10 18 12 20 4 22 21 24 18 26
REMARK H PARENT 10 19 12 21 4 23 21 25 18 27
REMARK Flexibility Score: inf
ROOT
ATOM      1  C   UNL     1      -6.618  52.616  29.043  1.00  0.00     0.180 A 
ATOM      2  C   UNL     1      -7.461  52.497  30.161  1.00  0.00     0.208 A 
ATOM      3  C   UNL     1      -7.151  53.214  31.328  1.00  0.00     0.238 A 
ATOM      4  O   UNL     1      -7.880  53.060  32.343  1.00  0.00    -0.285 OA
ATOM      5  C   UNL     1      -6.012  54.053  31.357  1.00  0.00     0.111 A 
ATOM      6  C   UNL     1      -5.625  54.856  32.472  1.00  0.00     0.134 A 
ATOM      7  C   UNL     1      -4.408  55.547  32.436  1.00  0.00     0.093 A 
ATOM      8  C   UNL     1      -3.596  55.517  31.300  1.00  0.00     0.123 A 
ATOM      9  C   UNL     1      -3.993  54.784  30.184  1.00  0.00     0.094 A 
ATOM     10  C   UNL     1      -5.185  54.055  30.203  1.00  0.00     0.146 A 
ATOM     11  O   UNL     1      -5.521  53.361  29.122  1.00  0.00    -0.452 OA
ENDROOT
BRANCH   1  12
ATOM     12  C   UNL     1      -6.893  51.913  27.769  1.00  0.00     0.025 A 
ATOM     13  C   UNL     1      -6.315  50.664  27.482  1.00  0.00     0.016 A 
ATOM     14  C   UNL     1      -6.608  50.009  26.284  1.00  0.00     0.051 A 
ATOM     15  C   UNL     1      -7.492  50.583  25.361  1.00  0.00     0.157 A 
ATOM     16  C   UNL     1      -7.796  52.475  26.850  1.00  0.00     0.062 A 
ATOM     17  C   UNL     1      -8.091  51.821  25.649  1.00  0.00     0.158 A 
BRANCH  15  18
ATOM     18  O   UNL     1      -7.781  49.926  24.166  1.00  0.00    -0.504 OA
ATOM     19  H   UNL     1      -7.382  50.228  23.285  1.00  0.00     0.293 HD
ENDBRANCH  15  18
BRANCH  17  20
ATOM     20  O   UNL     1      -8.981  52.415  24.755  1.00  0.00    -0.504 OA
ATOM     21  H   UNL     1      -9.424  53.306  24.949  1.00  0.00     0.293 HD
ENDBRANCH  17  20
ENDBRANCH   1  12
BRANCH   2  22
ATOM     22  O   UNL     1      -8.568  51.645  30.118  1.00  0.00    -0.502 OA
ATOM     23  H   UNL     1      -8.497  50.673  29.842  1.00  0.00     0.293 HD
ENDBRANCH   2  22
BRANCH   6  24
ATOM     24  O   UNL     1      -6.408  55.029  33.617  1.00  0.00    -0.507 OA
ATOM     25  H   UNL     1      -6.949  55.854  33.825  1.00  0.00     0.293 HD
ENDBRANCH   6  24
BRANCH   8  26
ATOM     26  O   UNL     1      -2.393  56.221  31.267  1.00  0.00    -0.508 OA
ATOM     27  H   UNL     1      -2.024  56.679  32.091  1.00  0.00     0.293 HD
ENDBRANCH   8  26
TORSDOF 6
ENDMDL
MODEL 4
REMARK VINA RESULT:    -6.136      3.475      4.680
REMARK INTER + INTRA:          -7.726
REMARK INTER:                  -7.399
REMARK INTRA:                  -0.328
REMARK UNBOUND:                -0.335
REMARK SMILES O=c1c(O)c(-c2ccc(O)c(O)c2)oc2cc(O)cc(O)c12
REMARK SMILES IDX 5 1 3 2 2 3 1 4 22 5 20 6 19 7 17 8 16 9 15 10 14 11 6 12
REMARK SMILES IDX 7 13 8 14 9 15 13 16 11 17 10 18 12 20 4 22 21 24 18 26
REMARK H PARENT 10 19 12 21 4 23 21 25 18 27
REMARK Flexibility Score: inf
ROOT
ATOM      1  C   UNL     1      -6.560  52.537  29.016  1.00  0.00     0.180 A 
ATOM      2  C   UNL     1      -7.414  52.396  30.124  1.00  0.00     0.208 A 
ATOM      3  C   UNL     1      -7.142  53.126  31.292  1.00  0.00     0.238 A 
ATOM      4  O   UNL     1      -7.879  52.953  32.298  1.00  0.00    -0.285 OA
ATOM      5  C   UNL     1      -6.030  54.000  31.333  1.00  0.00     0.111 A 
ATOM      6  C   UNL     1      -5.683  54.819  32.450  1.00  0.00     0.134 A 
ATOM      7  C   UNL     1      -4.489  55.548  32.427  1.00  0.00     0.093 A 
ATOM      8  C   UNL     1      -3.660  55.539  31.302  1.00  0.00     0.123 A 
ATOM      9  C   UNL     1      -4.020  54.791  30.184  1.00  0.00     0.094 A 
ATOM     10  C   UNL     1      -5.188  54.024  30.190  1.00  0.00     0.146 A 
ATOM     11  O   UNL     1      -5.488  53.317  29.108  1.00  0.00    -0.452 OA
ENDROOT
BRANCH   1  12
ATOM     12  C   UNL     1      -6.796  51.821  27.742  1.00  0.00     0.025 A 
ATOM     13  C   UNL     1      -7.670  52.331  26.766  1.00  0.00     0.016 A 
ATOM     14  C   UNL     1      -7.858  51.649  25.562  1.00  0.00     0.051 A 
ATOM     15  C   UNL     1      -7.168  50.456  25.308  1.00  0.00     0.157 A 
ATOM     16  C   UNL     1      -6.090  50.636  27.475  1.00  0.00     0.062 A 
ATOM     17  C   UNL     1      -6.277  49.950  26.269  1.00  0.00     0.158 A 
BRANCH  15  18
ATOM     18  O   UNL     1      -7.360  49.777  24.106  1.00  0.00    -0.504 OA
ATOM     19  H   UNL     1      -8.265  49.748  23.651  1.00  0.00     0.293 HD
ENDBRANCH  15  18
BRANCH  17  20
ATOM     20  O   UNL     1      -5.569  48.770  26.045  1.00  0.00    -0.504 OA
ATOM     21  H   UNL     1      -5.602  47.991  26.692  1.00  0.00     0.293 HD
ENDBRANCH  17  20
ENDBRANCH   1  12
BRANCH   2  22
ATOM     22  O   UNL     1      -8.493  51.509  30.070  1.00  0.00    -0.502 OA
ATOM     23  H   UNL     1      -8.371  50.505  30.014  1.00  0.00     0.293 HD
ENDBRANCH   2  22
BRANCH   6  24
ATOM     24  O   UNL     1      -6.487  54.971  33.584  1.00  0.00    -0.507 OA
ATOM     25  H   UNL     1      -6.849  54.211  34.138  1.00  0.00     0.293 HD
ENDBRANCH   6  24
BRANCH   8  26
ATOM     26  O   UNL     1      -2.480  56.280  31.282  1.00  0.00    -0.508 OA
ATOM     27  H   UNL     1      -1.583  55.854  31.482  1.00  0.00     0.293 HD
ENDBRANCH   8  26
TORSDOF 6
ENDMDL
MODEL 5
REMARK VINA RESULT:    -6.037      3.145      5.031
REMARK INTER + INTRA:          -7.608
REMARK INTER:                  -7.273
REMARK INTRA:                  -0.335
REMARK UNBOUND:                -0.335
REMARK SMILES O=c1c(O)c(-c2ccc(O)c(O)c2)oc2cc(O)cc(O)c12
REMARK SMILES IDX 5 1 3 2 2 3 1 4 22 5 20 6 19 7 17 8 16 9 15 10 14 11 6 12
REMARK SMILES IDX 7 13 8 14 9 15 13 16 11 17 10 18 12 20 4 22 21 24 18 26
REMARK H PARENT 10 19 12 21 4 23 21 25 18 27
REMARK Flexibility Score: inf
ROOT
ATOM      1  C   UNL     1      -7.086  52.670  29.218  1.00  0.00     0.180 A 
ATOM      2  C   UNL     1      -5.695  52.828  29.345  1.00  0.00     0.208 A 
ATOM      3  C   UNL     1      -5.190  53.592  30.409  1.00  0.00     0.238 A 
ATOM      4  O   UNL     1      -3.947  53.774  30.485  1.00  0.00    -0.285 OA
ATOM      5  C   UNL     1      -6.081  54.174  31.342  1.00  0.00     0.111 A 
ATOM      6  C   UNL     1      -5.677  54.934  32.481  1.00  0.00     0.134 A 
ATOM      7  C   UNL     1      -6.647  55.573  33.264  1.00  0.00     0.093 A 
ATOM      8  C   UNL     1      -8.008  55.425  32.987  1.00  0.00     0.123 A 
ATOM      9  C   UNL     1      -8.414  54.637  31.913  1.00  0.00     0.094 A 
ATOM     10  C   UNL     1      -7.469  54.016  31.092  1.00  0.00     0.146 A 
ATOM     11  O   UNL     1      -7.898  53.282  30.072  1.00  0.00    -0.452 OA
ENDROOT
BRANCH   1  12
ATOM     12  C   UNL     1      -7.693  51.859  28.138  1.00  0.00     0.025 A 
ATOM     13  C   UNL     1      -7.923  50.481  28.298  1.00  0.00     0.016 A 
ATOM     14  C   UNL     1      -8.517  49.740  27.274  1.00  0.00     0.051 A 
ATOM     15  C   UNL     1      -8.904  50.366  26.081  1.00  0.00     0.157 A 
ATOM     16  C   UNL     1      -8.101  52.485  26.949  1.00  0.00     0.062 A 
ATOM     17  C   UNL     1      -8.697  51.746  25.920  1.00  0.00     0.158 A 
BRANCH  15  18
ATOM     18  O   UNL     1      -9.496  49.623  25.060  1.00  0.00    -0.504 OA
ATOM     19  H   UNL     1      -8.946  49.214  24.314  1.00  0.00     0.293 HD
ENDBRANCH  15  18
BRANCH  17  20
ATOM     20  O   UNL     1      -9.076  52.400  24.748  1.00  0.00    -0.504 OA
ATOM     21  H   UNL     1      -8.532  53.159  24.355  1.00  0.00     0.293 HD
ENDBRANCH  17  20
ENDBRANCH   1  12
BRANCH   2  22
ATOM     22  O   UNL     1      -4.836  52.263  28.399  1.00  0.00    -0.502 OA
ATOM     23  H   UNL     1      -4.914  51.298  28.098  1.00  0.00     0.293 HD
ENDBRANCH   2  22
BRANCH   6  24
ATOM     24  O   UNL     1      -4.349  55.068  32.900  1.00  0.00    -0.507 OA
ATOM     25  H   UNL     1      -4.051  55.599  33.702  1.00  0.00     0.293 HD
ENDBRANCH   6  24
BRANCH   8  26
ATOM     26  O   UNL     1      -8.967  56.051  33.781  1.00  0.00    -0.508 OA
ATOM     27  H   UNL     1      -8.940  57.048  33.957  1.00  0.00     0.293 HD
ENDBRANCH   8  26
TORSDOF 6
ENDMDL
MODEL 6
REMARK VINA RESULT:    -5.978      3.424      7.698
REMARK INTER + INTRA:          -7.536
REMARK INTER:                  -7.203
REMARK INTRA:                  -0.333
REMARK UNBOUND:                -0.335
REMARK SMILES O=c1c(O)c(-c2ccc(O)c(O)c2)oc2cc(O)cc(O)c12
REMARK SMILES IDX 5 1 3 2 2 3 1 4 22 5 20 6 19 7 17 8 16 9 15 10 14 11 6 12
REMARK SMILES IDX 7 13 8 14 9 15 13 16 11 17 10 18 12 20 4 22 21 24 18 26
REMARK H PARENT 10 19 12 21 4 23 21 25 18 27
REMARK Flexibility Score: inf
ROOT
ATOM      1  C   UNL     1      -5.142  52.191  28.616  1.00  0.00     0.180 A 
ATOM      2  C   UNL     1      -5.945  52.305  27.469  1.00  0.00     0.208 A 
ATOM      3  C   UNL     1      -5.777  51.381  26.424  1.00  0.00     0.238 A 
ATOM      4  O   UNL     1      -6.461  51.522  25.377  1.00  0.00    -0.285 OA
ATOM      5  C   UNL     1      -4.819  50.346  26.548  1.00  0.00     0.111 A 
ATOM      6  C   UNL     1      -4.591  49.332  25.570  1.00  0.00     0.134 A 
ATOM      7  C   UNL     1      -3.529  48.436  25.738  1.00  0.00     0.093 A 
ATOM      8  C   UNL     1      -2.727  48.476  26.881  1.00  0.00     0.123 A 
ATOM      9  C   UNL     1      -2.979  49.424  27.870  1.00  0.00     0.094 A 
ATOM     10  C   UNL     1      -4.008  50.355  27.713  1.00  0.00     0.146 A 
ATOM     11  O   UNL     1      -4.208  51.249  28.675  1.00  0.00    -0.452 OA
ENDROOT
BRANCH   1  12
ATOM     12  C   UNL     1      -5.279  53.111  29.768  1.00  0.00     0.025 A 
ATOM     13  C   UNL     1      -6.201  52.861  30.800  1.00  0.00     0.016 A 
ATOM     14  C   UNL     1      -6.296  53.731  31.889  1.00  0.00     0.051 A 
ATOM     15  C   UNL     1      -5.463  54.855  31.971  1.00  0.00     0.157 A 
ATOM     16  C   UNL     1      -4.432  54.228  29.866  1.00  0.00     0.062 A 
ATOM     17  C   UNL     1      -4.524  55.102  30.955  1.00  0.00     0.158 A 
BRANCH  15  18
ATOM     18  O   UNL     1      -5.562  55.722  33.058  1.00  0.00    -0.504 OA
ATOM     19  H   UNL     1      -6.064  56.599  32.994  1.00  0.00     0.293 HD
ENDBRANCH  15  18
BRANCH  17  20
ATOM     20  O   UNL     1      -3.676  56.207  31.011  1.00  0.00    -0.504 OA
ATOM     21  H   UNL     1      -4.003  57.122  31.299  1.00  0.00     0.293 HD
ENDBRANCH  17  20
ENDBRANCH   1  12
BRANCH   2  22
ATOM     22  O   UNL     1      -6.869  53.348  27.358  1.00  0.00    -0.502 OA
ATOM     23  H   UNL     1      -6.887  54.130  28.002  1.00  0.00     0.293 HD
ENDBRANCH   2  22
BRANCH   6  24
ATOM     24  O   UNL     1      -5.392  49.146  24.438  1.00  0.00    -0.507 OA
ATOM     25  H   UNL     1      -5.613  48.251  24.031  1.00  0.00     0.293 HD
ENDBRANCH   6  24
BRANCH   8  26
ATOM     26  O   UNL     1      -1.682  47.570  27.049  1.00  0.00    -0.508 OA
ATOM     27  H   UNL     1      -1.582  47.026  27.898  1.00  0.00     0.293 HD
ENDBRANCH   8  26
TORSDOF 6
ENDMDL
MODEL 7
REMARK VINA RESULT:    -5.963      3.160      5.658
REMARK INTER + INTRA:          -7.518
REMARK INTER:                  -7.252
REMARK INTRA:                  -0.266
REMARK UNBOUND:                -0.335
REMARK SMILES O=c1c(O)c(-c2ccc(O)c(O)c2)oc2cc(O)cc(O)c12
REMARK SMILES IDX 5 1 3 2 2 3 1 4 22 5 20 6 19 7 17 8 16 9 15 10 14 11 6 12
REMARK SMILES IDX 7 13 8 14 9 15 13 16 11 17 10 18 12 20 4 22 21 24 18 26
REMARK H PARENT 10 19 12 21 4 23 21 25 18 27
REMARK Flexibility Score: inf
ROOT
ATOM      1  C   UNL     1      -8.633  52.601  29.716  1.00  0.00     0.180 A 
ATOM      2  C   UNL     1      -9.138  53.755  30.340  1.00  0.00     0.208 A 
ATOM      3  C   UNL     1      -8.474  54.267  31.466  1.00  0.00     0.238 A 
ATOM      4  O   UNL     1      -8.963  55.269  32.052  1.00  0.00    -0.285 OA
ATOM      5  C   UNL     1      -7.305  53.629  31.945  1.00  0.00     0.111 A 
ATOM      6  C   UNL     1      -6.530  54.084  33.053  1.00  0.00     0.134 A 
ATOM      7  C   UNL     1      -5.467  53.302  33.520  1.00  0.00     0.093 A 
ATOM      8  C   UNL     1      -5.110  52.113  32.878  1.00  0.00     0.123 A 
ATOM      9  C   UNL     1      -5.824  51.691  31.759  1.00  0.00     0.094 A 
ATOM     10  C   UNL     1      -6.912  52.432  31.291  1.00  0.00     0.146 A 
ATOM     11  O   UNL     1      -7.572  51.988  30.228  1.00  0.00    -0.452 OA
ENDROOT
BRANCH   1  12
ATOM     12  C   UNL     1      -9.263  52.018  28.510  1.00  0.00     0.025 A 
ATOM     13  C   UNL     1     -10.462  51.288  28.589  1.00  0.00     0.016 A 
ATOM     14  C   UNL     1     -11.050  50.767  27.434  1.00  0.00     0.051 A 
ATOM     15  C   UNL     1     -10.457  50.977  26.182  1.00  0.00     0.157 A 
ATOM     16  C   UNL     1      -8.684  52.244  27.250  1.00  0.00     0.062 A 
ATOM     17  C   UNL     1      -9.270  51.723  26.091  1.00  0.00     0.158 A 
BRANCH  15  18
ATOM     18  O   UNL     1     -11.045  50.454  25.031  1.00  0.00    -0.504 OA
ATOM     19  H   UNL     1     -11.407  49.508  25.003  1.00  0.00     0.293 HD
ENDBRANCH  15  18
BRANCH  17  20
ATOM     20  O   UNL     1      -8.658  51.956  24.859  1.00  0.00    -0.504 OA
ATOM     21  H   UNL     1      -7.651  51.992  24.757  1.00  0.00     0.293 HD
ENDBRANCH  17  20
ENDBRANCH   1  12
BRANCH   2  22
ATOM     22  O   UNL     1     -10.307  54.356  29.864  1.00  0.00    -0.502 OA
ATOM     23  H   UNL     1     -10.464  54.540  28.880  1.00  0.00     0.293 HD
ENDBRANCH   2  22
BRANCH   6  24
ATOM     24  O   UNL     1      -6.743  55.301  33.708  1.00  0.00    -0.507 OA
ATOM     25  H   UNL     1      -6.417  56.196  33.377  1.00  0.00     0.293 HD
ENDBRANCH   6  24
BRANCH   8  26
ATOM     26  O   UNL     1      -4.041  51.348  33.339  1.00  0.00    -0.508 OA
ATOM     27  H   UNL     1      -3.291  51.759  33.883  1.00  0.00     0.293 HD
ENDBRANCH   8  26
TORSDOF 6
ENDMDL
MODEL 8
REMARK VINA RESULT:    -5.816      3.354      4.138
REMARK INTER + INTRA:          -7.341
REMARK INTER:                  -7.009
REMARK INTRA:                  -0.332
REMARK UNBOUND:                -0.335
REMARK SMILES O=c1c(O)c(-c2ccc(O)c(O)c2)oc2cc(O)cc(O)c12
REMARK SMILES IDX 5 1 3 2 2 3 1 4 22 5 20 6 19 7 17 8 16 9 15 10 14 11 6 12
REMARK SMILES IDX 7 13 8 14 9 15 13 16 11 17 10 18 12 20 4 22 21 24 18 26
REMARK H PARENT 10 19 12 21 4 23 21 25 18 27
REMARK Flexibility Score: inf
ROOT
ATOM      1  C   UNL     1      -7.584  52.504  28.846  1.00  0.00     0.180 A 
ATOM      2  C   UNL     1      -8.837  52.981  29.265  1.00  0.00     0.208 A 
ATOM      3  C   UNL     1      -8.904  53.835  30.378  1.00  0.00     0.238 A 
ATOM      4  O   UNL     1     -10.035  54.215  30.781  1.00  0.00    -0.285 OA
ATOM      5  C   UNL     1      -7.716  54.213  31.048  1.00  0.00     0.111 A 
ATOM      6  C   UNL     1      -7.662  55.104  32.161  1.00  0.00     0.134 A 
ATOM      7  C   UNL     1      -6.447  55.305  32.827  1.00  0.00     0.093 A 
ATOM      8  C   UNL     1      -5.271  54.697  32.379  1.00  0.00     0.123 A 
ATOM      9  C   UNL     1      -5.303  53.873  31.257  1.00  0.00     0.094 A 
ATOM     10  C   UNL     1      -6.506  53.625  30.593  1.00  0.00     0.146 A 
ATOM     11  O   UNL     1      -6.494  52.824  29.534  1.00  0.00    -0.452 OA
ENDROOT
BRANCH   1  12
ATOM     12  C   UNL     1      -7.430  51.622  27.667  1.00  0.00     0.025 A 
ATOM     13  C   UNL     1      -7.300  52.149  26.370  1.00  0.00     0.016 A 
ATOM     14  C   UNL     1      -7.133  51.298  25.275  1.00  0.00     0.051 A 
ATOM     15  C   UNL     1      -7.080  49.910  25.459  1.00  0.00     0.157 A 
ATOM     16  C   UNL     1      -7.355  50.231  27.849  1.00  0.00     0.062 A 
ATOM     17  C   UNL     1      -7.188  49.375  26.754  1.00  0.00     0.158 A 
BRANCH  15  18
ATOM     18  O   UNL     1      -6.914  49.063  24.364  1.00  0.00    -0.504 OA
ATOM     19  H   UNL     1      -7.708  48.672  23.870  1.00  0.00     0.293 HD
ENDBRANCH  15  18
BRANCH  17  20
ATOM     20  O   UNL     1      -7.131  47.999  26.972  1.00  0.00    -0.504 OA
ATOM     21  H   UNL     1      -7.554  47.565  27.784  1.00  0.00     0.293 HD
ENDBRANCH  17  20
ENDBRANCH   1  12
BRANCH   2  22
ATOM     22  O   UNL     1     -10.000  52.577  28.603  1.00  0.00    -0.502 OA
ATOM     23  H   UNL     1     -10.189  51.608  28.376  1.00  0.00     0.293 HD
ENDBRANCH   2  22
BRANCH   6  24
ATOM     24  O   UNL     1      -8.760  55.832  32.632  1.00  0.00    -0.507 OA
ATOM     25  H   UNL     1      -8.738  56.809  32.879  1.00  0.00     0.293 HD
ENDBRANCH   6  24
BRANCH   8  26
ATOM     26  O   UNL     1      -4.063  54.915  33.038  1.00  0.00    -0.508 OA
ATOM     27  H   UNL     1      -3.421  54.156  33.234  1.00  0.00     0.293 HD
ENDBRANCH   8  26
TORSDOF 6
ENDMDL
MODEL 9
REMARK VINA RESULT:    -5.697      4.202      7.416
REMARK INTER + INTRA:          -7.197
REMARK INTER:                  -7.018
REMARK INTRA:                  -0.179
REMARK UNBOUND:                -0.335
REMARK SMILES O=c1c(O)c(-c2ccc(O)c(O)c2)oc2cc(O)cc(O)c12
REMARK SMILES IDX 5 1 3 2 2 3 1 4 22 5 20 6 19 7 17 8 16 9 15 10 14 11 6 12
REMARK SMILES IDX 7 13 8 14 9 15 13 16 11 17 10 18 12 20 4 22 21 24 18 26
REMARK H PARENT 10 19 12 21 4 23 21 25 18 27
REMARK Flexibility Score: inf
ROOT
ATOM      1  C   UNL     1      -5.986  52.388  28.198  1.00  0.00     0.180 A 
ATOM      2  C   UNL     1      -5.066  51.408  27.787  1.00  0.00     0.208 A 
ATOM      3  C   UNL     1      -5.304  50.706  26.594  1.00  0.00     0.238 A 
ATOM      4  O   UNL     1      -4.505  49.792  26.261  1.00  0.00    -0.285 OA
ATOM      5  C   UNL     1      -6.451  51.004  25.819  1.00  0.00     0.111 A 
ATOM      6  C   UNL     1      -6.771  50.384  24.574  1.00  0.00     0.134 A 
ATOM      7  C   UNL     1      -7.997  50.663  23.959  1.00  0.00     0.093 A 
ATOM      8  C   UNL     1      -8.886  51.590  24.510  1.00  0.00     0.123 A 
ATOM      9  C   UNL     1      -8.555  52.244  25.694  1.00  0.00     0.094 A 
ATOM     10  C   UNL     1      -7.356  51.960  26.351  1.00  0.00     0.146 A 
ATOM     11  O   UNL     1      -7.085  52.599  27.483  1.00  0.00    -0.452 OA
ENDROOT
BRANCH   1  12
ATOM     12  C   UNL     1      -5.789  53.186  29.429  1.00  0.00     0.025 A 
ATOM     13  C   UNL     1      -6.631  53.032  30.545  1.00  0.00     0.016 A 
ATOM     14  C   UNL     1      -6.412  53.780  31.703  1.00  0.00     0.051 A 
ATOM     15  C   UNL     1      -5.342  54.682  31.772  1.00  0.00     0.157 A 
ATOM     16  C   UNL     1      -4.705  54.076  29.510  1.00  0.00     0.062 A 
ATOM     17  C   UNL     1      -4.483  54.828  30.669  1.00  0.00     0.158 A 
BRANCH  15  18
ATOM     18  O   UNL     1      -5.127  55.428  32.930  1.00  0.00    -0.504 OA
ATOM     19  H   UNL     1      -4.229  55.431  33.400  1.00  0.00     0.293 HD
ENDBRANCH  15  18
BRANCH  17  20
ATOM     20  O   UNL     1      -3.405  55.711  30.707  1.00  0.00    -0.504 OA
ATOM     21  H   UNL     1      -3.518  56.705  30.547  1.00  0.00     0.293 HD
ENDBRANCH  17  20
ENDBRANCH   1  12
BRANCH   2  22
ATOM     22  O   UNL     1      -3.952  51.113  28.579  1.00  0.00    -0.502 OA
ATOM     23  H   UNL     1      -3.045  50.895  28.184  1.00  0.00     0.293 HD
ENDBRANCH   2  22
BRANCH   6  24
ATOM     24  O   UNL     1      -5.913  49.516  23.892  1.00  0.00    -0.507 OA
ATOM     25  H   UNL     1      -5.255  48.894  24.334  1.00  0.00     0.293 HD
ENDBRANCH   6  24
BRANCH   8  26
ATOM     26  O   UNL     1     -10.097  51.873  23.883  1.00  0.00    -0.508 OA
ATOM     27  H   UNL     1     -10.979  51.799  24.375  1.00  0.00     0.293 HD
ENDBRANCH   8  26
TORSDOF 6
ENDMDL
