MODEL 1
REMARK VINA RESULT:    -4.314      0.000      0.000
REMARK INTER + INTRA:          -5.357
REMARK INTER:                  -5.070
REMARK INTRA:                  -0.287
REMARK UNBOUND:                -0.287
REMARK SMILES O=c1cc(-c2ccc(O)c(O)c2)oc2cc(O)cc(O)c12
REMARK SMILES IDX 4 1 3 2 2 3 1 4 21 5 19 6 18 7 16 8 15 9 14 10 13 11 5 12
REMARK SMILES IDX 6 13 7 14 8 15 12 16 10 17 9 18 11 20 20 22 17 24
REMARK H PARENT 9 19 11 21 20 23 17 25
REMARK Flexibility Score: inf
ROOT
ATOM      1  C   UNL     1      59.229  22.547  22.411  1.00  0.00     0.138 A 
ATOM      2  C   UNL     1      59.940  21.666  21.586  1.00  0.00     0.100 A 
ATOM      3  C   UNL     1      61.291  21.902  21.326  1.00  0.00     0.197 A 
ATOM      4  O   UNL     1      61.919  21.059  20.634  1.00  0.00    -0.289 OA
ATOM      5  C   UNL     1      61.923  23.045  21.871  1.00  0.00     0.107 A 
ATOM      6  C   UNL     1      63.283  23.409  21.640  1.00  0.00     0.134 A 
ATOM      7  C   UNL     1      63.830  24.501  22.326  1.00  0.00     0.093 A 
ATOM      8  C   UNL     1      63.050  25.276  23.187  1.00  0.00     0.123 A 
ATOM      9  C   UNL     1      61.708  24.961  23.376  1.00  0.00     0.094 A 
ATOM     10  C   UNL     1      61.141  23.858  22.734  1.00  0.00     0.146 A 
ATOM     11  O   UNL     1      59.859  23.583  22.954  1.00  0.00    -0.456 OA
ENDROOT
BRANCH   1  12
ATOM     12  C   UNL     1      57.791  22.344  22.719  1.00  0.00     0.021 A 
ATOM     13  C   UNL     1      57.353  21.090  23.182  1.00  0.00     0.016 A 
ATOM     14  C   UNL     1      56.007  20.875  23.486  1.00  0.00     0.051 A 
ATOM     15  C   UNL     1      55.076  21.907  23.344  1.00  0.00     0.157 A 
ATOM     16  C   UNL     1      56.851  23.384  22.591  1.00  0.00     0.062 A 
ATOM     17  C   UNL     1      55.500  23.169  22.898  1.00  0.00     0.158 A 
BRANCH  15  18
ATOM     18  O   UNL     1      53.739  21.662  23.654  1.00  0.00    -0.504 OA
ATOM     19  H   UNL     1      53.366  20.722  23.724  1.00  0.00     0.293 HD
ENDBRANCH  15  18
BRANCH  17  20
ATOM     20  O   UNL     1      54.577  24.208  22.765  1.00  0.00    -0.504 OA
ATOM     21  H   UNL     1      53.633  24.129  23.126  1.00  0.00     0.293 HD
ENDBRANCH  17  20
ENDBRANCH   1  12
BRANCH   6  22
ATOM     22  O   UNL     1      64.125  22.754  20.736  1.00  0.00    -0.507 OA
ATOM     23  H   UNL     1      65.125  22.672  20.836  1.00  0.00     0.293 HD
ENDBRANCH   6  22
BRANCH   8  24
ATOM     24  O   UNL     1      63.601  26.369  23.853  1.00  0.00    -0.508 OA
ATOM     25  H   UNL     1      63.017  27.063  24.306  1.00  0.00     0.293 HD
ENDBRANCH   8  24
TORSDOF 5
ENDMDL
MODEL 2
REMARK VINA RESULT:    -3.638      1.905      2.243
REMARK INTER + INTRA:          -4.563
REMARK INTER:                  -4.261
REMARK INTRA:                  -0.302
REMARK UNBOUND:                -0.287
REMARK SMILES O=c1cc(-c2ccc(O)c(O)c2)oc2cc(O)cc(O)c12
REMARK SMILES IDX 4 1 3 2 2 3 1 4 21 5 19 6 18 7 16 8 15 9 14 10 13 11 5 12
REMARK SMILES IDX 6 13 7 14 8 15 12 16 10 17 9 18 11 20 20 22 17 24
REMARK H PARENT 9 19 11 21 20 23 17 25
REMARK Flexibility Score: inf
ROOT
ATOM      1  C   UNL     1      59.172  22.607  23.978  1.00  0.00     0.138 A 
ATOM      2  C   UNL     1      59.838  21.757  24.871  1.00  0.00     0.100 A 
ATOM      3  C   UNL     1      61.180  21.990  25.175  1.00  0.00     0.197 A 
ATOM      4  O   UNL     1      61.734  21.249  26.027  1.00  0.00    -0.289 OA
ATOM      5  C   UNL     1      61.865  23.062  24.555  1.00  0.00     0.107 A 
ATOM      6  C   UNL     1      63.244  23.369  24.756  1.00  0.00     0.134 A 
ATOM      7  C   UNL     1      63.784  24.525  24.177  1.00  0.00     0.093 A 
ATOM      8  C   UNL     1      63.011  25.349  23.356  1.00  0.00     0.123 A 
ATOM      9  C   UNL     1      61.679  25.027  23.110  1.00  0.00     0.094 A 
ATOM     10  C   UNL     1      61.102  23.901  23.700  1.00  0.00     0.146 A 
ATOM     11  O   UNL     1      59.823  23.638  23.451  1.00  0.00    -0.456 OA
ENDROOT
BRANCH   1  12
ATOM     12  C   UNL     1      57.745  22.404  23.619  1.00  0.00     0.021 A 
ATOM     13  C   UNL     1      57.236  21.097  23.521  1.00  0.00     0.016 A 
ATOM     14  C   UNL     1      55.897  20.878  23.193  1.00  0.00     0.051 A 
ATOM     15  C   UNL     1      55.038  21.958  22.966  1.00  0.00     0.157 A 
ATOM     16  C   UNL     1      56.873  23.488  23.404  1.00  0.00     0.062 A 
ATOM     17  C   UNL     1      55.527  23.270  23.076  1.00  0.00     0.158 A 
BRANCH  15  18
ATOM     18  O   UNL     1      53.706  21.709  22.639  1.00  0.00    -0.504 OA
ATOM     19  H   UNL     1      52.948  21.902  23.284  1.00  0.00     0.293 HD
ENDBRANCH  15  18
BRANCH  17  20
ATOM     20  O   UNL     1      54.673  24.352  22.864  1.00  0.00    -0.504 OA
ATOM     21  H   UNL     1      53.666  24.252  22.915  1.00  0.00     0.293 HD
ENDBRANCH  17  20
ENDBRANCH   1  12
BRANCH   6  22
ATOM     22  O   UNL     1      64.125  22.567  25.488  1.00  0.00    -0.507 OA
ATOM     23  H   UNL     1      64.039  21.569  25.599  1.00  0.00     0.293 HD
ENDBRANCH   6  22
BRANCH   8  24
ATOM     24  O   UNL     1      63.562  26.488  22.773  1.00  0.00    -0.508 OA
ATOM     25  H   UNL     1      63.464  26.677  21.782  1.00  0.00     0.293 HD
ENDBRANCH   8  24
TORSDOF 5
ENDMDL
MODEL 3
REMARK VINA RESULT:    -3.458      1.284      2.585
REMARK INTER + INTRA:          -4.352
REMARK INTER:                  -4.087
REMARK INTRA:                  -0.265
REMARK UNBOUND:                -0.287
REMARK SMILES O=c1cc(-c2ccc(O)c(O)c2)oc2cc(O)cc(O)c12
REMARK SMILES IDX 4 1 3 2 2 3 1 4 21 5 19 6 18 7 16 8 15 9 14 10 13 11 5 12
REMARK SMILES IDX 6 13 7 14 8 15 12 16 10 17 9 18 11 20 20 22 17 24
REMARK H PARENT 9 19 11 21 20 23 17 25
REMARK Flexibility Score: inf
ROOT
ATOM      1  C   UNL     1      59.185  22.945  23.372  1.00  0.00     0.138 A 
ATOM      2  C   UNL     1      59.706  23.553  24.522  1.00  0.00     0.100 A 
ATOM      3  C   UNL     1      61.066  23.865  24.582  1.00  0.00     0.197 A 
ATOM      4  O   UNL     1      61.492  24.467  25.601  1.00  0.00    -0.289 OA
ATOM      5  C   UNL     1      61.911  23.537  23.496  1.00  0.00     0.107 A 
ATOM      6  C   UNL     1      63.318  23.770  23.463  1.00  0.00     0.134 A 
ATOM      7  C   UNL     1      64.033  23.508  22.287  1.00  0.00     0.093 A 
ATOM      8  C   UNL     1      63.402  22.967  21.165  1.00  0.00     0.123 A 
ATOM      9  C   UNL     1      62.039  22.685  21.206  1.00  0.00     0.094 A 
ATOM     10  C   UNL     1      61.291  22.966  22.352  1.00  0.00     0.146 A 
ATOM     11  O   UNL     1      59.990  22.696  22.345  1.00  0.00    -0.456 OA
ENDROOT
BRANCH   1  12
ATOM     12  C   UNL     1      57.748  22.591  23.256  1.00  0.00     0.021 A 
ATOM     13  C   UNL     1      57.369  21.237  23.236  1.00  0.00     0.016 A 
ATOM     14  C   UNL     1      56.023  20.877  23.135  1.00  0.00     0.051 A 
ATOM     15  C   UNL     1      55.032  21.859  23.062  1.00  0.00     0.157 A 
ATOM     16  C   UNL     1      56.744  23.576  23.196  1.00  0.00     0.062 A 
ATOM     17  C   UNL     1      55.392  23.215  23.097  1.00  0.00     0.158 A 
BRANCH  15  18
ATOM     18  O   UNL     1      53.697  21.469  22.961  1.00  0.00    -0.504 OA
ATOM     19  H   UNL     1      52.962  22.121  22.710  1.00  0.00     0.293 HD
ENDBRANCH  15  18
BRANCH  17  20
ATOM     20  O   UNL     1      54.407  24.201  23.037  1.00  0.00    -0.504 OA
ATOM     21  H   UNL     1      53.757  24.256  22.261  1.00  0.00     0.293 HD
ENDBRANCH  17  20
ENDBRANCH   1  12
BRANCH   6  22
ATOM     22  O   UNL     1      64.060  24.229  24.556  1.00  0.00    -0.507 OA
ATOM     23  H   UNL     1      65.034  24.022  24.718  1.00  0.00     0.293 HD
ENDBRANCH   6  22
BRANCH   8  24
ATOM     24  O   UNL     1      64.124  22.696  20.005  1.00  0.00    -0.508 OA
ATOM     25  H   UNL     1      64.758  23.378  19.604  1.00  0.00     0.293 HD
ENDBRANCH   8  24
TORSDOF 5
ENDMDL
MODEL 4
REMARK VINA RESULT:    -1.709      2.158      6.801
REMARK INTER + INTRA:          -2.296
REMARK INTER:                  -2.019
REMARK INTRA:                  -0.277
REMARK UNBOUND:                -0.287
REMARK SMILES O=c1cc(-c2ccc(O)c(O)c2)oc2cc(O)cc(O)c12
REMARK SMILES IDX 4 1 3 2 2 3 1 4 21 5 19 6 18 7 16 8 15 9 14 10 13 11 5 12
REMARK SMILES IDX 6 13 7 14 8 15 12 16 10 17 9 18 11 20 20 22 17 24
REMARK H PARENT 9 19 11 21 20 23 17 25
REMARK Flexibility Score: inf
ROOT
ATOM      1  C   UNL     1      60.353  22.527  22.099  1.00  0.00     0.138 A 
ATOM      2  C   UNL     1      60.769  23.110  23.303  1.00  0.00     0.100 A 
ATOM      3  C   UNL     1      59.823  23.429  24.278  1.00  0.00     0.197 A 
ATOM      4  O   UNL     1      60.232  23.893  25.374  1.00  0.00    -0.289 OA
ATOM      5  C   UNL     1      58.450  23.192  24.030  1.00  0.00     0.107 A 
ATOM      6  C   UNL     1      57.394  23.515  24.933  1.00  0.00     0.134 A 
ATOM      7  C   UNL     1      56.083  23.128  24.627  1.00  0.00     0.093 A 
ATOM      8  C   UNL     1      55.783  22.483  23.425  1.00  0.00     0.123 A 
ATOM      9  C   UNL     1      56.799  22.212  22.513  1.00  0.00     0.094 A 
ATOM     10  C   UNL     1      58.122  22.555  22.803  1.00  0.00     0.146 A 
ATOM     11  O   UNL     1      59.064  22.265  21.912  1.00  0.00    -0.456 OA
ENDROOT
BRANCH   1  12
ATOM     12  C   UNL     1      61.318  22.169  21.028  1.00  0.00     0.021 A 
ATOM     13  C   UNL     1      62.334  21.235  21.297  1.00  0.00     0.016 A 
ATOM     14  C   UNL     1      63.249  20.875  20.305  1.00  0.00     0.051 A 
ATOM     15  C   UNL     1      63.162  21.431  19.026  1.00  0.00     0.157 A 
ATOM     16  C   UNL     1      61.225  22.716  19.734  1.00  0.00     0.062 A 
ATOM     17  C   UNL     1      62.143  22.353  18.737  1.00  0.00     0.158 A 
BRANCH  15  18
ATOM     18  O   UNL     1      64.090  21.053  18.057  1.00  0.00    -0.504 OA
ATOM     19  H   UNL     1      64.312  21.645  17.264  1.00  0.00     0.293 HD
ENDBRANCH  15  18
BRANCH  17  20
ATOM     20  O   UNL     1      62.042  22.903  17.459  1.00  0.00    -0.504 OA
ATOM     21  H   UNL     1      62.022  23.905  17.311  1.00  0.00     0.293 HD
ENDBRANCH  17  20
ENDBRANCH   1  12
BRANCH   6  22
ATOM     22  O   UNL     1      57.572  24.232  26.120  1.00  0.00    -0.507 OA
ATOM     23  H   UNL     1      58.181  23.955  26.875  1.00  0.00     0.293 HD
ENDBRANCH   6  22
BRANCH   8  24
ATOM     24  O   UNL     1      54.473  22.116  23.123  1.00  0.00    -0.508 OA
ATOM     25  H   UNL     1      54.136  22.091  22.168  1.00  0.00     0.293 HD
ENDBRANCH   8  24
TORSDOF 5
ENDMDL
