MODEL 1
REMARK VINA RESULT:    -4.330      0.000      0.000
REMARK INTER + INTRA:          -4.330
REMARK INTER:                  -4.330
REMARK INTRA:                   0.000
REMARK UNBOUND:                 0.000
REMARK SMILES CC1(C)O[C@]2(C)CC[C@H]1CC2
REMARK SMILES IDX 1 1 2 2 9 3 10 4 11 5 5 6 4 7 7 8 8 9 6 10 3 11
REMARK H PARENT
REMARK Flexibility Score: inf
ROOT
ATOM      1  C   UNL     1       2.778  13.544  -1.123  1.00  0.00     0.042 C 
ATOM      2  C   UNL     1       3.047  12.242  -0.338  1.00  0.00     0.066 C 
ATOM      3  C   UNL     1       3.975  11.271  -1.167  1.00  0.00     0.021 C 
ATOM      4  C   UNL     1       4.166   9.967  -0.357  1.00  0.00     0.009 C 
ATOM      5  C   UNL     1       2.780   9.421   0.062  1.00  0.00     0.035 C 
ATOM      6  C   UNL     1       1.657  10.310  -0.545  1.00  0.00     0.066 C 
ATOM      7  O   UNL     1       1.781  11.637  -0.032  1.00  0.00    -0.369 OA
ATOM      8  C   UNL     1       1.819  10.343  -2.092  1.00  0.00     0.035 C 
ATOM      9  C   UNL     1       3.228  10.868  -2.461  1.00  0.00     0.009 C 
ATOM     10  C   UNL     1       0.278   9.760  -0.165  1.00  0.00     0.042 C 
ATOM     11  C   UNL     1       3.722  12.639   0.992  1.00  0.00     0.042 C 
ENDROOT
TORSDOF 0
ENDMDL
MODEL 2
REMARK VINA RESULT:    -4.138      7.692      9.025
REMARK INTER + INTRA:          -4.138
REMARK INTER:                  -4.138
REMARK INTRA:                   0.000
REMARK UNBOUND:                 0.000
REMARK SMILES CC1(C)O[C@]2(C)CC[C@H]1CC2
REMARK SMILES IDX 1 1 2 2 9 3 10 4 11 5 5 6 4 7 7 8 8 9 6 10 3 11
REMARK H PARENT
REMARK Flexibility Score: inf
ROOT
ATOM      1  C   UNL     1       8.069  12.884   5.339  1.00  0.00     0.042 C 
ATOM      2  C   UNL     1       7.308  14.211   5.554  1.00  0.00     0.066 C 
ATOM      3  C   UNL     1       7.578  14.782   6.999  1.00  0.00     0.021 C 
ATOM      4  C   UNL     1       6.752  16.078   7.176  1.00  0.00     0.009 C 
ATOM      5  C   UNL     1       5.277  15.796   6.800  1.00  0.00     0.035 C 
ATOM      6  C   UNL     1       5.099  14.289   6.460  1.00  0.00     0.066 C 
ATOM      7  O   UNL     1       5.911  13.964   5.331  1.00  0.00    -0.369 OA
ATOM      8  C   UNL     1       5.555  13.438   7.680  1.00  0.00     0.035 C 
ATOM      9  C   UNL     1       7.023  13.775   8.035  1.00  0.00     0.009 C 
ATOM     10  C   UNL     1       3.635  13.990   6.118  1.00  0.00     0.042 C 
ATOM     11  C   UNL     1       7.797  15.201   4.475  1.00  0.00     0.042 C 
ENDROOT
TORSDOF 0
ENDMDL
MODEL 3
REMARK VINA RESULT:    -4.134      7.222      9.383
REMARK INTER + INTRA:          -4.134
REMARK INTER:                  -4.134
REMARK INTRA:                   0.000
REMARK UNBOUND:                 0.000
REMARK SMILES CC1(C)O[C@]2(C)CC[C@H]1CC2
REMARK SMILES IDX 1 1 2 2 9 3 10 4 11 5 5 6 4 7 7 8 8 9 6 10 3 11
REMARK H PARENT
REMARK Flexibility Score: inf
ROOT
ATOM      1  C   UNL     1       6.339  13.031   4.669  1.00  0.00     0.042 C 
ATOM      2  C   UNL     1       6.723  13.528   6.080  1.00  0.00     0.066 C 
ATOM      3  C   UNL     1       5.519  13.343   7.083  1.00  0.00     0.021 C 
ATOM      4  C   UNL     1       5.942  13.903   8.462  1.00  0.00     0.009 C 
ATOM      5  C   UNL     1       6.486  15.340   8.282  1.00  0.00     0.035 C 
ATOM      6  C   UNL     1       6.344  15.775   6.795  1.00  0.00     0.066 C 
ATOM      7  O   UNL     1       7.122  14.903   5.974  1.00  0.00    -0.369 OA
ATOM      8  C   UNL     1       4.849  15.671   6.378  1.00  0.00     0.035 C 
ATOM      9  C   UNL     1       4.342  14.225   6.603  1.00  0.00     0.009 C 
ATOM     10  C   UNL     1       6.850  17.210   6.609  1.00  0.00     0.042 C 
ATOM     11  C   UNL     1       7.947  12.707   6.538  1.00  0.00     0.042 C 
ENDROOT
TORSDOF 0
ENDMDL
MODEL 4
REMARK VINA RESULT:    -4.107      0.941      3.305
REMARK INTER + INTRA:          -4.107
REMARK INTER:                  -4.107
REMARK INTRA:                   0.000
REMARK UNBOUND:                 0.000
REMARK SMILES CC1(C)O[C@]2(C)CC[C@H]1CC2
REMARK SMILES IDX 1 1 2 2 9 3 10 4 11 5 5 6 4 7 7 8 8 9 6 10 3 11
REMARK H PARENT
REMARK Flexibility Score: inf
ROOT
ATOM      1  C   UNL     1       0.660   9.054   0.085  1.00  0.00     0.042 C 
ATOM      2  C   UNL     1       1.256  10.109  -0.873  1.00  0.00     0.066 C 
ATOM      3  C   UNL     1       2.510   9.527  -1.633  1.00  0.00     0.021 C 
ATOM      4  C   UNL     1       3.094  10.640  -2.535  1.00  0.00     0.009 C 
ATOM      5  C   UNL     1       3.320  11.915  -1.688  1.00  0.00     0.035 C 
ATOM      6  C   UNL     1       2.972  11.627  -0.199  1.00  0.00     0.066 C 
ATOM      7  O   UNL     1       1.593  11.272  -0.100  1.00  0.00    -0.369 OA
ATOM      8  C   UNL     1       3.844  10.441   0.303  1.00  0.00     0.035 C 
ATOM      9  C   UNL     1       3.605   9.199  -0.590  1.00  0.00     0.009 C 
ATOM     10  C   UNL     1       3.224  12.873   0.656  1.00  0.00     0.042 C 
ATOM     11  C   UNL     1       0.146  10.501  -1.871  1.00  0.00     0.042 C 
ENDROOT
TORSDOF 0
ENDMDL
MODEL 5
REMARK VINA RESULT:    -4.077      1.730      3.247
REMARK INTER + INTRA:          -4.077
REMARK INTER:                  -4.077
REMARK INTRA:                   0.000
REMARK UNBOUND:                 0.000
REMARK SMILES CC1(C)O[C@]2(C)CC[C@H]1CC2
REMARK SMILES IDX 1 1 2 2 9 3 10 4 11 5 5 6 4 7 7 8 8 9 6 10 3 11
REMARK H PARENT
REMARK Flexibility Score: inf
ROOT
ATOM      1  C   UNL     1       5.025  13.145   0.401  1.00  0.00     0.042 C 
ATOM      2  C   UNL     1       4.177  12.680  -0.804  1.00  0.00     0.066 C 
ATOM      3  C   UNL     1       3.027  11.708  -0.335  1.00  0.00     0.021 C 
ATOM      4  C   UNL     1       2.246  11.235  -1.585  1.00  0.00     0.009 C 
ATOM      5  C   UNL     1       3.246  10.682  -2.629  1.00  0.00     0.035 C 
ATOM      6  C   UNL     1       4.687  10.702  -2.042  1.00  0.00     0.066 C 
ATOM      7  O   UNL     1       5.055  12.050  -1.749  1.00  0.00    -0.369 OA
ATOM      8  C   UNL     1       4.708   9.869  -0.729  1.00  0.00     0.035 C 
ATOM      9  C   UNL     1       3.675  10.440   0.272  1.00  0.00     0.009 C 
ATOM     10  C   UNL     1       5.682  10.126  -3.055  1.00  0.00     0.042 C 
ATOM     11  C   UNL     1       3.588  13.944  -1.465  1.00  0.00     0.042 C 
ENDROOT
TORSDOF 0
ENDMDL
MODEL 6
REMARK VINA RESULT:    -4.068      1.208      3.426
REMARK INTER + INTRA:          -4.068
REMARK INTER:                  -4.068
REMARK INTRA:                   0.000
REMARK UNBOUND:                 0.000
REMARK SMILES CC1(C)O[C@]2(C)CC[C@H]1CC2
REMARK SMILES IDX 1 1 2 2 9 3 10 4 11 5 5 6 4 7 7 8 8 9 6 10 3 11
REMARK H PARENT
REMARK Flexibility Score: inf
ROOT
ATOM      1  C   UNL     1       3.464   9.009  -0.961  1.00  0.00     0.042 C 
ATOM      2  C   UNL     1       2.848  10.371  -0.571  1.00  0.00     0.066 C 
ATOM      3  C   UNL     1       3.175  11.464  -1.661  1.00  0.00     0.021 C 
ATOM      4  C   UNL     1       2.580  12.813  -1.194  1.00  0.00     0.009 C 
ATOM      5  C   UNL     1       3.051  13.104   0.251  1.00  0.00     0.035 C 
ATOM      6  C   UNL     1       4.035  11.993   0.719  1.00  0.00     0.066 C 
ATOM      7  O   UNL     1       3.357  10.736   0.721  1.00  0.00    -0.369 OA
ATOM      8  C   UNL     1       5.231  11.927  -0.274  1.00  0.00     0.035 C 
ATOM      9  C   UNL     1       4.709  11.664  -1.708  1.00  0.00     0.009 C 
ATOM     10  C   UNL     1       4.535  12.287   2.137  1.00  0.00     0.042 C 
ATOM     11  C   UNL     1       1.323  10.165  -0.445  1.00  0.00     0.042 C 
ENDROOT
TORSDOF 0
ENDMDL
MODEL 7
REMARK VINA RESULT:    -4.055      7.776      9.038
REMARK INTER + INTRA:          -4.055
REMARK INTER:                  -4.055
REMARK INTRA:                   0.000
REMARK UNBOUND:                 0.000
REMARK SMILES CC1(C)O[C@]2(C)CC[C@H]1CC2
REMARK SMILES IDX 1 1 2 2 9 3 10 4 11 5 5 6 4 7 7 8 8 9 6 10 3 11
REMARK H PARENT
REMARK Flexibility Score: inf
ROOT
ATOM      1  C   UNL     1       7.393  16.505   4.929  1.00  0.00     0.042 C 
ATOM      2  C   UNL     1       6.804  16.089   6.295  1.00  0.00     0.066 C 
ATOM      3  C   UNL     1       7.605  14.871   6.900  1.00  0.00     0.021 C 
ATOM      4  C   UNL     1       6.941  14.466   8.237  1.00  0.00     0.009 C 
ATOM      5  C   UNL     1       5.424  14.260   8.010  1.00  0.00     0.035 C 
ATOM      6  C   UNL     1       5.088  14.440   6.502  1.00  0.00     0.066 C 
ATOM      7  O   UNL     1       5.417  15.771   6.103  1.00  0.00    -0.369 OA
ATOM      8  C   UNL     1       5.935  13.434   5.672  1.00  0.00     0.035 C 
ATOM      9  C   UNL     1       7.441  13.658   5.953  1.00  0.00     0.009 C 
ATOM     10  C   UNL     1       3.593  14.207   6.258  1.00  0.00     0.042 C 
ATOM     11  C   UNL     1       6.891  17.317   7.225  1.00  0.00     0.042 C 
ENDROOT
TORSDOF 0
ENDMDL
MODEL 8
REMARK VINA RESULT:    -4.053      1.311      2.393
REMARK INTER + INTRA:          -4.053
REMARK INTER:                  -4.053
REMARK INTRA:                   0.000
REMARK UNBOUND:                 0.000
REMARK SMILES CC1(C)O[C@]2(C)CC[C@H]1CC2
REMARK SMILES IDX 1 1 2 2 9 3 10 4 11 5 5 6 4 7 7 8 8 9 6 10 3 11
REMARK H PARENT
REMARK Flexibility Score: inf
ROOT
ATOM      1  C   UNL     1       4.330  12.534   1.961  1.00  0.00     0.042 C 
ATOM      2  C   UNL     1       4.457  11.605   0.734  1.00  0.00     0.066 C 
ATOM      3  C   UNL     1       4.995  12.402  -0.517  1.00  0.00     0.021 C 
ATOM      4  C   UNL     1       5.052  11.437  -1.724  1.00  0.00     0.009 C 
ATOM      5  C   UNL     1       3.681  10.735  -1.879  1.00  0.00     0.035 C 
ATOM      6  C   UNL     1       2.679  11.298  -0.831  1.00  0.00     0.066 C 
ATOM      7  O   UNL     1       3.169  11.022   0.481  1.00  0.00    -0.369 OA
ATOM      8  C   UNL     1       2.562  12.838  -1.021  1.00  0.00     0.035 C 
ATOM      9  C   UNL     1       3.959  13.491  -0.885  1.00  0.00     0.009 C 
ATOM     10  C   UNL     1       1.308  10.635  -0.996  1.00  0.00     0.042 C 
ATOM     11  C   UNL     1       5.430  10.469   1.118  1.00  0.00     0.042 C 
ENDROOT
TORSDOF 0
ENDMDL
MODEL 9
REMARK VINA RESULT:    -3.514      7.806      9.151
REMARK INTER + INTRA:          -3.514
REMARK INTER:                  -3.514
REMARK INTRA:                   0.000
REMARK UNBOUND:                 0.000
REMARK SMILES CC1(C)O[C@]2(C)CC[C@H]1CC2
REMARK SMILES IDX 1 1 2 2 9 3 10 4 11 5 5 6 4 7 7 8 8 9 6 10 3 11
REMARK H PARENT
REMARK Flexibility Score: inf
ROOT
ATOM      1  C   UNL     1       3.843  14.222   6.291  1.00  0.00     0.042 C 
ATOM      2  C   UNL     1       5.286  13.730   6.539  1.00  0.00     0.066 C 
ATOM      3  C   UNL     1       5.949  14.522   7.732  1.00  0.00     0.021 C 
ATOM      4  C   UNL     1       7.405  14.026   7.899  1.00  0.00     0.009 C 
ATOM      5  C   UNL     1       8.125  14.091   6.531  1.00  0.00     0.035 C 
ATOM      6  C   UNL     1       7.179  14.717   5.466  1.00  0.00     0.066 C 
ATOM      7  O   UNL     1       6.026  13.887   5.318  1.00  0.00    -0.369 OA
ATOM      8  C   UNL     1       6.735  16.127   5.951  1.00  0.00     0.035 C 
ATOM      9  C   UNL     1       6.047  16.014   7.333  1.00  0.00     0.009 C 
ATOM     10  C   UNL     1       7.892  14.818   4.114  1.00  0.00     0.042 C 
ATOM     11  C   UNL     1       5.208  12.222   6.862  1.00  0.00     0.042 C 
ENDROOT
TORSDOF 0
ENDMDL
