MODEL 1
REMARK VINA RESULT:     6.772      0.000      0.000
REMARK INTER + INTRA:          13.760
REMARK INTER:                  11.127
REMARK INTRA:                   2.634
REMARK UNBOUND:                 2.634
REMARK SMILES C[C@H]1O[C@@H](OC[C@H]2O[C@@H](Oc3c(-c4ccc(O)c(O)c4)oc4cc(O)cc(O)c4c3=O)[C@@H](O)[C@H](O)[C@H]2O)[C@@H](O)[C@@H](O)[C@H]1O
REMARK SMILES IDX 7 1 36 2 34 3 32 4 9 5 8 6 6 7 5 8 4 9 1 10 2 11 42 12 3 13
REMARK SMILES IDX 40 14 38 15 43 16 41 18 39 20 37 22 35 24 10 26 11 27 12 28
REMARK SMILES IDX 30 29 21 30 29 31 31 32 22 33 27 34 23 35 26 36 24 37 13 38
REMARK SMILES IDX 20 39 14 40 18 41 15 42 16 43 19 44 17 46 28 48 25 50 33 52
REMARK H PARENT 43 17 41 19 39 21 37 23 35 25 19 45 17 47 28 49 25 51 33 53
REMARK Flexibility Score: inf
ROOT
ATOM      1  C   UNL     1     116.530 112.600 122.931  1.00  0.00     0.180 C 
ATOM      2  C   UNL     1     115.236 112.254 122.177  1.00  0.00     0.177 C 
ATOM      3  C   UNL     1     115.118 113.057 120.872  1.00  0.00     0.180 C 
ATOM      4  C   UNL     1     115.770 114.461 120.947  1.00  0.00     0.214 C 
ATOM      5  C   UNL     1     116.143 114.926 122.393  1.00  0.00     0.339 C 
ATOM      6  O   UNL     1     116.551 113.946 123.348  1.00  0.00    -0.332 OA
ENDROOT
BRANCH   1   7
ATOM      7  C   UNL     1     117.863 112.220 122.252  1.00  0.00     0.198 C 
BRANCH   7   8
ATOM      8  O   UNL     1     118.602 113.381 121.926  1.00  0.00    -0.347 OA
BRANCH   8   9
ATOM      9  C   UNL     1     119.629 113.144 120.971  1.00  0.00     0.281 C 
ATOM     10  C   UNL     1     119.809 110.939 118.276  1.00  0.00     0.041 C 
ATOM     11  C   UNL     1     120.044 112.387 118.728  1.00  0.00     0.150 C 
ATOM     12  C   UNL     1     121.539 112.689 119.094  1.00  0.00     0.174 C 
ATOM     13  O   UNL     1     119.079 112.709 119.733  1.00  0.00    -0.344 OA
ATOM     14  C   UNL     1     121.948 112.245 120.533  1.00  0.00     0.179 C 
ATOM     15  C   UNL     1     120.728 112.188 121.492  1.00  0.00     0.202 C 
BRANCH  12  16
ATOM     16  O   UNL     1     122.437 112.252 118.100  1.00  0.00    -0.388 OA
ATOM     17  H   UNL     1     122.527 111.265 118.163  1.00  0.00     0.211 HD
ENDBRANCH  12  16
BRANCH  14  18
ATOM     18  O   UNL     1     122.692 111.049 120.551  1.00  0.00    -0.387 OA
ATOM     19  H   UNL     1     122.380 110.478 119.804  1.00  0.00     0.211 HD
ENDBRANCH  14  18
BRANCH  15  20
ATOM     20  O   UNL     1     120.232 110.875 121.585  1.00  0.00    -0.385 OA
ATOM     21  H   UNL     1     119.641 110.729 120.800  1.00  0.00     0.211 HD
ENDBRANCH  15  20
ENDBRANCH   8   9
ENDBRANCH   7   8
ENDBRANCH   1   7
BRANCH   2  22
ATOM     22  O   UNL     1     115.175 110.875 121.914  1.00  0.00    -0.387 OA
ATOM     23  H   UNL     1     114.225 110.608 122.018  1.00  0.00     0.211 HD
ENDBRANCH   2  22
BRANCH   3  24
ATOM     24  O   UNL     1     113.768 113.157 120.484  1.00  0.00    -0.387 OA
ATOM     25  H   UNL     1     113.750 113.517 119.556  1.00  0.00     0.211 HD
ENDBRANCH   3  24
BRANCH   5  26
ATOM     26  O   UNL     1     117.116 115.980 122.327  1.00  0.00    -0.454 OA
BRANCH  26  27
ATOM     27  C   UNL     1     116.988 117.118 121.511  1.00  0.00     0.214 A 
ATOM     28  C   UNL     1     118.072 117.579 120.735  1.00  0.00     0.180 A 
ATOM     29  C   UNL     1     115.776 117.825 121.453  1.00  0.00     0.239 A 
ATOM     30  O   UNL     1     117.964 118.718 120.057  1.00  0.00    -0.452 OA
ATOM     31  C   UNL     1     115.701 119.030 120.722  1.00  0.00     0.111 A 
ATOM     32  O   UNL     1     114.763 117.365 122.050  1.00  0.00    -0.285 OA
ATOM     33  C   UNL     1     116.858 119.452 120.032  1.00  0.00     0.146 A 
ATOM     34  C   UNL     1     114.527 119.820 120.653  1.00  0.00     0.134 A 
ATOM     35  C   UNL     1     116.847 120.644 119.299  1.00  0.00     0.094 A 
ATOM     36  C   UNL     1     114.532 121.004 119.900  1.00  0.00     0.093 A 
ATOM     37  C   UNL     1     115.682 121.417 119.227  1.00  0.00     0.123 A 
BRANCH  28  38
ATOM     38  C   UNL     1     119.351 116.847 120.661  1.00  0.00     0.025 A 
ATOM     39  C   UNL     1     119.889 116.215 121.795  1.00  0.00     0.062 A 
ATOM     40  C   UNL     1     120.047 116.779 119.442  1.00  0.00     0.016 A 
ATOM     41  C   UNL     1     121.125 115.562 121.724  1.00  0.00     0.158 A 
ATOM     42  C   UNL     1     121.283 116.132 119.370  1.00  0.00     0.051 A 
ATOM     43  C   UNL     1     121.831 115.530 120.505  1.00  0.00     0.157 A 
BRANCH  41  44
ATOM     44  O   UNL     1     121.645 114.932 122.853  1.00  0.00    -0.504 OA
ATOM     45  H   UNL     1     122.647 114.822 122.987  1.00  0.00     0.293 HD
ENDBRANCH  41  44
BRANCH  43  46
ATOM     46  O   UNL     1     123.075 114.899 120.408  1.00  0.00    -0.504 OA
ATOM     47  H   UNL     1     123.211 113.930 120.683  1.00  0.00     0.293 HD
ENDBRANCH  43  46
ENDBRANCH  28  38
BRANCH  34  48
ATOM     48  O   UNL     1     113.365 119.439 121.318  1.00  0.00    -0.507 OA
ATOM     49  H   UNL     1     112.624 118.930 120.852  1.00  0.00     0.293 HD
ENDBRANCH  34  48
BRANCH  37  50
ATOM     50  O   UNL     1     115.654 122.592 118.480  1.00  0.00    -0.508 OA
ATOM     51  H   UNL     1     116.430 123.244 118.493  1.00  0.00     0.293 HD
ENDBRANCH  37  50
ENDBRANCH  26  27
ENDBRANCH   5  26
BRANCH   4  52
ATOM     52  O   UNL     1     116.903 114.498 120.116  1.00  0.00    -0.384 OA
ATOM     53  H   UNL     1     117.080 113.566 119.820  1.00  0.00     0.211 HD
ENDBRANCH   4  52
TORSDOF 16
ENDMDL
MODEL 2
REMARK VINA RESULT:     7.163      3.350      6.336
REMARK INTER + INTRA:          14.403
REMARK INTER:                  11.850
REMARK INTRA:                   2.553
REMARK UNBOUND:                 2.634
REMARK SMILES C[C@H]1O[C@@H](OC[C@H]2O[C@@H](Oc3c(-c4ccc(O)c(O)c4)oc4cc(O)cc(O)c4c3=O)[C@@H](O)[C@H](O)[C@H]2O)[C@@H](O)[C@@H](O)[C@H]1O
REMARK SMILES IDX 7 1 36 2 34 3 32 4 9 5 8 6 6 7 5 8 4 9 1 10 2 11 42 12 3 13
REMARK SMILES IDX 40 14 38 15 43 16 41 18 39 20 37 22 35 24 10 26 11 27 12 28
REMARK SMILES IDX 30 29 21 30 29 31 31 32 22 33 27 34 23 35 26 36 24 37 13 38
REMARK SMILES IDX 20 39 14 40 18 41 15 42 16 43 19 44 17 46 28 48 25 50 33 52
REMARK H PARENT 43 17 41 19 39 21 37 23 35 25 19 45 17 47 28 49 25 51 33 53
REMARK Flexibility Score: inf
ROOT
ATOM      1  C   UNL     1     123.140 115.048 119.785  1.00  0.00     0.180 C 
ATOM      2  C   UNL     1     122.691 113.805 119.001  1.00  0.00     0.177 C 
ATOM      3  C   UNL     1     121.443 114.100 118.154  1.00  0.00     0.180 C 
ATOM      4  C   UNL     1     120.501 115.157 118.786  1.00  0.00     0.214 C 
ATOM      5  C   UNL     1     120.816 115.495 120.280  1.00  0.00     0.339 C 
ATOM      6  O   UNL     1     122.172 115.455 120.724  1.00  0.00    -0.332 OA
ENDROOT
BRANCH   1   7
ATOM      7  C   UNL     1     123.643 116.255 118.964  1.00  0.00     0.198 C 
BRANCH   7   8
ATOM      8  O   UNL     1     125.032 116.143 118.718  1.00  0.00    -0.347 OA
BRANCH   8   9
ATOM      9  C   UNL     1     125.705 117.396 118.719  1.00  0.00     0.281 C 
ATOM     10  C   UNL     1     129.090 118.197 118.474  1.00  0.00     0.041 C 
ATOM     11  C   UNL     1     127.683 118.527 117.955  1.00  0.00     0.150 C 
ATOM     12  C   UNL     1     127.033 119.765 118.665  1.00  0.00     0.174 C 
ATOM     13  O   UNL     1     126.907 117.327 117.960  1.00  0.00    -0.344 OA
ATOM     14  C   UNL     1     126.375 119.441 120.042  1.00  0.00     0.179 C 
ATOM     15  C   UNL     1     125.943 117.952 120.142  1.00  0.00     0.202 C 
BRANCH  12  16
ATOM     16  O   UNL     1     127.896 120.877 118.709  1.00  0.00    -0.388 OA
ATOM     17  H   UNL     1     128.588 120.772 118.005  1.00  0.00     0.211 HD
ENDBRANCH  12  16
BRANCH  14  18
ATOM     18  O   UNL     1     127.164 119.838 121.138  1.00  0.00    -0.387 OA
ATOM     19  H   UNL     1     128.046 120.132 120.796  1.00  0.00     0.211 HD
ENDBRANCH  14  18
BRANCH  15  20
ATOM     20  O   UNL     1     126.925 117.195 120.807  1.00  0.00    -0.385 OA
ATOM     21  H   UNL     1     126.963 116.309 120.360  1.00  0.00     0.211 HD
ENDBRANCH  15  20
ENDBRANCH   8   9
ENDBRANCH   7   8
ENDBRANCH   1   7
BRANCH   2  22
ATOM     22  O   UNL     1     123.736 113.333 118.188  1.00  0.00    -0.387 OA
ATOM     23  H   UNL     1     124.454 114.017 118.223  1.00  0.00     0.211 HD
ENDBRANCH   2  22
BRANCH   3  24
ATOM     24  O   UNL     1     120.743 112.908 117.890  1.00  0.00    -0.387 OA
ATOM     25  H   UNL     1     120.011 113.126 117.251  1.00  0.00     0.211 HD
ENDBRANCH   3  24
BRANCH   5  26
ATOM     26  O   UNL     1     120.224 116.756 120.627  1.00  0.00    -0.454 OA
BRANCH  26  27
ATOM     27  C   UNL     1     118.848 116.944 120.849  1.00  0.00     0.214 A 
ATOM     28  C   UNL     1     118.051 115.906 121.376  1.00  0.00     0.180 A 
ATOM     29  C   UNL     1     118.235 118.171 120.548  1.00  0.00     0.239 A 
ATOM     30  O   UNL     1     116.735 116.067 121.474  1.00  0.00    -0.452 OA
ATOM     31  C   UNL     1     116.834 118.303 120.665  1.00  0.00     0.111 A 
ATOM     32  O   UNL     1     118.950 119.146 120.183  1.00  0.00    -0.285 OA
ATOM     33  C   UNL     1     116.107 117.187 121.135  1.00  0.00     0.146 A 
ATOM     34  C   UNL     1     116.140 119.493 120.338  1.00  0.00     0.134 A 
ATOM     35  C   UNL     1     114.715 117.255 121.263  1.00  0.00     0.094 A 
ATOM     36  C   UNL     1     114.746 119.546 120.488  1.00  0.00     0.093 A 
ATOM     37  C   UNL     1     114.035 118.437 120.946  1.00  0.00     0.123 A 
BRANCH  28  38
ATOM     38  C   UNL     1     118.626 114.618 121.809  1.00  0.00     0.025 A 
ATOM     39  C   UNL     1     119.997 114.496 122.089  1.00  0.00     0.062 A 
ATOM     40  C   UNL     1     117.795 113.493 121.944  1.00  0.00     0.016 A 
ATOM     41  C   UNL     1     120.539 113.259 122.455  1.00  0.00     0.158 A 
ATOM     42  C   UNL     1     118.334 112.256 122.305  1.00  0.00     0.051 A 
ATOM     43  C   UNL     1     119.703 112.129 122.554  1.00  0.00     0.157 A 
BRANCH  41  44
ATOM     44  O   UNL     1     121.900 113.151 122.738  1.00  0.00    -0.504 OA
ATOM     45  H   UNL     1     122.238 112.615 123.533  1.00  0.00     0.293 HD
ENDBRANCH  41  44
BRANCH  43  46
ATOM     46  O   UNL     1     120.219 110.877 122.903  1.00  0.00    -0.504 OA
ATOM     47  H   UNL     1     120.814 110.346 122.275  1.00  0.00     0.293 HD
ENDBRANCH  43  46
ENDBRANCH  28  38
BRANCH  34  48
ATOM     48  O   UNL     1     116.820 120.615 119.873  1.00  0.00    -0.507 OA
ATOM     49  H   UNL     1     117.023 120.748 118.889  1.00  0.00     0.293 HD
ENDBRANCH  34  48
BRANCH  37  50
ATOM     50  O   UNL     1     112.653 118.522 121.094  1.00  0.00    -0.508 OA
ATOM     51  H   UNL     1     112.171 119.412 121.049  1.00  0.00     0.293 HD
ENDBRANCH  37  50
ENDBRANCH  26  27
ENDBRANCH   5  26
BRANCH   4  52
ATOM     52  O   UNL     1     120.520 116.327 118.008  1.00  0.00    -0.384 OA
ATOM     53  H   UNL     1     120.065 116.116 117.150  1.00  0.00     0.211 HD
ENDBRANCH   4  52
TORSDOF 16
ENDMDL
MODEL 3
REMARK VINA RESULT:     7.875      3.171      6.463
REMARK INTER + INTRA:          15.574
REMARK INTER:                  14.511
REMARK INTRA:                   1.063
REMARK UNBOUND:                 2.634
REMARK SMILES C[C@H]1O[C@@H](OC[C@H]2O[C@@H](Oc3c(-c4ccc(O)c(O)c4)oc4cc(O)cc(O)c4c3=O)[C@@H](O)[C@H](O)[C@H]2O)[C@@H](O)[C@@H](O)[C@H]1O
REMARK SMILES IDX 7 1 36 2 34 3 32 4 9 5 8 6 6 7 5 8 4 9 1 10 2 11 42 12 3 13
REMARK SMILES IDX 40 14 38 15 43 16 41 18 39 20 37 22 35 24 10 26 11 27 12 28
REMARK SMILES IDX 30 29 21 30 29 31 31 32 22 33 27 34 23 35 26 36 24 37 13 38
REMARK SMILES IDX 20 39 14 40 18 41 15 42 16 43 19 44 17 46 28 48 25 50 33 52
REMARK H PARENT 43 17 41 19 39 21 37 23 35 25 19 45 17 47 28 49 25 51 33 53
REMARK Flexibility Score: inf
ROOT
ATOM      1  C   UNL     1     123.139 114.586 120.145  1.00  0.00     0.180 C 
ATOM      2  C   UNL     1     122.766 113.522 119.101  1.00  0.00     0.177 C 
ATOM      3  C   UNL     1     121.351 113.754 118.549  1.00  0.00     0.180 C 
ATOM      4  C   UNL     1     120.380 114.388 119.578  1.00  0.00     0.214 C 
ATOM      5  C   UNL     1     120.905 114.386 121.050  1.00  0.00     0.339 C 
ATOM      6  O   UNL     1     122.308 114.522 121.281  1.00  0.00    -0.332 OA
ENDROOT
BRANCH   1   7
ATOM      7  C   UNL     1     123.272 116.042 119.651  1.00  0.00     0.198 C 
BRANCH   7   8
ATOM      8  O   UNL     1     124.411 116.182 118.823  1.00  0.00    -0.347 OA
BRANCH   8   9
ATOM      9  C   UNL     1     125.142 117.377 119.071  1.00  0.00     0.281 C 
ATOM     10  C   UNL     1     128.222 118.490 117.875  1.00  0.00     0.041 C 
ATOM     11  C   UNL     1     126.760 118.883 118.130  1.00  0.00     0.150 C 
ATOM     12  C   UNL     1     126.551 119.664 119.474  1.00  0.00     0.174 C 
ATOM     13  O   UNL     1     125.943 117.725 117.948  1.00  0.00    -0.344 OA
ATOM     14  C   UNL     1     126.454 118.752 120.735  1.00  0.00     0.179 C 
ATOM     15  C   UNL     1     125.963 117.322 120.381  1.00  0.00     0.202 C 
BRANCH  12  16
ATOM     16  O   UNL     1     127.460 120.730 119.626  1.00  0.00    -0.388 OA
ATOM     17  H   UNL     1     128.026 120.555 120.423  1.00  0.00     0.211 HD
ENDBRANCH  12  16
BRANCH  14  18
ATOM     18  O   UNL     1     127.640 118.731 121.495  1.00  0.00    -0.387 OA
ATOM     19  H   UNL     1     127.503 118.127 122.269  1.00  0.00     0.211 HD
ENDBRANCH  14  18
BRANCH  15  20
ATOM     20  O   UNL     1     127.054 116.444 120.238  1.00  0.00    -0.385 OA
ATOM     21  H   UNL     1     127.334 116.174 121.152  1.00  0.00     0.211 HD
ENDBRANCH  15  20
ENDBRANCH   8   9
ENDBRANCH   7   8
ENDBRANCH   1   7
BRANCH   2  22
ATOM     22  O   UNL     1     123.707 113.509 118.057  1.00  0.00    -0.387 OA
ATOM     23  H   UNL     1     123.240 113.150 117.259  1.00  0.00     0.211 HD
ENDBRANCH   2  22
BRANCH   3  24
ATOM     24  O   UNL     1     120.823 112.550 118.045  1.00  0.00    -0.387 OA
ATOM     25  H   UNL     1     120.872 112.595 117.051  1.00  0.00     0.211 HD
ENDBRANCH   3  24
BRANCH   5  26
ATOM     26  O   UNL     1     120.186 115.360 121.822  1.00  0.00    -0.454 OA
BRANCH  26  27
ATOM     27  C   UNL     1     119.164 116.175 121.303  1.00  0.00     0.214 A 
ATOM     28  C   UNL     1     117.812 115.779 121.379  1.00  0.00     0.180 A 
ATOM     29  C   UNL     1     119.468 117.403 120.693  1.00  0.00     0.239 A 
ATOM     30  O   UNL     1     116.874 116.511 120.785  1.00  0.00    -0.452 OA
ATOM     31  C   UNL     1     118.444 118.151 120.073  1.00  0.00     0.111 A 
ATOM     32  O   UNL     1     120.658 117.827 120.716  1.00  0.00    -0.285 OA
ATOM     33  C   UNL     1     117.128 117.642 120.139  1.00  0.00     0.146 A 
ATOM     34  C   UNL     1     118.680 119.375 119.401  1.00  0.00     0.134 A 
ATOM     35  C   UNL     1     116.073 118.335 119.535  1.00  0.00     0.094 A 
ATOM     36  C   UNL     1     117.606 120.061 118.815  1.00  0.00     0.093 A 
ATOM     37  C   UNL     1     116.310 119.548 118.878  1.00  0.00     0.123 A 
BRANCH  28  38
ATOM     38  C   UNL     1     117.392 114.553 122.085  1.00  0.00     0.025 A 
ATOM     39  C   UNL     1     117.622 113.284 121.527  1.00  0.00     0.062 A 
ATOM     40  C   UNL     1     116.752 114.650 123.332  1.00  0.00     0.016 A 
ATOM     41  C   UNL     1     117.179 112.130 122.184  1.00  0.00     0.158 A 
ATOM     42  C   UNL     1     116.305 113.500 123.987  1.00  0.00     0.051 A 
ATOM     43  C   UNL     1     116.506 112.240 123.418  1.00  0.00     0.157 A 
BRANCH  41  44
ATOM     44  O   UNL     1     117.418 110.875 121.626  1.00  0.00    -0.504 OA
ATOM     45  H   UNL     1     117.960 110.768 120.772  1.00  0.00     0.293 HD
ENDBRANCH  41  44
BRANCH  43  46
ATOM     46  O   UNL     1     116.039 111.106 124.089  1.00  0.00    -0.504 OA
ATOM     47  H   UNL     1     116.666 110.384 124.428  1.00  0.00     0.293 HD
ENDBRANCH  43  46
ENDBRANCH  28  38
BRANCH  34  48
ATOM     48  O   UNL     1     119.961 119.911 119.314  1.00  0.00    -0.507 OA
ATOM     49  H   UNL     1     120.721 119.576 119.894  1.00  0.00     0.293 HD
ENDBRANCH  34  48
BRANCH  37  50
ATOM     50  O   UNL     1     115.263 120.256 118.295  1.00  0.00    -0.508 OA
ATOM     51  H   UNL     1     114.402 119.797 118.022  1.00  0.00     0.293 HD
ENDBRANCH  37  50
ENDBRANCH  26  27
ENDBRANCH   5  26
BRANCH   4  52
ATOM     52  O   UNL     1     120.058 115.695 119.176  1.00  0.00    -0.384 OA
ATOM     53  H   UNL     1     120.339 116.305 119.909  1.00  0.00     0.211 HD
ENDBRANCH   4  52
TORSDOF 16
ENDMDL
MODEL 4
REMARK VINA RESULT:     8.399      0.854      1.790
REMARK INTER + INTRA:          16.434
REMARK INTER:                  12.489
REMARK INTRA:                   3.945
REMARK UNBOUND:                 2.634
REMARK SMILES C[C@H]1O[C@@H](OC[C@H]2O[C@@H](Oc3c(-c4ccc(O)c(O)c4)oc4cc(O)cc(O)c4c3=O)[C@@H](O)[C@H](O)[C@H]2O)[C@@H](O)[C@@H](O)[C@H]1O
REMARK SMILES IDX 7 1 36 2 34 3 32 4 9 5 8 6 6 7 5 8 4 9 1 10 2 11 42 12 3 13
REMARK SMILES IDX 40 14 38 15 43 16 41 18 39 20 37 22 35 24 10 26 11 27 12 28
REMARK SMILES IDX 30 29 21 30 29 31 31 32 22 33 27 34 23 35 26 36 24 37 13 38
REMARK SMILES IDX 20 39 14 40 18 41 15 42 16 43 19 44 17 46 28 48 25 50 33 52
REMARK H PARENT 43 17 41 19 39 21 37 23 35 25 19 45 17 47 28 49 25 51 33 53
REMARK Flexibility Score: inf
ROOT
ATOM      1  C   UNL     1     116.257 112.790 123.450  1.00  0.00     0.180 C 
ATOM      2  C   UNL     1     115.169 112.278 122.492  1.00  0.00     0.177 C 
ATOM      3  C   UNL     1     115.322 112.896 121.093  1.00  0.00     0.180 C 
ATOM      4  C   UNL     1     115.907 114.331 121.110  1.00  0.00     0.214 C 
ATOM      5  C   UNL     1     115.941 115.001 122.523  1.00  0.00     0.339 C 
ATOM      6  O   UNL     1     116.153 114.177 123.670  1.00  0.00    -0.332 OA
ENDROOT
BRANCH   1   7
ATOM      7  C   UNL     1     117.716 112.397 123.133  1.00  0.00     0.198 C 
BRANCH   7   8
ATOM      8  O   UNL     1     117.760 111.489 122.048  1.00  0.00    -0.347 OA
BRANCH   8   9
ATOM      9  C   UNL     1     119.060 111.342 121.491  1.00  0.00     0.281 C 
ATOM     10  C   UNL     1     122.092 112.877 122.273  1.00  0.00     0.041 C 
ATOM     11  C   UNL     1     121.405 111.535 121.981  1.00  0.00     0.150 C 
ATOM     12  C   UNL     1     121.572 111.062 120.495  1.00  0.00     0.174 C 
ATOM     13  O   UNL     1     120.063 111.600 122.468  1.00  0.00    -0.344 OA
ATOM     14  C   UNL     1     120.566 111.716 119.498  1.00  0.00     0.179 C 
ATOM     15  C   UNL     1     119.265 112.180 120.207  1.00  0.00     0.202 C 
BRANCH  12  16
ATOM     16  O   UNL     1     122.909 111.121 120.056  1.00  0.00    -0.388 OA
ATOM     17  H   UNL     1     123.493 111.312 120.837  1.00  0.00     0.211 HD
ENDBRANCH  12  16
BRANCH  14  18
ATOM     18  O   UNL     1     121.143 112.743 118.726  1.00  0.00    -0.387 OA
ATOM     19  H   UNL     1     122.054 112.919 119.075  1.00  0.00     0.211 HD
ENDBRANCH  14  18
BRANCH  15  20
ATOM     20  O   UNL     1     119.333 113.550 120.522  1.00  0.00    -0.385 OA
ATOM     21  H   UNL     1     118.621 114.006 120.001  1.00  0.00     0.211 HD
ENDBRANCH  15  20
ENDBRANCH   8   9
ENDBRANCH   7   8
ENDBRANCH   1   7
BRANCH   2  22
ATOM     22  O   UNL     1     115.202 110.875 122.417  1.00  0.00    -0.387 OA
ATOM     23  H   UNL     1     116.063 110.633 121.987  1.00  0.00     0.211 HD
ENDBRANCH   2  22
BRANCH   3  24
ATOM     24  O   UNL     1     114.089 112.871 120.414  1.00  0.00    -0.387 OA
ATOM     25  H   UNL     1     113.749 111.935 120.445  1.00  0.00     0.211 HD
ENDBRANCH   3  24
BRANCH   5  26
ATOM     26  O   UNL     1     116.878 116.089 122.521  1.00  0.00    -0.454 OA
BRANCH  26  27
ATOM     27  C   UNL     1     116.799 117.193 121.653  1.00  0.00     0.214 A 
ATOM     28  C   UNL     1     117.917 117.601 120.897  1.00  0.00     0.180 A 
ATOM     29  C   UNL     1     115.603 117.918 121.525  1.00  0.00     0.239 A 
ATOM     30  O   UNL     1     117.853 118.711 120.168  1.00  0.00    -0.452 OA
ATOM     31  C   UNL     1     115.575 119.092 120.742  1.00  0.00     0.111 A 
ATOM     32  O   UNL     1     114.562 117.502 122.106  1.00  0.00    -0.285 OA
ATOM     33  C   UNL     1     116.763 119.463 120.074  1.00  0.00     0.146 A 
ATOM     34  C   UNL     1     114.420 119.899 120.600  1.00  0.00     0.134 A 
ATOM     35  C   UNL     1     116.799 120.623 119.291  1.00  0.00     0.094 A 
ATOM     36  C   UNL     1     114.473 121.049 119.798  1.00  0.00     0.093 A 
ATOM     37  C   UNL     1     115.653 121.413 119.147  1.00  0.00     0.123 A 
BRANCH  28  38
ATOM     38  C   UNL     1     119.183 116.844 120.897  1.00  0.00     0.025 A 
ATOM     39  C   UNL     1     120.039 116.866 119.782  1.00  0.00     0.062 A 
ATOM     40  C   UNL     1     119.544 116.087 122.025  1.00  0.00     0.016 A 
ATOM     41  C   UNL     1     121.216 116.108 119.776  1.00  0.00     0.158 A 
ATOM     42  C   UNL     1     120.716 115.326 122.018  1.00  0.00     0.051 A 
ATOM     43  C   UNL     1     121.551 115.325 120.898  1.00  0.00     0.157 A 
BRANCH  41  44
ATOM     44  O   UNL     1     122.060 116.144 118.668  1.00  0.00    -0.504 OA
ATOM     45  H   UNL     1     121.820 116.671 117.832  1.00  0.00     0.293 HD
ENDBRANCH  41  44
BRANCH  43  46
ATOM     46  O   UNL     1     122.712 114.546 120.915  1.00  0.00    -0.504 OA
ATOM     47  H   UNL     1     123.450 114.693 121.596  1.00  0.00     0.293 HD
ENDBRANCH  43  46
ENDBRANCH  28  38
BRANCH  34  48
ATOM     48  O   UNL     1     113.230 119.568 121.241  1.00  0.00    -0.507 OA
ATOM     49  H   UNL     1     112.774 118.676 121.093  1.00  0.00     0.293 HD
ENDBRANCH  34  48
BRANCH  37  50
ATOM     50  O   UNL     1     115.672 122.554 118.351  1.00  0.00    -0.508 OA
ATOM     51  H   UNL     1     114.820 122.943 117.965  1.00  0.00     0.293 HD
ENDBRANCH  37  50
ENDBRANCH  26  27
ENDBRANCH   5  26
BRANCH   4  52
ATOM     52  O   UNL     1     117.193 114.321 120.545  1.00  0.00    -0.384 OA
ATOM     53  H   UNL     1     117.089 114.093 119.583  1.00  0.00     0.211 HD
ENDBRANCH   4  52
TORSDOF 16
ENDMDL
MODEL 5
REMARK VINA RESULT:     9.136      2.633      5.938
REMARK INTER + INTRA:          17.644
REMARK INTER:                  19.078
REMARK INTRA:                  -1.433
REMARK UNBOUND:                 2.634
REMARK SMILES C[C@H]1O[C@@H](OC[C@H]2O[C@@H](Oc3c(-c4ccc(O)c(O)c4)oc4cc(O)cc(O)c4c3=O)[C@@H](O)[C@H](O)[C@H]2O)[C@@H](O)[C@@H](O)[C@H]1O
REMARK SMILES IDX 7 1 36 2 34 3 32 4 9 5 8 6 6 7 5 8 4 9 1 10 2 11 42 12 3 13
REMARK SMILES IDX 40 14 38 15 43 16 41 18 39 20 37 22 35 24 10 26 11 27 12 28
REMARK SMILES IDX 30 29 21 30 29 31 31 32 22 33 27 34 23 35 26 36 24 37 13 38
REMARK SMILES IDX 20 39 14 40 18 41 15 42 16 43 19 44 17 46 28 48 25 50 33 52
REMARK H PARENT 43 17 41 19 39 21 37 23 35 25 19 45 17 47 28 49 25 51 33 53
REMARK Flexibility Score: inf
ROOT
ATOM      1  C   UNL     1     122.301 115.438 120.769  1.00  0.00     0.180 C 
ATOM      2  C   UNL     1     122.507 114.409 121.891  1.00  0.00     0.177 C 
ATOM      3  C   UNL     1     121.531 113.230 121.754  1.00  0.00     0.180 C 
ATOM      4  C   UNL     1     120.168 113.624 121.129  1.00  0.00     0.214 C 
ATOM      5  C   UNL     1     119.914 115.164 121.045  1.00  0.00     0.339 C 
ATOM      6  O   UNL     1     121.026 116.034 120.829  1.00  0.00    -0.332 OA
ENDROOT
BRANCH   1   7
ATOM      7  C   UNL     1     122.621 114.982 119.329  1.00  0.00     0.198 C 
BRANCH   7   8
ATOM      8  O   UNL     1     123.227 116.033 118.600  1.00  0.00    -0.347 OA
BRANCH   8   9
ATOM      9  C   UNL     1     124.430 116.506 119.192  1.00  0.00     0.281 C 
ATOM     10  C   UNL     1     127.083 118.348 117.876  1.00  0.00     0.041 C 
ATOM     11  C   UNL     1     126.107 118.222 119.055  1.00  0.00     0.150 C 
ATOM     12  C   UNL     1     126.719 117.473 120.290  1.00  0.00     0.174 C 
ATOM     13  O   UNL     1     124.869 117.705 118.564  1.00  0.00    -0.344 OA
ATOM     14  C   UNL     1     126.679 115.918 120.180  1.00  0.00     0.179 C 
ATOM     15  C   UNL     1     125.541 115.431 119.242  1.00  0.00     0.202 C 
BRANCH  12  16
ATOM     16  O   UNL     1     127.985 117.974 120.652  1.00  0.00    -0.388 OA
ATOM     17  H   UNL     1     128.537 117.224 120.998  1.00  0.00     0.211 HD
ENDBRANCH  12  16
BRANCH  14  18
ATOM     18  O   UNL     1     127.925 115.357 119.837  1.00  0.00    -0.387 OA
ATOM     19  H   UNL     1     127.855 114.980 118.923  1.00  0.00     0.211 HD
ENDBRANCH  14  18
BRANCH  15  20
ATOM     20  O   UNL     1     126.038 115.180 117.949  1.00  0.00    -0.385 OA
ATOM     21  H   UNL     1     126.084 114.193 117.840  1.00  0.00     0.211 HD
ENDBRANCH  15  20
ENDBRANCH   8   9
ENDBRANCH   7   8
ENDBRANCH   1   7
BRANCH   2  22
ATOM     22  O   UNL     1     123.835 113.950 121.899  1.00  0.00    -0.387 OA
ATOM     23  H   UNL     1     124.193 114.099 120.986  1.00  0.00     0.211 HD
ENDBRANCH   2  22
BRANCH   3  24
ATOM     24  O   UNL     1     121.343 112.607 123.002  1.00  0.00    -0.387 OA
ATOM     25  H   UNL     1     120.399 112.764 123.276  1.00  0.00     0.211 HD
ENDBRANCH   3  24
BRANCH   5  26
ATOM     26  O   UNL     1     118.887 115.434 120.079  1.00  0.00    -0.454 OA
BRANCH  26  27
ATOM     27  C   UNL     1     117.917 116.441 120.224  1.00  0.00     0.214 A 
ATOM     28  C   UNL     1     116.675 116.168 120.835  1.00  0.00     0.180 A 
ATOM     29  C   UNL     1     118.161 117.743 119.759  1.00  0.00     0.239 A 
ATOM     30  O   UNL     1     115.731 117.104 120.862  1.00  0.00    -0.452 OA
ATOM     31  C   UNL     1     117.133 118.710 119.805  1.00  0.00     0.111 A 
ATOM     32  O   UNL     1     119.306 118.036 119.312  1.00  0.00    -0.285 OA
ATOM     33  C   UNL     1     115.898 118.326 120.372  1.00  0.00     0.146 A 
ATOM     34  C   UNL     1     117.290 120.029 119.316  1.00  0.00     0.134 A 
ATOM     35  C   UNL     1     114.838 119.238 120.437  1.00  0.00     0.094 A 
ATOM     36  C   UNL     1     116.221 120.933 119.404  1.00  0.00     0.093 A 
ATOM     37  C   UNL     1     115.001 120.544 119.959  1.00  0.00     0.123 A 
BRANCH  28  38
ATOM     38  C   UNL     1     116.368 114.856 121.436  1.00  0.00     0.025 A 
ATOM     39  C   UNL     1     115.435 113.990 120.842  1.00  0.00     0.062 A 
ATOM     40  C   UNL     1     117.015 114.462 122.620  1.00  0.00     0.016 A 
ATOM     41  C   UNL     1     115.118 112.767 121.446  1.00  0.00     0.158 A 
ATOM     42  C   UNL     1     116.696 113.244 123.226  1.00  0.00     0.051 A 
ATOM     43  C   UNL     1     115.746 112.397 122.652  1.00  0.00     0.157 A 
BRANCH  41  44
ATOM     44  O   UNL     1     114.195 111.912 120.845  1.00  0.00    -0.504 OA
ATOM     45  H   UNL     1     113.439 111.488 121.375  1.00  0.00     0.293 HD
ENDBRANCH  41  44
BRANCH  43  46
ATOM     46  O   UNL     1     115.438 111.189 123.285  1.00  0.00    -0.504 OA
ATOM     47  H   UNL     1     114.560 111.046 123.775  1.00  0.00     0.293 HD
ENDBRANCH  43  46
ENDBRANCH  28  38
BRANCH  34  48
ATOM     48  O   UNL     1     118.492 120.447 118.751  1.00  0.00    -0.507 OA
ATOM     49  H   UNL     1     119.380 120.301 119.215  1.00  0.00     0.293 HD
ENDBRANCH  34  48
BRANCH  37  50
ATOM     50  O   UNL     1     113.961 121.465 120.041  1.00  0.00    -0.508 OA
ATOM     51  H   UNL     1     113.144 121.289 120.615  1.00  0.00     0.293 HD
ENDBRANCH  37  50
ENDBRANCH  26  27
ENDBRANCH   5  26
BRANCH   4  52
ATOM     52  O   UNL     1     120.048 113.040 119.857  1.00  0.00    -0.384 OA
ATOM     53  H   UNL     1     120.732 112.321 119.798  1.00  0.00     0.211 HD
ENDBRANCH   4  52
TORSDOF 16
ENDMDL
