MODEL 1
REMARK VINA RESULT:    -6.013      0.000      0.000
REMARK INTER + INTRA:          -7.354
REMARK INTER:                  -7.068
REMARK INTRA:                  -0.286
REMARK UNBOUND:                -0.286
REMARK SMILES O=c1cc(-c2ccc(O)c(O)c2)oc2cc(O)cc(O)c12
REMARK SMILES IDX 4 1 3 2 2 3 1 4 21 5 19 6 18 7 16 8 15 9 14 10 13 11 5 12
REMARK SMILES IDX 6 13 7 14 8 15 12 16 10 17 9 18 11 20 20 22 17 24
REMARK H PARENT 9 19 11 21 20 23 17 25
REMARK Flexibility Score: inf
ROOT
ATOM      1  C   UNL     1     139.028 147.586 120.320  1.00  0.00     0.138 A 
ATOM      2  C   UNL     1     140.085 148.086 119.548  1.00  0.00     0.100 A 
ATOM      3  C   UNL     1     140.341 149.458 119.534  1.00  0.00     0.197 A 
ATOM      4  O   UNL     1     141.332 149.869 118.875  1.00  0.00    -0.289 OA
ATOM      5  C   UNL     1     139.510 150.337 120.269  1.00  0.00     0.107 A 
ATOM      6  C   UNL     1     139.654 151.757 120.302  1.00  0.00     0.134 A 
ATOM      7  C   UNL     1     138.832 152.514 121.145  1.00  0.00     0.093 A 
ATOM      8  C   UNL     1     137.834 151.913 121.910  1.00  0.00     0.123 A 
ATOM      9  C   UNL     1     137.651 150.531 121.847  1.00  0.00     0.094 A 
ATOM     10  C   UNL     1     138.478 149.743 121.044  1.00  0.00     0.146 A 
ATOM     11  O   UNL     1     138.282 148.429 121.026  1.00  0.00    -0.456 OA
ENDROOT
BRANCH   1  12
ATOM     12  C   UNL     1     138.708 146.137 120.369  1.00  0.00     0.021 A 
ATOM     13  C   UNL     1     138.523 145.431 119.170  1.00  0.00     0.016 A 
ATOM     14  C   UNL     1     138.215 144.069 119.190  1.00  0.00     0.051 A 
ATOM     15  C   UNL     1     138.074 143.385 120.401  1.00  0.00     0.157 A 
ATOM     16  C   UNL     1     138.551 145.454 121.589  1.00  0.00     0.062 A 
ATOM     17  C   UNL     1     138.238 144.088 121.617  1.00  0.00     0.158 A 
BRANCH  15  18
ATOM     18  O   UNL     1     137.770 142.024 120.350  1.00  0.00    -0.504 OA
ATOM     19  H   UNL     1     138.397 141.318 119.992  1.00  0.00     0.293 HD
ENDBRANCH  15  18
BRANCH  17  20
ATOM     20  O   UNL     1     138.098 143.477 122.865  1.00  0.00    -0.504 OA
ATOM     21  H   UNL     1     138.848 143.013 123.354  1.00  0.00     0.293 HD
ENDBRANCH  17  20
ENDBRANCH   1  12
BRANCH   6  22
ATOM     22  O   UNL     1     140.566 152.471 119.518  1.00  0.00    -0.507 OA
ATOM     23  H   UNL     1     140.690 153.471 119.538  1.00  0.00     0.293 HD
ENDBRANCH   6  22
BRANCH   8  24
ATOM     24  O   UNL     1     137.024 152.700 122.726  1.00  0.00    -0.508 OA
ATOM     25  H   UNL     1     136.826 152.441 123.685  1.00  0.00     0.293 HD
ENDBRANCH   8  24
TORSDOF 5
ENDMDL
MODEL 2
REMARK VINA RESULT:    -6.003      2.367      4.026
REMARK INTER + INTRA:          -7.342
REMARK INTER:                  -7.052
REMARK INTRA:                  -0.289
REMARK UNBOUND:                -0.286
REMARK SMILES O=c1cc(-c2ccc(O)c(O)c2)oc2cc(O)cc(O)c12
REMARK SMILES IDX 4 1 3 2 2 3 1 4 21 5 19 6 18 7 16 8 15 9 14 10 13 11 5 12
REMARK SMILES IDX 6 13 7 14 8 15 12 16 10 17 9 18 11 20 20 22 17 24
REMARK H PARENT 9 19 11 21 20 23 17 25
REMARK Flexibility Score: inf
ROOT
ATOM      1  C   UNL     1     139.286 150.378 120.113  1.00  0.00     0.138 A 
ATOM      2  C   UNL     1     138.326 151.363 119.848  1.00  0.00     0.100 A 
ATOM      3  C   UNL     1     138.717 152.699 119.745  1.00  0.00     0.197 A 
ATOM      4  O   UNL     1     137.839 153.552 119.451  1.00  0.00    -0.289 OA
ATOM      5  C   UNL     1     140.073 153.054 119.945  1.00  0.00     0.107 A 
ATOM      6  C   UNL     1     140.581 154.387 119.898  1.00  0.00     0.134 A 
ATOM      7  C   UNL     1     141.959 154.603 120.015  1.00  0.00     0.093 A 
ATOM      8  C   UNL     1     142.840 153.545 120.234  1.00  0.00     0.123 A 
ATOM      9  C   UNL     1     142.348 152.243 120.331  1.00  0.00     0.094 A 
ATOM     10  C   UNL     1     140.983 151.989 120.184  1.00  0.00     0.146 A 
ATOM     11  O   UNL     1     140.558 150.733 120.266  1.00  0.00    -0.456 OA
ENDROOT
BRANCH   1  12
ATOM     12  C   UNL     1     138.926 148.943 120.237  1.00  0.00     0.021 A 
ATOM     13  C   UNL     1     137.857 148.569 121.066  1.00  0.00     0.016 A 
ATOM     14  C   UNL     1     137.503 147.226 121.205  1.00  0.00     0.051 A 
ATOM     15  C   UNL     1     138.212 146.227 120.531  1.00  0.00     0.157 A 
ATOM     16  C   UNL     1     139.650 147.937 119.570  1.00  0.00     0.062 A 
ATOM     17  C   UNL     1     139.304 146.587 119.707  1.00  0.00     0.158 A 
BRANCH  15  18
ATOM     18  O   UNL     1     137.803 144.904 120.709  1.00  0.00    -0.504 OA
ATOM     19  H   UNL     1     138.041 144.149 120.081  1.00  0.00     0.293 HD
ENDBRANCH  15  18
BRANCH  17  20
ATOM     20  O   UNL     1     140.068 145.644 119.015  1.00  0.00    -0.504 OA
ATOM     21  H   UNL     1     141.075 145.596 119.054  1.00  0.00     0.293 HD
ENDBRANCH  17  20
ENDBRANCH   1  12
BRANCH   6  22
ATOM     22  O   UNL     1     139.782 155.526 119.764  1.00  0.00    -0.507 OA
ATOM     23  H   UNL     1     139.952 156.281 119.117  1.00  0.00     0.293 HD
ENDBRANCH   6  22
BRANCH   8  24
ATOM     24  O   UNL     1     144.204 153.800 120.360  1.00  0.00    -0.508 OA
ATOM     25  H   UNL     1     144.797 153.929 119.548  1.00  0.00     0.293 HD
ENDBRANCH   8  24
TORSDOF 5
ENDMDL
MODEL 3
REMARK VINA RESULT:    -5.925      1.255      2.727
REMARK INTER + INTRA:          -7.251
REMARK INTER:                  -6.987
REMARK INTRA:                  -0.263
REMARK UNBOUND:                -0.286
REMARK SMILES O=c1cc(-c2ccc(O)c(O)c2)oc2cc(O)cc(O)c12
REMARK SMILES IDX 4 1 3 2 2 3 1 4 21 5 19 6 18 7 16 8 15 9 14 10 13 11 5 12
REMARK SMILES IDX 6 13 7 14 8 15 12 16 10 17 9 18 11 20 20 22 17 24
REMARK H PARENT 9 19 11 21 20 23 17 25
REMARK Flexibility Score: inf
ROOT
ATOM      1  C   UNL     1     138.564 147.364 120.398  1.00  0.00     0.138 A 
ATOM      2  C   UNL     1     137.619 148.253 120.928  1.00  0.00     0.100 A 
ATOM      3  C   UNL     1     137.904 149.619 120.971  1.00  0.00     0.197 A 
ATOM      4  O   UNL     1     137.013 150.397 121.400  1.00  0.00    -0.289 OA
ATOM      5  C   UNL     1     139.158 150.092 120.514  1.00  0.00     0.107 A 
ATOM      6  C   UNL     1     139.572 151.457 120.540  1.00  0.00     0.134 A 
ATOM      7  C   UNL     1     140.799 151.817 119.968  1.00  0.00     0.093 A 
ATOM      8  C   UNL     1     141.651 150.857 119.425  1.00  0.00     0.123 A 
ATOM      9  C   UNL     1     141.278 149.512 119.439  1.00  0.00     0.094 A 
ATOM     10  C   UNL     1     140.046 149.125 119.969  1.00  0.00     0.146 A 
ATOM     11  O   UNL     1     139.721 147.837 119.947  1.00  0.00    -0.456 OA
ENDROOT
BRANCH   1  12
ATOM     12  C   UNL     1     138.315 145.902 120.332  1.00  0.00     0.021 A 
ATOM     13  C   UNL     1     137.893 145.328 119.124  1.00  0.00     0.016 A 
ATOM     14  C   UNL     1     137.646 143.956 119.038  1.00  0.00     0.051 A 
ATOM     15  C   UNL     1     137.804 143.130 120.154  1.00  0.00     0.157 A 
ATOM     16  C   UNL     1     138.460 145.074 121.462  1.00  0.00     0.062 A 
ATOM     17  C   UNL     1     138.211 143.698 121.384  1.00  0.00     0.158 A 
BRANCH  15  18
ATOM     18  O   UNL     1     137.546 141.767 120.000  1.00  0.00    -0.504 OA
ATOM     19  H   UNL     1     137.986 141.043 120.549  1.00  0.00     0.293 HD
ENDBRANCH  15  18
BRANCH  17  20
ATOM     20  O   UNL     1     138.375 142.939 122.546  1.00  0.00    -0.504 OA
ATOM     21  H   UNL     1     137.744 142.208 122.837  1.00  0.00     0.293 HD
ENDBRANCH  17  20
ENDBRANCH   1  12
BRANCH   6  22
ATOM     22  O   UNL     1     138.835 152.489 121.130  1.00  0.00    -0.507 OA
ATOM     23  H   UNL     1     138.043 152.950 120.709  1.00  0.00     0.293 HD
ENDBRANCH   6  22
BRANCH   8  24
ATOM     24  O   UNL     1     142.871 151.250 118.879  1.00  0.00    -0.508 OA
ATOM     25  H   UNL     1     143.666 150.623 118.851  1.00  0.00     0.293 HD
ENDBRANCH   8  24
TORSDOF 5
ENDMDL
MODEL 4
REMARK VINA RESULT:    -5.698      4.344      7.029
REMARK INTER + INTRA:          -6.983
REMARK INTER:                  -6.693
REMARK INTRA:                  -0.290
REMARK UNBOUND:                -0.286
REMARK SMILES O=c1cc(-c2ccc(O)c(O)c2)oc2cc(O)cc(O)c12
REMARK SMILES IDX 4 1 3 2 2 3 1 4 21 5 19 6 18 7 16 8 15 9 14 10 13 11 5 12
REMARK SMILES IDX 6 13 7 14 8 15 12 16 10 17 9 18 11 20 20 22 17 24
REMARK H PARENT 9 19 11 21 20 23 17 25
REMARK Flexibility Score: inf
ROOT
ATOM      1  C   UNL     1     141.236 153.943 120.401  1.00  0.00     0.138 A 
ATOM      2  C   UNL     1     142.261 154.414 121.232  1.00  0.00     0.100 A 
ATOM      3  C   UNL     1     142.307 155.767 121.573  1.00  0.00     0.197 A 
ATOM      4  O   UNL     1     143.207 156.147 122.366  1.00  0.00    -0.289 OA
ATOM      5  C   UNL     1     141.341 156.659 121.049  1.00  0.00     0.107 A 
ATOM      6  C   UNL     1     141.308 158.063 121.300  1.00  0.00     0.134 A 
ATOM      7  C   UNL     1     140.244 158.827 120.806  1.00  0.00     0.093 A 
ATOM      8  C   UNL     1     139.245 158.252 120.022  1.00  0.00     0.123 A 
ATOM      9  C   UNL     1     139.294 156.889 119.728  1.00  0.00     0.094 A 
ATOM     10  C   UNL     1     140.322 156.092 120.236  1.00  0.00     0.146 A 
ATOM     11  O   UNL     1     140.322 154.795 119.947  1.00  0.00    -0.456 OA
ENDROOT
BRANCH   1  12
ATOM     12  C   UNL     1     141.141 152.516 120.002  1.00  0.00     0.021 A 
ATOM     13  C   UNL     1     139.892 151.977 119.660  1.00  0.00     0.016 A 
ATOM     14  C   UNL     1     139.775 150.636 119.288  1.00  0.00     0.051 A 
ATOM     15  C   UNL     1     140.896 149.802 119.261  1.00  0.00     0.157 A 
ATOM     16  C   UNL     1     142.269 151.674 119.990  1.00  0.00     0.062 A 
ATOM     17  C   UNL     1     142.160 150.326 119.622  1.00  0.00     0.158 A 
BRANCH  15  18
ATOM     18  O   UNL     1     140.712 148.473 118.875  1.00  0.00    -0.504 OA
ATOM     19  H   UNL     1     139.848 147.964 118.996  1.00  0.00     0.293 HD
ENDBRANCH  15  18
BRANCH  17  20
ATOM     20  O   UNL     1     143.322 149.551 119.633  1.00  0.00    -0.504 OA
ATOM     21  H   UNL     1     143.641 149.002 118.849  1.00  0.00     0.293 HD
ENDBRANCH  17  20
ENDBRANCH   1  12
BRANCH   6  22
ATOM     22  O   UNL     1     142.297 158.757 122.004  1.00  0.00    -0.507 OA
ATOM     23  H   UNL     1     142.406 158.754 123.007  1.00  0.00     0.293 HD
ENDBRANCH   6  22
BRANCH   8  24
ATOM     24  O   UNL     1     138.210 159.047 119.534  1.00  0.00    -0.508 OA
ATOM     25  H   UNL     1     138.392 159.923 119.059  1.00  0.00     0.293 HD
ENDBRANCH   8  24
TORSDOF 5
ENDMDL
MODEL 5
REMARK VINA RESULT:    -5.595      3.521      6.087
REMARK INTER + INTRA:          -6.863
REMARK INTER:                  -6.561
REMARK INTRA:                  -0.302
REMARK UNBOUND:                -0.286
REMARK SMILES O=c1cc(-c2ccc(O)c(O)c2)oc2cc(O)cc(O)c12
REMARK SMILES IDX 4 1 3 2 2 3 1 4 21 5 19 6 18 7 16 8 15 9 14 10 13 11 5 12
REMARK SMILES IDX 6 13 7 14 8 15 12 16 10 17 9 18 11 20 20 22 17 24
REMARK H PARENT 9 19 11 21 20 23 17 25
REMARK Flexibility Score: inf
ROOT
ATOM      1  C   UNL     1     140.177 152.943 119.799  1.00  0.00     0.138 A 
ATOM      2  C   UNL     1     139.214 153.782 119.224  1.00  0.00     0.100 A 
ATOM      3  C   UNL     1     139.272 155.158 119.451  1.00  0.00     0.197 A 
ATOM      4  O   UNL     1     138.426 155.890 118.875  1.00  0.00    -0.289 OA
ATOM      5  C   UNL     1     140.280 155.691 120.290  1.00  0.00     0.107 A 
ATOM      6  C   UNL     1     140.418 157.073 120.621  1.00  0.00     0.134 A 
ATOM      7  C   UNL     1     141.516 157.493 121.381  1.00  0.00     0.093 A 
ATOM      8  C   UNL     1     142.447 156.580 121.871  1.00  0.00     0.123 A 
ATOM      9  C   UNL     1     142.295 155.220 121.596  1.00  0.00     0.094 A 
ATOM     10  C   UNL     1     141.231 154.772 120.811  1.00  0.00     0.146 A 
ATOM     11  O   UNL     1     141.132 153.471 120.557  1.00  0.00    -0.456 OA
ENDROOT
BRANCH   1  12
ATOM     12  C   UNL     1     140.161 151.472 119.594  1.00  0.00     0.021 A 
ATOM     13  C   UNL     1     138.931 150.801 119.512  1.00  0.00     0.016 A 
ATOM     14  C   UNL     1     138.889 149.418 119.327  1.00  0.00     0.051 A 
ATOM     15  C   UNL     1     140.068 148.673 119.230  1.00  0.00     0.157 A 
ATOM     16  C   UNL     1     141.349 150.722 119.512  1.00  0.00     0.062 A 
ATOM     17  C   UNL     1     141.315 149.333 119.330  1.00  0.00     0.158 A 
BRANCH  15  18
ATOM     18  O   UNL     1     139.956 147.295 119.040  1.00  0.00    -0.504 OA
ATOM     19  H   UNL     1     140.684 146.632 119.265  1.00  0.00     0.293 HD
ENDBRANCH  15  18
BRANCH  17  20
ATOM     20  O   UNL     1     142.534 148.656 119.258  1.00  0.00    -0.504 OA
ATOM     21  H   UNL     1     143.309 148.947 118.681  1.00  0.00     0.293 HD
ENDBRANCH  17  20
ENDBRANCH   1  12
BRANCH   6  22
ATOM     22  O   UNL     1     139.502 158.062 120.251  1.00  0.00    -0.507 OA
ATOM     23  H   UNL     1     139.485 158.534 119.360  1.00  0.00     0.293 HD
ENDBRANCH   6  22
BRANCH   8  24
ATOM     24  O   UNL     1     143.519 157.033 122.638  1.00  0.00    -0.508 OA
ATOM     25  H   UNL     1     143.833 156.531 123.460  1.00  0.00     0.293 HD
ENDBRANCH   8  24
TORSDOF 5
ENDMDL
MODEL 6
REMARK VINA RESULT:    -5.479      2.681      3.816
REMARK INTER + INTRA:          -6.726
REMARK INTER:                  -6.431
REMARK INTRA:                  -0.295
REMARK UNBOUND:                -0.286
REMARK SMILES O=c1cc(-c2ccc(O)c(O)c2)oc2cc(O)cc(O)c12
REMARK SMILES IDX 4 1 3 2 2 3 1 4 21 5 19 6 18 7 16 8 15 9 14 10 13 11 5 12
REMARK SMILES IDX 6 13 7 14 8 15 12 16 10 17 9 18 11 20 20 22 17 24
REMARK H PARENT 9 19 11 21 20 23 17 25
REMARK Flexibility Score: inf
ROOT
ATOM      1  C   UNL     1     140.211 150.645 120.051  1.00  0.00     0.138 A 
ATOM      2  C   UNL     1     141.563 150.706 119.687  1.00  0.00     0.100 A 
ATOM      3  C   UNL     1     142.296 151.865 119.944  1.00  0.00     0.197 A 
ATOM      4  O   UNL     1     143.522 151.867 119.656  1.00  0.00    -0.289 OA
ATOM      5  C   UNL     1     141.661 152.983 120.536  1.00  0.00     0.107 A 
ATOM      6  C   UNL     1     142.300 154.229 120.815  1.00  0.00     0.134 A 
ATOM      7  C   UNL     1     141.594 155.229 121.494  1.00  0.00     0.093 A 
ATOM      8  C   UNL     1     140.259 155.053 121.853  1.00  0.00     0.123 A 
ATOM      9  C   UNL     1     139.609 153.857 121.542  1.00  0.00     0.094 A 
ATOM     10  C   UNL     1     140.296 152.827 120.896  1.00  0.00     0.146 A 
ATOM     11  O   UNL     1     139.646 151.698 120.634  1.00  0.00    -0.456 OA
ENDROOT
BRANCH   1  12
ATOM     12  C   UNL     1     139.382 149.440 119.797  1.00  0.00     0.021 A 
ATOM     13  C   UNL     1     137.989 149.517 119.942  1.00  0.00     0.016 A 
ATOM     14  C   UNL     1     137.189 148.396 119.716  1.00  0.00     0.051 A 
ATOM     15  C   UNL     1     137.758 147.173 119.352  1.00  0.00     0.157 A 
ATOM     16  C   UNL     1     139.960 148.205 119.446  1.00  0.00     0.062 A 
ATOM     17  C   UNL     1     139.164 147.074 119.220  1.00  0.00     0.158 A 
BRANCH  15  18
ATOM     18  O   UNL     1     136.902 146.092 119.135  1.00  0.00    -0.504 OA
ATOM     19  H   UNL     1     136.147 145.836 119.756  1.00  0.00     0.293 HD
ENDBRANCH  15  18
BRANCH  17  20
ATOM     20  O   UNL     1     139.806 145.883 118.875  1.00  0.00    -0.504 OA
ATOM     21  H   UNL     1     140.794 145.809 118.684  1.00  0.00     0.293 HD
ENDBRANCH  17  20
ENDBRANCH   1  12
BRANCH   6  22
ATOM     22  O   UNL     1     143.607 154.544 120.430  1.00  0.00    -0.507 OA
ATOM     23  H   UNL     1     144.270 153.891 120.042  1.00  0.00     0.293 HD
ENDBRANCH   6  22
BRANCH   8  24
ATOM     24  O   UNL     1     139.583 156.076 122.515  1.00  0.00    -0.508 OA
ATOM     25  H   UNL     1     138.947 155.883 123.280  1.00  0.00     0.293 HD
ENDBRANCH   8  24
TORSDOF 5
ENDMDL
MODEL 7
REMARK VINA RESULT:    -5.416      4.023      6.898
REMARK INTER + INTRA:          -6.652
REMARK INTER:                  -6.343
REMARK INTRA:                  -0.309
REMARK UNBOUND:                -0.286
REMARK SMILES O=c1cc(-c2ccc(O)c(O)c2)oc2cc(O)cc(O)c12
REMARK SMILES IDX 4 1 3 2 2 3 1 4 21 5 19 6 18 7 16 8 15 9 14 10 13 11 5 12
REMARK SMILES IDX 6 13 7 14 8 15 12 16 10 17 9 18 11 20 20 22 17 24
REMARK H PARENT 9 19 11 21 20 23 17 25
REMARK Flexibility Score: inf
ROOT
ATOM      1  C   UNL     1     139.893 153.530 120.983  1.00  0.00     0.138 A 
ATOM      2  C   UNL     1     138.690 153.744 121.667  1.00  0.00     0.100 A 
ATOM      3  C   UNL     1     138.369 155.026 122.118  1.00  0.00     0.197 A 
ATOM      4  O   UNL     1     137.256 155.196 122.679  1.00  0.00    -0.289 OA
ATOM      5  C   UNL     1     139.278 156.092 121.912  1.00  0.00     0.107 A 
ATOM      6  C   UNL     1     139.074 157.433 122.356  1.00  0.00     0.134 A 
ATOM      7  C   UNL     1     139.999 158.424 122.007  1.00  0.00     0.093 A 
ATOM      8  C   UNL     1     141.149 158.114 121.282  1.00  0.00     0.123 A 
ATOM      9  C   UNL     1     141.384 156.797 120.885  1.00  0.00     0.094 A 
ATOM     10  C   UNL     1     140.462 155.792 121.187  1.00  0.00     0.146 A 
ATOM     11  O   UNL     1     140.715 154.554 120.775  1.00  0.00    -0.456 OA
ENDROOT
BRANCH   1  12
ATOM     12  C   UNL     1     140.286 152.187 120.486  1.00  0.00     0.021 A 
ATOM     13  C   UNL     1     139.292 151.235 120.212  1.00  0.00     0.016 A 
ATOM     14  C   UNL     1     139.637 149.963 119.750  1.00  0.00     0.051 A 
ATOM     15  C   UNL     1     140.976 149.609 119.563  1.00  0.00     0.157 A 
ATOM     16  C   UNL     1     141.636 151.827 120.314  1.00  0.00     0.062 A 
ATOM     17  C   UNL     1     141.990 150.552 119.854  1.00  0.00     0.158 A 
BRANCH  15  18
ATOM     18  O   UNL     1     141.252 148.323 119.095  1.00  0.00    -0.504 OA
ATOM     19  H   UNL     1     141.253 148.066 118.118  1.00  0.00     0.293 HD
ENDBRANCH  15  18
BRANCH  17  20
ATOM     20  O   UNL     1     143.349 150.266 119.707  1.00  0.00    -0.504 OA
ATOM     21  H   UNL     1     143.816 149.495 120.160  1.00  0.00     0.293 HD
ENDBRANCH  17  20
ENDBRANCH   1  12
BRANCH   6  22
ATOM     22  O   UNL     1     138.000 157.839 123.155  1.00  0.00    -0.507 OA
ATOM     23  H   UNL     1     137.775 158.796 123.382  1.00  0.00     0.293 HD
ENDBRANCH   6  22
BRANCH   8  24
ATOM     24  O   UNL     1     142.056 159.123 120.966  1.00  0.00    -0.508 OA
ATOM     25  H   UNL     1     142.852 159.325 121.558  1.00  0.00     0.293 HD
ENDBRANCH   8  24
TORSDOF 5
ENDMDL
