MODEL 1
REMARK VINA RESULT:    -1.570      0.000      0.000
REMARK INTER + INTRA:         -10.053
REMARK INTER:                  -3.955
REMARK INTRA:                  -6.097
REMARK UNBOUND:                -6.097
REMARK SMILES CCCCCCCCCCCCCCCCCCCCCCCCCCCC(=O)[O-]
REMARK SMILES IDX 15 1 16 2 17 3 18 4 19 5 20 6 21 7 22 8 23 9 24 10 25 11
REMARK SMILES IDX 26 12 27 13 28 14 29 15 30 16 14 17 13 18 12 19 11 20 10 21
REMARK SMILES IDX 9 22 8 23 7 24 6 25 5 26 4 27 3 28 2 29 1 30
REMARK H PARENT
REMARK Flexibility Score: inf
ROOT
ATOM      1  C   UNL     1      25.893  11.839  14.141  1.00  0.00     0.000 C 
ENDROOT
BRANCH   1   2
ATOM      2  C   UNL     1      24.869  12.169  15.236  1.00  0.00     0.000 C 
BRANCH   2   3
ATOM      3  C   UNL     1      23.817  11.056  15.416  1.00  0.00     0.000 C 
BRANCH   3   4
ATOM      4  C   UNL     1      23.643  10.163  14.177  1.00  0.00     0.000 C 
BRANCH   4   5
ATOM      5  C   UNL     1      23.754   8.662  14.490  1.00  0.00     0.000 C 
BRANCH   5   6
ATOM      6  C   UNL     1      23.107   7.783  13.397  1.00  0.00     0.000 C 
BRANCH   6   7
ATOM      7  C   UNL     1      21.829   8.390  12.783  1.00  0.00     0.000 C 
BRANCH   7   8
ATOM      8  C   UNL     1      21.815   8.452  11.245  1.00  0.00     0.000 C 
BRANCH   8   9
ATOM      9  C   UNL     1      20.990   9.635  10.705  1.00  0.00     0.000 C 
BRANCH   9  10
ATOM     10  C   UNL     1      20.977  10.831  11.672  1.00  0.00     0.000 C 
BRANCH  10  11
ATOM     11  C   UNL     1      22.139  11.805  11.418  1.00  0.00     0.000 C 
BRANCH  11  12
ATOM     12  C   UNL     1      21.893  13.154  12.106  1.00  0.00     0.006 C 
BRANCH  12  13
ATOM     13  C   UNL     1      23.176  13.987  12.219  1.00  0.00     0.053 C 
BRANCH  13  14
ATOM     14  C   UNL     1      23.201  15.102  11.220  1.00  0.00     0.041 C 
ATOM     15  O   UNL     1      23.254  14.852   9.987  1.00  0.00    -0.550 OA
ATOM     16  O   UNL     1      23.190  16.422  11.654  1.00  0.00    -0.550 OA
ENDBRANCH  13  14
ENDBRANCH  12  13
ENDBRANCH  11  12
ENDBRANCH  10  11
ENDBRANCH   9  10
ENDBRANCH   8   9
ENDBRANCH   7   8
ENDBRANCH   6   7
ENDBRANCH   5   6
ENDBRANCH   4   5
ENDBRANCH   3   4
ENDBRANCH   2   3
ENDBRANCH   1   2
BRANCH   1  17
ATOM     17  C   UNL     1      27.323  12.100  14.633  1.00  0.00     0.000 C 
BRANCH  17  18
ATOM     18  C   UNL     1      28.354  11.415  13.730  1.00  0.00     0.000 C 
BRANCH  18  19
ATOM     19  C   UNL     1      27.880  10.011  13.328  1.00  0.00     0.000 C 
BRANCH  19  20
ATOM     20  C   UNL     1      28.429   9.559  11.963  1.00  0.00     0.000 C 
BRANCH  20  21
ATOM     21  C   UNL     1      27.363   9.089  10.952  1.00  0.00     0.000 C 
BRANCH  21  22
ATOM     22  C   UNL     1      25.909   9.119  11.467  1.00  0.00    -0.000 C 
BRANCH  22  23
ATOM     23  C   UNL     1      25.042  10.254  10.894  1.00  0.00    -0.000 C 
BRANCH  23  24
ATOM     24  C   UNL     1      25.796  11.123   9.877  1.00  0.00    -0.000 C 
BRANCH  24  25
ATOM     25  C   UNL     1      26.095  12.509  10.459  1.00  0.00    -0.000 C 
BRANCH  25  26
ATOM     26  C   UNL     1      27.590  12.846  10.340  1.00  0.00    -0.000 C 
BRANCH  26  27
ATOM     27  C   UNL     1      28.006  14.038  11.220  1.00  0.00    -0.000 C 
BRANCH  27  28
ATOM     28  C   UNL     1      26.839  14.883  11.769  1.00  0.00    -0.000 C 
BRANCH  28  29
ATOM     29  C   UNL     1      27.023  15.388  13.210  1.00  0.00    -0.003 C 
ATOM     30  C   UNL     1      28.492  15.477  13.626  1.00  0.00     0.004 C 
ENDBRANCH  28  29
ENDBRANCH  27  28
ENDBRANCH  26  27
ENDBRANCH  25  26
ENDBRANCH  24  25
ENDBRANCH  23  24
ENDBRANCH  22  23
ENDBRANCH  21  22
ENDBRANCH  20  21
ENDBRANCH  19  20
ENDBRANCH  18  19
ENDBRANCH  17  18
ENDBRANCH   1  17
TORSDOF 26
ENDMDL
MODEL 2
REMARK VINA RESULT:    -1.490      2.307      6.451
REMARK INTER + INTRA:          -9.851
REMARK INTER:                  -3.952
REMARK INTRA:                  -5.899
REMARK UNBOUND:                -6.097
REMARK SMILES CCCCCCCCCCCCCCCCCCCCCCCCCCCC(=O)[O-]
REMARK SMILES IDX 15 1 16 2 17 3 18 4 19 5 20 6 21 7 22 8 23 9 24 10 25 11
REMARK SMILES IDX 26 12 27 13 28 14 29 15 30 16 14 17 13 18 12 19 11 20 10 21
REMARK SMILES IDX 9 22 8 23 7 24 6 25 5 26 4 27 3 28 2 29 1 30
REMARK H PARENT
REMARK Flexibility Score: inf
ROOT
ATOM      1  C   UNL     1      25.137  12.846  13.463  1.00  0.00     0.000 C 
ENDROOT
BRANCH   1   2
ATOM      2  C   UNL     1      24.248  12.768  12.213  1.00  0.00     0.000 C 
BRANCH   2   3
ATOM      3  C   UNL     1      25.067  12.744  10.906  1.00  0.00     0.000 C 
BRANCH   3   4
ATOM      4  C   UNL     1      26.568  13.011  11.111  1.00  0.00     0.000 C 
BRANCH   4   5
ATOM      5  C   UNL     1      27.468  12.010  10.370  1.00  0.00     0.000 C 
BRANCH   5   6
ATOM      6  C   UNL     1      26.737  10.690  10.042  1.00  0.00     0.000 C 
BRANCH   6   7
ATOM      7  C   UNL     1      27.058   9.539  11.017  1.00  0.00     0.000 C 
BRANCH   7   8
ATOM      8  C   UNL     1      28.310   9.756  11.886  1.00  0.00     0.000 C 
BRANCH   8   9
ATOM      9  C   UNL     1      27.975   9.933  13.378  1.00  0.00     0.000 C 
BRANCH   9  10
ATOM     10  C   UNL     1      29.056  10.726  14.131  1.00  0.00     0.000 C 
BRANCH  10  11
ATOM     11  C   UNL     1      28.838  12.245  14.046  1.00  0.00     0.000 C 
BRANCH  11  12
ATOM     12  C   UNL     1      28.354  12.813  15.387  1.00  0.00     0.006 C 
BRANCH  12  13
ATOM     13  C   UNL     1      27.977  14.297  15.283  1.00  0.00     0.053 C 
BRANCH  13  14
ATOM     14  C   UNL     1      27.093  14.723  16.413  1.00  0.00     0.041 C 
ATOM     15  O   UNL     1      27.292  15.821  16.998  1.00  0.00    -0.550 OA
ATOM     16  O   UNL     1      26.061  13.896  16.838  1.00  0.00    -0.550 OA
ENDBRANCH  13  14
ENDBRANCH  12  13
ENDBRANCH  11  12
ENDBRANCH  10  11
ENDBRANCH   9  10
ENDBRANCH   8   9
ENDBRANCH   7   8
ENDBRANCH   6   7
ENDBRANCH   5   6
ENDBRANCH   4   5
ENDBRANCH   3   4
ENDBRANCH   2   3
ENDBRANCH   1   2
BRANCH   1  17
ATOM     17  C   UNL     1      24.950  11.604  14.344  1.00  0.00     0.000 C 
BRANCH  17  18
ATOM     18  C   UNL     1      23.877  10.672  13.768  1.00  0.00     0.000 C 
BRANCH  18  19
ATOM     19  C   UNL     1      24.396   9.229  13.684  1.00  0.00     0.000 C 
BRANCH  19  20
ATOM     20  C   UNL     1      23.825   8.455  12.483  1.00  0.00     0.000 C 
BRANCH  20  21
ATOM     21  C   UNL     1      23.353   9.331  11.304  1.00  0.00     0.000 C 
BRANCH  21  22
ATOM     22  C   UNL     1      22.152   8.778  10.512  1.00  0.00    -0.000 C 
BRANCH  22  23
ATOM     23  C   UNL     1      20.898   9.671  10.529  1.00  0.00    -0.000 C 
BRANCH  23  24
ATOM     24  C   UNL     1      21.133  11.013  11.238  1.00  0.00    -0.000 C 
BRANCH  24  25
ATOM     25  C   UNL     1      20.392  11.058  12.579  1.00  0.00    -0.000 C 
BRANCH  25  26
ATOM     26  C   UNL     1      19.199  10.091  12.583  1.00  0.00    -0.000 C 
BRANCH  26  27
ATOM     27  C   UNL     1      19.262   9.068  13.732  1.00  0.00    -0.000 C 
BRANCH  27  28
ATOM     28  C   UNL     1      20.681   8.739  14.236  1.00  0.00    -0.000 C 
BRANCH  28  29
ATOM     29  C   UNL     1      20.886   8.896  15.752  1.00  0.00    -0.003 C 
ATOM     30  C   UNL     1      21.084  10.351  16.178  1.00  0.00     0.004 C 
ENDBRANCH  28  29
ENDBRANCH  27  28
ENDBRANCH  26  27
ENDBRANCH  25  26
ENDBRANCH  24  25
ENDBRANCH  23  24
ENDBRANCH  22  23
ENDBRANCH  21  22
ENDBRANCH  20  21
ENDBRANCH  19  20
ENDBRANCH  18  19
ENDBRANCH  17  18
ENDBRANCH   1  17
TORSDOF 26
ENDMDL
MODEL 3
REMARK VINA RESULT:    -1.489      3.008      6.223
REMARK INTER + INTRA:          -9.849
REMARK INTER:                  -3.983
REMARK INTRA:                  -5.866
REMARK UNBOUND:                -6.097
REMARK SMILES CCCCCCCCCCCCCCCCCCCCCCCCCCCC(=O)[O-]
REMARK SMILES IDX 15 1 16 2 17 3 18 4 19 5 20 6 21 7 22 8 23 9 24 10 25 11
REMARK SMILES IDX 26 12 27 13 28 14 29 15 30 16 14 17 13 18 12 19 11 20 10 21
REMARK SMILES IDX 9 22 8 23 7 24 6 25 5 26 4 27 3 28 2 29 1 30
REMARK H PARENT
REMARK Flexibility Score: inf
ROOT
ATOM      1  C   UNL     1      23.809  10.791  14.652  1.00  0.00     0.000 C 
ENDROOT
BRANCH   1   2
ATOM      2  C   UNL     1      24.598  12.048  15.044  1.00  0.00     0.000 C 
BRANCH   2   3
ATOM      3  C   UNL     1      25.262  12.730  13.830  1.00  0.00     0.000 C 
BRANCH   3   4
ATOM      4  C   UNL     1      25.044  11.981  12.504  1.00  0.00     0.000 C 
BRANCH   4   5
ATOM      5  C   UNL     1      25.096  12.901  11.273  1.00  0.00     0.000 C 
BRANCH   5   6
ATOM      6  C   UNL     1      26.260  12.546  10.322  1.00  0.00     0.000 C 
BRANCH   6   7
ATOM      7  C   UNL     1      26.273  11.070   9.875  1.00  0.00     0.000 C 
BRANCH   7   8
ATOM      8  C   UNL     1      27.583  10.316  10.167  1.00  0.00     0.000 C 
BRANCH   8   9
ATOM      9  C   UNL     1      27.356   9.011  10.952  1.00  0.00     0.000 C 
BRANCH   9  10
ATOM     10  C   UNL     1      27.326   9.239  12.472  1.00  0.00     0.000 C 
BRANCH  10  11
ATOM     11  C   UNL     1      28.350  10.289  12.930  1.00  0.00     0.000 C 
BRANCH  11  12
ATOM     12  C   UNL     1      28.280  10.509  14.447  1.00  0.00     0.006 C 
BRANCH  12  13
ATOM     13  C   UNL     1      27.303   9.540  15.126  1.00  0.00     0.053 C 
BRANCH  13  14
ATOM     14  C   UNL     1      27.484   9.523  16.612  1.00  0.00     0.041 C 
ATOM     15  O   UNL     1      26.596  10.000  17.368  1.00  0.00    -0.550 OA
ATOM     16  O   UNL     1      28.646   8.998  17.163  1.00  0.00    -0.550 OA
ENDBRANCH  13  14
ENDBRANCH  12  13
ENDBRANCH  11  12
ENDBRANCH  10  11
ENDBRANCH   9  10
ENDBRANCH   8   9
ENDBRANCH   7   8
ENDBRANCH   6   7
ENDBRANCH   5   6
ENDBRANCH   4   5
ENDBRANCH   3   4
ENDBRANCH   2   3
ENDBRANCH   1   2
BRANCH   1  17
ATOM     17  C   UNL     1      23.281  10.067  15.898  1.00  0.00     0.000 C 
BRANCH  17  18
ATOM     18  C   UNL     1      22.450   8.838  15.516  1.00  0.00     0.000 C 
BRANCH  18  19
ATOM     19  C   UNL     1      23.000   8.183  14.240  1.00  0.00     0.000 C 
BRANCH  19  20
ATOM     20  C   UNL     1      21.895   7.596  13.343  1.00  0.00     0.000 C 
BRANCH  20  21
ATOM     21  C   UNL     1      22.076   7.850  11.832  1.00  0.00     0.000 C 
BRANCH  21  22
ATOM     22  C   UNL     1      23.210   8.828  11.460  1.00  0.00    -0.000 C 
BRANCH  22  23
ATOM     23  C   UNL     1      22.825   9.903  10.429  1.00  0.00    -0.000 C 
BRANCH  23  24
ATOM     24  C   UNL     1      21.450  10.529  10.706  1.00  0.00    -0.000 C 
BRANCH  24  25
ATOM     25  C   UNL     1      21.527  11.519  11.874  1.00  0.00    -0.000 C 
BRANCH  25  26
ATOM     26  C   UNL     1      20.607  11.085  13.026  1.00  0.00    -0.000 C 
BRANCH  26  27
ATOM     27  C   UNL     1      20.390  12.195  14.069  1.00  0.00    -0.000 C 
BRANCH  27  28
ATOM     28  C   UNL     1      21.342  13.401  13.946  1.00  0.00    -0.000 C 
BRANCH  28  29
ATOM     29  C   UNL     1      20.677  14.777  14.125  1.00  0.00    -0.003 C 
ATOM     30  C   UNL     1      21.530  15.925  13.585  1.00  0.00     0.004 C 
ENDBRANCH  28  29
ENDBRANCH  27  28
ENDBRANCH  26  27
ENDBRANCH  25  26
ENDBRANCH  24  25
ENDBRANCH  23  24
ENDBRANCH  22  23
ENDBRANCH  21  22
ENDBRANCH  20  21
ENDBRANCH  19  20
ENDBRANCH  18  19
ENDBRANCH  17  18
ENDBRANCH   1  17
TORSDOF 26
ENDMDL
MODEL 4
REMARK VINA RESULT:    -1.465     20.366     23.298
REMARK INTER + INTRA:          -9.789
REMARK INTER:                  -3.896
REMARK INTRA:                  -5.893
REMARK UNBOUND:                -6.097
REMARK SMILES CCCCCCCCCCCCCCCCCCCCCCCCCCCC(=O)[O-]
REMARK SMILES IDX 15 1 16 2 17 3 18 4 19 5 20 6 21 7 22 8 23 9 24 10 25 11
REMARK SMILES IDX 26 12 27 13 28 14 29 15 30 16 14 17 13 18 12 19 11 20 10 21
REMARK SMILES IDX 9 22 8 23 7 24 6 25 5 26 4 27 3 28 2 29 1 30
REMARK H PARENT
REMARK Flexibility Score: inf
ROOT
ATOM      1  C   UNL     1      14.108  23.062  26.179  1.00  0.00     0.000 C 
ENDROOT
BRANCH   1   2
ATOM      2  C   UNL     1      14.416  24.566  26.200  1.00  0.00     0.000 C 
BRANCH   2   3
ATOM      3  C   UNL     1      13.528  25.363  25.222  1.00  0.00     0.000 C 
BRANCH   3   4
ATOM      4  C   UNL     1      12.655  26.428  25.907  1.00  0.00     0.000 C 
BRANCH   4   5
ATOM      5  C   UNL     1      11.154  26.096  25.871  1.00  0.00     0.000 C 
BRANCH   5   6
ATOM      6  C   UNL     1      10.541  25.988  27.284  1.00  0.00     0.000 C 
BRANCH   6   7
ATOM      7  C   UNL     1      10.974  27.116  28.242  1.00  0.00     0.000 C 
BRANCH   7   8
ATOM      8  C   UNL     1      11.871  26.668  29.410  1.00  0.00     0.000 C 
BRANCH   8   9
ATOM      9  C   UNL     1      11.997  25.136  29.508  1.00  0.00     0.000 C 
BRANCH   9  10
ATOM     10  C   UNL     1      13.408  24.690  29.927  1.00  0.00     0.000 C 
BRANCH  10  11
ATOM     11  C   UNL     1      14.447  25.813  29.781  1.00  0.00     0.000 C 
BRANCH  11  12
ATOM     12  C   UNL     1      15.850  25.242  29.533  1.00  0.00     0.006 C 
BRANCH  12  13
ATOM     13  C   UNL     1      15.857  23.708  29.532  1.00  0.00     0.053 C 
BRANCH  13  14
ATOM     14  C   UNL     1      17.136  23.161  28.978  1.00  0.00     0.041 C 
ATOM     15  O   UNL     1      17.702  23.726  28.004  1.00  0.00    -0.550 OA
ATOM     16  O   UNL     1      17.693  22.011  29.524  1.00  0.00    -0.550 OA
ENDBRANCH  13  14
ENDBRANCH  12  13
ENDBRANCH  11  12
ENDBRANCH  10  11
ENDBRANCH   9  10
ENDBRANCH   8   9
ENDBRANCH   7   8
ENDBRANCH   6   7
ENDBRANCH   5   6
ENDBRANCH   4   5
ENDBRANCH   3   4
ENDBRANCH   2   3
ENDBRANCH   1   2
BRANCH   1  17
ATOM     17  C   UNL     1      13.077  22.730  25.093  1.00  0.00     0.000 C 
BRANCH  17  18
ATOM     18  C   UNL     1      11.861  22.008  25.684  1.00  0.00     0.000 C 
BRANCH  18  19
ATOM     19  C   UNL     1      11.502  22.583  27.062  1.00  0.00     0.000 C 
BRANCH  19  20
ATOM     20  C   UNL     1      11.064  21.504  28.067  1.00  0.00     0.000 C 
BRANCH  20  21
ATOM     21  C   UNL     1      11.928  21.407  29.341  1.00  0.00     0.000 C 
BRANCH  21  22
ATOM     22  C   UNL     1      13.390  20.973  29.114  1.00  0.00    -0.000 C 
BRANCH  22  23
ATOM     23  C   UNL     1      13.572  19.502  28.698  1.00  0.00    -0.000 C 
BRANCH  23  24
ATOM     24  C   UNL     1      13.944  19.344  27.217  1.00  0.00    -0.000 C 
BRANCH  24  25
ATOM     25  C   UNL     1      13.283  18.096  26.619  1.00  0.00    -0.000 C 
BRANCH  25  26
ATOM     26  C   UNL     1      12.057  18.474  25.774  1.00  0.00    -0.000 C 
BRANCH  26  27
ATOM     27  C   UNL     1      10.794  17.687  26.168  1.00  0.00    -0.000 C 
BRANCH  27  28
ATOM     28  C   UNL     1       9.587  18.552  26.579  1.00  0.00    -0.000 C 
BRANCH  28  29
ATOM     29  C   UNL     1       9.146  18.400  28.045  1.00  0.00    -0.003 C 
ATOM     30  C   UNL     1      10.236  17.803  28.935  1.00  0.00     0.004 C 
ENDBRANCH  28  29
ENDBRANCH  27  28
ENDBRANCH  26  27
ENDBRANCH  25  26
ENDBRANCH  24  25
ENDBRANCH  23  24
ENDBRANCH  22  23
ENDBRANCH  21  22
ENDBRANCH  20  21
ENDBRANCH  19  20
ENDBRANCH  18  19
ENDBRANCH  17  18
ENDBRANCH   1  17
TORSDOF 26
ENDMDL
MODEL 5
REMARK VINA RESULT:    -1.447      2.561      4.921
REMARK INTER + INTRA:          -9.743
REMARK INTER:                  -4.134
REMARK INTRA:                  -5.608
REMARK UNBOUND:                -6.097
REMARK SMILES CCCCCCCCCCCCCCCCCCCCCCCCCCCC(=O)[O-]
REMARK SMILES IDX 15 1 16 2 17 3 18 4 19 5 20 6 21 7 22 8 23 9 24 10 25 11
REMARK SMILES IDX 26 12 27 13 28 14 29 15 30 16 14 17 13 18 12 19 11 20 10 21
REMARK SMILES IDX 9 22 8 23 7 24 6 25 5 26 4 27 3 28 2 29 1 30
REMARK H PARENT
REMARK Flexibility Score: inf
ROOT
ATOM      1  C   UNL     1      24.784  11.718  13.855  1.00  0.00     0.000 C 
ENDROOT
BRANCH   1   2
ATOM      2  C   UNL     1      25.327  10.416  14.463  1.00  0.00     0.000 C 
BRANCH   2   3
ATOM      3  C   UNL     1      25.346   9.254  13.450  1.00  0.00     0.000 C 
BRANCH   3   4
ATOM      4  C   UNL     1      26.732   8.614  13.270  1.00  0.00     0.000 C 
BRANCH   4   5
ATOM      5  C   UNL     1      27.335   8.855  11.876  1.00  0.00     0.000 C 
BRANCH   5   6
ATOM      6  C   UNL     1      28.319  10.046  11.859  1.00  0.00     0.000 C 
BRANCH   6   7
ATOM      7  C   UNL     1      27.919  11.172  10.885  1.00  0.00     0.000 C 
BRANCH   7   8
ATOM      8  C   UNL     1      26.821  10.797   9.875  1.00  0.00     0.000 C 
BRANCH   8   9
ATOM      9  C   UNL     1      25.433  11.325  10.282  1.00  0.00     0.000 C 
BRANCH   9  10
ATOM     10  C   UNL     1      24.312  10.313   9.992  1.00  0.00     0.000 C 
BRANCH  10  11
ATOM     11  C   UNL     1      22.985  10.696  10.667  1.00  0.00     0.000 C 
BRANCH  11  12
ATOM     12  C   UNL     1      22.148   9.451  10.992  1.00  0.00     0.006 C 
BRANCH  12  13
ATOM     13  C   UNL     1      21.151   9.118   9.875  1.00  0.00     0.053 C 
BRANCH  13  14
ATOM     14  C   UNL     1      20.052   8.226  10.363  1.00  0.00     0.041 C 
ATOM     15  O   UNL     1      20.215   6.977  10.401  1.00  0.00    -0.550 OA
ATOM     16  O   UNL     1      18.837   8.772  10.755  1.00  0.00    -0.550 OA
ENDBRANCH  13  14
ENDBRANCH  12  13
ENDBRANCH  11  12
ENDBRANCH  10  11
ENDBRANCH   9  10
ENDBRANCH   8   9
ENDBRANCH   7   8
ENDBRANCH   6   7
ENDBRANCH   5   6
ENDBRANCH   4   5
ENDBRANCH   3   4
ENDBRANCH   2   3
ENDBRANCH   1   2
BRANCH   1  17
ATOM     17  C   UNL     1      25.829  12.838  13.943  1.00  0.00     0.000 C 
BRANCH  17  18
ATOM     18  C   UNL     1      27.165  12.310  14.478  1.00  0.00     0.000 C 
BRANCH  18  19
ATOM     19  C   UNL     1      28.332  13.174  13.977  1.00  0.00     0.000 C 
BRANCH  19  20
ATOM     20  C   UNL     1      27.876  14.333  13.073  1.00  0.00     0.000 C 
BRANCH  20  21
ATOM     21  C   UNL     1      28.880  14.740  11.975  1.00  0.00     0.000 C 
BRANCH  21  22
ATOM     22  C   UNL     1      28.265  15.002  10.585  1.00  0.00    -0.000 C 
BRANCH  22  23
ATOM     23  C   UNL     1      26.774  14.644  10.459  1.00  0.00    -0.000 C 
BRANCH  23  24
ATOM     24  C   UNL     1      25.873  15.880  10.325  1.00  0.00    -0.000 C 
BRANCH  24  25
ATOM     25  C   UNL     1      24.418  15.471  10.070  1.00  0.00    -0.000 C 
BRANCH  25  26
ATOM     26  C   UNL     1      23.958  14.412  11.084  1.00  0.00    -0.000 C 
BRANCH  26  27
ATOM     27  C   UNL     1      22.623  14.773  11.760  1.00  0.00    -0.000 C 
BRANCH  27  28
ATOM     28  C   UNL     1      22.717  15.076  13.269  1.00  0.00    -0.000 C 
BRANCH  28  29
ATOM     29  C   UNL     1      23.345  16.435  13.622  1.00  0.00    -0.003 C 
ATOM     30  C   UNL     1      24.848  16.344  13.890  1.00  0.00     0.004 C 
ENDBRANCH  28  29
ENDBRANCH  27  28
ENDBRANCH  26  27
ENDBRANCH  25  26
ENDBRANCH  24  25
ENDBRANCH  23  24
ENDBRANCH  22  23
ENDBRANCH  21  22
ENDBRANCH  20  21
ENDBRANCH  19  20
ENDBRANCH  18  19
ENDBRANCH  17  18
ENDBRANCH   1  17
TORSDOF 26
ENDMDL
MODEL 6
REMARK VINA RESULT:    -1.445      2.004      3.302
REMARK INTER + INTRA:          -9.739
REMARK INTER:                  -3.472
REMARK INTRA:                  -6.267
REMARK UNBOUND:                -6.097
REMARK SMILES CCCCCCCCCCCCCCCCCCCCCCCCCCCC(=O)[O-]
REMARK SMILES IDX 15 1 16 2 17 3 18 4 19 5 20 6 21 7 22 8 23 9 24 10 25 11
REMARK SMILES IDX 26 12 27 13 28 14 29 15 30 16 14 17 13 18 12 19 11 20 10 21
REMARK SMILES IDX 9 22 8 23 7 24 6 25 5 26 4 27 3 28 2 29 1 30
REMARK H PARENT
REMARK Flexibility Score: inf
ROOT
ATOM      1  C   UNL     1      23.580  10.726  14.543  1.00  0.00     0.000 C 
ENDROOT
BRANCH   1   2
ATOM      2  C   UNL     1      23.028   9.365  14.094  1.00  0.00     0.000 C 
BRANCH   2   3
ATOM      3  C   UNL     1      23.728   8.833  12.826  1.00  0.00     0.000 C 
BRANCH   3   4
ATOM      4  C   UNL     1      22.755   8.330  11.748  1.00  0.00     0.000 C 
BRANCH   4   5
ATOM      5  C   UNL     1      22.404   9.400  10.701  1.00  0.00     0.000 C 
BRANCH   5   6
ATOM      6  C   UNL     1      21.174  10.240  11.107  1.00  0.00     0.000 C 
BRANCH   6   7
ATOM      7  C   UNL     1      21.482  11.736  11.322  1.00  0.00     0.000 C 
BRANCH   7   8
ATOM      8  C   UNL     1      22.697  12.266  10.540  1.00  0.00     0.000 C 
BRANCH   8   9
ATOM      9  C   UNL     1      23.177  13.639  11.046  1.00  0.00     0.000 C 
BRANCH   9  10
ATOM     10  C   UNL     1      22.686  13.943  12.471  1.00  0.00     0.000 C 
BRANCH  10  11
ATOM     11  C   UNL     1      22.957  15.397  12.889  1.00  0.00     0.000 C 
BRANCH  11  12
ATOM     12  C   UNL     1      23.201  15.504  14.400  1.00  0.00     0.006 C 
BRANCH  12  13
ATOM     13  C   UNL     1      24.364  14.616  14.861  1.00  0.00     0.053 C 
BRANCH  13  14
ATOM     14  C   UNL     1      24.374  14.446  16.349  1.00  0.00     0.041 C 
ATOM     15  O   UNL     1      23.979  13.369  16.870  1.00  0.00    -0.550 OA
ATOM     16  O   UNL     1      24.799  15.488  17.164  1.00  0.00    -0.550 OA
ENDBRANCH  13  14
ENDBRANCH  12  13
ENDBRANCH  11  12
ENDBRANCH  10  11
ENDBRANCH   9  10
ENDBRANCH   8   9
ENDBRANCH   7   8
ENDBRANCH   6   7
ENDBRANCH   5   6
ENDBRANCH   4   5
ENDBRANCH   3   4
ENDBRANCH   2   3
ENDBRANCH   1   2
BRANCH   1  17
ATOM     17  C   UNL     1      24.755  11.158  13.655  1.00  0.00     0.000 C 
BRANCH  17  18
ATOM     18  C   UNL     1      26.031  11.355  14.481  1.00  0.00     0.000 C 
BRANCH  18  19
ATOM     19  C   UNL     1      26.923  10.108  14.412  1.00  0.00     0.000 C 
BRANCH  19  20
ATOM     20  C   UNL     1      27.836  10.091  13.172  1.00  0.00     0.000 C 
BRANCH  20  21
ATOM     21  C   UNL     1      27.467   9.042  12.103  1.00  0.00     0.000 C 
BRANCH  21  22
ATOM     22  C   UNL     1      27.366   9.580  10.661  1.00  0.00    -0.000 C 
BRANCH  22  23
ATOM     23  C   UNL     1      26.063  10.334  10.341  1.00  0.00    -0.000 C 
BRANCH  23  24
ATOM     24  C   UNL     1      26.309  11.777   9.878  1.00  0.00    -0.000 C 
BRANCH  24  25
ATOM     25  C   UNL     1      27.799  12.130   9.959  1.00  0.00    -0.000 C 
BRANCH  25  26
ATOM     26  C   UNL     1      28.057  13.185  11.045  1.00  0.00    -0.000 C 
BRANCH  26  27
ATOM     27  C   UNL     1      26.765  13.674  11.723  1.00  0.00    -0.000 C 
BRANCH  27  28
ATOM     28  C   UNL     1      26.460  15.174  11.542  1.00  0.00    -0.000 C 
BRANCH  28  29
ATOM     29  C   UNL     1      26.913  16.075  12.704  1.00  0.00    -0.003 C 
ATOM     30  C   UNL     1      26.324  17.484  12.629  1.00  0.00     0.004 C 
ENDBRANCH  28  29
ENDBRANCH  27  28
ENDBRANCH  26  27
ENDBRANCH  25  26
ENDBRANCH  24  25
ENDBRANCH  23  24
ENDBRANCH  22  23
ENDBRANCH  21  22
ENDBRANCH  20  21
ENDBRANCH  19  20
ENDBRANCH  18  19
ENDBRANCH  17  18
ENDBRANCH   1  17
TORSDOF 26
ENDMDL
MODEL 7
REMARK VINA RESULT:    -1.423      2.558      6.366
REMARK INTER + INTRA:          -9.683
REMARK INTER:                  -3.799
REMARK INTRA:                  -5.883
REMARK UNBOUND:                -6.097
REMARK SMILES CCCCCCCCCCCCCCCCCCCCCCCCCCCC(=O)[O-]
REMARK SMILES IDX 15 1 16 2 17 3 18 4 19 5 20 6 21 7 22 8 23 9 24 10 25 11
REMARK SMILES IDX 26 12 27 13 28 14 29 15 30 16 14 17 13 18 12 19 11 20 10 21
REMARK SMILES IDX 9 22 8 23 7 24 6 25 5 26 4 27 3 28 2 29 1 30
REMARK H PARENT
REMARK Flexibility Score: inf
ROOT
ATOM      1  C   UNL     1      23.935  13.073  12.625  1.00  0.00     0.000 C 
ENDROOT
BRANCH   1   2
ATOM      2  C   UNL     1      25.253  13.678  12.120  1.00  0.00     0.000 C 
BRANCH   2   3
ATOM      3  C   UNL     1      25.242  13.932  10.598  1.00  0.00     0.000 C 
BRANCH   3   4
ATOM      4  C   UNL     1      26.632  14.221  10.009  1.00  0.00     0.000 C 
BRANCH   4   5
ATOM      5  C   UNL     1      27.775  13.988  11.010  1.00  0.00     0.000 C 
BRANCH   5   6
ATOM      6  C   UNL     1      28.683  15.228  11.167  1.00  0.00     0.000 C 
BRANCH   6   7
ATOM      7  C   UNL     1      29.124  15.500  12.619  1.00  0.00     0.000 C 
BRANCH   7   8
ATOM      8  C   UNL     1      29.103  14.271  13.544  1.00  0.00     0.000 C 
BRANCH   8   9
ATOM      9  C   UNL     1      28.588  14.599  14.958  1.00  0.00     0.000 C 
BRANCH   9  10
ATOM     10  C   UNL     1      27.064  14.804  14.993  1.00  0.00     0.000 C 
BRANCH  10  11
ATOM     11  C   UNL     1      26.426  14.248  16.277  1.00  0.00     0.000 C 
BRANCH  11  12
ATOM     12  C   UNL     1      24.944  13.913  16.060  1.00  0.00     0.006 C 
BRANCH  12  13
ATOM     13  C   UNL     1      24.469  12.778  16.976  1.00  0.00     0.053 C 
BRANCH  13  14
ATOM     14  C   UNL     1      23.493  13.266  18.001  1.00  0.00     0.041 C 
ATOM     15  O   UNL     1      23.547  14.453  18.418  1.00  0.00    -0.550 OA
ATOM     16  O   UNL     1      22.535  12.400  18.514  1.00  0.00    -0.550 OA
ENDBRANCH  13  14
ENDBRANCH  12  13
ENDBRANCH  11  12
ENDBRANCH  10  11
ENDBRANCH   9  10
ENDBRANCH   8   9
ENDBRANCH   7   8
ENDBRANCH   6   7
ENDBRANCH   5   6
ENDBRANCH   4   5
ENDBRANCH   3   4
ENDBRANCH   2   3
ENDBRANCH   1   2
BRANCH   1  17
ATOM     17  C   UNL     1      22.857  13.125  11.534  1.00  0.00     0.000 C 
BRANCH  17  18
ATOM     18  C   UNL     1      22.375  11.718  11.162  1.00  0.00     0.000 C 
BRANCH  18  19
ATOM     19  C   UNL     1      22.997  10.666  12.091  1.00  0.00     0.000 C 
BRANCH  19  20
ATOM     20  C   UNL     1      23.862   9.638  11.340  1.00  0.00     0.000 C 
BRANCH  20  21
ATOM     21  C   UNL     1      24.762  10.225  10.232  1.00  0.00     0.000 C 
BRANCH  21  22
ATOM     22  C   UNL     1      26.248  10.389  10.610  1.00  0.00    -0.000 C 
BRANCH  22  23
ATOM     23  C   UNL     1      26.956   9.089  11.032  1.00  0.00    -0.000 C 
BRANCH  23  24
ATOM     24  C   UNL     1      28.305   9.342  11.721  1.00  0.00    -0.000 C 
BRANCH  24  25
ATOM     25  C   UNL     1      28.302  10.693  12.446  1.00  0.00    -0.000 C 
BRANCH  25  26
ATOM     26  C   UNL     1      28.625  10.519  13.938  1.00  0.00    -0.000 C 
BRANCH  26  27
ATOM     27  C   UNL     1      27.488  11.004  14.855  1.00  0.00    -0.000 C 
BRANCH  27  28
ATOM     28  C   UNL     1      26.065  10.692  14.353  1.00  0.00    -0.000 C 
BRANCH  28  29
ATOM     29  C   UNL     1      25.606   9.238  14.560  1.00  0.00    -0.003 C 
ATOM     30  C   UNL     1      25.903   8.715  15.965  1.00  0.00     0.004 C 
ENDBRANCH  28  29
ENDBRANCH  27  28
ENDBRANCH  26  27
ENDBRANCH  25  26
ENDBRANCH  24  25
ENDBRANCH  23  24
ENDBRANCH  22  23
ENDBRANCH  21  22
ENDBRANCH  20  21
ENDBRANCH  19  20
ENDBRANCH  18  19
ENDBRANCH  17  18
ENDBRANCH   1  17
TORSDOF 26
ENDMDL
MODEL 8
REMARK VINA RESULT:    -1.384      2.028      6.197
REMARK INTER + INTRA:          -9.584
REMARK INTER:                  -4.260
REMARK INTRA:                  -5.324
REMARK UNBOUND:                -6.097
REMARK SMILES CCCCCCCCCCCCCCCCCCCCCCCCCCCC(=O)[O-]
REMARK SMILES IDX 15 1 16 2 17 3 18 4 19 5 20 6 21 7 22 8 23 9 24 10 25 11
REMARK SMILES IDX 26 12 27 13 28 14 29 15 30 16 14 17 13 18 12 19 11 20 10 21
REMARK SMILES IDX 9 22 8 23 7 24 6 25 5 26 4 27 3 28 2 29 1 30
REMARK H PARENT
REMARK Flexibility Score: inf
ROOT
ATOM      1  C   UNL     1      25.569  12.637  14.725  1.00  0.00     0.000 C 
ENDROOT
BRANCH   1   2
ATOM      2  C   UNL     1      26.137  11.319  14.181  1.00  0.00     0.000 C 
BRANCH   2   3
ATOM      3  C   UNL     1      27.679  11.293  14.187  1.00  0.00     0.000 C 
BRANCH   3   4
ATOM      4  C   UNL     1      28.286  10.319  13.164  1.00  0.00     0.000 C 
BRANCH   4   5
ATOM      5  C   UNL     1      27.227   9.559  12.348  1.00  0.00     0.000 C 
BRANCH   5   6
ATOM      6  C   UNL     1      27.748   9.137  10.957  1.00  0.00     0.000 C 
BRANCH   6   7
ATOM      7  C   UNL     1      27.603  10.229   9.878  1.00  0.00     0.000 C 
BRANCH   7   8
ATOM      8  C   UNL     1      26.284  11.020   9.929  1.00  0.00     0.000 C 
BRANCH   8   9
ATOM      9  C   UNL     1      26.505  12.536  10.083  1.00  0.00     0.000 C 
BRANCH   9  10
ATOM     10  C   UNL     1      27.996  12.911  10.115  1.00  0.00     0.000 C 
BRANCH  10  11
ATOM     11  C   UNL     1      28.386  13.664  11.397  1.00  0.00     0.000 C 
BRANCH  11  12
ATOM     12  C   UNL     1      29.018  15.024  11.072  1.00  0.00     0.006 C 
BRANCH  12  13
ATOM     13  C   UNL     1      27.987  16.160  11.097  1.00  0.00     0.053 C 
BRANCH  13  14
ATOM     14  C   UNL     1      28.174  17.050  12.286  1.00  0.00     0.041 C 
ATOM     15  O   UNL     1      28.391  18.282  12.133  1.00  0.00    -0.550 OA
ATOM     16  O   UNL     1      28.132  16.515  13.567  1.00  0.00    -0.550 OA
ENDBRANCH  13  14
ENDBRANCH  12  13
ENDBRANCH  11  12
ENDBRANCH  10  11
ENDBRANCH   9  10
ENDBRANCH   8   9
ENDBRANCH   7   8
ENDBRANCH   6   7
ENDBRANCH   5   6
ENDBRANCH   4   5
ENDBRANCH   3   4
ENDBRANCH   2   3
ENDBRANCH   1   2
BRANCH   1  17
ATOM     17  C   UNL     1      25.861  13.796  13.763  1.00  0.00     0.000 C 
BRANCH  17  18
ATOM     18  C   UNL     1      24.668  14.754  13.672  1.00  0.00     0.000 C 
BRANCH  18  19
ATOM     19  C   UNL     1      24.470  15.242  12.229  1.00  0.00     0.000 C 
BRANCH  19  20
ATOM     20  C   UNL     1      23.385  14.455  11.473  1.00  0.00     0.000 C 
BRANCH  20  21
ATOM     21  C   UNL     1      22.248  13.896  12.354  1.00  0.00     0.000 C 
BRANCH  21  22
ATOM     22  C   UNL     1      22.051  12.368  12.284  1.00  0.00    -0.000 C 
BRANCH  22  23
ATOM     23  C   UNL     1      23.188  11.600  11.586  1.00  0.00    -0.000 C 
BRANCH  23  24
ATOM     24  C   UNL     1      23.370  10.178  12.135  1.00  0.00    -0.000 C 
BRANCH  24  25
ATOM     25  C   UNL     1      23.037   9.133  11.064  1.00  0.00    -0.000 C 
BRANCH  25  26
ATOM     26  C   UNL     1      22.047   8.088  11.603  1.00  0.00    -0.000 C 
BRANCH  26  27
ATOM     27  C   UNL     1      20.645   8.670  11.860  1.00  0.00    -0.000 C 
BRANCH  27  28
ATOM     28  C   UNL     1      20.056   9.491  10.696  1.00  0.00    -0.000 C 
BRANCH  28  29
ATOM     29  C   UNL     1      18.880  10.407  11.076  1.00  0.00    -0.003 C 
ATOM     30  C   UNL     1      18.779  10.652  12.582  1.00  0.00     0.004 C 
ENDBRANCH  28  29
ENDBRANCH  27  28
ENDBRANCH  26  27
ENDBRANCH  25  26
ENDBRANCH  24  25
ENDBRANCH  23  24
ENDBRANCH  22  23
ENDBRANCH  21  22
ENDBRANCH  20  21
ENDBRANCH  19  20
ENDBRANCH  18  19
ENDBRANCH  17  18
ENDBRANCH   1  17
TORSDOF 26
ENDMDL
