MODEL 1
REMARK VINA RESULT:    -5.228      0.000      0.000
REMARK INTER + INTRA:         -11.669
REMARK INTER:                 -10.119
REMARK INTRA:                  -1.551
REMARK UNBOUND:                -1.551
REMARK SMILES CCCCCCCCCCCCCCCCCC(=O)[O-]
REMARK SMILES IDX 10 1 11 2 12 3 13 4 14 5 15 6 16 7 17 8 18 9 19 10 20 11
REMARK SMILES IDX 9 12 8 13 7 14 6 15 5 16 4 17 3 18 2 19 1 20
REMARK H PARENT
REMARK Flexibility Score: inf
ROOT
ATOM      1  C   UNL     1      39.904  65.360   5.730  1.00  0.00     0.000 C 
ENDROOT
BRANCH   1   2
ATOM      2  C   UNL     1      40.857  64.209   5.368  1.00  0.00     0.000 C 
BRANCH   2   3
ATOM      3  C   UNL     1      42.324  64.503   5.734  1.00  0.00     0.000 C 
BRANCH   3   4
ATOM      4  C   UNL     1      42.572  65.858   6.424  1.00  0.00     0.000 C 
BRANCH   4   5
ATOM      5  C   UNL     1      43.818  66.584   5.889  1.00  0.00     0.000 C 
BRANCH   5   6
ATOM      6  C   UNL     1      44.407  65.904   4.642  1.00  0.00     0.000 C 
BRANCH   6   7
ATOM      7  C   UNL     1      44.811  66.913   3.553  1.00  0.00     0.006 C 
BRANCH   7   8
ATOM      8  C   UNL     1      44.311  68.331   3.863  1.00  0.00     0.053 C 
BRANCH   8   9
ATOM      9  C   UNL     1      44.328  69.207   2.648  1.00  0.00     0.041 C 
ATOM     10  O   UNL     1      44.998  70.273   2.645  1.00  0.00    -0.550 OA
ATOM     11  O   UNL     1      43.627  68.833   1.509  1.00  0.00    -0.550 OA
ENDBRANCH   8   9
ENDBRANCH   7   8
ENDBRANCH   6   7
ENDBRANCH   5   6
ENDBRANCH   4   5
ENDBRANCH   3   4
ENDBRANCH   2   3
ENDBRANCH   1   2
BRANCH   1  12
ATOM     12  C   UNL     1      38.851  64.950   6.785  1.00  0.00     0.000 C 
BRANCH  12  13
ATOM     13  C   UNL     1      39.388  64.951   8.227  1.00  0.00    -0.000 C 
BRANCH  13  14
ATOM     14  C   UNL     1      39.471  63.558   8.875  1.00  0.00    -0.000 C 
BRANCH  14  15
ATOM     15  C   UNL     1      40.814  62.836   8.611  1.00  0.00    -0.000 C 
BRANCH  15  16
ATOM     16  C   UNL     1      40.632  61.340   8.310  1.00  0.00    -0.000 C 
BRANCH  16  17
ATOM     17  C   UNL     1      41.738  60.777   7.402  1.00  0.00    -0.000 C 
BRANCH  17  18
ATOM     18  C   UNL     1      42.410  59.506   7.966  1.00  0.00    -0.000 C 
BRANCH  18  19
ATOM     19  C   UNL     1      41.657  58.227   7.570  1.00  0.00    -0.003 C 
ATOM     20  C   UNL     1      40.983  57.587   8.781  1.00  0.00     0.004 C 
ENDBRANCH  18  19
ENDBRANCH  17  18
ENDBRANCH  16  17
ENDBRANCH  15  16
ENDBRANCH  14  15
ENDBRANCH  13  14
ENDBRANCH  12  13
ENDBRANCH   1  12
TORSDOF 16
ENDMDL
MODEL 2
REMARK VINA RESULT:    -5.198     15.579     17.208
REMARK INTER + INTRA:         -11.612
REMARK INTER:                  -9.476
REMARK INTRA:                  -2.136
REMARK UNBOUND:                -1.551
REMARK SMILES CCCCCCCCCCCCCCCCCC(=O)[O-]
REMARK SMILES IDX 10 1 11 2 12 3 13 4 14 5 15 6 16 7 17 8 18 9 19 10 20 11
REMARK SMILES IDX 9 12 8 13 7 14 6 15 5 16 4 17 3 18 2 19 1 20
REMARK H PARENT
REMARK Flexibility Score: inf
ROOT
ATOM      1  C   UNL     1      28.365  57.079  -1.771  1.00  0.00     0.000 C 
ENDROOT
BRANCH   1   2
ATOM      2  C   UNL     1      28.692  58.340  -0.954  1.00  0.00     0.000 C 
BRANCH   2   3
ATOM      3  C   UNL     1      29.437  59.411  -1.771  1.00  0.00     0.000 C 
BRANCH   3   4
ATOM      4  C   UNL     1      30.972  59.385  -1.648  1.00  0.00     0.000 C 
BRANCH   4   5
ATOM      5  C   UNL     1      31.655  58.648  -2.812  1.00  0.00     0.000 C 
BRANCH   5   6
ATOM      6  C   UNL     1      30.902  58.820  -4.142  1.00  0.00     0.000 C 
BRANCH   6   7
ATOM      7  C   UNL     1      30.981  57.569  -5.034  1.00  0.00     0.006 C 
BRANCH   7   8
ATOM      8  C   UNL     1      29.639  56.827  -5.109  1.00  0.00     0.053 C 
BRANCH   8   9
ATOM      9  C   UNL     1      29.050  56.876  -6.486  1.00  0.00     0.041 C 
ATOM     10  O   UNL     1      28.354  55.917  -6.911  1.00  0.00    -0.550 OA
ATOM     11  O   UNL     1      29.247  57.992  -7.289  1.00  0.00    -0.550 OA
ENDBRANCH   8   9
ENDBRANCH   7   8
ENDBRANCH   6   7
ENDBRANCH   5   6
ENDBRANCH   4   5
ENDBRANCH   3   4
ENDBRANCH   2   3
ENDBRANCH   1   2
BRANCH   1  12
ATOM     12  C   UNL     1      27.140  56.314  -1.218  1.00  0.00     0.000 C 
BRANCH  12  13
ATOM     13  C   UNL     1      26.227  57.173  -0.325  1.00  0.00    -0.000 C 
BRANCH  13  14
ATOM     14  C   UNL     1      26.193  56.738   1.151  1.00  0.00    -0.000 C 
BRANCH  14  15
ATOM     15  C   UNL     1      27.001  55.449   1.431  1.00  0.00    -0.000 C 
BRANCH  15  16
ATOM     16  C   UNL     1      28.139  55.671   2.439  1.00  0.00    -0.000 C 
BRANCH  16  17
ATOM     17  C   UNL     1      29.436  56.163   1.774  1.00  0.00    -0.000 C 
BRANCH  17  18
ATOM     18  C   UNL     1      30.048  57.403   2.461  1.00  0.00    -0.000 C 
BRANCH  18  19
ATOM     19  C   UNL     1      29.055  58.090   3.411  1.00  0.00    -0.003 C 
ATOM     20  C   UNL     1      29.050  59.602   3.203  1.00  0.00     0.004 C 
ENDBRANCH  18  19
ENDBRANCH  17  18
ENDBRANCH  16  17
ENDBRANCH  15  16
ENDBRANCH  14  15
ENDBRANCH  13  14
ENDBRANCH  12  13
ENDBRANCH   1  12
TORSDOF 16
ENDMDL
MODEL 3
REMARK VINA RESULT:    -5.122      3.867      5.999
REMARK INTER + INTRA:         -11.463
REMARK INTER:                  -8.785
REMARK INTRA:                  -2.678
REMARK UNBOUND:                -1.551
REMARK SMILES CCCCCCCCCCCCCCCCCC(=O)[O-]
REMARK SMILES IDX 10 1 11 2 12 3 13 4 14 5 15 6 16 7 17 8 18 9 19 10 20 11
REMARK SMILES IDX 9 12 8 13 7 14 6 15 5 16 4 17 3 18 2 19 1 20
REMARK H PARENT
REMARK Flexibility Score: inf
ROOT
ATOM      1  C   UNL     1      40.478  58.577   7.844  1.00  0.00     0.000 C 
ENDROOT
BRANCH   1   2
ATOM      2  C   UNL     1      39.681  59.888   7.934  1.00  0.00     0.000 C 
BRANCH   2   3
ATOM      3  C   UNL     1      40.458  61.018   8.636  1.00  0.00     0.000 C 
BRANCH   3   4
ATOM      4  C   UNL     1      39.910  62.439   8.402  1.00  0.00     0.000 C 
BRANCH   4   5
ATOM      5  C   UNL     1      41.009  63.514   8.411  1.00  0.00     0.000 C 
BRANCH   5   6
ATOM      6  C   UNL     1      40.528  64.854   7.830  1.00  0.00     0.000 C 
BRANCH   6   7
ATOM      7  C   UNL     1      39.158  64.743   7.139  1.00  0.00     0.006 C 
BRANCH   7   8
ATOM      8  C   UNL     1      39.110  65.525   5.819  1.00  0.00     0.053 C 
BRANCH   8   9
ATOM      9  C   UNL     1      37.916  66.427   5.747  1.00  0.00     0.041 C 
ATOM     10  O   UNL     1      37.026  66.371   6.636  1.00  0.00    -0.550 OA
ATOM     11  O   UNL     1      37.800  67.349   4.716  1.00  0.00    -0.550 OA
ENDBRANCH   8   9
ENDBRANCH   7   8
ENDBRANCH   6   7
ENDBRANCH   5   6
ENDBRANCH   4   5
ENDBRANCH   3   4
ENDBRANCH   2   3
ENDBRANCH   1   2
BRANCH   1  12
ATOM     12  C   UNL     1      41.988  58.814   7.614  1.00  0.00     0.000 C 
BRANCH  12  13
ATOM     13  C   UNL     1      42.445  58.535   6.171  1.00  0.00    -0.000 C 
BRANCH  13  14
ATOM     14  C   UNL     1      43.196  59.703   5.506  1.00  0.00    -0.000 C 
BRANCH  14  15
ATOM     15  C   UNL     1      42.934  61.068   6.186  1.00  0.00    -0.000 C 
BRANCH  15  16
ATOM     16  C   UNL     1      42.309  62.094   5.229  1.00  0.00    -0.000 C 
BRANCH  16  17
ATOM     17  C   UNL     1      40.860  61.746   4.846  1.00  0.00    -0.000 C 
BRANCH  17  18
ATOM     18  C   UNL     1      40.718  61.198   3.410  1.00  0.00    -0.000 C 
BRANCH  18  19
ATOM     19  C   UNL     1      39.454  60.342   3.237  1.00  0.00    -0.003 C 
ATOM     20  C   UNL     1      39.410  59.212   4.263  1.00  0.00     0.004 C 
ENDBRANCH  18  19
ENDBRANCH  17  18
ENDBRANCH  16  17
ENDBRANCH  15  16
ENDBRANCH  14  15
ENDBRANCH  13  14
ENDBRANCH  12  13
ENDBRANCH   1  12
TORSDOF 16
ENDMDL
MODEL 4
REMARK VINA RESULT:    -5.107      4.268      6.128
REMARK INTER + INTRA:         -11.435
REMARK INTER:                  -8.462
REMARK INTRA:                  -2.974
REMARK UNBOUND:                -1.551
REMARK SMILES CCCCCCCCCCCCCCCCCC(=O)[O-]
REMARK SMILES IDX 10 1 11 2 12 3 13 4 14 5 15 6 16 7 17 8 18 9 19 10 20 11
REMARK SMILES IDX 9 12 8 13 7 14 6 15 5 16 4 17 3 18 2 19 1 20
REMARK H PARENT
REMARK Flexibility Score: inf
ROOT
ATOM      1  C   UNL     1      38.942  59.273   5.101  1.00  0.00     0.000 C 
ENDROOT
BRANCH   1   2
ATOM      2  C   UNL     1      40.291  59.137   4.377  1.00  0.00     0.000 C 
BRANCH   2   3
ATOM      3  C   UNL     1      41.353  60.129   4.888  1.00  0.00     0.000 C 
BRANCH   3   4
ATOM      4  C   UNL     1      40.804  61.338   5.668  1.00  0.00     0.000 C 
BRANCH   4   5
ATOM      5  C   UNL     1      41.762  61.829   6.766  1.00  0.00     0.000 C 
BRANCH   5   6
ATOM      6  C   UNL     1      41.082  61.932   8.140  1.00  0.00     0.000 C 
BRANCH   6   7
ATOM      7  C   UNL     1      39.662  62.520   8.056  1.00  0.00     0.006 C 
BRANCH   7   8
ATOM      8  C   UNL     1      39.632  64.012   8.416  1.00  0.00     0.053 C 
BRANCH   8   9
ATOM      9  C   UNL     1      39.280  64.865   7.236  1.00  0.00     0.041 C 
ATOM     10  O   UNL     1      38.185  65.485   7.206  1.00  0.00    -0.550 OA
ATOM     11  O   UNL     1      40.173  64.997   6.181  1.00  0.00    -0.550 OA
ENDBRANCH   8   9
ENDBRANCH   7   8
ENDBRANCH   6   7
ENDBRANCH   5   6
ENDBRANCH   4   5
ENDBRANCH   3   4
ENDBRANCH   2   3
ENDBRANCH   1   2
BRANCH   1  12
ATOM     12  C   UNL     1      38.773  58.242   6.240  1.00  0.00     0.000 C 
BRANCH  12  13
ATOM     13  C   UNL     1      39.118  58.798   7.634  1.00  0.00    -0.000 C 
BRANCH  13  14
ATOM     14  C   UNL     1      40.082  57.917   8.448  1.00  0.00    -0.000 C 
BRANCH  14  15
ATOM     15  C   UNL     1      41.553  58.391   8.380  1.00  0.00    -0.000 C 
BRANCH  15  16
ATOM     16  C   UNL     1      42.368  57.641   7.314  1.00  0.00    -0.000 C 
BRANCH  16  17
ATOM     17  C   UNL     1      42.017  56.145   7.241  1.00  0.00    -0.000 C 
BRANCH  17  18
ATOM     18  C   UNL     1      42.219  55.534   5.838  1.00  0.00    -0.000 C 
BRANCH  18  19
ATOM     19  C   UNL     1      40.908  55.464   5.041  1.00  0.00    -0.003 C 
ATOM     20  C   UNL     1      41.176  55.452   3.538  1.00  0.00     0.004 C 
ENDBRANCH  18  19
ENDBRANCH  17  18
ENDBRANCH  16  17
ENDBRANCH  15  16
ENDBRANCH  14  15
ENDBRANCH  13  14
ENDBRANCH  12  13
ENDBRANCH   1  12
TORSDOF 16
ENDMDL
MODEL 5
REMARK VINA RESULT:    -5.092     14.109     15.912
REMARK INTER + INTRA:         -11.405
REMARK INTER:                  -8.993
REMARK INTRA:                  -2.412
REMARK UNBOUND:                -1.551
REMARK SMILES CCCCCCCCCCCCCCCCCC(=O)[O-]
REMARK SMILES IDX 10 1 11 2 12 3 13 4 14 5 15 6 16 7 17 8 18 9 19 10 20 11
REMARK SMILES IDX 9 12 8 13 7 14 6 15 5 16 4 17 3 18 2 19 1 20
REMARK H PARENT
REMARK Flexibility Score: inf
ROOT
ATOM      1  C   UNL     1      32.278  59.022   0.308  1.00  0.00     0.000 C 
ENDROOT
BRANCH   1   2
ATOM      2  C   UNL     1      31.518  60.357   0.339  1.00  0.00     0.000 C 
BRANCH   2   3
ATOM      3  C   UNL     1      30.757  60.649  -0.969  1.00  0.00     0.000 C 
BRANCH   3   4
ATOM      4  C   UNL     1      29.574  59.710  -1.267  1.00  0.00     0.000 C 
BRANCH   4   5
ATOM      5  C   UNL     1      29.742  58.932  -2.583  1.00  0.00     0.000 C 
BRANCH   5   6
ATOM      6  C   UNL     1      31.130  59.133  -3.214  1.00  0.00     0.000 C 
BRANCH   6   7
ATOM      7  C   UNL     1      31.103  59.034  -4.749  1.00  0.00     0.006 C 
BRANCH   7   8
ATOM      8  C   UNL     1      31.037  57.578  -5.234  1.00  0.00     0.053 C 
BRANCH   8   9
ATOM      9  C   UNL     1      29.698  57.244  -5.817  1.00  0.00     0.041 C 
ATOM     10  O   UNL     1      28.934  56.436  -5.226  1.00  0.00    -0.550 OA
ATOM     11  O   UNL     1      29.282  57.845  -6.997  1.00  0.00    -0.550 OA
ENDBRANCH   8   9
ENDBRANCH   7   8
ENDBRANCH   6   7
ENDBRANCH   5   6
ENDBRANCH   4   5
ENDBRANCH   3   4
ENDBRANCH   2   3
ENDBRANCH   1   2
BRANCH   1  12
ATOM     12  C   UNL     1      31.991  58.146   1.549  1.00  0.00     0.000 C 
BRANCH  12  13
ATOM     13  C   UNL     1      31.394  56.769   1.209  1.00  0.00    -0.000 C 
BRANCH  13  14
ATOM     14  C   UNL     1      30.060  56.827   0.443  1.00  0.00    -0.000 C 
BRANCH  14  15
ATOM     15  C   UNL     1      28.821  56.657   1.353  1.00  0.00    -0.000 C 
BRANCH  15  16
ATOM     16  C   UNL     1      27.873  57.865   1.291  1.00  0.00    -0.000 C 
BRANCH  16  17
ATOM     17  C   UNL     1      27.913  58.720   2.570  1.00  0.00    -0.000 C 
BRANCH  17  18
ATOM     18  C   UNL     1      28.537  57.990   3.779  1.00  0.00    -0.000 C 
BRANCH  18  19
ATOM     19  C   UNL     1      29.741  58.750   4.356  1.00  0.00    -0.003 C 
ATOM     20  C   UNL     1      29.838  60.156   3.770  1.00  0.00     0.004 C 
ENDBRANCH  18  19
ENDBRANCH  17  18
ENDBRANCH  16  17
ENDBRANCH  15  16
ENDBRANCH  14  15
ENDBRANCH  13  14
ENDBRANCH  12  13
ENDBRANCH   1  12
TORSDOF 16
ENDMDL
MODEL 6
REMARK VINA RESULT:    -5.049     15.132     17.462
REMARK INTER + INTRA:         -11.323
REMARK INTER:                  -9.332
REMARK INTRA:                  -1.991
REMARK UNBOUND:                -1.551
REMARK SMILES CCCCCCCCCCCCCCCCCC(=O)[O-]
REMARK SMILES IDX 10 1 11 2 12 3 13 4 14 5 15 6 16 7 17 8 18 9 19 10 20 11
REMARK SMILES IDX 9 12 8 13 7 14 6 15 5 16 4 17 3 18 2 19 1 20
REMARK H PARENT
REMARK Flexibility Score: inf
ROOT
ATOM      1  C   UNL     1      29.436  57.829  -0.295  1.00  0.00     0.000 C 
ENDROOT
BRANCH   1   2
ATOM      2  C   UNL     1      28.363  57.866  -1.395  1.00  0.00     0.000 C 
BRANCH   2   3
ATOM      3  C   UNL     1      27.792  56.474  -1.728  1.00  0.00     0.000 C 
BRANCH   3   4
ATOM      4  C   UNL     1      26.450  56.134  -1.053  1.00  0.00     0.000 C 
BRANCH   4   5
ATOM      5  C   UNL     1      26.076  57.117   0.068  1.00  0.00     0.000 C 
BRANCH   5   6
ATOM      6  C   UNL     1      26.431  56.583   1.465  1.00  0.00     0.000 C 
BRANCH   6   7
ATOM      7  C   UNL     1      26.769  57.706   2.461  1.00  0.00     0.006 C 
BRANCH   7   8
ATOM      8  C   UNL     1      27.529  57.182   3.687  1.00  0.00     0.053 C 
BRANCH   8   9
ATOM      9  C   UNL     1      28.874  57.827   3.828  1.00  0.00     0.041 C 
ATOM     10  O   UNL     1      28.978  58.964   4.358  1.00  0.00    -0.550 OA
ATOM     11  O   UNL     1      30.015  57.160   3.401  1.00  0.00    -0.550 OA
ENDBRANCH   8   9
ENDBRANCH   7   8
ENDBRANCH   6   7
ENDBRANCH   5   6
ENDBRANCH   4   5
ENDBRANCH   3   4
ENDBRANCH   2   3
ENDBRANCH   1   2
BRANCH   1  12
ATOM     12  C   UNL     1      29.584  59.183   0.435  1.00  0.00     0.000 C 
BRANCH  12  13
ATOM     13  C   UNL     1      30.929  59.884   0.171  1.00  0.00    -0.000 C 
BRANCH  13  14
ATOM     14  C   UNL     1      31.143  60.313  -1.292  1.00  0.00    -0.000 C 
BRANCH  14  15
ATOM     15  C   UNL     1      32.301  59.562  -1.990  1.00  0.00    -0.000 C 
BRANCH  15  16
ATOM     16  C   UNL     1      31.804  58.452  -2.929  1.00  0.00    -0.000 C 
BRANCH  16  17
ATOM     17  C   UNL     1      30.839  58.973  -4.008  1.00  0.00    -0.000 C 
BRANCH  17  18
ATOM     18  C   UNL     1      30.678  58.012  -5.206  1.00  0.00    -0.000 C 
BRANCH  18  19
ATOM     19  C   UNL     1      29.630  56.922  -4.939  1.00  0.00    -0.003 C 
ATOM     20  C   UNL     1      28.892  56.542  -6.219  1.00  0.00     0.004 C 
ENDBRANCH  18  19
ENDBRANCH  17  18
ENDBRANCH  16  17
ENDBRANCH  15  16
ENDBRANCH  14  15
ENDBRANCH  13  14
ENDBRANCH  12  13
ENDBRANCH   1  12
TORSDOF 16
ENDMDL
MODEL 7
REMARK VINA RESULT:    -4.999      4.241      8.818
REMARK INTER + INTRA:         -11.225
REMARK INTER:                  -9.930
REMARK INTRA:                  -1.295
REMARK UNBOUND:                -1.551
REMARK SMILES CCCCCCCCCCCCCCCCCC(=O)[O-]
REMARK SMILES IDX 10 1 11 2 12 3 13 4 14 5 15 6 16 7 17 8 18 9 19 10 20 11
REMARK SMILES IDX 9 12 8 13 7 14 6 15 5 16 4 17 3 18 2 19 1 20
REMARK H PARENT
REMARK Flexibility Score: inf
ROOT
ATOM      1  C   UNL     1      39.901  65.488   5.751  1.00  0.00     0.000 C 
ENDROOT
BRANCH   1   2
ATOM      2  C   UNL     1      38.744  64.953   6.611  1.00  0.00     0.000 C 
BRANCH   2   3
ATOM      3  C   UNL     1      38.997  65.106   8.123  1.00  0.00     0.000 C 
BRANCH   3   4
ATOM      4  C   UNL     1      39.408  63.815   8.856  1.00  0.00     0.000 C 
BRANCH   4   5
ATOM      5  C   UNL     1      40.915  63.524   8.758  1.00  0.00     0.000 C 
BRANCH   5   6
ATOM      6  C   UNL     1      41.210  62.081   8.320  1.00  0.00     0.000 C 
BRANCH   6   7
ATOM      7  C   UNL     1      39.933  61.236   8.164  1.00  0.00     0.006 C 
BRANCH   7   8
ATOM      8  C   UNL     1      40.204  59.737   8.358  1.00  0.00     0.053 C 
BRANCH   8   9
ATOM      9  C   UNL     1      39.381  58.896   7.431  1.00  0.00     0.041 C 
ATOM     10  O   UNL     1      39.935  58.242   6.509  1.00  0.00    -0.550 OA
ATOM     11  O   UNL     1      38.005  58.814   7.601  1.00  0.00    -0.550 OA
ENDBRANCH   8   9
ENDBRANCH   7   8
ENDBRANCH   6   7
ENDBRANCH   5   6
ENDBRANCH   4   5
ENDBRANCH   3   4
ENDBRANCH   2   3
ENDBRANCH   1   2
BRANCH   1  12
ATOM     12  C   UNL     1      40.879  64.375   5.313  1.00  0.00     0.000 C 
BRANCH  12  13
ATOM     13  C   UNL     1      42.345  64.658   5.688  1.00  0.00    -0.000 C 
BRANCH  13  14
ATOM     14  C   UNL     1      42.785  66.117   5.473  1.00  0.00    -0.000 C 
BRANCH  14  15
ATOM     15  C   UNL     1      44.318  66.286   5.354  1.00  0.00    -0.000 C 
BRANCH  15  16
ATOM     16  C   UNL     1      44.779  66.490   3.902  1.00  0.00    -0.000 C 
BRANCH  16  17
ATOM     17  C   UNL     1      45.084  67.962   3.576  1.00  0.00    -0.000 C 
BRANCH  17  18
ATOM     18  C   UNL     1      44.011  68.632   2.691  1.00  0.00    -0.000 C 
BRANCH  18  19
ATOM     19  C   UNL     1      44.623  69.606   1.674  1.00  0.00    -0.003 C 
ATOM     20  C   UNL     1      44.472  71.053   2.136  1.00  0.00     0.004 C 
ENDBRANCH  18  19
ENDBRANCH  17  18
ENDBRANCH  16  17
ENDBRANCH  15  16
ENDBRANCH  14  15
ENDBRANCH  13  14
ENDBRANCH  12  13
ENDBRANCH   1  12
TORSDOF 16
ENDMDL
MODEL 8
REMARK VINA RESULT:    -4.981      5.051      7.982
REMARK INTER + INTRA:         -11.191
REMARK INTER:                  -8.822
REMARK INTRA:                  -2.369
REMARK UNBOUND:                -1.551
REMARK SMILES CCCCCCCCCCCCCCCCCC(=O)[O-]
REMARK SMILES IDX 10 1 11 2 12 3 13 4 14 5 15 6 16 7 17 8 18 9 19 10 20 11
REMARK SMILES IDX 9 12 8 13 7 14 6 15 5 16 4 17 3 18 2 19 1 20
REMARK H PARENT
REMARK Flexibility Score: inf
ROOT
ATOM      1  C   UNL     1      39.435  62.076   7.815  1.00  0.00     0.000 C 
ENDROOT
BRANCH   1   2
ATOM      2  C   UNL     1      40.226  60.903   8.416  1.00  0.00     0.000 C 
BRANCH   2   3
ATOM      3  C   UNL     1      41.714  60.913   8.018  1.00  0.00     0.000 C 
BRANCH   3   4
ATOM      4  C   UNL     1      42.358  59.525   7.843  1.00  0.00     0.000 C 
BRANCH   4   5
ATOM      5  C   UNL     1      41.479  58.383   8.380  1.00  0.00     0.000 C 
BRANCH   5   6
ATOM      6  C   UNL     1      41.060  57.393   7.281  1.00  0.00     0.000 C 
BRANCH   6   7
ATOM      7  C   UNL     1      42.027  56.202   7.156  1.00  0.00     0.006 C 
BRANCH   7   8
ATOM      8  C   UNL     1      43.076  56.422   6.058  1.00  0.00     0.053 C 
BRANCH   8   9
ATOM      9  C   UNL     1      42.713  55.714   4.789  1.00  0.00     0.041 C 
ATOM     10  O   UNL     1      41.531  55.324   4.597  1.00  0.00    -0.550 OA
ATOM     11  O   UNL     1      43.672  55.510   3.806  1.00  0.00    -0.550 OA
ENDBRANCH   8   9
ENDBRANCH   7   8
ENDBRANCH   6   7
ENDBRANCH   5   6
ENDBRANCH   4   5
ENDBRANCH   3   4
ENDBRANCH   2   3
ENDBRANCH   1   2
BRANCH   1  12
ATOM     12  C   UNL     1      39.542  63.362   8.666  1.00  0.00     0.000 C 
BRANCH  12  13
ATOM     13  C   UNL     1      40.030  64.589   7.873  1.00  0.00    -0.000 C 
BRANCH  13  14
ATOM     14  C   UNL     1      41.560  64.697   7.750  1.00  0.00    -0.000 C 
BRANCH  14  15
ATOM     15  C   UNL     1      42.043  64.969   6.306  1.00  0.00    -0.000 C 
BRANCH  15  16
ATOM     16  C   UNL     1      41.255  64.167   5.258  1.00  0.00    -0.000 C 
BRANCH  16  17
ATOM     17  C   UNL     1      41.833  62.760   5.029  1.00  0.00    -0.000 C 
BRANCH  17  18
ATOM     18  C   UNL     1      40.999  61.905   4.050  1.00  0.00    -0.000 C 
BRANCH  18  19
ATOM     19  C   UNL     1      41.120  60.402   4.344  1.00  0.00    -0.003 C 
ATOM     20  C   UNL     1      39.797  59.830   4.844  1.00  0.00     0.004 C 
ENDBRANCH  18  19
ENDBRANCH  17  18
ENDBRANCH  16  17
ENDBRANCH  15  16
ENDBRANCH  14  15
ENDBRANCH  13  14
ENDBRANCH  12  13
ENDBRANCH   1  12
TORSDOF 16
ENDMDL
MODEL 9
REMARK VINA RESULT:    -4.970     13.684     15.393
REMARK INTER + INTRA:         -11.169
REMARK INTER:                  -8.259
REMARK INTRA:                  -2.909
REMARK UNBOUND:                -1.551
REMARK SMILES CCCCCCCCCCCCCCCCCC(=O)[O-]
REMARK SMILES IDX 10 1 11 2 12 3 13 4 14 5 15 6 16 7 17 8 18 9 19 10 20 11
REMARK SMILES IDX 9 12 8 13 7 14 6 15 5 16 4 17 3 18 2 19 1 20
REMARK H PARENT
REMARK Flexibility Score: inf
ROOT
ATOM      1  C   UNL     1      28.888  56.925  -0.004  1.00  0.00     0.000 C 
ENDROOT
BRANCH   1   2
ATOM      2  C   UNL     1      30.201  56.443   0.635  1.00  0.00     0.000 C 
BRANCH   2   3
ATOM      3  C   UNL     1      30.856  57.504   1.540  1.00  0.00     0.000 C 
BRANCH   3   4
ATOM      4  C   UNL     1      32.359  57.739   1.300  1.00  0.00     0.000 C 
BRANCH   4   5
ATOM      5  C   UNL     1      32.676  59.172   0.840  1.00  0.00     0.000 C 
BRANCH   5   6
ATOM      6  C   UNL     1      31.417  60.046   0.723  1.00  0.00     0.000 C 
BRANCH   6   7
ATOM      7  C   UNL     1      31.094  60.429  -0.732  1.00  0.00     0.006 C 
BRANCH   7   8
ATOM      8  C   UNL     1      31.910  59.610  -1.740  1.00  0.00     0.053 C 
BRANCH   8   9
ATOM      9  C   UNL     1      31.091  59.212  -2.930  1.00  0.00     0.041 C 
ATOM     10  O   UNL     1      31.427  59.585  -4.084  1.00  0.00    -0.550 OA
ATOM     11  O   UNL     1      29.972  58.405  -2.768  1.00  0.00    -0.550 OA
ENDBRANCH   8   9
ENDBRANCH   7   8
ENDBRANCH   6   7
ENDBRANCH   5   6
ENDBRANCH   4   5
ENDBRANCH   3   4
ENDBRANCH   2   3
ENDBRANCH   1   2
BRANCH   1  12
ATOM     12  C   UNL     1      28.344  58.212   0.657  1.00  0.00     0.000 C 
BRANCH  12  13
ATOM     13  C   UNL     1      26.901  58.077   1.176  1.00  0.00    -0.000 C 
BRANCH  13  14
ATOM     14  C   UNL     1      26.367  56.634   1.199  1.00  0.00    -0.000 C 
BRANCH  14  15
ATOM     15  C   UNL     1      26.239  56.049   2.625  1.00  0.00    -0.000 C 
BRANCH  15  16
ATOM     16  C   UNL     1      27.288  54.964   2.915  1.00  0.00    -0.000 C 
BRANCH  16  17
ATOM     17  C   UNL     1      28.484  55.494   3.724  1.00  0.00    -0.000 C 
BRANCH  17  18
ATOM     18  C   UNL     1      28.165  56.772   4.529  1.00  0.00    -0.000 C 
BRANCH  18  19
ATOM     19  C   UNL     1      29.411  57.642   4.755  1.00  0.00    -0.003 C 
ATOM     20  C   UNL     1      29.183  59.069   4.266  1.00  0.00     0.004 C 
ENDBRANCH  18  19
ENDBRANCH  17  18
ENDBRANCH  16  17
ENDBRANCH  15  16
ENDBRANCH  14  15
ENDBRANCH  13  14
ENDBRANCH  12  13
ENDBRANCH   1  12
TORSDOF 16
ENDMDL
