MODEL 1
REMARK VINA RESULT:     3.910      0.000      0.000
REMARK INTER + INTRA:          10.060
REMARK INTER:                   9.853
REMARK INTRA:                   0.207
REMARK UNBOUND:                 0.207
REMARK SMILES CCCCCCCCCCCCCCCCCCCCCCCCCCCC(=O)[O-]
REMARK SMILES IDX 15 1 16 2 17 3 18 4 19 5 20 6 21 7 22 8 23 9 24 10 25 11
REMARK SMILES IDX 26 12 27 13 28 14 29 15 30 16 14 17 13 18 12 19 11 20 10 21
REMARK SMILES IDX 9 22 8 23 7 24 6 25 5 26 4 27 3 28 2 29 1 30
REMARK H PARENT
REMARK Flexibility Score: inf
ROOT
ATOM      1  C   UNL     1       5.338  16.007  19.569  1.00  0.00     0.000 C 
ENDROOT
BRANCH   1   2
ATOM      2  C   UNL     1       5.539  14.700  20.358  1.00  0.00     0.000 C 
BRANCH   2   3
ATOM      3  C   UNL     1       5.836  13.462  19.494  1.00  0.00     0.000 C 
BRANCH   3   4
ATOM      4  C   UNL     1       5.713  13.743  17.986  1.00  0.00     0.000 C 
BRANCH   4   5
ATOM      5  C   UNL     1       4.337  14.310  17.603  1.00  0.00     0.000 C 
BRANCH   5   6
ATOM      6  C   UNL     1       3.834  13.793  16.244  1.00  0.00     0.000 C 
BRANCH   6   7
ATOM      7  C   UNL     1       2.323  14.006  16.060  1.00  0.00     0.000 C 
BRANCH   7   8
ATOM      8  C   UNL     1       1.928  14.160  14.580  1.00  0.00     0.000 C 
BRANCH   8   9
ATOM      9  C   UNL     1       3.074  14.709  13.715  1.00  0.00     0.000 C 
BRANCH   9  10
ATOM     10  C   UNL     1       4.018  13.600  13.221  1.00  0.00     0.000 C 
BRANCH  10  11
ATOM     11  C   UNL     1       3.318  12.591  12.295  1.00  0.00     0.000 C 
BRANCH  11  12
ATOM     12  C   UNL     1       3.868  12.594  10.852  1.00  0.00     0.006 C 
BRANCH  12  13
ATOM     13  C   UNL     1       4.315  13.994  10.409  1.00  0.00     0.053 C 
BRANCH  13  14
ATOM     14  C   UNL     1       5.584  13.917   9.621  1.00  0.00     0.041 C 
ATOM     15  O   UNL     1       6.110  14.967   9.166  1.00  0.00    -0.550 OA
ATOM     16  O   UNL     1       6.164  12.683   9.356  1.00  0.00    -0.550 OA
ENDBRANCH  13  14
ENDBRANCH  12  13
ENDBRANCH  11  12
ENDBRANCH  10  11
ENDBRANCH   9  10
ENDBRANCH   8   9
ENDBRANCH   7   8
ENDBRANCH   6   7
ENDBRANCH   5   6
ENDBRANCH   4   5
ENDBRANCH   3   4
ENDBRANCH   2   3
ENDBRANCH   1   2
BRANCH   1  17
ATOM     17  C   UNL     1       4.568  17.075  20.366  1.00  0.00     0.000 C 
BRANCH  17  18
ATOM     18  C   UNL     1       3.951  16.515  21.658  1.00  0.00     0.000 C 
BRANCH  18  19
ATOM     19  C   UNL     1       4.352  17.326  22.902  1.00  0.00     0.000 C 
BRANCH  19  20
ATOM     20  C   UNL     1       5.757  17.951  22.767  1.00  0.00     0.000 C 
BRANCH  20  21
ATOM     21  C   UNL     1       6.853  16.946  22.361  1.00  0.00     0.000 C 
BRANCH  21  22
ATOM     22  C   UNL     1       7.812  17.427  21.259  1.00  0.00    -0.000 C 
BRANCH  22  23
ATOM     23  C   UNL     1       8.661  16.289  20.668  1.00  0.00    -0.000 C 
BRANCH  23  24
ATOM     24  C   UNL     1      10.173  16.571  20.749  1.00  0.00    -0.000 C 
BRANCH  24  25
ATOM     25  C   UNL     1      10.592  17.997  20.349  1.00  0.00    -0.000 C 
BRANCH  25  26
ATOM     26  C   UNL     1      11.530  18.657  21.375  1.00  0.00    -0.000 C 
BRANCH  26  27
ATOM     27  C   UNL     1      10.854  19.836  22.107  1.00  0.00    -0.000 C 
BRANCH  27  28
ATOM     28  C   UNL     1      11.835  20.946  22.517  1.00  0.00    -0.000 C 
BRANCH  28  29
ATOM     29  C   UNL     1      13.305  20.509  22.433  1.00  0.00    -0.003 C 
ATOM     30  C   UNL     1      14.095  21.420  21.498  1.00  0.00     0.004 C 
ENDBRANCH  28  29
ENDBRANCH  27  28
ENDBRANCH  26  27
ENDBRANCH  25  26
ENDBRANCH  24  25
ENDBRANCH  23  24
ENDBRANCH  22  23
ENDBRANCH  21  22
ENDBRANCH  20  21
ENDBRANCH  19  20
ENDBRANCH  18  19
ENDBRANCH  17  18
ENDBRANCH   1  17
TORSDOF 26
ENDMDL
MODEL 2
REMARK VINA RESULT:     4.085      2.411      3.385
REMARK INTER + INTRA:          10.501
REMARK INTER:                  11.640
REMARK INTRA:                  -1.139
REMARK UNBOUND:                 0.207
REMARK SMILES CCCCCCCCCCCCCCCCCCCCCCCCCCCC(=O)[O-]
REMARK SMILES IDX 15 1 16 2 17 3 18 4 19 5 20 6 21 7 22 8 23 9 24 10 25 11
REMARK SMILES IDX 26 12 27 13 28 14 29 15 30 16 14 17 13 18 12 19 11 20 10 21
REMARK SMILES IDX 9 22 8 23 7 24 6 25 5 26 4 27 3 28 2 29 1 30
REMARK H PARENT
REMARK Flexibility Score: inf
ROOT
ATOM      1  C   UNL     1       5.019  15.123  20.696  1.00  0.00     0.000 C 
ENDROOT
BRANCH   1   2
ATOM      2  C   UNL     1       6.019  14.095  20.136  1.00  0.00     0.000 C 
BRANCH   2   3
ATOM      3  C   UNL     1       5.605  13.452  18.800  1.00  0.00     0.000 C 
BRANCH   3   4
ATOM      4  C   UNL     1       5.388  14.486  17.682  1.00  0.00     0.000 C 
BRANCH   4   5
ATOM      5  C   UNL     1       4.583  13.917  16.503  1.00  0.00     0.000 C 
BRANCH   5   6
ATOM      6  C   UNL     1       3.072  14.182  16.626  1.00  0.00     0.000 C 
BRANCH   6   7
ATOM      7  C   UNL     1       2.352  14.107  15.270  1.00  0.00     0.000 C 
BRANCH   7   8
ATOM      8  C   UNL     1       2.012  12.662  14.866  1.00  0.00     0.000 C 
BRANCH   8   9
ATOM      9  C   UNL     1       2.483  12.317  13.444  1.00  0.00     0.000 C 
BRANCH   9  10
ATOM     10  C   UNL     1       3.587  13.264  12.947  1.00  0.00     0.000 C 
BRANCH  10  11
ATOM     11  C   UNL     1       4.055  12.937  11.518  1.00  0.00     0.000 C 
BRANCH  11  12
ATOM     12  C   UNL     1       3.661  14.011  10.481  1.00  0.00     0.006 C 
BRANCH  12  13
ATOM     13  C   UNL     1       4.313  13.759   9.115  1.00  0.00     0.053 C 
BRANCH  13  14
ATOM     14  C   UNL     1       5.789  13.995   9.184  1.00  0.00     0.041 C 
ATOM     15  O   UNL     1       6.243  15.169   9.141  1.00  0.00    -0.550 OA
ATOM     16  O   UNL     1       6.663  12.918   9.256  1.00  0.00    -0.550 OA
ENDBRANCH  13  14
ENDBRANCH  12  13
ENDBRANCH  11  12
ENDBRANCH  10  11
ENDBRANCH   9  10
ENDBRANCH   8   9
ENDBRANCH   7   8
ENDBRANCH   6   7
ENDBRANCH   5   6
ENDBRANCH   4   5
ENDBRANCH   3   4
ENDBRANCH   2   3
ENDBRANCH   1   2
BRANCH   1  17
ATOM     17  C   UNL     1       5.278  16.551  20.183  1.00  0.00     0.000 C 
BRANCH  17  18
ATOM     18  C   UNL     1       5.572  17.541  21.323  1.00  0.00     0.000 C 
BRANCH  18  19
ATOM     19  C   UNL     1       7.078  17.694  21.595  1.00  0.00     0.000 C 
BRANCH  19  20
ATOM     20  C   UNL     1       7.746  16.355  21.972  1.00  0.00     0.000 C 
BRANCH  20  21
ATOM     21  C   UNL     1       8.723  15.821  20.905  1.00  0.00     0.000 C 
BRANCH  21  22
ATOM     22  C   UNL     1       9.529  16.896  20.155  1.00  0.00    -0.000 C 
BRANCH  22  23
ATOM     23  C   UNL     1      11.006  16.942  20.585  1.00  0.00    -0.000 C 
BRANCH  23  24
ATOM     24  C   UNL     1      11.585  15.544  20.872  1.00  0.00    -0.000 C 
BRANCH  24  25
ATOM     25  C   UNL     1      12.981  15.282  20.278  1.00  0.00    -0.000 C 
BRANCH  25  26
ATOM     26  C   UNL     1      13.044  13.993  19.440  1.00  0.00    -0.000 C 
BRANCH  26  27
ATOM     27  C   UNL     1      14.010  14.124  18.244  1.00  0.00    -0.000 C 
BRANCH  27  28
ATOM     28  C   UNL     1      13.993  15.516  17.591  1.00  0.00    -0.000 C 
BRANCH  28  29
ATOM     29  C   UNL     1      13.858  15.460  16.063  1.00  0.00    -0.003 C 
ATOM     30  C   UNL     1      14.069  16.839  15.443  1.00  0.00     0.004 C 
ENDBRANCH  28  29
ENDBRANCH  27  28
ENDBRANCH  26  27
ENDBRANCH  25  26
ENDBRANCH  24  25
ENDBRANCH  23  24
ENDBRANCH  22  23
ENDBRANCH  21  22
ENDBRANCH  20  21
ENDBRANCH  19  20
ENDBRANCH  18  19
ENDBRANCH  17  18
ENDBRANCH   1  17
TORSDOF 26
ENDMDL
MODEL 3
REMARK VINA RESULT:     4.182      2.053      3.244
REMARK INTER + INTRA:          10.747
REMARK INTER:                  11.500
REMARK INTRA:                  -0.753
REMARK UNBOUND:                 0.207
REMARK SMILES CCCCCCCCCCCCCCCCCCCCCCCCCCCC(=O)[O-]
REMARK SMILES IDX 15 1 16 2 17 3 18 4 19 5 20 6 21 7 22 8 23 9 24 10 25 11
REMARK SMILES IDX 26 12 27 13 28 14 29 15 30 16 14 17 13 18 12 19 11 20 10 21
REMARK SMILES IDX 9 22 8 23 7 24 6 25 5 26 4 27 3 28 2 29 1 30
REMARK H PARENT
REMARK Flexibility Score: inf
ROOT
ATOM      1  C   UNL     1       5.583  15.683  19.417  1.00  0.00     0.000 C 
ENDROOT
BRANCH   1   2
ATOM      2  C   UNL     1       6.067  14.525  20.310  1.00  0.00     0.000 C 
BRANCH   2   3
ATOM      3  C   UNL     1       5.695  13.120  19.805  1.00  0.00     0.000 C 
BRANCH   3   4
ATOM      4  C   UNL     1       4.912  13.149  18.480  1.00  0.00     0.000 C 
BRANCH   4   5
ATOM      5  C   UNL     1       5.692  13.839  17.351  1.00  0.00     0.000 C 
BRANCH   5   6
ATOM      6  C   UNL     1       4.824  14.129  16.114  1.00  0.00     0.000 C 
BRANCH   6   7
ATOM      7  C   UNL     1       3.320  14.065  16.427  1.00  0.00     0.000 C 
BRANCH   7   8
ATOM      8  C   UNL     1       2.493  13.564  15.230  1.00  0.00     0.000 C 
BRANCH   8   9
ATOM      9  C   UNL     1       3.310  13.499  13.930  1.00  0.00     0.000 C 
BRANCH   9  10
ATOM     10  C   UNL     1       3.018  12.227  13.116  1.00  0.00     0.000 C 
BRANCH  10  11
ATOM     11  C   UNL     1       3.650  12.258  11.715  1.00  0.00     0.000 C 
BRANCH  11  12
ATOM     12  C   UNL     1       4.327  13.604  11.374  1.00  0.00     0.006 C 
BRANCH  12  13
ATOM     13  C   UNL     1       4.334  13.880   9.865  1.00  0.00     0.053 C 
BRANCH  13  14
ATOM     14  C   UNL     1       5.735  14.040   9.366  1.00  0.00     0.041 C 
ATOM     15  O   UNL     1       6.502  13.042   9.304  1.00  0.00    -0.550 OA
ATOM     16  O   UNL     1       6.207  15.297   9.008  1.00  0.00    -0.550 OA
ENDBRANCH  13  14
ENDBRANCH  12  13
ENDBRANCH  11  12
ENDBRANCH  10  11
ENDBRANCH   9  10
ENDBRANCH   8   9
ENDBRANCH   7   8
ENDBRANCH   6   7
ENDBRANCH   5   6
ENDBRANCH   4   5
ENDBRANCH   3   4
ENDBRANCH   2   3
ENDBRANCH   1   2
BRANCH   1  17
ATOM     17  C   UNL     1       4.677  16.677  20.166  1.00  0.00     0.000 C 
BRANCH  17  18
ATOM     18  C   UNL     1       4.346  16.212  21.594  1.00  0.00     0.000 C 
BRANCH  18  19
ATOM     19  C   UNL     1       4.579  17.315  22.641  1.00  0.00     0.000 C 
BRANCH  19  20
ATOM     20  C   UNL     1       5.736  18.259  22.251  1.00  0.00     0.000 C 
BRANCH  20  21
ATOM     21  C   UNL     1       7.135  17.625  22.389  1.00  0.00     0.000 C 
BRANCH  21  22
ATOM     22  C   UNL     1       7.808  17.225  21.065  1.00  0.00    -0.000 C 
BRANCH  22  23
ATOM     23  C   UNL     1       9.076  16.378  21.272  1.00  0.00    -0.000 C 
BRANCH  23  24
ATOM     24  C   UNL     1      10.240  16.819  20.366  1.00  0.00    -0.000 C 
BRANCH  24  25
ATOM     25  C   UNL     1      11.204  15.694  19.948  1.00  0.00    -0.000 C 
BRANCH  25  26
ATOM     26  C   UNL     1      12.412  15.558  20.892  1.00  0.00    -0.000 C 
BRANCH  26  27
ATOM     27  C   UNL     1      13.282  14.331  20.549  1.00  0.00    -0.000 C 
BRANCH  27  28
ATOM     28  C   UNL     1      13.319  14.006  19.046  1.00  0.00    -0.000 C 
BRANCH  28  29
ATOM     29  C   UNL     1      13.637  12.532  18.759  1.00  0.00    -0.003 C 
ATOM     30  C   UNL     1      14.341  11.881  19.946  1.00  0.00     0.004 C 
ENDBRANCH  28  29
ENDBRANCH  27  28
ENDBRANCH  26  27
ENDBRANCH  25  26
ENDBRANCH  24  25
ENDBRANCH  23  24
ENDBRANCH  22  23
ENDBRANCH  21  22
ENDBRANCH  20  21
ENDBRANCH  19  20
ENDBRANCH  18  19
ENDBRANCH  17  18
ENDBRANCH   1  17
TORSDOF 26
ENDMDL
MODEL 4
REMARK VINA RESULT:     4.467      3.357     10.318
REMARK INTER + INTRA:          11.463
REMARK INTER:                  12.259
REMARK INTRA:                  -0.797
REMARK UNBOUND:                 0.207
REMARK SMILES CCCCCCCCCCCCCCCCCCCCCCCCCCCC(=O)[O-]
REMARK SMILES IDX 15 1 16 2 17 3 18 4 19 5 20 6 21 7 22 8 23 9 24 10 25 11
REMARK SMILES IDX 26 12 27 13 28 14 29 15 30 16 14 17 13 18 12 19 11 20 10 21
REMARK SMILES IDX 9 22 8 23 7 24 6 25 5 26 4 27 3 28 2 29 1 30
REMARK H PARENT
REMARK Flexibility Score: inf
ROOT
ATOM      1  C   UNL     1       5.303  15.364  20.905  1.00  0.00     0.000 C 
ENDROOT
BRANCH   1   2
ATOM      2  C   UNL     1       4.988  16.664  20.143  1.00  0.00     0.000 C 
BRANCH   2   3
ATOM      3  C   UNL     1       5.583  17.940  20.767  1.00  0.00     0.000 C 
BRANCH   3   4
ATOM      4  C   UNL     1       6.494  17.646  21.971  1.00  0.00     0.000 C 
BRANCH   4   5
ATOM      5  C   UNL     1       7.985  17.785  21.629  1.00  0.00     0.000 C 
BRANCH   5   6
ATOM      6  C   UNL     1       8.620  16.461  21.170  1.00  0.00     0.000 C 
BRANCH   6   7
ATOM      7  C   UNL     1       9.715  16.673  20.111  1.00  0.00     0.000 C 
BRANCH   7   8
ATOM      8  C   UNL     1      11.127  16.695  20.722  1.00  0.00     0.000 C 
BRANCH   8   9
ATOM      9  C   UNL     1      11.809  15.318  20.689  1.00  0.00     0.000 C 
BRANCH   9  10
ATOM     10  C   UNL     1      13.100  15.324  19.855  1.00  0.00     0.000 C 
BRANCH  10  11
ATOM     11  C   UNL     1      13.313  14.013  19.079  1.00  0.00     0.000 C 
BRANCH  11  12
ATOM     12  C   UNL     1      13.846  14.227  17.645  1.00  0.00     0.006 C 
BRANCH  12  13
ATOM     13  C   UNL     1      14.152  15.703  17.358  1.00  0.00     0.053 C 
BRANCH  13  14
ATOM     14  C   UNL     1      13.866  16.031  15.926  1.00  0.00     0.041 C 
ATOM     15  O   UNL     1      14.304  15.288  15.008  1.00  0.00    -0.550 OA
ATOM     16  O   UNL     1      13.151  17.177  15.605  1.00  0.00    -0.550 OA
ENDBRANCH  13  14
ENDBRANCH  12  13
ENDBRANCH  11  12
ENDBRANCH  10  11
ENDBRANCH   9  10
ENDBRANCH   8   9
ENDBRANCH   7   8
ENDBRANCH   6   7
ENDBRANCH   5   6
ENDBRANCH   4   5
ENDBRANCH   3   4
ENDBRANCH   2   3
ENDBRANCH   1   2
BRANCH   1  17
ATOM     17  C   UNL     1       6.366  14.501  20.202  1.00  0.00     0.000 C 
BRANCH  17  18
ATOM     18  C   UNL     1       5.747  13.381  19.351  1.00  0.00     0.000 C 
BRANCH  18  19
ATOM     19  C   UNL     1       5.756  13.711  17.848  1.00  0.00     0.000 C 
BRANCH  19  20
ATOM     20  C   UNL     1       4.476  14.448  17.400  1.00  0.00     0.000 C 
BRANCH  20  21
ATOM     21  C   UNL     1       3.840  13.875  16.118  1.00  0.00     0.000 C 
BRANCH  21  22
ATOM     22  C   UNL     1       2.319  14.067  15.997  1.00  0.00    -0.000 C 
BRANCH  22  23
ATOM     23  C   UNL     1       1.625  12.896  15.278  1.00  0.00    -0.000 C 
BRANCH  23  24
ATOM     24  C   UNL     1       2.246  12.592  13.902  1.00  0.00    -0.000 C 
BRANCH  24  25
ATOM     25  C   UNL     1       3.129  13.712  13.323  1.00  0.00    -0.000 C 
BRANCH  25  26
ATOM     26  C   UNL     1       4.230  13.185  12.386  1.00  0.00    -0.000 C 
BRANCH  26  27
ATOM     27  C   UNL     1       3.654  12.336  11.232  1.00  0.00    -0.000 C 
BRANCH  27  28
ATOM     28  C   UNL     1       4.251  12.683   9.859  1.00  0.00    -0.000 C 
BRANCH  28  29
ATOM     29  C   UNL     1       4.258  14.192   9.572  1.00  0.00    -0.003 C 
ATOM     30  C   UNL     1       5.649  14.666   9.163  1.00  0.00     0.004 C 
ENDBRANCH  28  29
ENDBRANCH  27  28
ENDBRANCH  26  27
ENDBRANCH  25  26
ENDBRANCH  24  25
ENDBRANCH  23  24
ENDBRANCH  22  23
ENDBRANCH  21  22
ENDBRANCH  20  21
ENDBRANCH  19  20
ENDBRANCH  18  19
ENDBRANCH  17  18
ENDBRANCH   1  17
TORSDOF 26
ENDMDL
MODEL 5
REMARK VINA RESULT:     4.511      4.251     11.101
REMARK INTER + INTRA:          11.575
REMARK INTER:                  11.147
REMARK INTRA:                   0.428
REMARK UNBOUND:                 0.207
REMARK SMILES CCCCCCCCCCCCCCCCCCCCCCCCCCCC(=O)[O-]
REMARK SMILES IDX 15 1 16 2 17 3 18 4 19 5 20 6 21 7 22 8 23 9 24 10 25 11
REMARK SMILES IDX 26 12 27 13 28 14 29 15 30 16 14 17 13 18 12 19 11 20 10 21
REMARK SMILES IDX 9 22 8 23 7 24 6 25 5 26 4 27 3 28 2 29 1 30
REMARK H PARENT
REMARK Flexibility Score: inf
ROOT
ATOM      1  C   UNL     1       5.327  15.544  19.595  1.00  0.00     0.000 C 
ENDROOT
BRANCH   1   2
ATOM      2  C   UNL     1       4.696  16.712  20.376  1.00  0.00     0.000 C 
BRANCH   2   3
ATOM      3  C   UNL     1       4.186  16.349  21.782  1.00  0.00     0.000 C 
BRANCH   3   4
ATOM      4  C   UNL     1       4.538  17.412  22.838  1.00  0.00     0.000 C 
BRANCH   4   5
ATOM      5  C   UNL     1       5.468  18.504  22.287  1.00  0.00     0.000 C 
BRANCH   5   6
ATOM      6  C   UNL     1       6.959  18.157  22.448  1.00  0.00     0.000 C 
BRANCH   6   7
ATOM      7  C   UNL     1       7.622  17.788  21.111  1.00  0.00     0.000 C 
BRANCH   7   8
ATOM      8  C   UNL     1       8.279  16.397  21.146  1.00  0.00     0.000 C 
BRANCH   8   9
ATOM      9  C   UNL     1       9.763  16.433  20.750  1.00  0.00     0.000 C 
BRANCH   9  10
ATOM     10  C   UNL     1      10.221  17.835  20.316  1.00  0.00     0.000 C 
BRANCH  10  11
ATOM     11  C   UNL     1      11.245  18.453  21.282  1.00  0.00     0.000 C 
BRANCH  11  12
ATOM     12  C   UNL     1      11.067  19.975  21.477  1.00  0.00     0.006 C 
BRANCH  12  13
ATOM     13  C   UNL     1      11.882  20.503  22.665  1.00  0.00     0.053 C 
BRANCH  13  14
ATOM     14  C   UNL     1      13.299  20.759  22.258  1.00  0.00     0.041 C 
ATOM     15  O   UNL     1      13.556  21.597  21.354  1.00  0.00    -0.550 OA
ATOM     16  O   UNL     1      14.332  20.042  22.849  1.00  0.00    -0.550 OA
ENDBRANCH  13  14
ENDBRANCH  12  13
ENDBRANCH  11  12
ENDBRANCH  10  11
ENDBRANCH   9  10
ENDBRANCH   8   9
ENDBRANCH   7   8
ENDBRANCH   6   7
ENDBRANCH   5   6
ENDBRANCH   4   5
ENDBRANCH   3   4
ENDBRANCH   2   3
ENDBRANCH   1   2
BRANCH   1  17
ATOM     17  C   UNL     1       6.165  14.611  20.488  1.00  0.00     0.000 C 
BRANCH  17  18
ATOM     18  C   UNL     1       5.775  13.133  20.324  1.00  0.00     0.000 C 
BRANCH  18  19
ATOM     19  C   UNL     1       5.259  12.813  18.911  1.00  0.00     0.000 C 
BRANCH  19  20
ATOM     20  C   UNL     1       5.811  13.789  17.850  1.00  0.00     0.000 C 
BRANCH  20  21
ATOM     21  C   UNL     1       4.780  14.197  16.778  1.00  0.00     0.000 C 
BRANCH  21  22
ATOM     22  C   UNL     1       3.355  13.659  16.998  1.00  0.00    -0.000 C 
BRANCH  22  23
ATOM     23  C   UNL     1       2.353  14.183  15.955  1.00  0.00    -0.000 C 
BRANCH  23  24
ATOM     24  C   UNL     1       2.437  13.426  14.617  1.00  0.00    -0.000 C 
BRANCH  24  25
ATOM     25  C   UNL     1       3.507  13.945  13.641  1.00  0.00    -0.000 C 
BRANCH  25  26
ATOM     26  C   UNL     1       3.801  12.962  12.494  1.00  0.00    -0.000 C 
BRANCH  26  27
ATOM     27  C   UNL     1       3.911  13.674  11.130  1.00  0.00    -0.000 C 
BRANCH  27  28
ATOM     28  C   UNL     1       4.085  12.709   9.946  1.00  0.00    -0.000 C 
BRANCH  28  29
ATOM     29  C   UNL     1       5.234  13.110   9.010  1.00  0.00    -0.003 C 
ATOM     30  C   UNL     1       6.101  14.197   9.638  1.00  0.00     0.004 C 
ENDBRANCH  28  29
ENDBRANCH  27  28
ENDBRANCH  26  27
ENDBRANCH  25  26
ENDBRANCH  24  25
ENDBRANCH  23  24
ENDBRANCH  22  23
ENDBRANCH  21  22
ENDBRANCH  20  21
ENDBRANCH  19  20
ENDBRANCH  18  19
ENDBRANCH  17  18
ENDBRANCH   1  17
TORSDOF 26
ENDMDL
MODEL 6
REMARK VINA RESULT:     4.548      2.069      3.305
REMARK INTER + INTRA:          11.669
REMARK INTER:                  11.640
REMARK INTRA:                   0.029
REMARK UNBOUND:                 0.207
REMARK SMILES CCCCCCCCCCCCCCCCCCCCCCCCCCCC(=O)[O-]
REMARK SMILES IDX 15 1 16 2 17 3 18 4 19 5 20 6 21 7 22 8 23 9 24 10 25 11
REMARK SMILES IDX 26 12 27 13 28 14 29 15 30 16 14 17 13 18 12 19 11 20 10 21
REMARK SMILES IDX 9 22 8 23 7 24 6 25 5 26 4 27 3 28 2 29 1 30
REMARK H PARENT
REMARK Flexibility Score: inf
ROOT
ATOM      1  C   UNL     1       5.412  12.617  18.678  1.00  0.00     0.000 C 
ENDROOT
BRANCH   1   2
ATOM      2  C   UNL     1       5.719  13.969  18.009  1.00  0.00     0.000 C 
BRANCH   2   3
ATOM      3  C   UNL     1       4.829  14.309  16.800  1.00  0.00     0.000 C 
BRANCH   3   4
ATOM      4  C   UNL     1       3.349  13.953  17.029  1.00  0.00     0.000 C 
BRANCH   4   5
ATOM      5  C   UNL     1       2.503  14.106  15.755  1.00  0.00     0.000 C 
BRANCH   5   6
ATOM      6  C   UNL     1       2.013  12.758  15.197  1.00  0.00     0.000 C 
BRANCH   6   7
ATOM      7  C   UNL     1       2.437  12.541  13.735  1.00  0.00     0.000 C 
BRANCH   7   8
ATOM      8  C   UNL     1       3.452  13.594  13.256  1.00  0.00     0.000 C 
BRANCH   8   9
ATOM      9  C   UNL     1       4.356  13.075  12.127  1.00  0.00     0.000 C 
BRANCH   9  10
ATOM     10  C   UNL     1       3.666  12.001  11.270  1.00  0.00     0.000 C 
BRANCH  10  11
ATOM     11  C   UNL     1       2.778  12.599  10.166  1.00  0.00     0.000 C 
BRANCH  11  12
ATOM     12  C   UNL     1       3.551  12.945   8.875  1.00  0.00     0.006 C 
BRANCH  12  13
ATOM     13  C   UNL     1       4.059  14.394   8.879  1.00  0.00     0.053 C 
BRANCH  13  14
ATOM     14  C   UNL     1       5.553  14.427   8.952  1.00  0.00     0.041 C 
ATOM     15  O   UNL     1       6.205  13.355   9.061  1.00  0.00    -0.550 OA
ATOM     16  O   UNL     1       6.223  15.644   8.940  1.00  0.00    -0.550 OA
ENDBRANCH  13  14
ENDBRANCH  12  13
ENDBRANCH  11  12
ENDBRANCH  10  11
ENDBRANCH   9  10
ENDBRANCH   8   9
ENDBRANCH   7   8
ENDBRANCH   6   7
ENDBRANCH   5   6
ENDBRANCH   4   5
ENDBRANCH   3   4
ENDBRANCH   2   3
ENDBRANCH   1   2
BRANCH   1  17
ATOM     17  C   UNL     1       5.509  12.673  20.214  1.00  0.00     0.000 C 
BRANCH  17  18
ATOM     18  C   UNL     1       6.067  14.013  20.720  1.00  0.00     0.000 C 
BRANCH  18  19
ATOM     19  C   UNL     1       5.054  15.162  20.584  1.00  0.00     0.000 C 
BRANCH  19  20
ATOM     20  C   UNL     1       4.640  15.745  21.952  1.00  0.00     0.000 C 
BRANCH  20  21
ATOM     21  C   UNL     1       4.599  17.286  21.990  1.00  0.00     0.000 C 
BRANCH  21  22
ATOM     22  C   UNL     1       4.748  17.981  20.625  1.00  0.00    -0.000 C 
BRANCH  22  23
ATOM     23  C   UNL     1       6.146  18.588  20.415  1.00  0.00    -0.000 C 
BRANCH  23  24
ATOM     24  C   UNL     1       7.233  17.878  21.243  1.00  0.00    -0.000 C 
BRANCH  24  25
ATOM     25  C   UNL     1       7.642  16.487  20.726  1.00  0.00    -0.000 C 
BRANCH  25  26
ATOM     26  C   UNL     1       8.873  15.915  21.452  1.00  0.00    -0.000 C 
BRANCH  26  27
ATOM     27  C   UNL     1      10.178  16.621  21.028  1.00  0.00    -0.000 C 
BRANCH  27  28
ATOM     28  C   UNL     1      11.118  15.729  20.202  1.00  0.00    -0.000 C 
BRANCH  28  29
ATOM     29  C   UNL     1      12.585  15.835  20.639  1.00  0.00    -0.003 C 
ATOM     30  C   UNL     1      13.345  14.549  20.330  1.00  0.00     0.004 C 
ENDBRANCH  28  29
ENDBRANCH  27  28
ENDBRANCH  26  27
ENDBRANCH  25  26
ENDBRANCH  24  25
ENDBRANCH  23  24
ENDBRANCH  22  23
ENDBRANCH  21  22
ENDBRANCH  20  21
ENDBRANCH  19  20
ENDBRANCH  18  19
ENDBRANCH  17  18
ENDBRANCH   1  17
TORSDOF 26
ENDMDL
MODEL 7
REMARK VINA RESULT:     4.717      3.614      5.093
REMARK INTER + INTRA:          12.094
REMARK INTER:                  12.286
REMARK INTRA:                  -0.192
REMARK UNBOUND:                 0.207
REMARK SMILES CCCCCCCCCCCCCCCCCCCCCCCCCCCC(=O)[O-]
REMARK SMILES IDX 15 1 16 2 17 3 18 4 19 5 20 6 21 7 22 8 23 9 24 10 25 11
REMARK SMILES IDX 26 12 27 13 28 14 29 15 30 16 14 17 13 18 12 19 11 20 10 21
REMARK SMILES IDX 9 22 8 23 7 24 6 25 5 26 4 27 3 28 2 29 1 30
REMARK H PARENT
REMARK Flexibility Score: inf
ROOT
ATOM      1  C   UNL     1       6.031  17.208  22.284  1.00  0.00     0.000 C 
ENDROOT
BRANCH   1   2
ATOM      2  C   UNL     1       4.890  16.325  21.744  1.00  0.00     0.000 C 
BRANCH   2   3
ATOM      3  C   UNL     1       4.565  16.527  20.254  1.00  0.00     0.000 C 
BRANCH   3   4
ATOM      4  C   UNL     1       5.510  15.745  19.325  1.00  0.00     0.000 C 
BRANCH   4   5
ATOM      5  C   UNL     1       5.716  14.292  19.781  1.00  0.00     0.000 C 
BRANCH   5   6
ATOM      6  C   UNL     1       5.298  13.265  18.715  1.00  0.00     0.000 C 
BRANCH   6   7
ATOM      7  C   UNL     1       5.284  13.864  17.299  1.00  0.00     0.000 C 
BRANCH   7   8
ATOM      8  C   UNL     1       3.924  14.486  16.938  1.00  0.00     0.000 C 
BRANCH   8   9
ATOM      9  C   UNL     1       2.890  13.437  16.499  1.00  0.00     0.000 C 
BRANCH   9  10
ATOM     10  C   UNL     1       2.433  13.636  15.045  1.00  0.00     0.000 C 
BRANCH  10  11
ATOM     11  C   UNL     1       3.519  14.274  14.161  1.00  0.00     0.000 C 
BRANCH  11  12
ATOM     12  C   UNL     1       3.179  14.251  12.655  1.00  0.00     0.006 C 
BRANCH  12  13
ATOM     13  C   UNL     1       4.046  13.247  11.884  1.00  0.00     0.053 C 
BRANCH  13  14
ATOM     14  C   UNL     1       3.821  13.379  10.411  1.00  0.00     0.041 C 
ATOM     15  O   UNL     1       3.146  12.512   9.795  1.00  0.00    -0.550 OA
ATOM     16  O   UNL     1       4.389  14.437   9.712  1.00  0.00    -0.550 OA
ENDBRANCH  13  14
ENDBRANCH  12  13
ENDBRANCH  11  12
ENDBRANCH  10  11
ENDBRANCH   9  10
ENDBRANCH   8   9
ENDBRANCH   7   8
ENDBRANCH   6   7
ENDBRANCH   5   6
ENDBRANCH   4   5
ENDBRANCH   3   4
ENDBRANCH   2   3
ENDBRANCH   1   2
BRANCH   1  17
ATOM     17  C   UNL     1       7.176  17.390  21.271  1.00  0.00     0.000 C 
BRANCH  17  18
ATOM     18  C   UNL     1       8.232  16.277  21.371  1.00  0.00     0.000 C 
BRANCH  18  19
ATOM     19  C   UNL     1       9.465  16.555  20.494  1.00  0.00     0.000 C 
BRANCH  19  20
ATOM     20  C   UNL     1      10.770  16.035  21.133  1.00  0.00     0.000 C 
BRANCH  20  21
ATOM     21  C   UNL     1      11.993  16.092  20.196  1.00  0.00     0.000 C 
BRANCH  21  22
ATOM     22  C   UNL     1      13.034  14.979  20.404  1.00  0.00    -0.000 C 
BRANCH  22  23
ATOM     23  C   UNL     1      12.540  13.603  19.926  1.00  0.00    -0.000 C 
BRANCH  23  24
ATOM     24  C   UNL     1      13.676  12.723  19.374  1.00  0.00    -0.000 C 
BRANCH  24  25
ATOM     25  C   UNL     1      14.571  12.068  20.441  1.00  0.00    -0.000 C 
BRANCH  25  26
ATOM     26  C   UNL     1      14.580  12.840  21.772  1.00  0.00    -0.000 C 
BRANCH  26  27
ATOM     27  C   UNL     1      14.680  11.898  22.990  1.00  0.00    -0.000 C 
BRANCH  27  28
ATOM     28  C   UNL     1      14.908  12.636  24.319  1.00  0.00    -0.000 C 
BRANCH  28  29
ATOM     29  C   UNL     1      14.220  11.954  25.510  1.00  0.00    -0.003 C 
ATOM     30  C   UNL     1      14.783  12.462  26.834  1.00  0.00     0.004 C 
ENDBRANCH  28  29
ENDBRANCH  27  28
ENDBRANCH  26  27
ENDBRANCH  25  26
ENDBRANCH  24  25
ENDBRANCH  23  24
ENDBRANCH  22  23
ENDBRANCH  21  22
ENDBRANCH  20  21
ENDBRANCH  19  20
ENDBRANCH  18  19
ENDBRANCH  17  18
ENDBRANCH   1  17
TORSDOF 26
ENDMDL
MODEL 8
REMARK VINA RESULT:     4.945      2.571      4.431
REMARK INTER + INTRA:          12.667
REMARK INTER:                  11.342
REMARK INTRA:                   1.325
REMARK UNBOUND:                 0.207
REMARK SMILES CCCCCCCCCCCCCCCCCCCCCCCCCCCC(=O)[O-]
REMARK SMILES IDX 15 1 16 2 17 3 18 4 19 5 20 6 21 7 22 8 23 9 24 10 25 11
REMARK SMILES IDX 26 12 27 13 28 14 29 15 30 16 14 17 13 18 12 19 11 20 10 21
REMARK SMILES IDX 9 22 8 23 7 24 6 25 5 26 4 27 3 28 2 29 1 30
REMARK H PARENT
REMARK Flexibility Score: inf
ROOT
ATOM      1  C   UNL     1       5.393  12.864  19.111  1.00  0.00     0.000 C 
ENDROOT
BRANCH   1   2
ATOM      2  C   UNL     1       6.099  13.526  17.913  1.00  0.00     0.000 C 
BRANCH   2   3
ATOM      3  C   UNL     1       5.158  14.021  16.801  1.00  0.00     0.000 C 
BRANCH   3   4
ATOM      4  C   UNL     1       3.683  14.059  17.240  1.00  0.00     0.000 C 
BRANCH   4   5
ATOM      5  C   UNL     1       2.727  14.340  16.071  1.00  0.00     0.000 C 
BRANCH   5   6
ATOM      6  C   UNL     1       1.943  13.092  15.627  1.00  0.00     0.000 C 
BRANCH   6   7
ATOM      7  C   UNL     1       2.339  12.622  14.218  1.00  0.00     0.000 C 
BRANCH   7   8
ATOM      8  C   UNL     1       3.026  13.731  13.401  1.00  0.00     0.000 C 
BRANCH   8   9
ATOM      9  C   UNL     1       4.207  13.208  12.568  1.00  0.00     0.000 C 
BRANCH   9  10
ATOM     10  C   UNL     1       3.814  12.022  11.672  1.00  0.00     0.000 C 
BRANCH  10  11
ATOM     11  C   UNL     1       2.922  12.438  10.490  1.00  0.00     0.000 C 
BRANCH  11  12
ATOM     12  C   UNL     1       3.696  12.603   9.164  1.00  0.00     0.006 C 
BRANCH  12  13
ATOM     13  C   UNL     1       4.182  14.043   8.955  1.00  0.00     0.053 C 
BRANCH  13  14
ATOM     14  C   UNL     1       5.665  14.129   9.131  1.00  0.00     0.041 C 
ATOM     15  O   UNL     1       6.338  13.086   9.346  1.00  0.00    -0.550 OA
ATOM     16  O   UNL     1       6.300  15.365   9.097  1.00  0.00    -0.550 OA
ENDBRANCH  13  14
ENDBRANCH  12  13
ENDBRANCH  11  12
ENDBRANCH  10  11
ENDBRANCH   9  10
ENDBRANCH   8   9
ENDBRANCH   7   8
ENDBRANCH   6   7
ENDBRANCH   5   6
ENDBRANCH   4   5
ENDBRANCH   3   4
ENDBRANCH   2   3
ENDBRANCH   1   2
BRANCH   1  17
ATOM     17  C   UNL     1       5.729  13.542  20.452  1.00  0.00     0.000 C 
BRANCH  17  18
ATOM     18  C   UNL     1       6.398  14.914  20.267  1.00  0.00     0.000 C 
BRANCH  18  19
ATOM     19  C   UNL     1       7.840  14.942  20.803  1.00  0.00     0.000 C 
BRANCH  19  20
ATOM     20  C   UNL     1       8.359  16.380  21.017  1.00  0.00     0.000 C 
BRANCH  20  21
ATOM     21  C   UNL     1       7.534  17.198  22.031  1.00  0.00     0.000 C 
BRANCH  21  22
ATOM     22  C   UNL     1       6.372  16.441  22.697  1.00  0.00    -0.000 C 
BRANCH  22  23
ATOM     23  C   UNL     1       5.736  17.226  23.857  1.00  0.00    -0.000 C 
BRANCH  23  24
ATOM     24  C   UNL     1       4.491  18.021  23.424  1.00  0.00    -0.000 C 
BRANCH  24  25
ATOM     25  C   UNL     1       3.381  17.185  22.762  1.00  0.00    -0.000 C 
BRANCH  25  26
ATOM     26  C   UNL     1       3.899  16.300  21.615  1.00  0.00    -0.000 C 
BRANCH  26  27
ATOM     27  C   UNL     1       3.889  17.039  20.260  1.00  0.00    -0.000 C 
BRANCH  27  28
ATOM     28  C   UNL     1       5.294  17.286  19.687  1.00  0.00    -0.000 C 
BRANCH  28  29
ATOM     29  C   UNL     1       5.666  18.775  19.633  1.00  0.00    -0.003 C 
ATOM     30  C   UNL     1       5.989  19.311  21.024  1.00  0.00     0.004 C 
ENDBRANCH  28  29
ENDBRANCH  27  28
ENDBRANCH  26  27
ENDBRANCH  25  26
ENDBRANCH  24  25
ENDBRANCH  23  24
ENDBRANCH  22  23
ENDBRANCH  21  22
ENDBRANCH  20  21
ENDBRANCH  19  20
ENDBRANCH  18  19
ENDBRANCH  17  18
ENDBRANCH   1  17
TORSDOF 26
ENDMDL
MODEL 9
REMARK VINA RESULT:     5.775      3.173      4.192
REMARK INTER + INTRA:          14.760
REMARK INTER:                  15.084
REMARK INTRA:                  -0.324
REMARK UNBOUND:                 0.207
REMARK SMILES CCCCCCCCCCCCCCCCCCCCCCCCCCCC(=O)[O-]
REMARK SMILES IDX 15 1 16 2 17 3 18 4 19 5 20 6 21 7 22 8 23 9 24 10 25 11
REMARK SMILES IDX 26 12 27 13 28 14 29 15 30 16 14 17 13 18 12 19 11 20 10 21
REMARK SMILES IDX 9 22 8 23 7 24 6 25 5 26 4 27 3 28 2 29 1 30
REMARK H PARENT
REMARK Flexibility Score: inf
ROOT
ATOM      1  C   UNL     1       6.149  14.418  20.511  1.00  0.00     0.000 C 
ENDROOT
BRANCH   1   2
ATOM      2  C   UNL     1       5.954  13.450  19.329  1.00  0.00     0.000 C 
BRANCH   2   3
ATOM      3  C   UNL     1       5.139  14.019  18.154  1.00  0.00     0.000 C 
BRANCH   3   4
ATOM      4  C   UNL     1       5.692  13.594  16.783  1.00  0.00     0.000 C 
BRANCH   4   5
ATOM      5  C   UNL     1       4.864  14.151  15.615  1.00  0.00     0.000 C 
BRANCH   5   6
ATOM      6  C   UNL     1       3.416  14.487  16.015  1.00  0.00     0.000 C 
BRANCH   6   7
ATOM      7  C   UNL     1       2.415  14.202  14.883  1.00  0.00     0.000 C 
BRANCH   7   8
ATOM      8  C   UNL     1       1.947  12.736  14.869  1.00  0.00     0.000 C 
BRANCH   8   9
ATOM      9  C   UNL     1       2.234  12.034  13.533  1.00  0.00     0.000 C 
BRANCH   9  10
ATOM     10  C   UNL     1       3.640  12.350  12.995  1.00  0.00     0.000 C 
BRANCH  10  11
ATOM     11  C   UNL     1       3.665  12.542  11.469  1.00  0.00     0.000 C 
BRANCH  11  12
ATOM     12  C   UNL     1       3.980  13.991  11.037  1.00  0.00     0.006 C 
BRANCH  12  13
ATOM     13  C   UNL     1       4.912  14.039   9.818  1.00  0.00     0.053 C 
BRANCH  13  14
ATOM     14  C   UNL     1       5.066  12.676   9.220  1.00  0.00     0.041 C 
ATOM     15  O   UNL     1       4.048  12.009   8.897  1.00  0.00    -0.550 OA
ATOM     16  O   UNL     1       6.332  12.129   9.056  1.00  0.00    -0.550 OA
ENDBRANCH  13  14
ENDBRANCH  12  13
ENDBRANCH  11  12
ENDBRANCH  10  11
ENDBRANCH   9  10
ENDBRANCH   8   9
ENDBRANCH   7   8
ENDBRANCH   6   7
ENDBRANCH   5   6
ENDBRANCH   4   5
ENDBRANCH   3   4
ENDBRANCH   2   3
ENDBRANCH   1   2
BRANCH   1  17
ATOM     17  C   UNL     1       5.525  15.802  20.259  1.00  0.00     0.000 C 
BRANCH  17  18
ATOM     18  C   UNL     1       5.775  16.780  21.419  1.00  0.00     0.000 C 
BRANCH  18  19
ATOM     19  C   UNL     1       7.178  17.410  21.365  1.00  0.00     0.000 C 
BRANCH  19  20
ATOM     20  C   UNL     1       8.292  16.352  21.226  1.00  0.00     0.000 C 
BRANCH  20  21
ATOM     21  C   UNL     1       9.401  16.738  20.227  1.00  0.00     0.000 C 
BRANCH  21  22
ATOM     22  C   UNL     1      10.829  16.743  20.799  1.00  0.00    -0.000 C 
BRANCH  22  23
ATOM     23  C   UNL     1      11.700  15.605  20.239  1.00  0.00    -0.000 C 
BRANCH  23  24
ATOM     24  C   UNL     1      12.939  15.322  21.108  1.00  0.00    -0.000 C 
BRANCH  24  25
ATOM     25  C   UNL     1      13.304  13.835  21.260  1.00  0.00    -0.000 C 
BRANCH  25  26
ATOM     26  C   UNL     1      14.493  13.602  22.208  1.00  0.00    -0.000 C 
BRANCH  26  27
ATOM     27  C   UNL     1      14.672  12.111  22.563  1.00  0.00    -0.000 C 
BRANCH  27  28
ATOM     28  C   UNL     1      15.125  11.876  24.013  1.00  0.00    -0.000 C 
BRANCH  28  29
ATOM     29  C   UNL     1      14.364  12.742  25.027  1.00  0.00    -0.003 C 
ATOM     30  C   UNL     1      13.962  11.926  26.253  1.00  0.00     0.004 C 
ENDBRANCH  28  29
ENDBRANCH  27  28
ENDBRANCH  26  27
ENDBRANCH  25  26
ENDBRANCH  24  25
ENDBRANCH  23  24
ENDBRANCH  22  23
ENDBRANCH  21  22
ENDBRANCH  20  21
ENDBRANCH  19  20
ENDBRANCH  18  19
ENDBRANCH  17  18
ENDBRANCH   1  17
TORSDOF 26
ENDMDL
