MODEL 1
REMARK VINA RESULT:    -3.322      0.000      0.000
REMARK INTER + INTRA:          -6.798
REMARK INTER:                  -5.264
REMARK INTRA:                  -1.533
REMARK UNBOUND:                -1.533
REMARK SMILES CCCCCCCCCCCC(=O)[O-]
REMARK SMILES IDX 7 1 8 2 9 3 10 4 11 5 12 6 13 7 14 8 6 9 5 10 4 11 3 12 2 13
REMARK SMILES IDX 1 14
REMARK H PARENT
REMARK Flexibility Score: inf
ROOT
ATOM      1  C   UNL     1      16.501 128.857  57.365  1.00  0.00     0.000 C 
ENDROOT
BRANCH   1   2
ATOM      2  C   UNL     1      17.402 130.010  56.891  1.00  0.00     0.000 C 
BRANCH   2   3
ATOM      3  C   UNL     1      18.890 129.751  57.179  1.00  0.00     0.000 C 
BRANCH   3   4
ATOM      4  C   UNL     1      19.725 129.592  55.896  1.00  0.00     0.006 C 
BRANCH   4   5
ATOM      5  C   UNL     1      19.143 130.394  54.725  1.00  0.00     0.053 C 
BRANCH   5   6
ATOM      6  C   UNL     1      19.864 131.693  54.530  1.00  0.00     0.041 C 
ATOM      7  O   UNL     1      19.266 132.681  54.030  1.00  0.00    -0.550 OA
ATOM      8  O   UNL     1      21.207 131.801  54.868  1.00  0.00    -0.550 OA
ENDBRANCH   5   6
ENDBRANCH   4   5
ENDBRANCH   3   4
ENDBRANCH   2   3
ENDBRANCH   1   2
BRANCH   1   9
ATOM      9  C   UNL     1      15.776 128.151  56.205  1.00  0.00     0.000 C 
BRANCH   9  10
ATOM     10  C   UNL     1      16.691 127.358  55.249  1.00  0.00    -0.000 C 
BRANCH  10  11
ATOM     11  C   UNL     1      16.512 127.680  53.752  1.00  0.00    -0.000 C 
BRANCH  11  12
ATOM     12  C   UNL     1      15.389 128.684  53.434  1.00  0.00    -0.000 C 
BRANCH  12  13
ATOM     13  C   UNL     1      15.919 130.013  52.877  1.00  0.00    -0.003 C 
ATOM     14  C   UNL     1      15.625 131.164  53.833  1.00  0.00     0.004 C 
ENDBRANCH  12  13
ENDBRANCH  11  12
ENDBRANCH  10  11
ENDBRANCH   9  10
ENDBRANCH   1   9
TORSDOF 10
ENDMDL
MODEL 2
REMARK VINA RESULT:    -3.235      3.452      5.149
REMARK INTER + INTRA:          -6.659
REMARK INTER:                  -5.560
REMARK INTRA:                  -1.099
REMARK UNBOUND:                -1.533
REMARK SMILES CCCCCCCCCCCC(=O)[O-]
REMARK SMILES IDX 7 1 8 2 9 3 10 4 11 5 12 6 13 7 14 8 6 9 5 10 4 11 3 12 2 13
REMARK SMILES IDX 1 14
REMARK H PARENT
REMARK Flexibility Score: inf
ROOT
ATOM      1  C   UNL     1      15.522 128.991  53.309  1.00  0.00     0.000 C 
ENDROOT
BRANCH   1   2
ATOM      2  C   UNL     1      16.218 129.627  52.094  1.00  0.00     0.000 C 
BRANCH   2   3
ATOM      3  C   UNL     1      17.330 128.736  51.518  1.00  0.00     0.000 C 
BRANCH   3   4
ATOM      4  C   UNL     1      17.313 128.685  49.979  1.00  0.00     0.006 C 
BRANCH   4   5
ATOM      5  C   UNL     1      17.162 130.078  49.356  1.00  0.00     0.053 C 
BRANCH   5   6
ATOM      6  C   UNL     1      17.859 130.172  48.033  1.00  0.00     0.041 C 
ATOM      7  O   UNL     1      17.305 130.753  47.064  1.00  0.00    -0.550 OA
ATOM      8  O   UNL     1      19.106 129.585  47.861  1.00  0.00    -0.550 OA
ENDBRANCH   5   6
ENDBRANCH   4   5
ENDBRANCH   3   4
ENDBRANCH   2   3
ENDBRANCH   1   2
BRANCH   1   9
ATOM      9  C   UNL     1      16.029 127.568  53.608  1.00  0.00     0.000 C 
BRANCH   9  10
ATOM     10  C   UNL     1      16.559 127.349  55.040  1.00  0.00    -0.000 C 
BRANCH  10  11
ATOM     11  C   UNL     1      16.420 128.560  55.983  1.00  0.00    -0.000 C 
BRANCH  11  12
ATOM     12  C   UNL     1      17.751 129.161  56.470  1.00  0.00    -0.000 C 
BRANCH  12  13
ATOM     13  C   UNL     1      18.864 129.071  55.417  1.00  0.00    -0.003 C 
ATOM     14  C   UNL     1      18.928 130.343  54.577  1.00  0.00     0.004 C 
ENDBRANCH  12  13
ENDBRANCH  11  12
ENDBRANCH  10  11
ENDBRANCH   9  10
ENDBRANCH   1   9
TORSDOF 10
ENDMDL
MODEL 3
REMARK VINA RESULT:    -3.222      3.948      5.700
REMARK INTER + INTRA:          -6.639
REMARK INTER:                  -5.710
REMARK INTRA:                  -0.929
REMARK UNBOUND:                -1.533
REMARK SMILES CCCCCCCCCCCC(=O)[O-]
REMARK SMILES IDX 7 1 8 2 9 3 10 4 11 5 12 6 13 7 14 8 6 9 5 10 4 11 3 12 2 13
REMARK SMILES IDX 1 14
REMARK H PARENT
REMARK Flexibility Score: inf
ROOT
ATOM      1  C   UNL     1      16.416 127.829  52.979  1.00  0.00     0.000 C 
ENDROOT
BRANCH   1   2
ATOM      2  C   UNL     1      17.395 128.755  52.237  1.00  0.00     0.000 C 
BRANCH   2   3
ATOM      3  C   UNL     1      17.252 128.662  50.709  1.00  0.00     0.000 C 
BRANCH   3   4
ATOM      4  C   UNL     1      16.599 129.914  50.097  1.00  0.00     0.006 C 
BRANCH   4   5
ATOM      5  C   UNL     1      16.973 130.098  48.620  1.00  0.00     0.053 C 
BRANCH   5   6
ATOM      6  C   UNL     1      16.457 128.975  47.774  1.00  0.00     0.041 C 
ATOM      7  O   UNL     1      15.218 128.777  47.670  1.00  0.00    -0.550 OA
ATOM      8  O   UNL     1      17.346 128.125  47.129  1.00  0.00    -0.550 OA
ENDBRANCH   5   6
ENDBRANCH   4   5
ENDBRANCH   3   4
ENDBRANCH   2   3
ENDBRANCH   1   2
BRANCH   1   9
ATOM      9  C   UNL     1      15.229 128.589  53.597  1.00  0.00     0.000 C 
BRANCH   9  10
ATOM     10  C   UNL     1      15.174 128.576  55.138  1.00  0.00    -0.000 C 
BRANCH  10  11
ATOM     11  C   UNL     1      16.341 127.845  55.830  1.00  0.00    -0.000 C 
BRANCH  11  12
ATOM     12  C   UNL     1      17.303 128.754  56.616  1.00  0.00    -0.000 C 
BRANCH  12  13
ATOM     13  C   UNL     1      18.515 129.197  55.785  1.00  0.00    -0.003 C 
ATOM     14  C   UNL     1      18.356 130.638  55.309  1.00  0.00     0.004 C 
ENDBRANCH  12  13
ENDBRANCH  11  12
ENDBRANCH  10  11
ENDBRANCH   9  10
ENDBRANCH   1   9
TORSDOF 10
ENDMDL
MODEL 4
REMARK VINA RESULT:    -3.186      2.249      4.131
REMARK INTER + INTRA:          -6.582
REMARK INTER:                  -5.188
REMARK INTRA:                  -1.393
REMARK UNBOUND:                -1.533
REMARK SMILES CCCCCCCCCCCC(=O)[O-]
REMARK SMILES IDX 7 1 8 2 9 3 10 4 11 5 12 6 13 7 14 8 6 9 5 10 4 11 3 12 2 13
REMARK SMILES IDX 1 14
REMARK H PARENT
REMARK Flexibility Score: inf
ROOT
ATOM      1  C   UNL     1      15.712 129.538  56.913  1.00  0.00     0.000 C 
ENDROOT
BRANCH   1   2
ATOM      2  C   UNL     1      15.208 128.673  55.746  1.00  0.00     0.000 C 
BRANCH   2   3
ATOM      3  C   UNL     1      16.191 127.550  55.377  1.00  0.00     0.000 C 
BRANCH   3   4
ATOM      4  C   UNL     1      16.488 127.492  53.868  1.00  0.00     0.006 C 
BRANCH   4   5
ATOM      5  C   UNL     1      15.737 128.579  53.089  1.00  0.00     0.053 C 
BRANCH   5   6
ATOM      6  C   UNL     1      16.545 129.092  51.936  1.00  0.00     0.041 C 
ATOM      7  O   UNL     1      17.689 128.621  51.703  1.00  0.00    -0.550 OA
ATOM      8  O   UNL     1      16.048 130.117  51.140  1.00  0.00    -0.550 OA
ENDBRANCH   5   6
ENDBRANCH   4   5
ENDBRANCH   3   4
ENDBRANCH   2   3
ENDBRANCH   1   2
BRANCH   1   9
ATOM      9  C   UNL     1      17.080 129.078  57.449  1.00  0.00     0.000 C 
BRANCH   9  10
ATOM     10  C   UNL     1      18.206 130.129  57.360  1.00  0.00    -0.000 C 
BRANCH  10  11
ATOM     11  C   UNL     1      19.446 129.696  56.555  1.00  0.00    -0.000 C 
BRANCH  11  12
ATOM     12  C   UNL     1      19.228 129.584  55.035  1.00  0.00    -0.000 C 
BRANCH  12  13
ATOM     13  C   UNL     1      18.658 130.870  54.420  1.00  0.00    -0.003 C 
ATOM     14  C   UNL     1      19.732 131.948  54.308  1.00  0.00     0.004 C 
ENDBRANCH  12  13
ENDBRANCH  11  12
ENDBRANCH  10  11
ENDBRANCH   9  10
ENDBRANCH   1   9
TORSDOF 10
ENDMDL
MODEL 5
REMARK VINA RESULT:    -3.167      8.781     10.633
REMARK INTER + INTRA:          -6.552
REMARK INTER:                  -5.476
REMARK INTRA:                  -1.075
REMARK UNBOUND:                -1.533
REMARK SMILES CCCCCCCCCCCC(=O)[O-]
REMARK SMILES IDX 7 1 8 2 9 3 10 4 11 5 12 6 13 7 14 8 6 9 5 10 4 11 3 12 2 13
REMARK SMILES IDX 1 14
REMARK H PARENT
REMARK Flexibility Score: inf
ROOT
ATOM      1  C   UNL     1      18.411 129.587  64.579  1.00  0.00     0.000 C 
ENDROOT
BRANCH   1   2
ATOM      2  C   UNL     1      18.166 128.494  65.634  1.00  0.00     0.000 C 
BRANCH   2   3
ATOM      3  C   UNL     1      17.259 128.973  66.779  1.00  0.00     0.000 C 
BRANCH   3   4
ATOM      4  C   UNL     1      16.153 127.959  67.124  1.00  0.00     0.006 C 
BRANCH   4   5
ATOM      5  C   UNL     1      15.498 127.369  65.869  1.00  0.00     0.053 C 
BRANCH   5   6
ATOM      6  C   UNL     1      14.414 128.257  65.339  1.00  0.00     0.041 C 
ATOM      7  O   UNL     1      14.111 128.228  64.118  1.00  0.00    -0.550 OA
ATOM      8  O   UNL     1      13.763 129.143  66.188  1.00  0.00    -0.550 OA
ENDBRANCH   5   6
ENDBRANCH   4   5
ENDBRANCH   3   4
ENDBRANCH   2   3
ENDBRANCH   1   2
BRANCH   1   9
ATOM      9  C   UNL     1      17.798 129.242  63.210  1.00  0.00     0.000 C 
BRANCH   9  10
ATOM     10  C   UNL     1      18.157 127.844  62.665  1.00  0.00    -0.000 C 
BRANCH  10  11
ATOM     11  C   UNL     1      16.999 126.828  62.650  1.00  0.00    -0.000 C 
BRANCH  11  12
ATOM     12  C   UNL     1      17.427 125.353  62.754  1.00  0.00    -0.000 C 
BRANCH  12  13
ATOM     13  C   UNL     1      18.892 125.188  63.184  1.00  0.00    -0.003 C 
ATOM     14  C   UNL     1      19.643 124.267  62.227  1.00  0.00     0.004 C 
ENDBRANCH  12  13
ENDBRANCH  11  12
ENDBRANCH  10  11
ENDBRANCH   9  10
ENDBRANCH   1   9
TORSDOF 10
ENDMDL
MODEL 6
REMARK VINA RESULT:    -3.167      2.366      3.549
REMARK INTER + INTRA:          -6.551
REMARK INTER:                  -5.464
REMARK INTRA:                  -1.087
REMARK UNBOUND:                -1.533
REMARK SMILES CCCCCCCCCCCC(=O)[O-]
REMARK SMILES IDX 7 1 8 2 9 3 10 4 11 5 12 6 13 7 14 8 6 9 5 10 4 11 3 12 2 13
REMARK SMILES IDX 1 14
REMARK H PARENT
REMARK Flexibility Score: inf
ROOT
ATOM      1  C   UNL     1      15.342 128.540  53.722  1.00  0.00     0.000 C 
ENDROOT
BRANCH   1   2
ATOM      2  C   UNL     1      15.452 128.195  55.217  1.00  0.00     0.000 C 
BRANCH   2   3
ATOM      3  C   UNL     1      16.871 127.761  55.619  1.00  0.00     0.000 C 
BRANCH   3   4
ATOM      4  C   UNL     1      17.707 128.920  56.193  1.00  0.00     0.006 C 
BRANCH   4   5
ATOM      5  C   UNL     1      18.906 129.265  55.300  1.00  0.00     0.053 C 
BRANCH   5   6
ATOM      6  C   UNL     1      18.785 130.640  54.717  1.00  0.00     0.041 C 
ATOM      7  O   UNL     1      19.812 131.345  54.535  1.00  0.00    -0.550 OA
ATOM      8  O   UNL     1      17.533 131.157  54.408  1.00  0.00    -0.550 OA
ENDBRANCH   5   6
ENDBRANCH   4   5
ENDBRANCH   3   4
ENDBRANCH   2   3
ENDBRANCH   1   2
BRANCH   1   9
ATOM      9  C   UNL     1      16.338 127.750  52.853  1.00  0.00     0.000 C 
BRANCH   9  10
ATOM     10  C   UNL     1      17.237 128.610  51.941  1.00  0.00    -0.000 C 
BRANCH  10  11
ATOM     11  C   UNL     1      16.519 129.762  51.211  1.00  0.00    -0.000 C 
BRANCH  11  12
ATOM     12  C   UNL     1      17.007 130.025  49.775  1.00  0.00    -0.000 C 
BRANCH  12  13
ATOM     13  C   UNL     1      16.610 128.909  48.798  1.00  0.00    -0.003 C 
ATOM     14  C   UNL     1      17.840 128.177  48.272  1.00  0.00     0.004 C 
ENDBRANCH  12  13
ENDBRANCH  11  12
ENDBRANCH  10  11
ENDBRANCH   9  10
ENDBRANCH   1   9
TORSDOF 10
ENDMDL
MODEL 7
REMARK VINA RESULT:    -3.166      1.245      2.062
REMARK INTER + INTRA:          -6.550
REMARK INTER:                  -5.048
REMARK INTRA:                  -1.502
REMARK UNBOUND:                -1.533
REMARK SMILES CCCCCCCCCCCC(=O)[O-]
REMARK SMILES IDX 7 1 8 2 9 3 10 4 11 5 12 6 13 7 14 8 6 9 5 10 4 11 3 12 2 13
REMARK SMILES IDX 1 14
REMARK H PARENT
REMARK Flexibility Score: inf
ROOT
ATOM      1  C   UNL     1      17.427 129.775  58.291  1.00  0.00     0.000 C 
ENDROOT
BRANCH   1   2
ATOM      2  C   UNL     1      18.491 130.514  57.461  1.00  0.00     0.000 C 
BRANCH   2   3
ATOM      3  C   UNL     1      19.399 129.553  56.678  1.00  0.00     0.000 C 
BRANCH   3   4
ATOM      4  C   UNL     1      19.271 129.722  55.154  1.00  0.00     0.006 C 
BRANCH   4   5
ATOM      5  C   UNL     1      18.493 130.989  54.777  1.00  0.00     0.053 C 
BRANCH   5   6
ATOM      6  C   UNL     1      19.410 132.102  54.370  1.00  0.00     0.041 C 
ATOM      7  O   UNL     1      20.654 131.915  54.329  1.00  0.00    -0.550 OA
ATOM      8  O   UNL     1      18.893 133.355  54.070  1.00  0.00    -0.550 OA
ENDBRANCH   5   6
ENDBRANCH   4   5
ENDBRANCH   3   4
ENDBRANCH   2   3
ENDBRANCH   1   2
BRANCH   1   9
ATOM      9  C   UNL     1      15.993 130.051  57.804  1.00  0.00     0.000 C 
BRANCH   9  10
ATOM     10  C   UNL     1      15.591 129.318  56.507  1.00  0.00    -0.000 C 
BRANCH  10  11
ATOM     11  C   UNL     1      16.043 127.848  56.417  1.00  0.00    -0.000 C 
BRANCH  11  12
ATOM     12  C   UNL     1      16.495 127.392  55.018  1.00  0.00    -0.000 C 
BRANCH  12  13
ATOM     13  C   UNL     1      15.851 128.208  53.889  1.00  0.00    -0.003 C 
ATOM     14  C   UNL     1      16.685 128.135  52.614  1.00  0.00     0.004 C 
ENDBRANCH  12  13
ENDBRANCH  11  12
ENDBRANCH  10  11
ENDBRANCH   9  10
ENDBRANCH   1   9
TORSDOF 10
ENDMDL
MODEL 8
REMARK VINA RESULT:    -3.158      5.537      6.917
REMARK INTER + INTRA:          -6.537
REMARK INTER:                  -6.083
REMARK INTRA:                  -0.454
REMARK UNBOUND:                -1.533
REMARK SMILES CCCCCCCCCCCC(=O)[O-]
REMARK SMILES IDX 7 1 8 2 9 3 10 4 11 5 12 6 13 7 14 8 6 9 5 10 4 11 3 12 2 13
REMARK SMILES IDX 1 14
REMARK H PARENT
REMARK Flexibility Score: inf
ROOT
ATOM      1  C   UNL     1      18.855 129.788  60.521  1.00  0.00     0.000 C 
ENDROOT
BRANCH   1   2
ATOM      2  C   UNL     1      18.490 129.357  61.952  1.00  0.00     0.000 C 
BRANCH   2   3
ATOM      3  C   UNL     1      17.096 128.714  62.036  1.00  0.00     0.000 C 
BRANCH   3   4
ATOM      4  C   UNL     1      17.001 127.644  63.138  1.00  0.00     0.006 C 
BRANCH   4   5
ATOM      5  C   UNL     1      18.312 126.865  63.303  1.00  0.00     0.053 C 
BRANCH   5   6
ATOM      6  C   UNL     1      18.180 125.450  62.828  1.00  0.00     0.041 C 
ATOM      7  O   UNL     1      17.044 124.969  62.580  1.00  0.00    -0.550 OA
ATOM      8  O   UNL     1      19.309 124.653  62.695  1.00  0.00    -0.550 OA
ENDBRANCH   5   6
ENDBRANCH   4   5
ENDBRANCH   3   4
ENDBRANCH   2   3
ENDBRANCH   1   2
BRANCH   1   9
ATOM      9  C   UNL     1      17.651 129.755  59.563  1.00  0.00     0.000 C 
BRANCH   9  10
ATOM     10  C   UNL     1      18.005 129.833  58.063  1.00  0.00    -0.000 C 
BRANCH  10  11
ATOM     11  C   UNL     1      16.936 129.272  57.106  1.00  0.00    -0.000 C 
BRANCH  11  12
ATOM     12  C   UNL     1      17.489 128.534  55.874  1.00  0.00    -0.000 C 
BRANCH  12  13
ATOM     13  C   UNL     1      16.502 127.506  55.303  1.00  0.00    -0.003 C 
ATOM     14  C   UNL     1      16.496 127.539  53.778  1.00  0.00     0.004 C 
ENDBRANCH  12  13
ENDBRANCH  11  12
ENDBRANCH  10  11
ENDBRANCH   9  10
ENDBRANCH   1   9
TORSDOF 10
ENDMDL
MODEL 9
REMARK VINA RESULT:    -3.146      4.723      6.944
REMARK INTER + INTRA:          -6.519
REMARK INTER:                  -5.867
REMARK INTRA:                  -0.652
REMARK UNBOUND:                -1.533
REMARK SMILES CCCCCCCCCCCC(=O)[O-]
REMARK SMILES IDX 7 1 8 2 9 3 10 4 11 5 12 6 13 7 14 8 6 9 5 10 4 11 3 12 2 13
REMARK SMILES IDX 1 14
REMARK H PARENT
REMARK Flexibility Score: inf
ROOT
ATOM      1  C   UNL     1      19.259 129.040  61.506  1.00  0.00     0.000 C 
ENDROOT
BRANCH   1   2
ATOM      2  C   UNL     1      19.125 129.810  60.181  1.00  0.00     0.000 C 
BRANCH   2   3
ATOM      3  C   UNL     1      17.671 129.887  59.688  1.00  0.00     0.000 C 
BRANCH   3   4
ATOM      4  C   UNL     1      17.559 129.824  58.154  1.00  0.00     0.006 C 
BRANCH   4   5
ATOM      5  C   UNL     1      18.852 130.273  57.461  1.00  0.00     0.053 C 
BRANCH   5   6
ATOM      6  C   UNL     1      19.161 129.427  56.264  1.00  0.00     0.041 C 
ATOM      7  O   UNL     1      20.339 129.039  56.048  1.00  0.00    -0.550 OA
ATOM      8  O   UNL     1      18.154 129.098  55.366  1.00  0.00    -0.550 OA
ENDBRANCH   5   6
ENDBRANCH   4   5
ENDBRANCH   3   4
ENDBRANCH   2   3
ENDBRANCH   1   2
BRANCH   1   9
ATOM      9  C   UNL     1      17.980 129.097  62.360  1.00  0.00     0.000 C 
BRANCH   9  10
ATOM     10  C   UNL     1      17.290 127.737  62.597  1.00  0.00    -0.000 C 
BRANCH  10  11
ATOM     11  C   UNL     1      18.138 126.694  63.350  1.00  0.00    -0.000 C 
BRANCH  11  12
ATOM     12  C   UNL     1      18.058 125.263  62.788  1.00  0.00    -0.000 C 
BRANCH  12  13
ATOM     13  C   UNL     1      19.399 124.520  62.857  1.00  0.00    -0.003 C 
ATOM     14  C   UNL     1      20.441 125.185  61.964  1.00  0.00     0.004 C 
ENDBRANCH  12  13
ENDBRANCH  11  12
ENDBRANCH  10  11
ENDBRANCH   9  10
ENDBRANCH   1   9
TORSDOF 10
ENDMDL
