MODEL 1
REMARK VINA RESULT:    -6.557      0.000      0.000
REMARK INTER + INTRA:         -11.190
REMARK INTER:                  -9.432
REMARK INTRA:                  -1.758
REMARK UNBOUND:                -1.758
REMARK SMILES O=c1c(O[C@H]2O[C@@H](CO)[C@H](O)[C@@H](O)[C@H]2O)c(-c2ccc(O)cc2)oc2cc(O)cc(O)c12
REMARK SMILES IDX 4 1 3 2 16 3 24 4 2 5 25 6 1 7 32 8 26 9 30 10 27 11 29 12
REMARK SMILES IDX 17 13 18 14 19 15 20 16 23 17 22 18 21 19 31 21 28 23 5 25
REMARK SMILES IDX 14 26 6 27 12 28 7 29 10 30 15 31 13 33 8 35 9 36 11 38
REMARK H PARENT 21 20 31 22 28 24 15 32 13 34 9 37 11 39
REMARK Flexibility Score: inf
ROOT
ATOM      1  O   UNL     1      56.275   5.658  80.405  1.00  0.00    -0.454 OA
ENDROOT
BRANCH   1   2
ATOM      2  C   UNL     1      55.199   4.906  80.912  1.00  0.00     0.214 A 
ATOM      3  C   UNL     1      53.927   5.069  80.334  1.00  0.00     0.180 A 
ATOM      4  O   UNL     1      52.879   4.430  80.839  1.00  0.00    -0.452 OA
ATOM      5  C   UNL     1      55.337   4.011  81.994  1.00  0.00     0.239 A 
ATOM      6  C   UNL     1      52.960   3.584  81.857  1.00  0.00     0.146 A 
ATOM      7  O   UNL     1      56.460   3.875  82.540  1.00  0.00    -0.285 OA
ATOM      8  C   UNL     1      54.209   3.293  82.464  1.00  0.00     0.111 A 
ATOM      9  C   UNL     1      51.786   2.988  82.322  1.00  0.00     0.094 A 
ATOM     10  C   UNL     1      54.242   2.335  83.523  1.00  0.00     0.134 A 
ATOM     11  C   UNL     1      51.822   2.102  83.397  1.00  0.00     0.123 A 
ATOM     12  C   UNL     1      53.043   1.783  83.993  1.00  0.00     0.093 A 
BRANCH   3  13
ATOM     13  C   UNL     1      53.699   5.989  79.201  1.00  0.00     0.021 A 
ATOM     14  C   UNL     1      53.165   7.266  79.440  1.00  0.00     0.016 A 
ATOM     15  C   UNL     1      52.941   8.149  78.379  1.00  0.00     0.047 A 
ATOM     16  C   UNL     1      53.236   7.760  77.066  1.00  0.00     0.115 A 
ATOM     17  C   UNL     1      53.969   5.598  77.878  1.00  0.00     0.016 A 
ATOM     18  C   UNL     1      53.746   6.483  76.820  1.00  0.00     0.047 A 
BRANCH  16  19
ATOM     19  O   UNL     1      53.020   8.633  76.002  1.00  0.00    -0.508 OA
ATOM     20  H   UNL     1      52.147   8.636  75.488  1.00  0.00     0.293 HD
ENDBRANCH  16  19
ENDBRANCH   3  13
BRANCH  10  21
ATOM     21  O   UNL     1      55.417   1.875  84.125  1.00  0.00    -0.507 OA
ATOM     22  H   UNL     1      55.671   2.036  85.088  1.00  0.00     0.293 HD
ENDBRANCH  10  21
BRANCH  11  23
ATOM     23  O   UNL     1      50.635   1.536  83.860  1.00  0.00    -0.508 OA
ATOM     24  H   UNL     1      49.785   2.081  83.939  1.00  0.00     0.293 HD
ENDBRANCH  11  23
ENDBRANCH   1   2
BRANCH   1  25
ATOM     25  C   UNL     1      57.189   5.216  79.398  1.00  0.00     0.339 C 
ATOM     26  C   UNL     1      58.617   5.122  79.960  1.00  0.00     0.214 C 
ATOM     27  O   UNL     1      57.126   6.018  78.230  1.00  0.00    -0.332 OA
ATOM     28  C   UNL     1      59.169   6.511  80.284  1.00  0.00     0.180 C 
ATOM     29  C   UNL     1      57.618   7.344  78.389  1.00  0.00     0.179 C 
ATOM     30  C   UNL     1      59.014   7.447  79.068  1.00  0.00     0.177 C 
BRANCH  26  31
ATOM     31  O   UNL     1      58.637   4.326  81.118  1.00  0.00    -0.384 OA
ATOM     32  H   UNL     1      59.271   4.754  81.750  1.00  0.00     0.211 HD
ENDBRANCH  26  31
BRANCH  28  33
ATOM     33  O   UNL     1      58.527   7.037  81.416  1.00  0.00    -0.387 OA
ATOM     34  H   UNL     1      57.630   6.615  81.462  1.00  0.00     0.211 HD
ENDBRANCH  28  33
BRANCH  29  35
ATOM     35  C   UNL     1      56.540   8.323  78.909  1.00  0.00     0.191 C 
BRANCH  35  36
ATOM     36  O   UNL     1      56.705   8.640  80.263  1.00  0.00    -0.394 OA
ATOM     37  H   UNL     1      55.867   8.381  80.727  1.00  0.00     0.210 HD
ENDBRANCH  35  36
ENDBRANCH  29  35
BRANCH  30  38
ATOM     38  O   UNL     1      59.997   7.124  78.115  1.00  0.00    -0.387 OA
ATOM     39  H   UNL     1      59.707   7.518  77.251  1.00  0.00     0.211 HD
ENDBRANCH  30  38
ENDBRANCH   1  25
TORSDOF 11
ENDMDL
MODEL 2
REMARK VINA RESULT:    -6.297      1.961      6.652
REMARK INTER + INTRA:         -10.816
REMARK INTER:                 -10.446
REMARK INTRA:                  -0.371
REMARK UNBOUND:                -1.758
REMARK SMILES O=c1c(O[C@H]2O[C@@H](CO)[C@H](O)[C@@H](O)[C@H]2O)c(-c2ccc(O)cc2)oc2cc(O)cc(O)c12
REMARK SMILES IDX 4 1 3 2 16 3 24 4 2 5 25 6 1 7 32 8 26 9 30 10 27 11 29 12
REMARK SMILES IDX 17 13 18 14 19 15 20 16 23 17 22 18 21 19 31 21 28 23 5 25
REMARK SMILES IDX 14 26 6 27 12 28 7 29 10 30 15 31 13 33 8 35 9 36 11 38
REMARK H PARENT 21 20 31 22 28 24 15 32 13 34 9 37 11 39
REMARK Flexibility Score: inf
ROOT
ATOM      1  O   UNL     1      53.817   4.366  81.757  1.00  0.00    -0.454 OA
ENDROOT
BRANCH   1   2
ATOM      2  C   UNL     1      54.859   4.923  80.994  1.00  0.00     0.214 A 
ATOM      3  C   UNL     1      54.786   4.847  79.591  1.00  0.00     0.180 A 
ATOM      4  O   UNL     1      55.788   5.296  78.847  1.00  0.00    -0.452 OA
ATOM      5  C   UNL     1      55.989   5.535  81.577  1.00  0.00     0.239 A 
ATOM      6  C   UNL     1      56.871   5.874  79.350  1.00  0.00     0.146 A 
ATOM      7  O   UNL     1      56.083   5.586  82.828  1.00  0.00    -0.285 OA
ATOM      8  C   UNL     1      57.010   6.065  80.750  1.00  0.00     0.111 A 
ATOM      9  C   UNL     1      57.876   6.285  78.473  1.00  0.00     0.094 A 
ATOM     10  C   UNL     1      58.174   6.739  81.230  1.00  0.00     0.134 A 
ATOM     11  C   UNL     1      59.036   6.884  78.958  1.00  0.00     0.123 A 
ATOM     12  C   UNL     1      59.181   7.105  80.329  1.00  0.00     0.093 A 
BRANCH   3  13
ATOM     13  C   UNL     1      53.638   4.220  78.904  1.00  0.00     0.021 A 
ATOM     14  C   UNL     1      53.736   2.889  78.465  1.00  0.00     0.016 A 
ATOM     15  C   UNL     1      52.660   2.280  77.811  1.00  0.00     0.047 A 
ATOM     16  C   UNL     1      51.480   2.998  77.578  1.00  0.00     0.115 A 
ATOM     17  C   UNL     1      52.460   4.941  78.645  1.00  0.00     0.016 A 
ATOM     18  C   UNL     1      51.386   4.330  77.993  1.00  0.00     0.047 A 
BRANCH  16  19
ATOM     19  O   UNL     1      50.401   2.401  76.931  1.00  0.00    -0.508 OA
ATOM     20  H   UNL     1      49.758   1.793  77.425  1.00  0.00     0.293 HD
ENDBRANCH  16  19
ENDBRANCH   3  13
BRANCH  10  21
ATOM     21  O   UNL     1      58.377   7.092  82.567  1.00  0.00    -0.507 OA
ATOM     22  H   UNL     1      57.777   6.818  83.332  1.00  0.00     0.293 HD
ENDBRANCH  10  21
BRANCH  11  23
ATOM     23  O   UNL     1      60.036   7.267  78.065  1.00  0.00    -0.508 OA
ATOM     24  H   UNL     1      60.255   8.243  77.903  1.00  0.00     0.293 HD
ENDBRANCH  11  23
ENDBRANCH   1   2
BRANCH   1  25
ATOM     25  C   UNL     1      53.178   3.114  81.495  1.00  0.00     0.339 C 
ATOM     26  C   UNL     1      51.709   3.144  81.946  1.00  0.00     0.214 C 
ATOM     27  O   UNL     1      53.889   2.023  82.059  1.00  0.00    -0.332 OA
ATOM     28  C   UNL     1      51.608   3.223  83.471  1.00  0.00     0.180 C 
ATOM     29  C   UNL     1      53.871   1.971  83.481  1.00  0.00     0.179 C 
ATOM     30  C   UNL     1      52.462   2.117  84.124  1.00  0.00     0.177 C 
BRANCH  26  31
ATOM     31  O   UNL     1      51.043   4.239  81.372  1.00  0.00    -0.384 OA
ATOM     32  H   UNL     1      51.726   4.942  81.218  1.00  0.00     0.211 HD
ENDBRANCH  26  31
BRANCH  28  33
ATOM     33  O   UNL     1      51.996   4.496  83.918  1.00  0.00    -0.387 OA
ATOM     34  H   UNL     1      51.170   5.040  83.995  1.00  0.00     0.211 HD
ENDBRANCH  28  33
BRANCH  29  35
ATOM     35  C   UNL     1      54.997   2.812  84.125  1.00  0.00     0.191 C 
BRANCH  35  36
ATOM     36  O   UNL     1      56.202   2.736  83.416  1.00  0.00    -0.394 OA
ATOM     37  H   UNL     1      56.672   1.919  83.727  1.00  0.00     0.210 HD
ENDBRANCH  35  36
ENDBRANCH  29  35
BRANCH  30  38
ATOM     38  O   UNL     1      51.788   0.888  84.001  1.00  0.00    -0.387 OA
ATOM     39  H   UNL     1      51.087   1.008  83.309  1.00  0.00     0.211 HD
ENDBRANCH  30  38
ENDBRANCH   1  25
TORSDOF 11
ENDMDL
MODEL 3
REMARK VINA RESULT:    -6.263      1.522      4.589
REMARK INTER + INTRA:         -10.767
REMARK INTER:                  -9.343
REMARK INTRA:                  -1.424
REMARK UNBOUND:                -1.758
REMARK SMILES O=c1c(O[C@H]2O[C@@H](CO)[C@H](O)[C@@H](O)[C@H]2O)c(-c2ccc(O)cc2)oc2cc(O)cc(O)c12
REMARK SMILES IDX 4 1 3 2 16 3 24 4 2 5 25 6 1 7 32 8 26 9 30 10 27 11 29 12
REMARK SMILES IDX 17 13 18 14 19 15 20 16 23 17 22 18 21 19 31 21 28 23 5 25
REMARK SMILES IDX 14 26 6 27 12 28 7 29 10 30 15 31 13 33 8 35 9 36 11 38
REMARK H PARENT 21 20 31 22 28 24 15 32 13 34 9 37 11 39
REMARK Flexibility Score: inf
ROOT
ATOM      1  O   UNL     1      54.597   6.380  78.974  1.00  0.00    -0.454 OA
ENDROOT
BRANCH   1   2
ATOM      2  C   UNL     1      54.582   5.386  79.970  1.00  0.00     0.214 A 
ATOM      3  C   UNL     1      55.793   5.031  80.591  1.00  0.00     0.180 A 
ATOM      4  O   UNL     1      55.821   4.046  81.479  1.00  0.00    -0.452 OA
ATOM      5  C   UNL     1      53.404   4.712  80.356  1.00  0.00     0.239 A 
ATOM      6  C   UNL     1      54.742   3.381  81.870  1.00  0.00     0.146 A 
ATOM      7  O   UNL     1      52.319   4.997  79.791  1.00  0.00    -0.285 OA
ATOM      8  C   UNL     1      53.460   3.711  81.358  1.00  0.00     0.111 A 
ATOM      9  C   UNL     1      54.895   2.345  82.792  1.00  0.00     0.094 A 
ATOM     10  C   UNL     1      52.327   2.995  81.852  1.00  0.00     0.134 A 
ATOM     11  C   UNL     1      53.791   1.612  83.220  1.00  0.00     0.123 A 
ATOM     12  C   UNL     1      52.517   1.936  82.748  1.00  0.00     0.093 A 
BRANCH   3  13
ATOM     13  C   UNL     1      57.069   5.687  80.240  1.00  0.00     0.021 A 
ATOM     14  C   UNL     1      58.056   4.961  79.554  1.00  0.00     0.016 A 
ATOM     15  C   UNL     1      59.271   5.566  79.215  1.00  0.00     0.047 A 
ATOM     16  C   UNL     1      59.518   6.898  79.571  1.00  0.00     0.115 A 
ATOM     17  C   UNL     1      57.334   7.015  80.616  1.00  0.00     0.016 A 
ATOM     18  C   UNL     1      58.548   7.618  80.275  1.00  0.00     0.047 A 
BRANCH  16  19
ATOM     19  O   UNL     1      60.723   7.511  79.237  1.00  0.00    -0.508 OA
ATOM     20  H   UNL     1      61.167   8.179  79.856  1.00  0.00     0.293 HD
ENDBRANCH  16  19
ENDBRANCH   3  13
BRANCH  10  21
ATOM     21  O   UNL     1      51.004   3.299  81.519  1.00  0.00    -0.507 OA
ATOM     22  H   UNL     1      50.334   3.718  82.147  1.00  0.00     0.293 HD
ENDBRANCH  10  21
BRANCH  11  23
ATOM     23  O   UNL     1      53.969   0.566  84.125  1.00  0.00    -0.508 OA
ATOM     24  H   UNL     1      53.185   0.025  84.470  1.00  0.00     0.293 HD
ENDBRANCH  11  23
ENDBRANCH   1   2
BRANCH   1  25
ATOM     25  C   UNL     1      54.248   6.180  77.601  1.00  0.00     0.339 C 
ATOM     26  C   UNL     1      55.309   6.793  76.673  1.00  0.00     0.214 C 
ATOM     27  O   UNL     1      52.943   6.651  77.308  1.00  0.00    -0.332 OA
ATOM     28  C   UNL     1      55.301   8.320  76.769  1.00  0.00     0.180 C 
ATOM     29  C   UNL     1      52.795   8.065  77.356  1.00  0.00     0.179 C 
ATOM     30  C   UNL     1      53.872   8.863  76.565  1.00  0.00     0.177 C 
BRANCH  26  31
ATOM     31  O   UNL     1      56.586   6.307  76.998  1.00  0.00    -0.384 OA
ATOM     32  H   UNL     1      56.470   5.363  77.281  1.00  0.00     0.211 HD
ENDBRANCH  26  31
BRANCH  28  33
ATOM     33  O   UNL     1      55.831   8.731  78.002  1.00  0.00    -0.387 OA
ATOM     34  H   UNL     1      55.062   8.883  78.611  1.00  0.00     0.211 HD
ENDBRANCH  28  33
BRANCH  29  35
ATOM     35  C   UNL     1      52.475   8.586  78.776  1.00  0.00     0.191 C 
BRANCH  35  36
ATOM     36  O   UNL     1      51.748   7.665  79.539  1.00  0.00    -0.394 OA
ATOM     37  H   UNL     1      51.154   7.173  78.914  1.00  0.00     0.210 HD
ENDBRANCH  35  36
ENDBRANCH  29  35
BRANCH  30  38
ATOM     38  O   UNL     1      53.552   8.807  75.196  1.00  0.00    -0.387 OA
ATOM     39  H   UNL     1      54.210   8.198  74.769  1.00  0.00     0.211 HD
ENDBRANCH  30  38
ENDBRANCH   1  25
TORSDOF 11
ENDMDL
MODEL 4
REMARK VINA RESULT:    -6.253      2.379      4.065
REMARK INTER + INTRA:         -10.753
REMARK INTER:                  -8.944
REMARK INTRA:                  -1.809
REMARK UNBOUND:                -1.758
REMARK SMILES O=c1c(O[C@H]2O[C@@H](CO)[C@H](O)[C@@H](O)[C@H]2O)c(-c2ccc(O)cc2)oc2cc(O)cc(O)c12
REMARK SMILES IDX 4 1 3 2 16 3 24 4 2 5 25 6 1 7 32 8 26 9 30 10 27 11 29 12
REMARK SMILES IDX 17 13 18 14 19 15 20 16 23 17 22 18 21 19 31 21 28 23 5 25
REMARK SMILES IDX 14 26 6 27 12 28 7 29 10 30 15 31 13 33 8 35 9 36 11 38
REMARK H PARENT 21 20 31 22 28 24 15 32 13 34 9 37 11 39
REMARK Flexibility Score: inf
ROOT
ATOM      1  O   UNL     1      55.609   5.930  81.202  1.00  0.00    -0.454 OA
ENDROOT
BRANCH   1   2
ATOM      2  C   UNL     1      54.740   5.294  80.297  1.00  0.00     0.214 A 
ATOM      3  C   UNL     1      54.959   5.459  78.917  1.00  0.00     0.180 A 
ATOM      4  O   UNL     1      54.113   4.934  78.041  1.00  0.00    -0.452 OA
ATOM      5  C   UNL     1      53.640   4.515  80.714  1.00  0.00     0.239 A 
ATOM      6  C   UNL     1      53.064   4.199  78.387  1.00  0.00     0.146 A 
ATOM      7  O   UNL     1      53.414   4.380  81.942  1.00  0.00    -0.285 OA
ATOM      8  C   UNL     1      52.796   3.911  79.750  1.00  0.00     0.111 A 
ATOM      9  C   UNL     1      52.226   3.719  77.379  1.00  0.00     0.094 A 
ATOM     10  C   UNL     1      51.681   3.073  80.059  1.00  0.00     0.134 A 
ATOM     11  C   UNL     1      51.106   2.954  77.697  1.00  0.00     0.123 A 
ATOM     12  C   UNL     1      50.837   2.638  79.030  1.00  0.00     0.093 A 
BRANCH   3  13
ATOM     13  C   UNL     1      56.086   6.262  78.399  1.00  0.00     0.021 A 
ATOM     14  C   UNL     1      55.873   7.602  78.033  1.00  0.00     0.016 A 
ATOM     15  C   UNL     1      56.927   8.376  77.539  1.00  0.00     0.047 A 
ATOM     16  C   UNL     1      58.203   7.816  77.393  1.00  0.00     0.115 A 
ATOM     17  C   UNL     1      57.363   5.701  78.226  1.00  0.00     0.016 A 
ATOM     18  C   UNL     1      58.415   6.477  77.733  1.00  0.00     0.047 A 
BRANCH  16  19
ATOM     19  O   UNL     1      59.262   8.579  76.905  1.00  0.00    -0.508 OA
ATOM     20  H   UNL     1      59.927   9.021  77.528  1.00  0.00     0.293 HD
ENDBRANCH  16  19
ENDBRANCH   3  13
BRANCH  10  21
ATOM     21  O   UNL     1      51.378   2.620  81.346  1.00  0.00    -0.507 OA
ATOM     22  H   UNL     1      51.358   3.202  82.171  1.00  0.00     0.293 HD
ENDBRANCH  10  21
BRANCH  11  23
ATOM     23  O   UNL     1      50.270   2.504  76.676  1.00  0.00    -0.508 OA
ATOM     24  H   UNL     1      49.378   2.947  76.489  1.00  0.00     0.293 HD
ENDBRANCH  11  23
ENDBRANCH   1   2
BRANCH   1  25
ATOM     25  C   UNL     1      56.816   5.366  81.722  1.00  0.00     0.339 C 
ATOM     26  C   UNL     1      56.715   5.167  83.243  1.00  0.00     0.214 C 
ATOM     27  O   UNL     1      57.960   6.122  81.357  1.00  0.00    -0.332 OA
ATOM     28  C   UNL     1      56.671   6.514  83.968  1.00  0.00     0.180 C 
ATOM     29  C   UNL     1      58.049   7.403  81.968  1.00  0.00     0.179 C 
ATOM     30  C   UNL     1      57.841   7.409  83.510  1.00  0.00     0.177 C 
BRANCH  26  31
ATOM     31  O   UNL     1      55.569   4.421  83.565  1.00  0.00    -0.384 OA
ATOM     32  H   UNL     1      55.079   4.934  84.260  1.00  0.00     0.211 HD
ENDBRANCH  26  31
BRANCH  28  33
ATOM     33  O   UNL     1      55.435   7.142  83.751  1.00  0.00    -0.387 OA
ATOM     34  H   UNL     1      55.032   6.719  82.949  1.00  0.00     0.211 HD
ENDBRANCH  28  33
BRANCH  29  35
ATOM     35  C   UNL     1      57.290   8.496  81.180  1.00  0.00     0.191 C 
BRANCH  35  36
ATOM     36  O   UNL     1      56.099   8.884  81.805  1.00  0.00    -0.394 OA
ATOM     37  H   UNL     1      55.459   9.129  81.087  1.00  0.00     0.210 HD
ENDBRANCH  35  36
ENDBRANCH  29  35
BRANCH  30  38
ATOM     38  O   UNL     1      59.026   6.959  84.120  1.00  0.00    -0.387 OA
ATOM     39  H   UNL     1      59.642   7.735  84.167  1.00  0.00     0.211 HD
ENDBRANCH  30  38
ENDBRANCH   1  25
TORSDOF 11
ENDMDL
MODEL 5
REMARK VINA RESULT:    -6.038      2.311      6.443
REMARK INTER + INTRA:         -10.444
REMARK INTER:                  -9.280
REMARK INTRA:                  -1.164
REMARK UNBOUND:                -1.758
REMARK SMILES O=c1c(O[C@H]2O[C@@H](CO)[C@H](O)[C@@H](O)[C@H]2O)c(-c2ccc(O)cc2)oc2cc(O)cc(O)c12
REMARK SMILES IDX 4 1 3 2 16 3 24 4 2 5 25 6 1 7 32 8 26 9 30 10 27 11 29 12
REMARK SMILES IDX 17 13 18 14 19 15 20 16 23 17 22 18 21 19 31 21 28 23 5 25
REMARK SMILES IDX 14 26 6 27 12 28 7 29 10 30 15 31 13 33 8 35 9 36 11 38
REMARK H PARENT 21 20 31 22 28 24 15 32 13 34 9 37 11 39
REMARK Flexibility Score: inf
ROOT
ATOM      1  O   UNL     1      54.449   5.214  80.481  1.00  0.00    -0.454 OA
ENDROOT
BRANCH   1   2
ATOM      2  C   UNL     1      54.380   6.079  79.373  1.00  0.00     0.214 A 
ATOM      3  C   UNL     1      53.474   5.783  78.339  1.00  0.00     0.180 A 
ATOM      4  O   UNL     1      53.439   6.538  77.248  1.00  0.00    -0.452 OA
ATOM      5  C   UNL     1      55.200   7.220  79.244  1.00  0.00     0.239 A 
ATOM      6  C   UNL     1      54.193   7.616  77.081  1.00  0.00     0.146 A 
ATOM      7  O   UNL     1      56.034   7.483  80.145  1.00  0.00    -0.285 OA
ATOM      8  C   UNL     1      55.088   8.043  78.096  1.00  0.00     0.111 A 
ATOM      9  C   UNL     1      54.092   8.320  75.879  1.00  0.00     0.094 A 
ATOM     10  C   UNL     1      55.838   9.239  77.880  1.00  0.00     0.134 A 
ATOM     11  C   UNL     1      54.874   9.450  75.655  1.00  0.00     0.123 A 
ATOM     12  C   UNL     1      55.742   9.902  76.650  1.00  0.00     0.093 A 
BRANCH   3  13
ATOM     13  C   UNL     1      52.583   4.606  78.397  1.00  0.00     0.021 A 
ATOM     14  C   UNL     1      52.952   3.424  77.735  1.00  0.00     0.016 A 
ATOM     15  C   UNL     1      52.121   2.300  77.778  1.00  0.00     0.047 A 
ATOM     16  C   UNL     1      50.905   2.350  78.472  1.00  0.00     0.115 A 
ATOM     17  C   UNL     1      51.351   4.656  79.071  1.00  0.00     0.016 A 
ATOM     18  C   UNL     1      50.522   3.532  79.114  1.00  0.00     0.047 A 
BRANCH  16  19
ATOM     19  O   UNL     1      50.071   1.236  78.525  1.00  0.00    -0.508 OA
ATOM     20  H   UNL     1      49.715   0.801  77.682  1.00  0.00     0.293 HD
ENDBRANCH  16  19
ENDBRANCH   3  13
BRANCH  10  21
ATOM     21  O   UNL     1      56.663   9.829  78.842  1.00  0.00    -0.507 OA
ATOM     22  H   UNL     1      56.591  10.786  79.153  1.00  0.00     0.293 HD
ENDBRANCH  10  21
BRANCH  11  23
ATOM     23  O   UNL     1      54.772  10.125  74.439  1.00  0.00    -0.508 OA
ATOM     24  H   UNL     1      54.233   9.748  73.668  1.00  0.00     0.293 HD
ENDBRANCH  11  23
ENDBRANCH   1   2
BRANCH   1  25
ATOM     25  C   UNL     1      55.340   4.103  80.608  1.00  0.00     0.339 C 
ATOM     26  C   UNL     1      54.695   2.975  81.429  1.00  0.00     0.214 C 
ATOM     27  O   UNL     1      56.603   4.488  81.127  1.00  0.00    -0.332 OA
ATOM     28  C   UNL     1      54.521   3.394  82.890  1.00  0.00     0.180 C 
ATOM     29  C   UNL     1      56.588   4.897  82.490  1.00  0.00     0.179 C 
ATOM     30  C   UNL     1      55.854   3.925  83.458  1.00  0.00     0.177 C 
BRANCH  26  31
ATOM     31  O   UNL     1      53.446   2.628  80.887  1.00  0.00    -0.384 OA
ATOM     32  H   UNL     1      53.621   2.237  79.991  1.00  0.00     0.211 HD
ENDBRANCH  26  31
BRANCH  28  33
ATOM     33  O   UNL     1      53.503   4.352  83.003  1.00  0.00    -0.387 OA
ATOM     34  H   UNL     1      53.937   5.207  83.258  1.00  0.00     0.211 HD
ENDBRANCH  28  33
BRANCH  29  35
ATOM     35  C   UNL     1      56.256   6.398  82.660  1.00  0.00     0.191 C 
BRANCH  35  36
ATOM     36  O   UNL     1      54.932   6.617  83.059  1.00  0.00    -0.394 OA
ATOM     37  H   UNL     1      54.354   6.398  82.282  1.00  0.00     0.210 HD
ENDBRANCH  35  36
ENDBRANCH  29  35
BRANCH  30  38
ATOM     38  O   UNL     1      56.704   2.835  83.723  1.00  0.00    -0.387 OA
ATOM     39  H   UNL     1      56.839   2.803  84.705  1.00  0.00     0.211 HD
ENDBRANCH  30  38
ENDBRANCH   1  25
TORSDOF 11
ENDMDL
MODEL 6
REMARK VINA RESULT:    -5.992      2.205      5.860
REMARK INTER + INTRA:         -10.378
REMARK INTER:                  -8.693
REMARK INTRA:                  -1.684
REMARK UNBOUND:                -1.758
REMARK SMILES O=c1c(O[C@H]2O[C@@H](CO)[C@H](O)[C@@H](O)[C@H]2O)c(-c2ccc(O)cc2)oc2cc(O)cc(O)c12
REMARK SMILES IDX 4 1 3 2 16 3 24 4 2 5 25 6 1 7 32 8 26 9 30 10 27 11 29 12
REMARK SMILES IDX 17 13 18 14 19 15 20 16 23 17 22 18 21 19 31 21 28 23 5 25
REMARK SMILES IDX 14 26 6 27 12 28 7 29 10 30 15 31 13 33 8 35 9 36 11 38
REMARK H PARENT 21 20 31 22 28 24 15 32 13 34 9 37 11 39
REMARK Flexibility Score: inf
ROOT
ATOM      1  O   UNL     1      54.191   4.909  80.036  1.00  0.00    -0.454 OA
ENDROOT
BRANCH   1   2
ATOM      2  C   UNL     1      55.311   5.602  80.531  1.00  0.00     0.214 A 
ATOM      3  C   UNL     1      55.723   6.777  79.877  1.00  0.00     0.180 A 
ATOM      4  O   UNL     1      56.820   7.410  80.274  1.00  0.00    -0.452 OA
ATOM      5  C   UNL     1      56.054   5.154  81.643  1.00  0.00     0.239 A 
ATOM      6  C   UNL     1      57.552   7.024  81.311  1.00  0.00     0.146 A 
ATOM      7  O   UNL     1      55.716   4.091  82.222  1.00  0.00    -0.285 OA
ATOM      8  C   UNL     1      57.181   5.893  82.083  1.00  0.00     0.111 A 
ATOM      9  C   UNL     1      58.701   7.752  81.622  1.00  0.00     0.094 A 
ATOM     10  C   UNL     1      57.979   5.555  83.218  1.00  0.00     0.134 A 
ATOM     11  C   UNL     1      59.507   7.376  82.694  1.00  0.00     0.123 A 
ATOM     12  C   UNL     1      59.147   6.281  83.482  1.00  0.00     0.093 A 
BRANCH   3  13
ATOM     13  C   UNL     1      55.001   7.309  78.704  1.00  0.00     0.021 A 
ATOM     14  C   UNL     1      55.209   6.732  77.440  1.00  0.00     0.016 A 
ATOM     15  C   UNL     1      54.536   7.225  76.318  1.00  0.00     0.047 A 
ATOM     16  C   UNL     1      53.656   8.308  76.445  1.00  0.00     0.115 A 
ATOM     17  C   UNL     1      54.136   8.411  78.818  1.00  0.00     0.016 A 
ATOM     18  C   UNL     1      53.463   8.901  77.696  1.00  0.00     0.047 A 
BRANCH  16  19
ATOM     19  O   UNL     1      52.977   8.804  75.335  1.00  0.00    -0.508 OA
ATOM     20  H   UNL     1      51.967   8.882  75.323  1.00  0.00     0.293 HD
ENDBRANCH  16  19
ENDBRANCH   3  13
BRANCH  10  21
ATOM     21  O   UNL     1      57.659   4.540  84.125  1.00  0.00    -0.507 OA
ATOM     22  H   UNL     1      58.158   3.667  84.212  1.00  0.00     0.293 HD
ENDBRANCH  10  21
BRANCH  11  23
ATOM     23  O   UNL     1      60.663   8.104  82.974  1.00  0.00    -0.508 OA
ATOM     24  H   UNL     1      60.962   8.870  82.381  1.00  0.00     0.293 HD
ENDBRANCH  11  23
ENDBRANCH   1   2
BRANCH   1  25
ATOM     25  C   UNL     1      52.835   5.352  80.136  1.00  0.00     0.339 C 
ATOM     26  C   UNL     1      52.118   4.663  81.308  1.00  0.00     0.214 C 
ATOM     27  O   UNL     1      52.131   5.198  78.914  1.00  0.00    -0.332 OA
ATOM     28  C   UNL     1      51.930   3.170  81.031  1.00  0.00     0.180 C 
ATOM     29  C   UNL     1      51.881   3.850  78.535  1.00  0.00     0.179 C 
ATOM     30  C   UNL     1      51.267   2.959  79.654  1.00  0.00     0.177 C 
BRANCH  26  31
ATOM     31  O   UNL     1      52.848   4.833  82.497  1.00  0.00    -0.384 OA
ATOM     32  H   UNL     1      52.575   4.100  83.108  1.00  0.00     0.211 HD
ENDBRANCH  26  31
BRANCH  28  33
ATOM     33  O   UNL     1      53.162   2.503  81.109  1.00  0.00    -0.387 OA
ATOM     34  H   UNL     1      53.510   2.428  80.183  1.00  0.00     0.211 HD
ENDBRANCH  28  33
BRANCH  29  35
ATOM     35  C   UNL     1      53.050   3.224  77.740  1.00  0.00     0.191 C 
BRANCH  35  36
ATOM     36  O   UNL     1      53.742   2.252  78.471  1.00  0.00    -0.394 OA
ATOM     37  H   UNL     1      53.866   2.610  79.388  1.00  0.00     0.210 HD
ENDBRANCH  35  36
ENDBRANCH  29  35
BRANCH  30  38
ATOM     38  O   UNL     1      49.896   3.258  79.758  1.00  0.00    -0.387 OA
ATOM     39  H   UNL     1      49.496   3.109  78.862  1.00  0.00     0.211 HD
ENDBRANCH  30  38
ENDBRANCH   1  25
TORSDOF 11
ENDMDL
MODEL 7
REMARK VINA RESULT:    -5.763      1.014      2.199
REMARK INTER + INTRA:         -10.049
REMARK INTER:                  -8.671
REMARK INTRA:                  -1.378
REMARK UNBOUND:                -1.758
REMARK SMILES O=c1c(O[C@H]2O[C@@H](CO)[C@H](O)[C@@H](O)[C@H]2O)c(-c2ccc(O)cc2)oc2cc(O)cc(O)c12
REMARK SMILES IDX 4 1 3 2 16 3 24 4 2 5 25 6 1 7 32 8 26 9 30 10 27 11 29 12
REMARK SMILES IDX 17 13 18 14 19 15 20 16 23 17 22 18 21 19 31 21 28 23 5 25
REMARK SMILES IDX 14 26 6 27 12 28 7 29 10 30 15 31 13 33 8 35 9 36 11 38
REMARK H PARENT 21 20 31 22 28 24 15 32 13 34 9 37 11 39
REMARK Flexibility Score: inf
ROOT
ATOM      1  O   UNL     1      56.302   6.345  79.745  1.00  0.00    -0.454 OA
ENDROOT
BRANCH   1   2
ATOM      2  C   UNL     1      55.286   5.548  80.307  1.00  0.00     0.214 A 
ATOM      3  C   UNL     1      53.980   5.660  79.798  1.00  0.00     0.180 A 
ATOM      4  O   UNL     1      52.988   4.978  80.356  1.00  0.00    -0.452 OA
ATOM      5  C   UNL     1      55.518   4.659  81.376  1.00  0.00     0.239 A 
ATOM      6  C   UNL     1      53.157   4.134  81.365  1.00  0.00     0.146 A 
ATOM      7  O   UNL     1      56.674   4.568  81.861  1.00  0.00    -0.285 OA
ATOM      8  C   UNL     1      54.448   3.894  81.904  1.00  0.00     0.111 A 
ATOM      9  C   UNL     1      52.036   3.490  81.891  1.00  0.00     0.094 A 
ATOM     10  C   UNL     1      54.577   2.937  82.956  1.00  0.00     0.134 A 
ATOM     11  C   UNL     1      52.165   2.605  82.959  1.00  0.00     0.123 A 
ATOM     12  C   UNL     1      53.429   2.336  83.487  1.00  0.00     0.093 A 
BRANCH   3  13
ATOM     13  C   UNL     1      53.654   6.571  78.682  1.00  0.00     0.021 A 
ATOM     14  C   UNL     1      52.774   7.644  78.897  1.00  0.00     0.016 A 
ATOM     15  C   UNL     1      52.453   8.516  77.851  1.00  0.00     0.047 A 
ATOM     16  C   UNL     1      52.997   8.315  76.576  1.00  0.00     0.115 A 
ATOM     17  C   UNL     1      54.176   6.362  77.394  1.00  0.00     0.016 A 
ATOM     18  C   UNL     1      53.855   7.235  76.350  1.00  0.00     0.047 A 
BRANCH  16  19
ATOM     19  O   UNL     1      52.688   9.179  75.528  1.00  0.00    -0.508 OA
ATOM     20  H   UNL     1      53.033  10.131  75.506  1.00  0.00     0.293 HD
ENDBRANCH  16  19
ENDBRANCH   3  13
BRANCH  10  21
ATOM     21  O   UNL     1      55.800   2.526  83.493  1.00  0.00    -0.507 OA
ATOM     22  H   UNL     1      56.689   2.599  83.021  1.00  0.00     0.293 HD
ENDBRANCH  10  21
BRANCH  11  23
ATOM     23  O   UNL     1      51.029   1.990  83.483  1.00  0.00    -0.508 OA
ATOM     24  H   UNL     1      51.037   1.556  84.398  1.00  0.00     0.293 HD
ENDBRANCH  11  23
ENDBRANCH   1   2
BRANCH   1  25
ATOM     25  C   UNL     1      56.998   7.394  80.423  1.00  0.00     0.339 C 
ATOM     26  C   UNL     1      57.027   8.672  79.569  1.00  0.00     0.214 C 
ATOM     27  O   UNL     1      58.297   6.996  80.833  1.00  0.00    -0.332 OA
ATOM     28  C   UNL     1      57.899   8.479  78.327  1.00  0.00     0.180 C 
ATOM     29  C   UNL     1      59.219   6.786  79.770  1.00  0.00     0.179 C 
ATOM     30  C   UNL     1      59.288   7.938  78.726  1.00  0.00     0.177 C 
BRANCH  26  31
ATOM     31  O   UNL     1      55.725   9.029  79.179  1.00  0.00    -0.384 OA
ATOM     32  H   UNL     1      55.773   9.961  78.839  1.00  0.00     0.211 HD
ENDBRANCH  26  31
BRANCH  28  33
ATOM     33  O   UNL     1      57.263   7.624  77.414  1.00  0.00    -0.387 OA
ATOM     34  H   UNL     1      57.444   7.983  76.507  1.00  0.00     0.211 HD
ENDBRANCH  28  33
BRANCH  29  35
ATOM     35  C   UNL     1      59.152   5.354  79.192  1.00  0.00     0.191 C 
BRANCH  35  36
ATOM     36  O   UNL     1      58.800   4.399  80.153  1.00  0.00    -0.394 OA
ATOM     37  H   UNL     1      59.166   3.528  79.847  1.00  0.00     0.210 HD
ENDBRANCH  35  36
ENDBRANCH  29  35
BRANCH  30  38
ATOM     38  O   UNL     1      60.048   8.989  79.272  1.00  0.00    -0.387 OA
ATOM     39  H   UNL     1      60.992   8.683  79.296  1.00  0.00     0.211 HD
ENDBRANCH  30  38
ENDBRANCH   1  25
TORSDOF 11
ENDMDL
MODEL 8
REMARK VINA RESULT:    -5.622      2.213      6.119
REMARK INTER + INTRA:          -9.846
REMARK INTER:                  -8.525
REMARK INTRA:                  -1.321
REMARK UNBOUND:                -1.758
REMARK SMILES O=c1c(O[C@H]2O[C@@H](CO)[C@H](O)[C@@H](O)[C@H]2O)c(-c2ccc(O)cc2)oc2cc(O)cc(O)c12
REMARK SMILES IDX 4 1 3 2 16 3 24 4 2 5 25 6 1 7 32 8 26 9 30 10 27 11 29 12
REMARK SMILES IDX 17 13 18 14 19 15 20 16 23 17 22 18 21 19 31 21 28 23 5 25
REMARK SMILES IDX 14 26 6 27 12 28 7 29 10 30 15 31 13 33 8 35 9 36 11 38
REMARK H PARENT 21 20 31 22 28 24 15 32 13 34 9 37 11 39
REMARK Flexibility Score: inf
ROOT
ATOM      1  O   UNL     1      54.072   5.673  79.999  1.00  0.00    -0.454 OA
ENDROOT
BRANCH   1   2
ATOM      2  C   UNL     1      55.267   6.382  80.224  1.00  0.00     0.214 A 
ATOM      3  C   UNL     1      55.573   7.473  79.391  1.00  0.00     0.180 A 
ATOM      4  O   UNL     1      56.727   8.113  79.530  1.00  0.00    -0.452 OA
ATOM      5  C   UNL     1      56.184   6.029  81.236  1.00  0.00     0.239 A 
ATOM      6  C   UNL     1      57.621   7.815  80.464  1.00  0.00     0.146 A 
ATOM      7  O   UNL     1      55.939   5.040  81.970  1.00  0.00    -0.285 OA
ATOM      8  C   UNL     1      57.375   6.778  81.401  1.00  0.00     0.111 A 
ATOM      9  C   UNL     1      58.813   8.540  80.500  1.00  0.00     0.094 A 
ATOM     10  C   UNL     1      58.352   6.535  82.415  1.00  0.00     0.134 A 
ATOM     11  C   UNL     1      59.786   8.252  81.455  1.00  0.00     0.123 A 
ATOM     12  C   UNL     1      59.554   7.253  82.402  1.00  0.00     0.093 A 
BRANCH   3  13
ATOM     13  C   UNL     1      54.668   7.903  78.306  1.00  0.00     0.021 A 
ATOM     14  C   UNL     1      55.088   7.800  76.970  1.00  0.00     0.016 A 
ATOM     15  C   UNL     1      54.244   8.204  75.930  1.00  0.00     0.047 A 
ATOM     16  C   UNL     1      52.976   8.728  76.216  1.00  0.00     0.115 A 
ATOM     17  C   UNL     1      53.405   8.452  78.585  1.00  0.00     0.016 A 
ATOM     18  C   UNL     1      52.563   8.854  77.545  1.00  0.00     0.047 A 
BRANCH  16  19
ATOM     19  O   UNL     1      52.126   9.130  75.188  1.00  0.00    -0.508 OA
ATOM     20  H   UNL     1      52.475   9.623  74.375  1.00  0.00     0.293 HD
ENDBRANCH  16  19
ENDBRANCH   3  13
BRANCH  10  21
ATOM     21  O   UNL     1      58.180   5.627  83.463  1.00  0.00    -0.507 OA
ATOM     22  H   UNL     1      58.657   4.740  83.541  1.00  0.00     0.293 HD
ENDBRANCH  10  21
BRANCH  11  23
ATOM     23  O   UNL     1      60.979   8.974  81.460  1.00  0.00    -0.508 OA
ATOM     24  H   UNL     1      61.320   9.436  80.625  1.00  0.00     0.293 HD
ENDBRANCH  11  23
ENDBRANCH   1   2
BRANCH   1  25
ATOM     25  C   UNL     1      53.986   4.336  79.498  1.00  0.00     0.339 C 
ATOM     26  C   UNL     1      52.961   4.245  78.356  1.00  0.00     0.214 C 
ATOM     27  O   UNL     1      53.727   3.395  80.527  1.00  0.00    -0.332 OA
ATOM     28  C   UNL     1      51.540   4.465  78.880  1.00  0.00     0.180 C 
ATOM     29  C   UNL     1      52.429   3.484  81.103  1.00  0.00     0.179 C 
ATOM     30  C   UNL     1      51.260   3.533  80.077  1.00  0.00     0.177 C 
BRANCH  26  31
ATOM     31  O   UNL     1      53.248   5.194  77.362  1.00  0.00    -0.384 OA
ATOM     32  H   UNL     1      54.122   4.939  76.966  1.00  0.00     0.211 HD
ENDBRANCH  26  31
BRANCH  28  33
ATOM     33  O   UNL     1      51.355   5.811  79.229  1.00  0.00    -0.387 OA
ATOM     34  H   UNL     1      50.997   5.824  80.155  1.00  0.00     0.211 HD
ENDBRANCH  28  33
BRANCH  29  35
ATOM     35  C   UNL     1      52.356   4.508  82.259  1.00  0.00     0.191 C 
BRANCH  35  36
ATOM     36  O   UNL     1      53.516   4.522  83.043  1.00  0.00    -0.394 OA
ATOM     37  H   UNL     1      54.141   3.857  82.651  1.00  0.00     0.210 HD
ENDBRANCH  35  36
ENDBRANCH  29  35
BRANCH  30  38
ATOM     38  O   UNL     1      51.033   2.230  79.598  1.00  0.00    -0.387 OA
ATOM     39  H   UNL     1      50.128   1.961  79.902  1.00  0.00     0.211 HD
ENDBRANCH  30  38
ENDBRANCH   1  25
TORSDOF 11
ENDMDL
MODEL 9
REMARK VINA RESULT:    -5.458      2.397      5.574
REMARK INTER + INTRA:          -9.610
REMARK INTER:                  -8.807
REMARK INTRA:                  -0.803
REMARK UNBOUND:                -1.758
REMARK SMILES O=c1c(O[C@H]2O[C@@H](CO)[C@H](O)[C@@H](O)[C@H]2O)c(-c2ccc(O)cc2)oc2cc(O)cc(O)c12
REMARK SMILES IDX 4 1 3 2 16 3 24 4 2 5 25 6 1 7 32 8 26 9 30 10 27 11 29 12
REMARK SMILES IDX 17 13 18 14 19 15 20 16 23 17 22 18 21 19 31 21 28 23 5 25
REMARK SMILES IDX 14 26 6 27 12 28 7 29 10 30 15 31 13 33 8 35 9 36 11 38
REMARK H PARENT 21 20 31 22 28 24 15 32 13 34 9 37 11 39
REMARK Flexibility Score: inf
ROOT
ATOM      1  O   UNL     1      54.603   4.455  79.616  1.00  0.00    -0.454 OA
ENDROOT
BRANCH   1   2
ATOM      2  C   UNL     1      55.598   5.103  80.370  1.00  0.00     0.214 A 
ATOM      3  C   UNL     1      56.050   6.367  79.951  1.00  0.00     0.180 A 
ATOM      4  O   UNL     1      57.040   6.969  80.599  1.00  0.00    -0.452 OA
ATOM      5  C   UNL     1      56.180   4.527  81.519  1.00  0.00     0.239 A 
ATOM      6  C   UNL     1      57.620   6.464  81.680  1.00  0.00     0.146 A 
ATOM      7  O   UNL     1      55.807   3.387  81.891  1.00  0.00    -0.285 OA
ATOM      8  C   UNL     1      57.187   5.228  82.228  1.00  0.00     0.111 A 
ATOM      9  C   UNL     1      58.670   7.173  82.265  1.00  0.00     0.094 A 
ATOM     10  C   UNL     1      57.815   4.759  83.422  1.00  0.00     0.134 A 
ATOM     11  C   UNL     1      59.317   6.675  83.393  1.00  0.00     0.123 A 
ATOM     12  C   UNL     1      58.891   5.474  83.963  1.00  0.00     0.093 A 
BRANCH   3  13
ATOM     13  C   UNL     1      55.495   7.036  78.757  1.00  0.00     0.021 A 
ATOM     14  C   UNL     1      55.686   6.463  77.489  1.00  0.00     0.016 A 
ATOM     15  C   UNL     1      55.168   7.084  76.347  1.00  0.00     0.047 A 
ATOM     16  C   UNL     1      54.466   8.291  76.459  1.00  0.00     0.115 A 
ATOM     17  C   UNL     1      54.810   8.260  78.859  1.00  0.00     0.016 A 
ATOM     18  C   UNL     1      54.293   8.877  77.717  1.00  0.00     0.047 A 
BRANCH  16  19
ATOM     19  O   UNL     1      53.943   8.916  75.330  1.00  0.00    -0.508 OA
ATOM     20  H   UNL     1      54.543   9.361  74.645  1.00  0.00     0.293 HD
ENDBRANCH  16  19
ENDBRANCH   3  13
BRANCH  10  21
ATOM     21  O   UNL     1      57.406   3.622  84.124  1.00  0.00    -0.507 OA
ATOM     22  H   UNL     1      57.495   2.675  83.787  1.00  0.00     0.293 HD
ENDBRANCH  10  21
BRANCH  11  23
ATOM     23  O   UNL     1      60.378   7.389  83.948  1.00  0.00    -0.508 OA
ATOM     24  H   UNL     1      60.406   7.612  84.936  1.00  0.00     0.293 HD
ENDBRANCH  11  23
ENDBRANCH   1   2
BRANCH   1  25
ATOM     25  C   UNL     1      53.765   3.397  80.088  1.00  0.00     0.339 C 
ATOM     26  C   UNL     1      53.217   2.569  78.915  1.00  0.00     0.214 C 
ATOM     27  O   UNL     1      52.732   3.872  80.936  1.00  0.00    -0.332 OA
ATOM     28  C   UNL     1      52.230   3.388  78.081  1.00  0.00     0.180 C 
ATOM     29  C   UNL     1      51.735   4.650  80.285  1.00  0.00     0.179 C 
ATOM     30  C   UNL     1      51.152   4.015  78.989  1.00  0.00     0.177 C 
BRANCH  26  31
ATOM     31  O   UNL     1      54.268   2.123  78.097  1.00  0.00    -0.384 OA
ATOM     32  H   UNL     1      54.913   1.654  78.688  1.00  0.00     0.211 HD
ENDBRANCH  26  31
BRANCH  28  33
ATOM     33  O   UNL     1      52.913   4.372  77.349  1.00  0.00    -0.387 OA
ATOM     34  H   UNL     1      53.742   4.583  77.852  1.00  0.00     0.211 HD
ENDBRANCH  28  33
BRANCH  29  35
ATOM     35  C   UNL     1      52.110   6.148  80.193  1.00  0.00     0.191 C 
BRANCH  35  36
ATOM     36  O   UNL     1      51.621   6.757  79.031  1.00  0.00    -0.394 OA
ATOM     37  H   UNL     1      50.776   7.217  79.276  1.00  0.00     0.210 HD
ENDBRANCH  35  36
ENDBRANCH  29  35
BRANCH  30  38
ATOM     38  O   UNL     1      50.230   3.018  79.358  1.00  0.00    -0.387 OA
ATOM     39  H   UNL     1      49.911   3.241  80.271  1.00  0.00     0.211 HD
ENDBRANCH  30  38
ENDBRANCH   1  25
TORSDOF 11
ENDMDL
