MODEL 1
REMARK VINA RESULT:    -6.518      0.000      0.000
REMARK INTER + INTRA:          -8.277
REMARK INTER:                  -8.043
REMARK INTRA:                  -0.234
REMARK UNBOUND:                -0.234
REMARK SMILES Oc1cc(O)c2cc(O)c(-c3cc(O)c(O)c(O)c3)[o+]c2c1
REMARK SMILES IDX 10 1 20 2 21 3 22 4 2 5 3 6 4 7 6 8 7 9 8 10 11 11 12 12
REMARK SMILES IDX 13 13 19 14 15 15 17 16 14 17 16 19 18 21 9 23 1 25 5 27
REMARK H PARENT 14 18 16 20 18 22 9 24 1 26 5 28
REMARK Flexibility Score: inf
ROOT
ATOM      1  C   UNL     1      29.831 -22.989 -33.222  1.00  0.00     0.402 A 
ATOM      2  O   UNL     1      29.275 -22.219 -32.288  1.00  0.00    -0.202 OA
ATOM      3  C   UNL     1      29.696 -22.187 -31.027  1.00  0.00     0.368 A 
ATOM      4  C   UNL     1      29.061 -21.347 -30.107  1.00  0.00     0.162 A 
ATOM      5  C   UNL     1      29.495 -21.300 -28.779  1.00  0.00     0.128 A 
ATOM      6  C   UNL     1      30.572 -22.098 -28.367  1.00  0.00     0.093 A 
ATOM      7  C   UNL     1      31.217 -22.947 -29.278  1.00  0.00     0.136 A 
ATOM      8  C   UNL     1      30.779 -22.993 -30.616  1.00  0.00     0.125 A 
ATOM      9  C   UNL     1      31.381 -23.825 -31.566  1.00  0.00     0.078 A 
ATOM     10  C   UNL     1      30.903 -23.838 -32.880  1.00  0.00     0.223 A 
ENDROOT
BRANCH   1  11
ATOM     11  C   UNL     1      29.280 -22.932 -34.596  1.00  0.00     0.091 A 
ATOM     12  C   UNL     1      28.609 -24.048 -35.116  1.00  0.00     0.068 A 
ATOM     13  C   UNL     1      28.058 -24.024 -36.402  1.00  0.00     0.162 A 
ATOM     14  C   UNL     1      29.366 -21.766 -35.370  1.00  0.00     0.068 A 
ATOM     15  C   UNL     1      28.168 -22.850 -37.186  1.00  0.00     0.200 A 
ATOM     16  C   UNL     1      28.819 -21.725 -36.659  1.00  0.00     0.162 A 
BRANCH  13  17
ATOM     17  O   UNL     1      27.416 -25.176 -36.857  1.00  0.00    -0.504 OA
ATOM     18  H   UNL     1      27.301 -25.414 -37.831  1.00  0.00     0.293 HD
ENDBRANCH  13  17
BRANCH  15  19
ATOM     19  O   UNL     1      27.647 -22.760 -38.479  1.00  0.00    -0.502 OA
ATOM     20  H   UNL     1      26.889 -22.147 -38.743  1.00  0.00     0.293 HD
ENDBRANCH  15  19
BRANCH  16  21
ATOM     21  O   UNL     1      28.914 -20.564 -37.424  1.00  0.00    -0.504 OA
ATOM     22  H   UNL     1      28.093 -20.122 -37.822  1.00  0.00     0.293 HD
ENDBRANCH  16  21
ENDBRANCH   1  11
BRANCH  10  23
ATOM     23  O   UNL     1      31.465 -24.702 -33.819  1.00  0.00    -0.500 OA
ATOM     24  H   UNL     1      32.019 -25.504 -33.540  1.00  0.00     0.294 HD
ENDBRANCH  10  23
BRANCH   5  25
ATOM     25  O   UNL     1      28.851 -20.457 -27.876  1.00  0.00    -0.507 OA
ATOM     26  H   UNL     1      28.260 -19.696 -28.192  1.00  0.00     0.293 HD
ENDBRANCH   5  25
BRANCH   7  27
ATOM     27  O   UNL     1      32.286 -23.737 -28.857  1.00  0.00    -0.507 OA
ATOM     28  H   UNL     1      32.140 -24.602 -28.348  1.00  0.00     0.293 HD
ENDBRANCH   7  27
TORSDOF 7
ENDMDL
MODEL 2
REMARK VINA RESULT:    -6.510      0.136      1.803
REMARK INTER + INTRA:          -8.266
REMARK INTER:                  -7.999
REMARK INTRA:                  -0.267
REMARK UNBOUND:                -0.234
REMARK SMILES Oc1cc(O)c2cc(O)c(-c3cc(O)c(O)c(O)c3)[o+]c2c1
REMARK SMILES IDX 10 1 20 2 21 3 22 4 2 5 3 6 4 7 6 8 7 9 8 10 11 11 12 12
REMARK SMILES IDX 13 13 19 14 15 15 17 16 14 17 16 19 18 21 9 23 1 25 5 27
REMARK H PARENT 14 18 16 20 18 22 9 24 1 26 5 28
REMARK Flexibility Score: inf
ROOT
ATOM      1  C   UNL     1      29.742 -22.902 -33.166  1.00  0.00     0.402 A 
ATOM      2  O   UNL     1      29.179 -22.143 -32.226  1.00  0.00    -0.202 OA
ATOM      3  C   UNL     1      29.617 -22.095 -30.972  1.00  0.00     0.368 A 
ATOM      4  C   UNL     1      28.974 -21.268 -30.046  1.00  0.00     0.162 A 
ATOM      5  C   UNL     1      29.425 -21.205 -28.724  1.00  0.00     0.128 A 
ATOM      6  C   UNL     1      30.528 -21.972 -28.325  1.00  0.00     0.093 A 
ATOM      7  C   UNL     1      31.183 -22.807 -29.242  1.00  0.00     0.136 A 
ATOM      8  C   UNL     1      30.727 -22.870 -30.573  1.00  0.00     0.125 A 
ATOM      9  C   UNL     1      31.337 -23.690 -31.529  1.00  0.00     0.078 A 
ATOM     10  C   UNL     1      30.841 -23.721 -32.836  1.00  0.00     0.223 A 
ENDROOT
BRANCH   1  11
ATOM     11  C   UNL     1      29.171 -22.865 -34.532  1.00  0.00     0.091 A 
ATOM     12  C   UNL     1      29.356 -21.723 -35.325  1.00  0.00     0.068 A 
ATOM     13  C   UNL     1      28.848 -21.660 -36.628  1.00  0.00     0.162 A 
ATOM     14  C   UNL     1      28.496 -23.969 -35.072  1.00  0.00     0.068 A 
ATOM     15  C   UNL     1      28.148 -22.770 -37.158  1.00  0.00     0.200 A 
ATOM     16  C   UNL     1      27.983 -23.921 -36.375  1.00  0.00     0.162 A 
BRANCH  13  17
ATOM     17  O   UNL     1      29.060 -20.486 -37.353  1.00  0.00    -0.504 OA
ATOM     18  H   UNL     1      28.627 -19.600 -37.135  1.00  0.00     0.293 HD
ENDBRANCH  13  17
BRANCH  15  19
ATOM     19  O   UNL     1      27.610 -22.771 -38.448  1.00  0.00    -0.502 OA
ATOM     20  H   UNL     1      26.736 -23.210 -38.697  1.00  0.00     0.293 HD
ENDBRANCH  15  19
BRANCH  16  21
ATOM     21  O   UNL     1      27.308 -25.021 -36.902  1.00  0.00    -0.504 OA
ATOM     22  H   UNL     1      26.411 -25.318 -36.537  1.00  0.00     0.293 HD
ENDBRANCH  16  21
ENDBRANCH   1  11
BRANCH  10  23
ATOM     23  O   UNL     1      31.412 -24.574 -33.780  1.00  0.00    -0.500 OA
ATOM     24  H   UNL     1      32.368 -24.900 -33.693  1.00  0.00     0.294 HD
ENDBRANCH  10  23
BRANCH   5  25
ATOM     25  O   UNL     1      28.772 -20.375 -27.816  1.00  0.00    -0.507 OA
ATOM     26  H   UNL     1      27.969 -20.697 -27.287  1.00  0.00     0.293 HD
ENDBRANCH   5  25
BRANCH   7  27
ATOM     27  O   UNL     1      32.278 -23.567 -28.833  1.00  0.00    -0.507 OA
ATOM     28  H   UNL     1      33.230 -23.265 -29.008  1.00  0.00     0.293 HD
ENDBRANCH   7  27
TORSDOF 7
ENDMDL
MODEL 3
REMARK VINA RESULT:    -6.392      1.702      7.282
REMARK INTER + INTRA:          -8.121
REMARK INTER:                  -7.756
REMARK INTRA:                  -0.365
REMARK UNBOUND:                -0.234
REMARK SMILES Oc1cc(O)c2cc(O)c(-c3cc(O)c(O)c(O)c3)[o+]c2c1
REMARK SMILES IDX 10 1 20 2 21 3 22 4 2 5 3 6 4 7 6 8 7 9 8 10 11 11 12 12
REMARK SMILES IDX 13 13 19 14 15 15 17 16 14 17 16 19 18 21 9 23 1 25 5 27
REMARK H PARENT 14 18 16 20 18 22 9 24 1 26 5 28
REMARK Flexibility Score: inf
ROOT
ATOM      1  C   UNL     1      28.434 -22.413 -31.858  1.00  0.00     0.402 A 
ATOM      2  O   UNL     1      28.991 -21.897 -32.953  1.00  0.00    -0.202 OA
ATOM      3  C   UNL     1      28.422 -21.952 -34.153  1.00  0.00     0.368 A 
ATOM      4  C   UNL     1      29.070 -21.381 -35.253  1.00  0.00     0.162 A 
ATOM      5  C   UNL     1      28.482 -21.429 -36.521  1.00  0.00     0.128 A 
ATOM      6  C   UNL     1      27.237 -22.051 -36.691  1.00  0.00     0.093 A 
ATOM      7  C   UNL     1      26.576 -22.629 -35.598  1.00  0.00     0.136 A 
ATOM      8  C   UNL     1      27.170 -22.581 -34.321  1.00  0.00     0.125 A 
ATOM      9  C   UNL     1      26.559 -23.147 -33.196  1.00  0.00     0.078 A 
ATOM     10  C   UNL     1      27.194 -23.077 -31.953  1.00  0.00     0.223 A 
ENDROOT
BRANCH   1  11
ATOM     11  C   UNL     1      29.160 -22.281 -30.574  1.00  0.00     0.091 A 
ATOM     12  C   UNL     1      30.265 -23.106 -30.320  1.00  0.00     0.068 A 
ATOM     13  C   UNL     1      30.988 -22.996 -29.126  1.00  0.00     0.162 A 
ATOM     14  C   UNL     1      28.801 -21.310 -29.628  1.00  0.00     0.068 A 
ATOM     15  C   UNL     1      30.605 -22.028 -28.166  1.00  0.00     0.200 A 
ATOM     16  C   UNL     1      29.515 -21.187 -28.429  1.00  0.00     0.162 A 
BRANCH  13  17
ATOM     17  O   UNL     1      32.068 -23.859 -28.938  1.00  0.00    -0.504 OA
ATOM     18  H   UNL     1      33.029 -23.556 -28.862  1.00  0.00     0.293 HD
ENDBRANCH  13  17
BRANCH  15  19
ATOM     19  O   UNL     1      31.279 -21.869 -26.952  1.00  0.00    -0.502 OA
ATOM     20  H   UNL     1      30.901 -21.380 -26.154  1.00  0.00     0.293 HD
ENDBRANCH  15  19
BRANCH  16  21
ATOM     21  O   UNL     1      29.148 -20.223 -27.491  1.00  0.00    -0.504 OA
ATOM     22  H   UNL     1      28.240 -19.774 -27.519  1.00  0.00     0.293 HD
ENDBRANCH  16  21
ENDBRANCH   1  11
BRANCH  10  23
ATOM     23  O   UNL     1      26.615 -23.683 -30.838  1.00  0.00    -0.500 OA
ATOM     24  H   UNL     1      25.898 -24.394 -30.931  1.00  0.00     0.294 HD
ENDBRANCH  10  23
BRANCH   5  25
ATOM     25  O   UNL     1      29.142 -20.854 -37.604  1.00  0.00    -0.507 OA
ATOM     26  H   UNL     1      30.079 -20.478 -37.515  1.00  0.00     0.293 HD
ENDBRANCH   5  25
BRANCH   7  27
ATOM     27  O   UNL     1      25.339 -23.247 -35.779  1.00  0.00    -0.507 OA
ATOM     28  H   UNL     1      25.234 -24.254 -35.723  1.00  0.00     0.293 HD
ENDBRANCH   7  27
TORSDOF 7
ENDMDL
MODEL 4
REMARK VINA RESULT:    -6.271      2.462      3.583
REMARK INTER + INTRA:          -7.972
REMARK INTER:                  -7.977
REMARK INTRA:                   0.005
REMARK UNBOUND:                -0.234
REMARK SMILES Oc1cc(O)c2cc(O)c(-c3cc(O)c(O)c(O)c3)[o+]c2c1
REMARK SMILES IDX 10 1 20 2 21 3 22 4 2 5 3 6 4 7 6 8 7 9 8 10 11 11 12 12
REMARK SMILES IDX 13 13 19 14 15 15 17 16 14 17 16 19 18 21 9 23 1 25 5 27
REMARK H PARENT 14 18 16 20 18 22 9 24 1 26 5 28
REMARK Flexibility Score: inf
ROOT
ATOM      1  C   UNL     1      28.419 -22.059 -31.502  1.00  0.00     0.402 A 
ATOM      2  O   UNL     1      28.113 -23.206 -30.897  1.00  0.00    -0.202 OA
ATOM      3  C   UNL     1      28.267 -23.403 -29.591  1.00  0.00     0.368 A 
ATOM      4  C   UNL     1      27.918 -24.636 -29.031  1.00  0.00     0.162 A 
ATOM      5  C   UNL     1      28.071 -24.856 -27.659  1.00  0.00     0.128 A 
ATOM      6  C   UNL     1      28.577 -23.838 -26.840  1.00  0.00     0.093 A 
ATOM      7  C   UNL     1      28.934 -22.597 -27.388  1.00  0.00     0.136 A 
ATOM      8  C   UNL     1      28.779 -22.376 -28.770  1.00  0.00     0.125 A 
ATOM      9  C   UNL     1      29.123 -21.160 -29.371  1.00  0.00     0.078 A 
ATOM     10  C   UNL     1      28.956 -20.995 -30.749  1.00  0.00     0.223 A 
ENDROOT
BRANCH   1  11
ATOM     11  C   UNL     1      28.194 -21.955 -32.962  1.00  0.00     0.091 A 
ATOM     12  C   UNL     1      29.220 -21.464 -33.783  1.00  0.00     0.068 A 
ATOM     13  C   UNL     1      29.051 -21.371 -35.170  1.00  0.00     0.162 A 
ATOM     14  C   UNL     1      26.998 -22.390 -33.550  1.00  0.00     0.068 A 
ATOM     15  C   UNL     1      27.832 -21.790 -35.754  1.00  0.00     0.200 A 
ATOM     16  C   UNL     1      26.815 -22.304 -34.936  1.00  0.00     0.162 A 
BRANCH  13  17
ATOM     17  O   UNL     1      30.111 -20.860 -35.921  1.00  0.00    -0.504 OA
ATOM     18  H   UNL     1      30.256 -19.877 -36.101  1.00  0.00     0.293 HD
ENDBRANCH  13  17
BRANCH  15  19
ATOM     19  O   UNL     1      27.595 -21.719 -37.129  1.00  0.00    -0.502 OA
ATOM     20  H   UNL     1      27.290 -22.499 -37.692  1.00  0.00     0.293 HD
ENDBRANCH  15  19
BRANCH  16  21
ATOM     21  O   UNL     1      25.620 -22.732 -35.513  1.00  0.00    -0.504 OA
ATOM     22  H   UNL     1      24.813 -22.123 -35.577  1.00  0.00     0.293 HD
ENDBRANCH  16  21
ENDBRANCH   1  11
BRANCH  10  23
ATOM     23  O   UNL     1      29.346 -19.804 -31.363  1.00  0.00    -0.500 OA
ATOM     24  H   UNL     1      28.669 -19.097 -31.629  1.00  0.00     0.294 HD
ENDBRANCH  10  23
BRANCH   5  25
ATOM     25  O   UNL     1      27.717 -26.091 -27.119  1.00  0.00    -0.507 OA
ATOM     26  H   UNL     1      27.737 -26.938 -27.676  1.00  0.00     0.293 HD
ENDBRANCH   5  25
BRANCH   7  27
ATOM     27  O   UNL     1      29.437 -21.590 -26.563  1.00  0.00    -0.507 OA
ATOM     28  H   UNL     1      28.912 -21.241 -25.770  1.00  0.00     0.293 HD
ENDBRANCH   7  27
TORSDOF 7
ENDMDL
MODEL 5
REMARK VINA RESULT:    -6.210      2.455      3.288
REMARK INTER + INTRA:          -7.897
REMARK INTER:                  -7.876
REMARK INTRA:                  -0.020
REMARK UNBOUND:                -0.234
REMARK SMILES Oc1cc(O)c2cc(O)c(-c3cc(O)c(O)c(O)c3)[o+]c2c1
REMARK SMILES IDX 10 1 20 2 21 3 22 4 2 5 3 6 4 7 6 8 7 9 8 10 11 11 12 12
REMARK SMILES IDX 13 13 19 14 15 15 17 16 14 17 16 19 18 21 9 23 1 25 5 27
REMARK H PARENT 14 18 16 20 18 22 9 24 1 26 5 28
REMARK Flexibility Score: inf
ROOT
ATOM      1  C   UNL     1      28.527 -22.129 -31.467  1.00  0.00     0.402 A 
ATOM      2  O   UNL     1      28.222 -23.283 -30.875  1.00  0.00    -0.202 OA
ATOM      3  C   UNL     1      28.324 -23.476 -29.563  1.00  0.00     0.368 A 
ATOM      4  C   UNL     1      27.979 -24.716 -29.017  1.00  0.00     0.162 A 
ATOM      5  C   UNL     1      28.078 -24.932 -27.639  1.00  0.00     0.128 A 
ATOM      6  C   UNL     1      28.524 -23.901 -26.801  1.00  0.00     0.093 A 
ATOM      7  C   UNL     1      28.876 -22.653 -27.334  1.00  0.00     0.136 A 
ATOM      8  C   UNL     1      28.775 -22.436 -28.722  1.00  0.00     0.125 A 
ATOM      9  C   UNL     1      29.118 -21.213 -29.310  1.00  0.00     0.078 A 
ATOM     10  C   UNL     1      29.007 -21.053 -30.694  1.00  0.00     0.223 A 
ENDROOT
BRANCH   1  11
ATOM     11  C   UNL     1      28.364 -22.032 -32.936  1.00  0.00     0.091 A 
ATOM     12  C   UNL     1      27.151 -22.424 -33.522  1.00  0.00     0.068 A 
ATOM     13  C   UNL     1      26.953 -22.327 -34.904  1.00  0.00     0.162 A 
ATOM     14  C   UNL     1      29.375 -21.502 -33.751  1.00  0.00     0.068 A 
ATOM     15  C   UNL     1      27.987 -21.813 -35.723  1.00  0.00     0.200 A 
ATOM     16  C   UNL     1      29.191 -21.397 -35.135  1.00  0.00     0.162 A 
BRANCH  13  17
ATOM     17  O   UNL     1      25.726 -22.750 -35.417  1.00  0.00    -0.504 OA
ATOM     18  H   UNL     1      25.038 -23.266 -34.887  1.00  0.00     0.293 HD
ENDBRANCH  13  17
BRANCH  15  19
ATOM     19  O   UNL     1      27.858 -21.694 -37.108  1.00  0.00    -0.502 OA
ATOM     20  H   UNL     1      28.087 -22.427 -37.764  1.00  0.00     0.293 HD
ENDBRANCH  15  19
BRANCH  16  21
ATOM     21  O   UNL     1      30.204 -20.875 -35.939  1.00  0.00    -0.504 OA
ATOM     22  H   UNL     1      30.335 -21.184 -36.895  1.00  0.00     0.293 HD
ENDBRANCH  16  21
ENDBRANCH   1  11
BRANCH  10  23
ATOM     23  O   UNL     1      29.395 -19.854 -31.292  1.00  0.00    -0.500 OA
ATOM     24  H   UNL     1      28.830 -19.016 -31.219  1.00  0.00     0.294 HD
ENDBRANCH  10  23
BRANCH   5  25
ATOM     25  O   UNL     1      27.729 -26.174 -27.113  1.00  0.00    -0.507 OA
ATOM     26  H   UNL     1      28.315 -26.644 -26.433  1.00  0.00     0.293 HD
ENDBRANCH   5  25
BRANCH   7  27
ATOM     27  O   UNL     1      29.320 -21.635 -26.490  1.00  0.00    -0.507 OA
ATOM     28  H   UNL     1      28.950 -21.521 -25.554  1.00  0.00     0.293 HD
ENDBRANCH   7  27
TORSDOF 7
ENDMDL
MODEL 6
REMARK VINA RESULT:    -6.086      1.742      3.401
REMARK INTER + INTRA:          -7.743
REMARK INTER:                  -7.358
REMARK INTRA:                  -0.385
REMARK UNBOUND:                -0.234
REMARK SMILES Oc1cc(O)c2cc(O)c(-c3cc(O)c(O)c(O)c3)[o+]c2c1
REMARK SMILES IDX 10 1 20 2 21 3 22 4 2 5 3 6 4 7 6 8 7 9 8 10 11 11 12 12
REMARK SMILES IDX 13 13 19 14 15 15 17 16 14 17 16 19 18 21 9 23 1 25 5 27
REMARK H PARENT 14 18 16 20 18 22 9 24 1 26 5 28
REMARK Flexibility Score: inf
ROOT
ATOM      1  C   UNL     1      29.144 -21.936 -31.927  1.00  0.00     0.402 A 
ATOM      2  O   UNL     1      29.965 -22.930 -31.589  1.00  0.00    -0.202 OA
ATOM      3  C   UNL     1      30.510 -23.044 -30.383  1.00  0.00     0.368 A 
ATOM      4  C   UNL     1      31.359 -24.121 -30.106  1.00  0.00     0.162 A 
ATOM      5  C   UNL     1      31.936 -24.256 -28.840  1.00  0.00     0.128 A 
ATOM      6  C   UNL     1      31.664 -23.310 -27.843  1.00  0.00     0.093 A 
ATOM      7  C   UNL     1      30.816 -22.224 -28.106  1.00  0.00     0.136 A 
ATOM      8  C   UNL     1      30.235 -22.088 -29.381  1.00  0.00     0.125 A 
ATOM      9  C   UNL     1      29.386 -21.022 -29.702  1.00  0.00     0.078 A 
ATOM     10  C   UNL     1      28.841 -20.931 -30.985  1.00  0.00     0.223 A 
ENDROOT
BRANCH   1  11
ATOM     11  C   UNL     1      28.591 -21.920 -33.300  1.00  0.00     0.091 A 
ATOM     12  C   UNL     1      29.341 -21.348 -34.338  1.00  0.00     0.068 A 
ATOM     13  C   UNL     1      28.859 -21.332 -35.652  1.00  0.00     0.162 A 
ATOM     14  C   UNL     1      27.356 -22.514 -33.599  1.00  0.00     0.068 A 
ATOM     15  C   UNL     1      27.601 -21.914 -35.941  1.00  0.00     0.200 A 
ATOM     16  C   UNL     1      26.861 -22.508 -34.909  1.00  0.00     0.162 A 
BRANCH  13  17
ATOM     17  O   UNL     1      29.655 -20.734 -36.630  1.00  0.00    -0.504 OA
ATOM     18  H   UNL     1      30.438 -20.127 -36.430  1.00  0.00     0.293 HD
ENDBRANCH  13  17
BRANCH  15  19
ATOM     19  O   UNL     1      27.060 -21.928 -37.229  1.00  0.00    -0.502 OA
ATOM     20  H   UNL     1      26.103 -22.173 -37.439  1.00  0.00     0.293 HD
ENDBRANCH  15  19
BRANCH  16  21
ATOM     21  O   UNL     1      25.630 -23.096 -35.196  1.00  0.00    -0.504 OA
ATOM     22  H   UNL     1      24.773 -22.769 -34.765  1.00  0.00     0.293 HD
ENDBRANCH  16  21
ENDBRANCH   1  11
BRANCH  10  23
ATOM     23  O   UNL     1      28.036 -19.844 -31.327  1.00  0.00    -0.500 OA
ATOM     24  H   UNL     1      28.294 -18.894 -31.084  1.00  0.00     0.294 HD
ENDBRANCH  10  23
BRANCH   5  25
ATOM     25  O   UNL     1      32.779 -25.335 -28.583  1.00  0.00    -0.507 OA
ATOM     26  H   UNL     1      33.711 -25.385 -28.978  1.00  0.00     0.293 HD
ENDBRANCH   5  25
BRANCH   7  27
ATOM     27  O   UNL     1      30.553 -21.287 -27.106  1.00  0.00    -0.507 OA
ATOM     28  H   UNL     1      29.856 -20.561 -27.228  1.00  0.00     0.293 HD
ENDBRANCH   7  27
TORSDOF 7
ENDMDL
MODEL 7
REMARK VINA RESULT:    -6.085      1.820      7.262
REMARK INTER + INTRA:          -7.742
REMARK INTER:                  -7.382
REMARK INTRA:                  -0.361
REMARK UNBOUND:                -0.234
REMARK SMILES Oc1cc(O)c2cc(O)c(-c3cc(O)c(O)c(O)c3)[o+]c2c1
REMARK SMILES IDX 10 1 20 2 21 3 22 4 2 5 3 6 4 7 6 8 7 9 8 10 11 11 12 12
REMARK SMILES IDX 13 13 19 14 15 15 17 16 14 17 16 19 18 21 9 23 1 25 5 27
REMARK H PARENT 14 18 16 20 18 22 9 24 1 26 5 28
REMARK Flexibility Score: inf
ROOT
ATOM      1  C   UNL     1      29.212 -22.106 -32.087  1.00  0.00     0.402 A 
ATOM      2  O   UNL     1      28.055 -22.514 -32.607  1.00  0.00    -0.202 OA
ATOM      3  C   UNL     1      27.763 -22.410 -33.899  1.00  0.00     0.368 A 
ATOM      4  C   UNL     1      26.527 -22.867 -34.368  1.00  0.00     0.162 A 
ATOM      5  C   UNL     1      26.207 -22.766 -35.725  1.00  0.00     0.128 A 
ATOM      6  C   UNL     1      27.128 -22.207 -36.621  1.00  0.00     0.093 A 
ATOM      7  C   UNL     1      28.371 -21.742 -36.166  1.00  0.00     0.136 A 
ATOM      8  C   UNL     1      28.692 -21.844 -34.798  1.00  0.00     0.125 A 
ATOM      9  C   UNL     1      29.914 -21.392 -34.287  1.00  0.00     0.078 A 
ATOM     10  C   UNL     1      30.181 -21.510 -32.920  1.00  0.00     0.223 A 
ENDROOT
BRANCH   1  11
ATOM     11  C   UNL     1      29.428 -22.284 -30.632  1.00  0.00     0.091 A 
ATOM     12  C   UNL     1      29.162 -21.217 -29.761  1.00  0.00     0.068 A 
ATOM     13  C   UNL     1      29.335 -21.354 -28.379  1.00  0.00     0.162 A 
ATOM     14  C   UNL     1      29.838 -23.514 -30.098  1.00  0.00     0.068 A 
ATOM     15  C   UNL     1      29.772 -22.593 -27.850  1.00  0.00     0.200 A 
ATOM     16  C   UNL     1      30.015 -23.667 -28.717  1.00  0.00     0.162 A 
BRANCH  13  17
ATOM     17  O   UNL     1      29.063 -20.245 -27.576  1.00  0.00    -0.504 OA
ATOM     18  H   UNL     1      29.744 -19.796 -26.981  1.00  0.00     0.293 HD
ENDBRANCH  13  17
BRANCH  15  19
ATOM     19  O   UNL     1      29.969 -22.796 -26.482  1.00  0.00    -0.502 OA
ATOM     20  H   UNL     1      30.645 -22.292 -25.926  1.00  0.00     0.293 HD
ENDBRANCH  15  19
BRANCH  16  21
ATOM     21  O   UNL     1      30.429 -24.892 -28.196  1.00  0.00    -0.504 OA
ATOM     22  H   UNL     1      30.975 -24.948 -27.344  1.00  0.00     0.293 HD
ENDBRANCH  16  21
ENDBRANCH   1  11
BRANCH  10  23
ATOM     23  O   UNL     1      31.374 -21.015 -32.395  1.00  0.00    -0.500 OA
ATOM     24  H   UNL     1      32.222 -20.974 -32.950  1.00  0.00     0.294 HD
ENDBRANCH  10  23
BRANCH   5  25
ATOM     25  O   UNL     1      24.971 -23.227 -36.174  1.00  0.00    -0.507 OA
ATOM     26  H   UNL     1      24.330 -22.622 -36.676  1.00  0.00     0.293 HD
ENDBRANCH   5  25
BRANCH   7  27
ATOM     27  O   UNL     1      29.279 -21.186 -37.066  1.00  0.00    -0.507 OA
ATOM     28  H   UNL     1      29.011 -20.441 -37.699  1.00  0.00     0.293 HD
ENDBRANCH   7  27
TORSDOF 7
ENDMDL
MODEL 8
REMARK VINA RESULT:    -5.948      2.392      3.149
REMARK INTER + INTRA:          -7.573
REMARK INTER:                  -7.681
REMARK INTRA:                   0.107
REMARK UNBOUND:                -0.234
REMARK SMILES Oc1cc(O)c2cc(O)c(-c3cc(O)c(O)c(O)c3)[o+]c2c1
REMARK SMILES IDX 10 1 20 2 21 3 22 4 2 5 3 6 4 7 6 8 7 9 8 10 11 11 12 12
REMARK SMILES IDX 13 13 19 14 15 15 17 16 14 17 16 19 18 21 9 23 1 25 5 27
REMARK H PARENT 14 18 16 20 18 22 9 24 1 26 5 28
REMARK Flexibility Score: inf
ROOT
ATOM      1  C   UNL     1      27.879 -22.802 -31.665  1.00  0.00     0.402 A 
ATOM      2  O   UNL     1      28.475 -21.910 -30.876  1.00  0.00    -0.202 OA
ATOM      3  C   UNL     1      28.630 -22.085 -29.568  1.00  0.00     0.368 A 
ATOM      4  C   UNL     1      29.273 -21.102 -28.809  1.00  0.00     0.162 A 
ATOM      5  C   UNL     1      29.446 -21.274 -27.432  1.00  0.00     0.128 A 
ATOM      6  C   UNL     1      28.974 -22.438 -26.809  1.00  0.00     0.093 A 
ATOM      7  C   UNL     1      28.326 -23.432 -27.557  1.00  0.00     0.136 A 
ATOM      8  C   UNL     1      28.153 -23.257 -28.943  1.00  0.00     0.125 A 
ATOM      9  C   UNL     1      27.508 -24.213 -29.737  1.00  0.00     0.078 A 
ATOM     10  C   UNL     1      27.356 -23.987 -31.108  1.00  0.00     0.223 A 
ENDROOT
BRANCH   1  11
ATOM     11  C   UNL     1      27.773 -22.499 -33.111  1.00  0.00     0.091 A 
ATOM     12  C   UNL     1      28.861 -21.912 -33.773  1.00  0.00     0.068 A 
ATOM     13  C   UNL     1      28.805 -21.630 -35.143  1.00  0.00     0.162 A 
ATOM     14  C   UNL     1      26.629 -22.838 -33.848  1.00  0.00     0.068 A 
ATOM     15  C   UNL     1      27.638 -21.954 -35.875  1.00  0.00     0.200 A 
ATOM     16  C   UNL     1      26.558 -22.563 -35.220  1.00  0.00     0.162 A 
BRANCH  13  17
ATOM     17  O   UNL     1      29.922 -21.033 -35.730  1.00  0.00    -0.504 OA
ATOM     18  H   UNL     1      30.745 -21.539 -36.026  1.00  0.00     0.293 HD
ENDBRANCH  13  17
BRANCH  15  19
ATOM     19  O   UNL     1      27.514 -21.695 -37.242  1.00  0.00    -0.502 OA
ATOM     20  H   UNL     1      26.647 -21.445 -37.695  1.00  0.00     0.293 HD
ENDBRANCH  15  19
BRANCH  16  21
ATOM     21  O   UNL     1      25.415 -22.898 -35.943  1.00  0.00    -0.504 OA
ATOM     22  H   UNL     1      25.356 -22.746 -36.943  1.00  0.00     0.293 HD
ENDBRANCH  16  21
ENDBRANCH   1  11
BRANCH  10  23
ATOM     23  O   UNL     1      26.670 -24.911 -31.897  1.00  0.00    -0.500 OA
ATOM     24  H   UNL     1      27.046 -25.834 -32.083  1.00  0.00     0.294 HD
ENDBRANCH  10  23
BRANCH   5  25
ATOM     25  O   UNL     1      30.089 -20.284 -26.693  1.00  0.00    -0.507 OA
ATOM     26  H   UNL     1      29.923 -19.300 -26.870  1.00  0.00     0.293 HD
ENDBRANCH   5  25
BRANCH   7  27
ATOM     27  O   UNL     1      27.860 -24.585 -26.926  1.00  0.00    -0.507 OA
ATOM     28  H   UNL     1      27.772 -25.464 -27.423  1.00  0.00     0.293 HD
ENDBRANCH   7  27
TORSDOF 7
ENDMDL
MODEL 9
REMARK VINA RESULT:    -5.841      3.609      6.197
REMARK INTER + INTRA:          -7.442
REMARK INTER:                  -7.180
REMARK INTRA:                  -0.262
REMARK UNBOUND:                -0.234
REMARK SMILES Oc1cc(O)c2cc(O)c(-c3cc(O)c(O)c(O)c3)[o+]c2c1
REMARK SMILES IDX 10 1 20 2 21 3 22 4 2 5 3 6 4 7 6 8 7 9 8 10 11 11 12 12
REMARK SMILES IDX 13 13 19 14 15 15 17 16 14 17 16 19 18 21 9 23 1 25 5 27
REMARK H PARENT 14 18 16 20 18 22 9 24 1 26 5 28
REMARK Flexibility Score: inf
ROOT
ATOM      1  C   UNL     1      26.692 -24.660 -35.713  1.00  0.00     0.402 A 
ATOM      2  O   UNL     1      27.034 -23.699 -36.570  1.00  0.00    -0.202 OA
ATOM      3  C   UNL     1      27.946 -22.772 -36.297  1.00  0.00     0.368 A 
ATOM      4  C   UNL     1      28.253 -21.799 -37.254  1.00  0.00     0.162 A 
ATOM      5  C   UNL     1      29.212 -20.819 -36.982  1.00  0.00     0.128 A 
ATOM      6  C   UNL     1      29.871 -20.811 -35.745  1.00  0.00     0.093 A 
ATOM      7  C   UNL     1      29.573 -21.778 -34.774  1.00  0.00     0.136 A 
ATOM      8  C   UNL     1      28.606 -22.765 -35.049  1.00  0.00     0.125 A 
ATOM      9  C   UNL     1      28.264 -23.751 -34.117  1.00  0.00     0.078 A 
ATOM     10  C   UNL     1      27.293 -24.703 -34.438  1.00  0.00     0.223 A 
ENDROOT
BRANCH   1  11
ATOM     11  C   UNL     1      25.669 -25.644 -36.134  1.00  0.00     0.091 A 
ATOM     12  C   UNL     1      26.037 -26.985 -36.315  1.00  0.00     0.068 A 
ATOM     13  C   UNL     1      25.093 -27.947 -36.694  1.00  0.00     0.162 A 
ATOM     14  C   UNL     1      24.326 -25.276 -36.302  1.00  0.00     0.068 A 
ATOM     15  C   UNL     1      23.743 -27.563 -36.884  1.00  0.00     0.200 A 
ATOM     16  C   UNL     1      23.370 -26.227 -36.680  1.00  0.00     0.162 A 
BRANCH  13  17
ATOM     17  O   UNL     1      25.535 -29.259 -36.868  1.00  0.00    -0.504 OA
ATOM     18  H   UNL     1      26.397 -29.622 -36.487  1.00  0.00     0.293 HD
ENDBRANCH  13  17
BRANCH  15  19
ATOM     19  O   UNL     1      22.752 -28.470 -37.267  1.00  0.00    -0.502 OA
ATOM     20  H   UNL     1      21.764 -28.324 -37.122  1.00  0.00     0.293 HD
ENDBRANCH  15  19
BRANCH  16  21
ATOM     21  O   UNL     1      22.038 -25.852 -36.851  1.00  0.00    -0.504 OA
ATOM     22  H   UNL     1      21.533 -26.061 -37.704  1.00  0.00     0.293 HD
ENDBRANCH  16  21
ENDBRANCH   1  11
BRANCH  10  23
ATOM     23  O   UNL     1      26.910 -25.657 -33.495  1.00  0.00    -0.500 OA
ATOM     24  H   UNL     1      26.793 -26.633 -33.743  1.00  0.00     0.294 HD
ENDBRANCH  10  23
BRANCH   5  25
ATOM     25  O   UNL     1      29.505 -19.860 -37.948  1.00  0.00    -0.507 OA
ATOM     26  H   UNL     1      29.561 -18.874 -37.716  1.00  0.00     0.293 HD
ENDBRANCH   5  25
BRANCH   7  27
ATOM     27  O   UNL     1      30.233 -21.760 -33.545  1.00  0.00    -0.507 OA
ATOM     28  H   UNL     1      31.060 -21.193 -33.395  1.00  0.00     0.293 HD
ENDBRANCH   7  27
TORSDOF 7
ENDMDL
