MODEL 1
REMARK VINA RESULT:    -3.990      0.000      0.000
REMARK INTER + INTRA:          -8.769
REMARK INTER:                  -6.789
REMARK INTRA:                  -1.980
REMARK UNBOUND:                -1.980
REMARK SMILES CCCCCCCCCCCCCC(=O)[O-]
REMARK SMILES IDX 8 1 9 2 10 3 11 4 12 5 13 6 14 7 15 8 16 9 7 10 6 11 5 12
REMARK SMILES IDX 4 13 3 14 2 15 1 16
REMARK H PARENT
REMARK Flexibility Score: inf
ROOT
ATOM      1  C   UNL     1     -44.286   9.725   8.180  1.00  0.00     0.000 C 
ENDROOT
BRANCH   1   2
ATOM      2  C   UNL     1     -45.537   8.833   8.109  1.00  0.00     0.000 C 
BRANCH   2   3
ATOM      3  C   UNL     1     -45.469   7.638   9.072  1.00  0.00     0.000 C 
BRANCH   3   4
ATOM      4  C   UNL     1     -45.480   6.311   8.298  1.00  0.00     0.000 C 
BRANCH   4   5
ATOM      5  C   UNL     1     -45.136   6.486   6.808  1.00  0.00     0.006 C 
BRANCH   5   6
ATOM      6  C   UNL     1     -44.421   5.279   6.176  1.00  0.00     0.053 C 
BRANCH   6   7
ATOM      7  C   UNL     1     -43.703   5.648   4.915  1.00  0.00     0.041 C 
ATOM      8  O   UNL     1     -43.071   4.774   4.267  1.00  0.00    -0.550 OA
ATOM      9  O   UNL     1     -43.704   6.965   4.473  1.00  0.00    -0.550 OA
ENDBRANCH   6   7
ENDBRANCH   5   6
ENDBRANCH   4   5
ENDBRANCH   3   4
ENDBRANCH   2   3
ENDBRANCH   1   2
BRANCH   1  10
ATOM     10  C   UNL     1     -43.249   9.374   7.099  1.00  0.00     0.000 C 
BRANCH  10  11
ATOM     11  C   UNL     1     -42.005   8.680   7.676  1.00  0.00    -0.000 C 
BRANCH  11  12
ATOM     12  C   UNL     1     -41.921   8.786   9.209  1.00  0.00    -0.000 C 
BRANCH  12  13
ATOM     13  C   UNL     1     -41.734   7.406   9.878  1.00  0.00    -0.000 C 
BRANCH  13  14
ATOM     14  C   UNL     1     -41.393   6.279   8.885  1.00  0.00    -0.000 C 
BRANCH  14  15
ATOM     15  C   UNL     1     -42.207   4.989   9.077  1.00  0.00    -0.003 C 
ATOM     16  C   UNL     1     -42.846   4.891  10.463  1.00  0.00     0.004 C 
ENDBRANCH  14  15
ENDBRANCH  13  14
ENDBRANCH  12  13
ENDBRANCH  11  12
ENDBRANCH  10  11
ENDBRANCH   1  10
TORSDOF 12
ENDMDL
MODEL 2
REMARK VINA RESULT:    -3.948      1.373      3.092
REMARK INTER + INTRA:          -8.699
REMARK INTER:                  -6.711
REMARK INTRA:                  -1.988
REMARK UNBOUND:                -1.980
REMARK SMILES CCCCCCCCCCCCCC(=O)[O-]
REMARK SMILES IDX 8 1 9 2 10 3 11 4 12 5 13 6 14 7 15 8 16 9 7 10 6 11 5 12
REMARK SMILES IDX 4 13 3 14 2 15 1 16
REMARK H PARENT
REMARK Flexibility Score: inf
ROOT
ATOM      1  C   UNL     1     -41.966   8.167   9.300  1.00  0.00     0.000 C 
ENDROOT
BRANCH   1   2
ATOM      2  C   UNL     1     -43.318   8.667   9.835  1.00  0.00     0.000 C 
BRANCH   2   3
ATOM      3  C   UNL     1     -44.313   9.001   8.714  1.00  0.00     0.000 C 
BRANCH   3   4
ATOM      4  C   UNL     1     -43.722   8.659   7.338  1.00  0.00     0.000 C 
BRANCH   4   5
ATOM      5  C   UNL     1     -44.498   7.542   6.616  1.00  0.00     0.006 C 
BRANCH   5   6
ATOM      6  C   UNL     1     -43.831   7.039   5.325  1.00  0.00     0.053 C 
BRANCH   6   7
ATOM      7  C   UNL     1     -43.894   5.548   5.204  1.00  0.00     0.041 C 
ATOM      8  O   UNL     1     -44.603   4.877   5.998  1.00  0.00    -0.550 OA
ATOM      9  O   UNL     1     -43.143   4.896   4.234  1.00  0.00    -0.550 OA
ENDBRANCH   6   7
ENDBRANCH   5   6
ENDBRANCH   4   5
ENDBRANCH   3   4
ENDBRANCH   2   3
ENDBRANCH   1   2
BRANCH   1  10
ATOM     10  C   UNL     1     -41.587   6.782   9.851  1.00  0.00     0.000 C 
BRANCH  10  11
ATOM     11  C   UNL     1     -41.870   5.649   8.851  1.00  0.00    -0.000 C 
BRANCH  11  12
ATOM     12  C   UNL     1     -43.236   4.979   9.082  1.00  0.00    -0.000 C 
BRANCH  12  13
ATOM     13  C   UNL     1     -43.706   5.104  10.548  1.00  0.00    -0.000 C 
BRANCH  13  14
ATOM     14  C   UNL     1     -45.203   5.440  10.690  1.00  0.00    -0.000 C 
BRANCH  14  15
ATOM     15  C   UNL     1     -45.937   5.667   9.358  1.00  0.00    -0.003 C 
ATOM     16  C   UNL     1     -47.239   4.871   9.255  1.00  0.00     0.004 C 
ENDBRANCH  14  15
ENDBRANCH  13  14
ENDBRANCH  12  13
ENDBRANCH  11  12
ENDBRANCH  10  11
ENDBRANCH   1  10
TORSDOF 12
ENDMDL
MODEL 3
REMARK VINA RESULT:    -3.901      1.576      4.608
REMARK INTER + INTRA:          -8.618
REMARK INTER:                  -6.590
REMARK INTRA:                  -2.029
REMARK UNBOUND:                -1.980
REMARK SMILES CCCCCCCCCCCCCC(=O)[O-]
REMARK SMILES IDX 8 1 9 2 10 3 11 4 12 5 13 6 14 7 15 8 16 9 7 10 6 11 5 12
REMARK SMILES IDX 4 13 3 14 2 15 1 16
REMARK H PARENT
REMARK Flexibility Score: inf
ROOT
ATOM      1  C   UNL     1     -42.736   4.695   9.899  1.00  0.00     0.000 C 
ENDROOT
BRANCH   1   2
ATOM      2  C   UNL     1     -41.611   5.712   9.644  1.00  0.00     0.000 C 
BRANCH   2   3
ATOM      3  C   UNL     1     -41.626   6.877  10.646  1.00  0.00     0.000 C 
BRANCH   3   4
ATOM      4  C   UNL     1     -41.774   8.222   9.920  1.00  0.00     0.000 C 
BRANCH   4   5
ATOM      5  C   UNL     1     -41.782   8.075   8.387  1.00  0.00     0.006 C 
BRANCH   5   6
ATOM      6  C   UNL     1     -42.576   9.167   7.649  1.00  0.00     0.053 C 
BRANCH   6   7
ATOM      7  C   UNL     1     -42.069   9.387   6.258  1.00  0.00     0.041 C 
ATOM      8  O   UNL     1     -40.950   9.930   6.069  1.00  0.00    -0.550 OA
ATOM      9  O   UNL     1     -42.848   9.020   5.167  1.00  0.00    -0.550 OA
ENDBRANCH   6   7
ENDBRANCH   5   6
ENDBRANCH   4   5
ENDBRANCH   3   4
ENDBRANCH   2   3
ENDBRANCH   1   2
BRANCH   1  10
ATOM     10  C   UNL     1     -43.953   5.323  10.601  1.00  0.00     0.000 C 
BRANCH  10  11
ATOM     11  C   UNL     1     -45.178   5.429   9.679  1.00  0.00    -0.000 C 
BRANCH  11  12
ATOM     12  C   UNL     1     -45.432   6.865   9.187  1.00  0.00    -0.000 C 
BRANCH  12  13
ATOM     13  C   UNL     1     -45.343   6.978   7.649  1.00  0.00    -0.000 C 
BRANCH  13  14
ATOM     14  C   UNL     1     -45.044   5.639   6.948  1.00  0.00    -0.000 C 
BRANCH  14  15
ATOM     15  C   UNL     1     -43.640   5.542   6.329  1.00  0.00    -0.003 C 
ATOM     16  C   UNL     1     -43.666   5.499   4.800  1.00  0.00     0.004 C 
ENDBRANCH  14  15
ENDBRANCH  13  14
ENDBRANCH  12  13
ENDBRANCH  11  12
ENDBRANCH  10  11
ENDBRANCH   1  10
TORSDOF 12
ENDMDL
MODEL 4
REMARK VINA RESULT:    -3.882      2.332      4.355
REMARK INTER + INTRA:          -8.585
REMARK INTER:                  -6.931
REMARK INTRA:                  -1.654
REMARK UNBOUND:                -1.980
REMARK SMILES CCCCCCCCCCCCCC(=O)[O-]
REMARK SMILES IDX 8 1 9 2 10 3 11 4 12 5 13 6 14 7 15 8 16 9 7 10 6 11 5 12
REMARK SMILES IDX 4 13 3 14 2 15 1 16
REMARK H PARENT
REMARK Flexibility Score: inf
ROOT
ATOM      1  C   UNL     1     -41.909   8.200   8.273  1.00  0.00     0.000 C 
ENDROOT
BRANCH   1   2
ATOM      2  C   UNL     1     -41.698   7.061   9.286  1.00  0.00     0.000 C 
BRANCH   2   3
ATOM      3  C   UNL     1     -41.767   5.671   8.637  1.00  0.00     0.000 C 
BRANCH   3   4
ATOM      4  C   UNL     1     -42.884   4.827   9.269  1.00  0.00     0.000 C 
BRANCH   4   5
ATOM      5  C   UNL     1     -43.800   5.647  10.196  1.00  0.00     0.006 C 
BRANCH   5   6
ATOM      6  C   UNL     1     -45.195   5.037  10.412  1.00  0.00     0.053 C 
BRANCH   6   7
ATOM      7  C   UNL     1     -46.193   5.550   9.421  1.00  0.00     0.041 C 
ATOM      8  O   UNL     1     -46.005   6.654   8.846  1.00  0.00    -0.550 OA
ATOM      9  O   UNL     1     -47.348   4.825   9.155  1.00  0.00    -0.550 OA
ENDBRANCH   6   7
ENDBRANCH   5   6
ENDBRANCH   4   5
ENDBRANCH   3   4
ENDBRANCH   2   3
ENDBRANCH   1   2
BRANCH   1  10
ATOM     10  C   UNL     1     -43.253   8.922   8.468  1.00  0.00     0.000 C 
BRANCH  10  11
ATOM     11  C   UNL     1     -44.015   9.120   7.148  1.00  0.00    -0.000 C 
BRANCH  11  12
ATOM     12  C   UNL     1     -43.127   8.906   5.910  1.00  0.00    -0.000 C 
BRANCH  12  13
ATOM     13  C   UNL     1     -43.596   7.707   5.056  1.00  0.00    -0.000 C 
BRANCH  13  14
ATOM     14  C   UNL     1     -44.476   6.706   5.828  1.00  0.00    -0.000 C 
BRANCH  14  15
ATOM     15  C   UNL     1     -44.039   5.238   5.699  1.00  0.00    -0.003 C 
ATOM     16  C   UNL     1     -43.281   4.956   4.401  1.00  0.00     0.004 C 
ENDBRANCH  14  15
ENDBRANCH  13  14
ENDBRANCH  12  13
ENDBRANCH  11  12
ENDBRANCH  10  11
ENDBRANCH   1  10
TORSDOF 12
ENDMDL
MODEL 5
REMARK VINA RESULT:    -3.824      1.152      3.285
REMARK INTER + INTRA:          -8.486
REMARK INTER:                  -6.767
REMARK INTRA:                  -1.719
REMARK UNBOUND:                -1.980
REMARK SMILES CCCCCCCCCCCCCC(=O)[O-]
REMARK SMILES IDX 8 1 9 2 10 3 11 4 12 5 13 6 14 7 15 8 16 9 7 10 6 11 5 12
REMARK SMILES IDX 4 13 3 14 2 15 1 16
REMARK H PARENT
REMARK Flexibility Score: inf
ROOT
ATOM      1  C   UNL     1     -42.965   4.828   9.248  1.00  0.00     0.000 C 
ENDROOT
BRANCH   1   2
ATOM      2  C   UNL     1     -44.238   5.194  10.030  1.00  0.00     0.000 C 
BRANCH   2   3
ATOM      3  C   UNL     1     -45.399   5.605   9.113  1.00  0.00     0.000 C 
BRANCH   3   4
ATOM      4  C   UNL     1     -45.249   7.065   8.660  1.00  0.00     0.000 C 
BRANCH   4   5
ATOM      5  C   UNL     1     -45.253   7.219   7.128  1.00  0.00     0.006 C 
BRANCH   5   6
ATOM      6  C   UNL     1     -44.825   5.955   6.362  1.00  0.00     0.053 C 
BRANCH   6   7
ATOM      7  C   UNL     1     -43.927   6.275   5.208  1.00  0.00     0.041 C 
ATOM      8  O   UNL     1     -43.683   7.472   4.907  1.00  0.00    -0.550 OA
ATOM      9  O   UNL     1     -43.383   5.249   4.444  1.00  0.00    -0.550 OA
ENDBRANCH   6   7
ENDBRANCH   5   6
ENDBRANCH   4   5
ENDBRANCH   3   4
ENDBRANCH   2   3
ENDBRANCH   1   2
BRANCH   1  10
ATOM     10  C   UNL     1     -41.680   5.266   9.973  1.00  0.00     0.000 C 
BRANCH  10  11
ATOM     11  C   UNL     1     -41.941   6.331  11.049  1.00  0.00    -0.000 C 
BRANCH  11  12
ATOM     12  C   UNL     1     -41.216   7.657  10.763  1.00  0.00    -0.000 C 
BRANCH  12  13
ATOM     13  C   UNL     1     -42.198   8.843  10.638  1.00  0.00    -0.000 C 
BRANCH  13  14
ATOM     14  C   UNL     1     -42.629   9.139   9.189  1.00  0.00    -0.000 C 
BRANCH  14  15
ATOM     15  C   UNL     1     -41.757   8.471   8.113  1.00  0.00    -0.003 C 
ATOM     16  C   UNL     1     -41.435   9.406   6.946  1.00  0.00     0.004 C 
ENDBRANCH  14  15
ENDBRANCH  13  14
ENDBRANCH  12  13
ENDBRANCH  11  12
ENDBRANCH  10  11
ENDBRANCH   1  10
TORSDOF 12
ENDMDL
MODEL 6
REMARK VINA RESULT:    -3.773      1.154      3.146
REMARK INTER + INTRA:          -8.401
REMARK INTER:                  -6.281
REMARK INTRA:                  -2.119
REMARK UNBOUND:                -1.980
REMARK SMILES CCCCCCCCCCCCCC(=O)[O-]
REMARK SMILES IDX 8 1 9 2 10 3 11 4 12 5 13 6 14 7 15 8 16 9 7 10 6 11 5 12
REMARK SMILES IDX 4 13 3 14 2 15 1 16
REMARK H PARENT
REMARK Flexibility Score: inf
ROOT
ATOM      1  C   UNL     1     -41.628   8.095  10.392  1.00  0.00     0.000 C 
ENDROOT
BRANCH   1   2
ATOM      2  C   UNL     1     -41.449   6.878   9.470  1.00  0.00     0.000 C 
BRANCH   2   3
ATOM      3  C   UNL     1     -41.987   5.579  10.090  1.00  0.00     0.000 C 
BRANCH   3   4
ATOM      4  C   UNL     1     -42.975   4.887   9.139  1.00  0.00     0.000 C 
BRANCH   4   5
ATOM      5  C   UNL     1     -42.753   5.270   7.664  1.00  0.00     0.006 C 
BRANCH   5   6
ATOM      6  C   UNL     1     -44.039   5.328   6.823  1.00  0.00     0.053 C 
BRANCH   6   7
ATOM      7  C   UNL     1     -43.792   5.886   5.456  1.00  0.00     0.041 C 
ATOM      8  O   UNL     1     -43.450   5.125   4.514  1.00  0.00    -0.550 OA
ATOM      9  O   UNL     1     -43.908   7.252   5.230  1.00  0.00    -0.550 OA
ENDBRANCH   6   7
ENDBRANCH   5   6
ENDBRANCH   4   5
ENDBRANCH   3   4
ENDBRANCH   2   3
ENDBRANCH   1   2
BRANCH   1  10
ATOM     10  C   UNL     1     -42.337   9.267   9.693  1.00  0.00     0.000 C 
BRANCH  10  11
ATOM     11  C   UNL     1     -43.104   8.829   8.435  1.00  0.00    -0.000 C 
BRANCH  11  12
ATOM     12  C   UNL     1     -44.612   9.121   8.525  1.00  0.00    -0.000 C 
BRANCH  12  13
ATOM     13  C   UNL     1     -45.427   7.862   8.895  1.00  0.00    -0.000 C 
BRANCH  13  14
ATOM     14  C   UNL     1     -45.313   7.467  10.380  1.00  0.00    -0.000 C 
BRANCH  14  15
ATOM     15  C   UNL     1     -46.074   6.187  10.762  1.00  0.00    -0.003 C 
ATOM     16  C   UNL     1     -46.556   5.397   9.544  1.00  0.00     0.004 C 
ENDBRANCH  14  15
ENDBRANCH  13  14
ENDBRANCH  12  13
ENDBRANCH  11  12
ENDBRANCH  10  11
ENDBRANCH   1  10
TORSDOF 12
ENDMDL
MODEL 7
REMARK VINA RESULT:    -3.771      1.389      2.300
REMARK INTER + INTRA:          -8.396
REMARK INTER:                  -6.324
REMARK INTRA:                  -2.073
REMARK UNBOUND:                -1.980
REMARK SMILES CCCCCCCCCCCCCC(=O)[O-]
REMARK SMILES IDX 8 1 9 2 10 3 11 4 12 5 13 6 14 7 15 8 16 9 7 10 6 11 5 12
REMARK SMILES IDX 4 13 3 14 2 15 1 16
REMARK H PARENT
REMARK Flexibility Score: inf
ROOT
ATOM      1  C   UNL     1     -45.399   7.729  10.412  1.00  0.00     0.000 C 
ENDROOT
BRANCH   1   2
ATOM      2  C   UNL     1     -45.211   6.346  11.057  1.00  0.00     0.000 C 
BRANCH   2   3
ATOM      3  C   UNL     1     -45.216   5.206  10.027  1.00  0.00     0.000 C 
BRANCH   3   4
ATOM      4  C   UNL     1     -45.870   5.658   8.713  1.00  0.00     0.000 C 
BRANCH   4   5
ATOM      5  C   UNL     1     -44.960   5.445   7.489  1.00  0.00     0.006 C 
BRANCH   5   6
ATOM      6  C   UNL     1     -45.162   6.471   6.362  1.00  0.00     0.053 C 
BRANCH   6   7
ATOM      7  C   UNL     1     -44.090   6.380   5.320  1.00  0.00     0.041 C 
ATOM      8  O   UNL     1     -43.651   7.423   4.769  1.00  0.00    -0.550 OA
ATOM      9  O   UNL     1     -43.598   5.139   4.934  1.00  0.00    -0.550 OA
ENDBRANCH   6   7
ENDBRANCH   5   6
ENDBRANCH   4   5
ENDBRANCH   3   4
ENDBRANCH   2   3
ENDBRANCH   1   2
BRANCH   1  10
ATOM     10  C   UNL     1     -44.457   8.791  11.006  1.00  0.00     0.000 C 
BRANCH  10  11
ATOM     11  C   UNL     1     -43.624   9.510   9.934  1.00  0.00    -0.000 C 
BRANCH  11  12
ATOM     12  C   UNL     1     -43.578   8.741   8.601  1.00  0.00    -0.000 C 
BRANCH  12  13
ATOM     13  C   UNL     1     -42.176   8.162   8.311  1.00  0.00    -0.000 C 
BRANCH  13  14
ATOM     14  C   UNL     1     -41.608   7.312   9.464  1.00  0.00    -0.000 C 
BRANCH  14  15
ATOM     15  C   UNL     1     -41.647   5.795   9.220  1.00  0.00    -0.003 C 
ATOM     16  C   UNL     1     -41.447   4.982  10.500  1.00  0.00     0.004 C 
ENDBRANCH  14  15
ENDBRANCH  13  14
ENDBRANCH  12  13
ENDBRANCH  11  12
ENDBRANCH  10  11
ENDBRANCH   1  10
TORSDOF 12
ENDMDL
MODEL 8
REMARK VINA RESULT:    -3.699      2.289      4.509
REMARK INTER + INTRA:          -8.275
REMARK INTER:                  -6.783
REMARK INTRA:                  -1.492
REMARK UNBOUND:                -1.980
REMARK SMILES CCCCCCCCCCCCCC(=O)[O-]
REMARK SMILES IDX 8 1 9 2 10 3 11 4 12 5 13 6 14 7 15 8 16 9 7 10 6 11 5 12
REMARK SMILES IDX 4 13 3 14 2 15 1 16
REMARK H PARENT
REMARK Flexibility Score: inf
ROOT
ATOM      1  C   UNL     1     -45.288   5.249   7.102  1.00  0.00     0.000 C 
ENDROOT
BRANCH   1   2
ATOM      2  C   UNL     1     -45.709   5.913   8.424  1.00  0.00     0.000 C 
BRANCH   2   3
ATOM      3  C   UNL     1     -45.561   7.442   8.393  1.00  0.00     0.000 C 
BRANCH   3   4
ATOM      4  C   UNL     1     -45.096   7.974   9.757  1.00  0.00     0.000 C 
BRANCH   4   5
ATOM      5  C   UNL     1     -44.292   6.936  10.561  1.00  0.00     0.006 C 
BRANCH   5   6
ATOM      6  C   UNL     1     -42.766   7.072  10.426  1.00  0.00     0.053 C 
BRANCH   6   7
ATOM      7  C   UNL     1     -42.153   5.884   9.753  1.00  0.00     0.041 C 
ATOM      8  O   UNL     1     -41.129   6.021   9.034  1.00  0.00    -0.550 OA
ATOM      9  O   UNL     1     -42.732   4.629   9.893  1.00  0.00    -0.550 OA
ENDBRANCH   6   7
ENDBRANCH   5   6
ENDBRANCH   4   5
ENDBRANCH   3   4
ENDBRANCH   2   3
ENDBRANCH   1   2
BRANCH   1  10
ATOM     10  C   UNL     1     -43.874   5.660   6.658  1.00  0.00     0.000 C 
BRANCH  10  11
ATOM     11  C   UNL     1     -43.761   5.847   5.137  1.00  0.00    -0.000 C 
BRANCH  11  12
ATOM     12  C   UNL     1     -43.721   7.328   4.720  1.00  0.00    -0.000 C 
BRANCH  12  13
ATOM     13  C   UNL     1     -43.296   8.249   5.885  1.00  0.00    -0.000 C 
BRANCH  13  14
ATOM     14  C   UNL     1     -42.484   9.479   5.436  1.00  0.00    -0.000 C 
BRANCH  14  15
ATOM     15  C   UNL     1     -41.277   9.809   6.329  1.00  0.00    -0.003 C 
ATOM     16  C   UNL     1     -41.439   9.295   7.760  1.00  0.00     0.004 C 
ENDBRANCH  14  15
ENDBRANCH  13  14
ENDBRANCH  12  13
ENDBRANCH  11  12
ENDBRANCH  10  11
ENDBRANCH   1  10
TORSDOF 12
ENDMDL
MODEL 9
REMARK VINA RESULT:    -3.677      2.005      4.357
REMARK INTER + INTRA:          -8.237
REMARK INTER:                  -6.772
REMARK INTRA:                  -1.465
REMARK UNBOUND:                -1.980
REMARK SMILES CCCCCCCCCCCCCC(=O)[O-]
REMARK SMILES IDX 8 1 9 2 10 3 11 4 12 5 13 6 14 7 15 8 16 9 7 10 6 11 5 12
REMARK SMILES IDX 4 13 3 14 2 15 1 16
REMARK H PARENT
REMARK Flexibility Score: inf
ROOT
ATOM      1  C   UNL     1     -45.213   5.643  10.515  1.00  0.00     0.000 C 
ENDROOT
BRANCH   1   2
ATOM      2  C   UNL     1     -45.595   7.098  10.835  1.00  0.00     0.000 C 
BRANCH   2   3
ATOM      3  C   UNL     1     -45.211   8.073   9.712  1.00  0.00     0.000 C 
BRANCH   3   4
ATOM      4  C   UNL     1     -44.079   9.009  10.163  1.00  0.00     0.000 C 
BRANCH   4   5
ATOM      5  C   UNL     1     -43.589   9.939   9.038  1.00  0.00     0.006 C 
BRANCH   5   6
ATOM      6  C   UNL     1     -43.714   9.346   7.625  1.00  0.00     0.053 C 
BRANCH   6   7
ATOM      7  C   UNL     1     -42.386   9.237   6.941  1.00  0.00     0.041 C 
ATOM      8  O   UNL     1     -41.348   8.993   7.609  1.00  0.00    -0.550 OA
ATOM      9  O   UNL     1     -42.291   9.437   5.570  1.00  0.00    -0.550 OA
ENDBRANCH   6   7
ENDBRANCH   5   6
ENDBRANCH   4   5
ENDBRANCH   3   4
ENDBRANCH   2   3
ENDBRANCH   1   2
BRANCH   1  10
ATOM     10  C   UNL     1     -43.694   5.405  10.567  1.00  0.00     0.000 C 
BRANCH  10  11
ATOM     11  C   UNL     1     -43.156   4.732   9.295  1.00  0.00    -0.000 C 
BRANCH  11  12
ATOM     12  C   UNL     1     -43.228   5.648   8.061  1.00  0.00    -0.000 C 
BRANCH  12  13
ATOM     13  C   UNL     1     -44.356   5.232   7.091  1.00  0.00    -0.000 C 
BRANCH  13  14
ATOM     14  C   UNL     1     -44.732   6.327   6.074  1.00  0.00    -0.000 C 
BRANCH  14  15
ATOM     15  C   UNL     1     -43.827   6.386   4.833  1.00  0.00    -0.003 C 
ATOM     16  C   UNL     1     -43.331   5.008   4.394  1.00  0.00     0.004 C 
ENDBRANCH  14  15
ENDBRANCH  13  14
ENDBRANCH  12  13
ENDBRANCH  11  12
ENDBRANCH  10  11
ENDBRANCH   1  10
TORSDOF 12
ENDMDL
