MODEL 1
REMARK VINA RESULT:    -4.750      0.000      0.000
REMARK INTER + INTRA:          -6.044
REMARK INTER:                  -5.722
REMARK INTRA:                  -0.322
REMARK UNBOUND:                -0.322
REMARK SMILES O=c1c(O)c(-c2ccc(O)c(O)c2)oc2cc(O)cc(O)c12
REMARK SMILES IDX 5 1 3 2 2 3 1 4 22 5 20 6 19 7 17 8 16 9 15 10 14 11 6 12
REMARK SMILES IDX 7 13 8 14 9 15 13 16 11 17 10 18 12 20 4 22 21 24 18 26
REMARK H PARENT 10 19 12 21 4 23 21 25 18 27
REMARK Flexibility Score: inf
ROOT
ATOM      1  C   UNL     1      63.838  14.912  46.805  1.00  0.00     0.180 A 
ATOM      2  C   UNL     1      64.138  13.860  47.692  1.00  0.00     0.208 A 
ATOM      3  C   UNL     1      65.483  13.540  47.935  1.00  0.00     0.238 A 
ATOM      4  O   UNL     1      65.764  12.608  48.735  1.00  0.00    -0.285 OA
ATOM      5  C   UNL     1      66.500  14.260  47.275  1.00  0.00     0.111 A 
ATOM      6  C   UNL     1      67.879  13.998  47.461  1.00  0.00     0.134 A 
ATOM      7  C   UNL     1      68.832  14.753  46.759  1.00  0.00     0.093 A 
ATOM      8  C   UNL     1      68.434  15.761  45.879  1.00  0.00     0.123 A 
ATOM      9  C   UNL     1      67.073  16.025  45.692  1.00  0.00     0.094 A 
ATOM     10  C   UNL     1      66.109  15.285  46.381  1.00  0.00     0.146 A 
ATOM     11  O   UNL     1      64.823  15.558  46.190  1.00  0.00    -0.452 OA
ENDROOT
BRANCH   1  12
ATOM     12  C   UNL     1      62.445  15.321  46.511  1.00  0.00     0.025 A 
ATOM     13  C   UNL     1      61.742  16.187  47.364  1.00  0.00     0.016 A 
ATOM     14  C   UNL     1      60.438  16.578  47.053  1.00  0.00     0.051 A 
ATOM     15  C   UNL     1      59.816  16.125  45.885  1.00  0.00     0.157 A 
ATOM     16  C   UNL     1      61.832  14.884  45.327  1.00  0.00     0.062 A 
ATOM     17  C   UNL     1      60.524  15.270  45.008  1.00  0.00     0.158 A 
BRANCH  15  18
ATOM     18  O   UNL     1      58.510  16.549  45.635  1.00  0.00    -0.504 OA
ATOM     19  H   UNL     1      57.712  15.931  45.598  1.00  0.00     0.293 HD
ENDBRANCH  15  18
BRANCH  17  20
ATOM     20  O   UNL     1      59.973  14.786  43.819  1.00  0.00    -0.504 OA
ATOM     21  H   UNL     1      59.804  13.809  43.632  1.00  0.00     0.293 HD
ENDBRANCH  17  20
ENDBRANCH   1  12
BRANCH   2  22
ATOM     22  O   UNL     1      63.110  13.130  48.295  1.00  0.00    -0.502 OA
ATOM     23  H   UNL     1      62.354  12.717  47.762  1.00  0.00     0.293 HD
ENDBRANCH   2  22
BRANCH   6  24
ATOM     24  O   UNL     1      68.309  12.997  48.333  1.00  0.00    -0.507 OA
ATOM     25  H   UNL     1      67.881  12.078  48.343  1.00  0.00     0.293 HD
ENDBRANCH   6  24
BRANCH   8  26
ATOM     26  O   UNL     1      69.400  16.495  45.195  1.00  0.00    -0.508 OA
ATOM     27  H   UNL     1      69.789  16.171  44.316  1.00  0.00     0.293 HD
ENDBRANCH   8  26
TORSDOF 6
ENDMDL
MODEL 2
REMARK VINA RESULT:    -4.572     18.653     19.786
REMARK INTER + INTRA:          -5.829
REMARK INTER:                  -5.509
REMARK INTRA:                  -0.321
REMARK UNBOUND:                -0.322
REMARK SMILES O=c1c(O)c(-c2ccc(O)c(O)c2)oc2cc(O)cc(O)c12
REMARK SMILES IDX 5 1 3 2 2 3 1 4 22 5 20 6 19 7 17 8 16 9 15 10 14 11 6 12
REMARK SMILES IDX 7 13 8 14 9 15 13 16 11 17 10 18 12 20 4 22 21 24 18 26
REMARK H PARENT 10 19 12 21 4 23 21 25 18 27
REMARK Flexibility Score: inf
ROOT
ATOM      1  C   UNL     1      68.902   1.359  33.770  1.00  0.00     0.180 A 
ATOM      2  C   UNL     1      67.661   0.708  33.632  1.00  0.00     0.208 A 
ATOM      3  C   UNL     1      67.370  -0.382  34.469  1.00  0.00     0.238 A 
ATOM      4  O   UNL     1      66.258  -0.966  34.363  1.00  0.00    -0.285 OA
ATOM      5  C   UNL     1      68.328  -0.812  35.410  1.00  0.00     0.111 A 
ATOM      6  C   UNL     1      68.115  -1.903  36.288  1.00  0.00     0.134 A 
ATOM      7  C   UNL     1      69.122  -2.276  37.190  1.00  0.00     0.093 A 
ATOM      8  C   UNL     1      70.333  -1.583  37.233  1.00  0.00     0.123 A 
ATOM      9  C   UNL     1      70.549  -0.503  36.369  1.00  0.00     0.094 A 
ATOM     10  C   UNL     1      69.558  -0.116  35.464  1.00  0.00     0.146 A 
ATOM     11  O   UNL     1      69.786   0.915  34.657  1.00  0.00    -0.452 OA
ENDROOT
BRANCH   1  12
ATOM     12  C   UNL     1      69.274   2.525  32.936  1.00  0.00     0.025 A 
ATOM     13  C   UNL     1      69.975   2.368  31.729  1.00  0.00     0.016 A 
ATOM     14  C   UNL     1      70.293   3.481  30.948  1.00  0.00     0.051 A 
ATOM     15  C   UNL     1      69.909   4.766  31.346  1.00  0.00     0.157 A 
ATOM     16  C   UNL     1      68.868   3.810  33.326  1.00  0.00     0.062 A 
ATOM     17  C   UNL     1      69.183   4.933  32.549  1.00  0.00     0.158 A 
BRANCH  15  18
ATOM     18  O   UNL     1      70.262   5.837  30.523  1.00  0.00    -0.504 OA
ATOM     19  H   UNL     1      69.609   6.530  30.187  1.00  0.00     0.293 HD
ENDBRANCH  15  18
BRANCH  17  20
ATOM     20  O   UNL     1      68.757   6.182  33.006  1.00  0.00    -0.504 OA
ATOM     21  H   UNL     1      69.345   7.002  33.039  1.00  0.00     0.293 HD
ENDBRANCH  17  20
ENDBRANCH   1  12
BRANCH   2  22
ATOM     22  O   UNL     1      66.749   1.123  32.658  1.00  0.00    -0.502 OA
ATOM     23  H   UNL     1      66.876   1.975  32.125  1.00  0.00     0.293 HD
ENDBRANCH   2  22
BRANCH   6  24
ATOM     24  O   UNL     1      66.917  -2.616  36.269  1.00  0.00    -0.507 OA
ATOM     25  H   UNL     1      66.828  -3.525  36.711  1.00  0.00     0.293 HD
ENDBRANCH   6  24
BRANCH   8  26
ATOM     26  O   UNL     1      71.316  -1.974  38.139  1.00  0.00    -0.508 OA
ATOM     27  H   UNL     1      72.173  -2.422  37.831  1.00  0.00     0.293 HD
ENDBRANCH   8  26
TORSDOF 6
ENDMDL
MODEL 3
REMARK VINA RESULT:    -4.471     20.093     22.123
REMARK INTER + INTRA:          -5.708
REMARK INTER:                  -5.387
REMARK INTRA:                  -0.321
REMARK UNBOUND:                -0.322
REMARK SMILES O=c1c(O)c(-c2ccc(O)c(O)c2)oc2cc(O)cc(O)c12
REMARK SMILES IDX 5 1 3 2 2 3 1 4 22 5 20 6 19 7 17 8 16 9 15 10 14 11 6 12
REMARK SMILES IDX 7 13 8 14 9 15 13 16 11 17 10 18 12 20 4 22 21 24 18 26
REMARK H PARENT 10 19 12 21 4 23 21 25 18 27
REMARK Flexibility Score: inf
ROOT
ATOM      1  C   UNL     1      71.318   0.106  33.192  1.00  0.00     0.180 A 
ATOM      2  C   UNL     1      71.078   1.208  32.347  1.00  0.00     0.208 A 
ATOM      3  C   UNL     1      69.769   1.703  32.234  1.00  0.00     0.238 A 
ATOM      4  O   UNL     1      69.542   2.695  31.491  1.00  0.00    -0.285 OA
ATOM      5  C   UNL     1      68.724   1.081  32.949  1.00  0.00     0.111 A 
ATOM      6  C   UNL     1      67.378   1.515  32.889  1.00  0.00     0.134 A 
ATOM      7  C   UNL     1      66.394   0.836  33.622  1.00  0.00     0.093 A 
ATOM      8  C   UNL     1      66.728  -0.265  34.413  1.00  0.00     0.123 A 
ATOM      9  C   UNL     1      68.057  -0.699  34.478  1.00  0.00     0.094 A 
ATOM     10  C   UNL     1      69.052  -0.035  33.755  1.00  0.00     0.146 A 
ATOM     11  O   UNL     1      70.306  -0.464  33.837  1.00  0.00    -0.452 OA
ENDROOT
BRANCH   1  12
ATOM     12  C   UNL     1      72.673  -0.462  33.376  1.00  0.00     0.025 A 
ATOM     13  C   UNL     1      73.141  -1.513  32.571  1.00  0.00     0.016 A 
ATOM     14  C   UNL     1      74.432  -2.015  32.747  1.00  0.00     0.051 A 
ATOM     15  C   UNL     1      75.283  -1.473  33.715  1.00  0.00     0.157 A 
ATOM     16  C   UNL     1      73.533   0.099  34.332  1.00  0.00     0.062 A 
ATOM     17  C   UNL     1      74.830  -0.399  34.516  1.00  0.00     0.158 A 
BRANCH  15  18
ATOM     18  O   UNL     1      76.560  -2.024  33.844  1.00  0.00    -0.504 OA
ATOM     19  H   UNL     1      77.200  -2.152  33.074  1.00  0.00     0.293 HD
ENDBRANCH  15  18
BRANCH  17  20
ATOM     20  O   UNL     1      75.625   0.200  35.496  1.00  0.00    -0.504 OA
ATOM     21  H   UNL     1      75.858  -0.234  36.377  1.00  0.00     0.293 HD
ENDBRANCH  17  20
ENDBRANCH   1  12
BRANCH   2  22
ATOM     22  O   UNL     1      72.121   1.775  31.612  1.00  0.00    -0.502 OA
ATOM     23  H   UNL     1      72.109   2.742  31.309  1.00  0.00     0.293 HD
ENDBRANCH   2  22
BRANCH   6  24
ATOM     24  O   UNL     1      67.012   2.611  32.107  1.00  0.00    -0.507 OA
ATOM     25  H   UNL     1      67.547   2.889  31.292  1.00  0.00     0.293 HD
ENDBRANCH   6  24
BRANCH   8  26
ATOM     26  O   UNL     1      65.732  -0.921  35.132  1.00  0.00    -0.508 OA
ATOM     27  H   UNL     1      64.951  -0.417  35.538  1.00  0.00     0.293 HD
ENDBRANCH   8  26
TORSDOF 6
ENDMDL
MODEL 4
REMARK VINA RESULT:    -4.457      1.538      3.154
REMARK INTER + INTRA:          -5.691
REMARK INTER:                  -5.366
REMARK INTRA:                  -0.325
REMARK UNBOUND:                -0.322
REMARK SMILES O=c1c(O)c(-c2ccc(O)c(O)c2)oc2cc(O)cc(O)c12
REMARK SMILES IDX 5 1 3 2 2 3 1 4 22 5 20 6 19 7 17 8 16 9 15 10 14 11 6 12
REMARK SMILES IDX 7 13 8 14 9 15 13 16 11 17 10 18 12 20 4 22 21 24 18 26
REMARK H PARENT 10 19 12 21 4 23 21 25 18 27
REMARK Flexibility Score: inf
ROOT
ATOM      1  C   UNL     1      64.723  14.530  46.833  1.00  0.00     0.180 A 
ATOM      2  C   UNL     1      65.831  15.255  46.353  1.00  0.00     0.208 A 
ATOM      3  C   UNL     1      67.124  14.803  46.663  1.00  0.00     0.238 A 
ATOM      4  O   UNL     1      68.123  15.437  46.230  1.00  0.00    -0.285 OA
ATOM      5  C   UNL     1      67.286  13.652  47.460  1.00  0.00     0.111 A 
ATOM      6  C   UNL     1      68.553  13.132  47.822  1.00  0.00     0.134 A 
ATOM      7  C   UNL     1      68.632  11.986  48.627  1.00  0.00     0.093 A 
ATOM      8  C   UNL     1      67.473  11.351  49.076  1.00  0.00     0.123 A 
ATOM      9  C   UNL     1      66.217  11.858  48.722  1.00  0.00     0.094 A 
ATOM     10  C   UNL     1      66.118  12.998  47.920  1.00  0.00     0.146 A 
ATOM     11  O   UNL     1      64.916  13.458  47.594  1.00  0.00    -0.452 OA
ENDROOT
BRANCH   1  12
ATOM     12  C   UNL     1      63.330  14.933  46.533  1.00  0.00     0.025 A 
ATOM     13  C   UNL     1      62.636  15.832  47.359  1.00  0.00     0.016 A 
ATOM     14  C   UNL     1      61.331  16.217  47.042  1.00  0.00     0.051 A 
ATOM     15  C   UNL     1      60.701  15.726  45.894  1.00  0.00     0.157 A 
ATOM     16  C   UNL     1      62.708  14.458  45.369  1.00  0.00     0.062 A 
ATOM     17  C   UNL     1      61.400  14.838  45.044  1.00  0.00     0.158 A 
BRANCH  15  18
ATOM     18  O   UNL     1      59.394  16.146  45.637  1.00  0.00    -0.504 OA
ATOM     19  H   UNL     1      58.994  17.001  45.996  1.00  0.00     0.293 HD
ENDBRANCH  15  18
BRANCH  17  20
ATOM     20  O   UNL     1      60.840  14.314  43.876  1.00  0.00    -0.504 OA
ATOM     21  H   UNL     1      60.044  14.715  43.402  1.00  0.00     0.293 HD
ENDBRANCH  17  20
ENDBRANCH   1  12
BRANCH   2  22
ATOM     22  O   UNL     1      65.643  16.421  45.606  1.00  0.00    -0.502 OA
ATOM     23  H   UNL     1      65.916  17.334  45.948  1.00  0.00     0.293 HD
ENDBRANCH   2  22
BRANCH   6  24
ATOM     24  O   UNL     1      69.730  13.744  47.389  1.00  0.00    -0.507 OA
ATOM     25  H   UNL     1      69.990  14.676  47.693  1.00  0.00     0.293 HD
ENDBRANCH   6  24
BRANCH   8  26
ATOM     26  O   UNL     1      67.579  10.215  49.875  1.00  0.00    -0.508 OA
ATOM     27  H   UNL     1      68.027   9.370  49.539  1.00  0.00     0.293 HD
ENDBRANCH   8  26
TORSDOF 6
ENDMDL
MODEL 5
REMARK VINA RESULT:    -4.449     17.541     19.615
REMARK INTER + INTRA:          -5.681
REMARK INTER:                  -5.356
REMARK INTRA:                  -0.325
REMARK UNBOUND:                -0.322
REMARK SMILES O=c1c(O)c(-c2ccc(O)c(O)c2)oc2cc(O)cc(O)c12
REMARK SMILES IDX 5 1 3 2 2 3 1 4 22 5 20 6 19 7 17 8 16 9 15 10 14 11 6 12
REMARK SMILES IDX 7 13 8 14 9 15 13 16 11 17 10 18 12 20 4 22 21 24 18 26
REMARK H PARENT 10 19 12 21 4 23 21 25 18 27
REMARK Flexibility Score: inf
ROOT
ATOM      1  C   UNL     1      60.812   3.372  32.110  1.00  0.00     0.180 A 
ATOM      2  C   UNL     1      60.124   2.674  31.098  1.00  0.00     0.208 A 
ATOM      3  C   UNL     1      59.748   1.341  31.330  1.00  0.00     0.238 A 
ATOM      4  O   UNL     1      59.122   0.709  30.436  1.00  0.00    -0.285 OA
ATOM      5  C   UNL     1      60.080   0.726  32.555  1.00  0.00     0.111 A 
ATOM      6  C   UNL     1      59.740  -0.612  32.866  1.00  0.00     0.134 A 
ATOM      7  C   UNL     1      60.115  -1.156  34.104  1.00  0.00     0.093 A 
ATOM      8  C   UNL     1      60.820  -0.390  35.034  1.00  0.00     0.123 A 
ATOM      9  C   UNL     1      61.158   0.935  34.733  1.00  0.00     0.094 A 
ATOM     10  C   UNL     1      60.793   1.494  33.505  1.00  0.00     0.146 A 
ATOM     11  O   UNL     1      61.121   2.755  33.245  1.00  0.00    -0.452 OA
ENDROOT
BRANCH   1  12
ATOM     12  C   UNL     1      61.227   4.785  31.947  1.00  0.00     0.025 A 
ATOM     13  C   UNL     1      62.471   5.121  31.389  1.00  0.00     0.016 A 
ATOM     14  C   UNL     1      62.830   6.460  31.223  1.00  0.00     0.051 A 
ATOM     15  C   UNL     1      61.955   7.486  31.596  1.00  0.00     0.157 A 
ATOM     16  C   UNL     1      60.339   5.811  32.301  1.00  0.00     0.062 A 
ATOM     17  C   UNL     1      60.690   7.157  32.138  1.00  0.00     0.158 A 
BRANCH  15  18
ATOM     18  O   UNL     1      62.376   8.804  31.407  1.00  0.00    -0.504 OA
ATOM     19  H   UNL     1      61.848   9.498  30.899  1.00  0.00     0.293 HD
ENDBRANCH  15  18
BRANCH  17  20
ATOM     20  O   UNL     1      59.760   8.126  32.524  1.00  0.00    -0.504 OA
ATOM     21  H   UNL     1      60.001   9.078  32.757  1.00  0.00     0.293 HD
ENDBRANCH  17  20
ENDBRANCH   1  12
BRANCH   2  22
ATOM     22  O   UNL     1      59.851   3.291  29.875  1.00  0.00    -0.502 OA
ATOM     23  H   UNL     1      60.582   3.656  29.276  1.00  0.00     0.293 HD
ENDBRANCH   2  22
BRANCH   6  24
ATOM     24  O   UNL     1      59.037  -1.404  31.958  1.00  0.00    -0.507 OA
ATOM     25  H   UNL     1      58.038  -1.556  32.044  1.00  0.00     0.293 HD
ENDBRANCH   6  24
BRANCH   8  26
ATOM     26  O   UNL     1      61.181  -0.953  36.255  1.00  0.00    -0.508 OA
ATOM     27  H   UNL     1      61.136  -0.422  37.118  1.00  0.00     0.293 HD
ENDBRANCH   8  26
TORSDOF 6
ENDMDL
MODEL 6
REMARK VINA RESULT:    -4.409      2.498      4.003
REMARK INTER + INTRA:          -5.634
REMARK INTER:                  -5.316
REMARK INTRA:                  -0.318
REMARK UNBOUND:                -0.322
REMARK SMILES O=c1c(O)c(-c2ccc(O)c(O)c2)oc2cc(O)cc(O)c12
REMARK SMILES IDX 5 1 3 2 2 3 1 4 22 5 20 6 19 7 17 8 16 9 15 10 14 11 6 12
REMARK SMILES IDX 7 13 8 14 9 15 13 16 11 17 10 18 12 20 4 22 21 24 18 26
REMARK H PARENT 10 19 12 21 4 23 21 25 18 27
REMARK Flexibility Score: inf
ROOT
ATOM      1  C   UNL     1      64.679  14.276  44.339  1.00  0.00     0.180 A 
ATOM      2  C   UNL     1      65.251  15.390  43.693  1.00  0.00     0.208 A 
ATOM      3  C   UNL     1      66.518  15.835  44.104  1.00  0.00     0.238 A 
ATOM      4  O   UNL     1      67.045  16.824  43.527  1.00  0.00    -0.285 OA
ATOM      5  C   UNL     1      67.180  15.175  45.160  1.00  0.00     0.111 A 
ATOM      6  C   UNL     1      68.456  15.561  45.636  1.00  0.00     0.134 A 
ATOM      7  C   UNL     1      69.045  14.859  46.698  1.00  0.00     0.093 A 
ATOM      8  C   UNL     1      68.385  13.781  47.291  1.00  0.00     0.123 A 
ATOM      9  C   UNL     1      67.124  13.393  46.824  1.00  0.00     0.094 A 
ATOM     10  C   UNL     1      66.521  14.079  45.767  1.00  0.00     0.146 A 
ATOM     11  O   UNL     1      65.326  13.689  45.340  1.00  0.00    -0.452 OA
ENDROOT
BRANCH   1  12
ATOM     12  C   UNL     1      63.355  13.737  43.951  1.00  0.00     0.025 A 
ATOM     13  C   UNL     1      62.178  14.157  44.593  1.00  0.00     0.016 A 
ATOM     14  C   UNL     1      60.939  13.653  44.193  1.00  0.00     0.051 A 
ATOM     15  C   UNL     1      60.847  12.736  43.141  1.00  0.00     0.157 A 
ATOM     16  C   UNL     1      63.263  12.836  42.880  1.00  0.00     0.062 A 
ATOM     17  C   UNL     1      62.024  12.325  42.472  1.00  0.00     0.158 A 
BRANCH  15  18
ATOM     18  O   UNL     1      59.579  12.267  42.792  1.00  0.00    -0.504 OA
ATOM     19  H   UNL     1      58.775  12.862  42.653  1.00  0.00     0.293 HD
ENDBRANCH  15  18
BRANCH  17  20
ATOM     20  O   UNL     1      62.010  11.421  41.407  1.00  0.00    -0.504 OA
ATOM     21  H   UNL     1      62.749  10.760  41.217  1.00  0.00     0.293 HD
ENDBRANCH  17  20
ENDBRANCH   1  12
BRANCH   2  22
ATOM     22  O   UNL     1      64.553  16.057  42.684  1.00  0.00    -0.502 OA
ATOM     23  H   UNL     1      63.542  16.033  42.616  1.00  0.00     0.293 HD
ENDBRANCH   2  22
BRANCH   6  24
ATOM     24  O   UNL     1      69.140  16.635  45.065  1.00  0.00    -0.507 OA
ATOM     25  H   UNL     1      68.744  17.567  45.038  1.00  0.00     0.293 HD
ENDBRANCH   6  24
BRANCH   8  26
ATOM     26  O   UNL     1      68.992  13.100  48.344  1.00  0.00    -0.508 OA
ATOM     27  H   UNL     1      69.501  12.236  48.194  1.00  0.00     0.293 HD
ENDBRANCH   8  26
TORSDOF 6
ENDMDL
MODEL 7
REMARK VINA RESULT:    -4.367     16.837     18.591
REMARK INTER + INTRA:          -5.582
REMARK INTER:                  -5.340
REMARK INTRA:                  -0.242
REMARK UNBOUND:                -0.322
REMARK SMILES O=c1c(O)c(-c2ccc(O)c(O)c2)oc2cc(O)cc(O)c12
REMARK SMILES IDX 5 1 3 2 2 3 1 4 22 5 20 6 19 7 17 8 16 9 15 10 14 11 6 12
REMARK SMILES IDX 7 13 8 14 9 15 13 16 11 17 10 18 12 20 4 22 21 24 18 26
REMARK H PARENT 10 19 12 21 4 23 21 25 18 27
REMARK Flexibility Score: inf
ROOT
ATOM      1  C   UNL     1      70.173  -1.129  41.121  1.00  0.00     0.180 A 
ATOM      2  C   UNL     1      71.442  -0.540  41.291  1.00  0.00     0.208 A 
ATOM      3  C   UNL     1      72.212  -0.247  40.154  1.00  0.00     0.238 A 
ATOM      4  O   UNL     1      73.343   0.290  40.293  1.00  0.00    -0.285 OA
ATOM      5  C   UNL     1      71.712  -0.563  38.874  1.00  0.00     0.111 A 
ATOM      6  C   UNL     1      72.424  -0.303  37.679  1.00  0.00     0.134 A 
ATOM      7  C   UNL     1      71.862  -0.657  36.443  1.00  0.00     0.093 A 
ATOM      8  C   UNL     1      70.606  -1.262  36.378  1.00  0.00     0.123 A 
ATOM      9  C   UNL     1      69.896  -1.520  37.556  1.00  0.00     0.094 A 
ATOM     10  C   UNL     1      70.438  -1.175  38.797  1.00  0.00     0.146 A 
ATOM     11  O   UNL     1      69.742  -1.426  39.900  1.00  0.00    -0.452 OA
ENDROOT
BRANCH   1  12
ATOM     12  C   UNL     1      69.296  -1.452  42.270  1.00  0.00     0.025 A 
ATOM     13  C   UNL     1      69.121  -2.775  42.707  1.00  0.00     0.016 A 
ATOM     14  C   UNL     1      68.308  -3.052  43.808  1.00  0.00     0.051 A 
ATOM     15  C   UNL     1      67.668  -2.019  44.501  1.00  0.00     0.157 A 
ATOM     16  C   UNL     1      68.674  -0.412  42.978  1.00  0.00     0.062 A 
ATOM     17  C   UNL     1      67.857  -0.681  44.083  1.00  0.00     0.158 A 
BRANCH  15  18
ATOM     18  O   UNL     1      66.866  -2.363  45.590  1.00  0.00    -0.504 OA
ATOM     19  H   UNL     1      66.049  -2.953  45.527  1.00  0.00     0.293 HD
ENDBRANCH  15  18
BRANCH  17  20
ATOM     20  O   UNL     1      67.259   0.403  44.731  1.00  0.00    -0.504 OA
ATOM     21  H   UNL     1      67.767   1.201  45.082  1.00  0.00     0.293 HD
ENDBRANCH  17  20
ENDBRANCH   1  12
BRANCH   2  22
ATOM     22  O   UNL     1      71.935  -0.282  42.573  1.00  0.00    -0.502 OA
ATOM     23  H   UNL     1      72.866  -0.558  42.862  1.00  0.00     0.293 HD
ENDBRANCH   2  22
BRANCH   6  24
ATOM     24  O   UNL     1      73.682   0.299  37.709  1.00  0.00    -0.507 OA
ATOM     25  H   UNL     1      74.193   0.512  36.860  1.00  0.00     0.293 HD
ENDBRANCH   6  24
BRANCH   8  26
ATOM     26  O   UNL     1      70.071  -1.603  35.138  1.00  0.00    -0.508 OA
ATOM     27  H   UNL     1      70.182  -2.534  34.751  1.00  0.00     0.293 HD
ENDBRANCH   8  26
TORSDOF 6
ENDMDL
MODEL 8
REMARK VINA RESULT:    -4.323     18.887     20.968
REMARK INTER + INTRA:          -5.530
REMARK INTER:                  -5.230
REMARK INTRA:                  -0.301
REMARK UNBOUND:                -0.322
REMARK SMILES O=c1c(O)c(-c2ccc(O)c(O)c2)oc2cc(O)cc(O)c12
REMARK SMILES IDX 5 1 3 2 2 3 1 4 22 5 20 6 19 7 17 8 16 9 15 10 14 11 6 12
REMARK SMILES IDX 7 13 8 14 9 15 13 16 11 17 10 18 12 20 4 22 21 24 18 26
REMARK H PARENT 10 19 12 21 4 23 21 25 18 27
REMARK Flexibility Score: inf
ROOT
ATOM      1  C   UNL     1      59.867   1.840  32.012  1.00  0.00     0.180 A 
ATOM      2  C   UNL     1      59.125   1.298  30.944  1.00  0.00     0.208 A 
ATOM      3  C   UNL     1      58.815  -0.071  30.960  1.00  0.00     0.238 A 
ATOM      4  O   UNL     1      58.142  -0.566  30.016  1.00  0.00    -0.285 OA
ATOM      5  C   UNL     1      59.265  -0.876  32.027  1.00  0.00     0.111 A 
ATOM      6  C   UNL     1      58.999  -2.263  32.118  1.00  0.00     0.134 A 
ATOM      7  C   UNL     1      59.491  -2.997  33.207  1.00  0.00     0.093 A 
ATOM      8  C   UNL     1      60.242  -2.373  34.205  1.00  0.00     0.123 A 
ATOM      9  C   UNL     1      60.508  -1.002  34.123  1.00  0.00     0.094 A 
ATOM     10  C   UNL     1      60.026  -0.253  33.046  1.00  0.00     0.146 A 
ATOM     11  O   UNL     1      60.288   1.048  32.993  1.00  0.00    -0.452 OA
ENDROOT
BRANCH   1  12
ATOM     12  C   UNL     1      60.219   3.277  32.075  1.00  0.00     0.025 A 
ATOM     13  C   UNL     1      59.497   4.171  32.882  1.00  0.00     0.016 A 
ATOM     14  C   UNL     1      59.863   5.517  32.945  1.00  0.00     0.051 A 
ATOM     15  C   UNL     1      60.958   5.994  32.218  1.00  0.00     0.157 A 
ATOM     16  C   UNL     1      61.332   3.748  31.364  1.00  0.00     0.062 A 
ATOM     17  C   UNL     1      61.706   5.097  31.420  1.00  0.00     0.158 A 
BRANCH  15  18
ATOM     18  O   UNL     1      61.269   7.352  32.321  1.00  0.00    -0.504 OA
ATOM     19  H   UNL     1      60.637   8.097  32.067  1.00  0.00     0.293 HD
ENDBRANCH  15  18
BRANCH  17  20
ATOM     20  O   UNL     1      62.818   5.497  30.675  1.00  0.00    -0.504 OA
ATOM     21  H   UNL     1      63.725   5.059  30.735  1.00  0.00     0.293 HD
ENDBRANCH  17  20
ENDBRANCH   1  12
BRANCH   2  22
ATOM     22  O   UNL     1      58.733   2.106  29.875  1.00  0.00    -0.502 OA
ATOM     23  H   UNL     1      59.071   1.960  28.931  1.00  0.00     0.293 HD
ENDBRANCH   2  22
BRANCH   6  24
ATOM     24  O   UNL     1      58.253  -2.916  31.136  1.00  0.00    -0.507 OA
ATOM     25  H   UNL     1      57.502  -2.450  30.638  1.00  0.00     0.293 HD
ENDBRANCH   6  24
BRANCH   8  26
ATOM     26  O   UNL     1      60.719  -3.125  35.276  1.00  0.00    -0.508 OA
ATOM     27  H   UNL     1      61.697  -3.381  35.350  1.00  0.00     0.293 HD
ENDBRANCH   8  26
TORSDOF 6
ENDMDL
MODEL 9
REMARK VINA RESULT:    -4.300      1.724      6.928
REMARK INTER + INTRA:          -5.502
REMARK INTER:                  -5.192
REMARK INTRA:                  -0.310
REMARK UNBOUND:                -0.322
REMARK SMILES O=c1c(O)c(-c2ccc(O)c(O)c2)oc2cc(O)cc(O)c12
REMARK SMILES IDX 5 1 3 2 2 3 1 4 22 5 20 6 19 7 17 8 16 9 15 10 14 11 6 12
REMARK SMILES IDX 7 13 8 14 9 15 13 16 11 17 10 18 12 20 4 22 21 24 18 26
REMARK H PARENT 10 19 12 21 4 23 21 25 18 27
REMARK Flexibility Score: inf
ROOT
ATOM      1  C   UNL     1      65.236  14.814  47.115  1.00  0.00     0.180 A 
ATOM      2  C   UNL     1      64.718  15.602  48.162  1.00  0.00     0.208 A 
ATOM      3  C   UNL     1      63.381  16.024  48.096  1.00  0.00     0.238 A 
ATOM      4  O   UNL     1      62.902  16.720  49.031  1.00  0.00    -0.285 OA
ATOM      5  C   UNL     1      62.593  15.670  46.980  1.00  0.00     0.111 A 
ATOM      6  C   UNL     1      61.239  16.057  46.835  1.00  0.00     0.134 A 
ATOM      7  C   UNL     1      60.525  15.674  45.690  1.00  0.00     0.093 A 
ATOM      8  C   UNL     1      61.135  14.913  44.691  1.00  0.00     0.123 A 
ATOM      9  C   UNL     1      62.473  14.526  44.830  1.00  0.00     0.094 A 
ATOM     10  C   UNL     1      63.201  14.897  45.963  1.00  0.00     0.146 A 
ATOM     11  O   UNL     1      64.468  14.514  46.073  1.00  0.00    -0.452 OA
ENDROOT
BRANCH   1  12
ATOM     12  C   UNL     1      66.631  14.316  47.121  1.00  0.00     0.025 A 
ATOM     13  C   UNL     1      67.659  15.013  46.466  1.00  0.00     0.016 A 
ATOM     14  C   UNL     1      68.971  14.538  46.507  1.00  0.00     0.051 A 
ATOM     15  C   UNL     1      69.285  13.370  47.210  1.00  0.00     0.157 A 
ATOM     16  C   UNL     1      66.948  13.158  47.847  1.00  0.00     0.062 A 
ATOM     17  C   UNL     1      68.261  12.673  47.893  1.00  0.00     0.158 A 
BRANCH  15  18
ATOM     18  O   UNL     1      70.615  12.945  47.209  1.00  0.00    -0.504 OA
ATOM     19  H   UNL     1      71.370  13.449  47.651  1.00  0.00     0.293 HD
ENDBRANCH  15  18
BRANCH  17  20
ATOM     20  O   UNL     1      68.500  11.507  48.624  1.00  0.00    -0.504 OA
ATOM     21  H   UNL     1      69.409  11.230  48.964  1.00  0.00     0.293 HD
ENDBRANCH  17  20
ENDBRANCH   1  12
BRANCH   2  22
ATOM     22  O   UNL     1      65.534  15.979  49.231  1.00  0.00    -0.502 OA
ATOM     23  H   UNL     1      65.603  16.939  49.548  1.00  0.00     0.293 HD
ENDBRANCH   2  22
BRANCH   6  24
ATOM     24  O   UNL     1      60.601  16.818  47.814  1.00  0.00    -0.507 OA
ATOM     25  H   UNL     1      60.247  17.749  47.622  1.00  0.00     0.293 HD
ENDBRANCH   6  24
BRANCH   8  26
ATOM     26  O   UNL     1      60.403  14.545  43.564  1.00  0.00    -0.508 OA
ATOM     27  H   UNL     1      59.421  14.300  43.627  1.00  0.00     0.293 HD
ENDBRANCH   8  26
TORSDOF 6
ENDMDL
