MODEL 1
REMARK VINA RESULT:    -4.756      0.000      0.000
REMARK INTER + INTRA:          -8.714
REMARK INTER:                  -7.536
REMARK INTRA:                  -1.177
REMARK UNBOUND:                -1.177
REMARK SMILES CCCCCCCCCCCC(=O)[O-]
REMARK SMILES IDX 7 1 8 2 9 3 10 4 11 5 12 6 13 7 14 8 6 9 5 10 4 11 3 12 2 13
REMARK SMILES IDX 1 14
REMARK H PARENT
REMARK Flexibility Score: inf
ROOT
ATOM      1  C   UNL     1      26.956  10.463  30.560  1.00  0.00     0.000 C 
ENDROOT
BRANCH   1   2
ATOM      2  C   UNL     1      25.622  10.289  31.306  1.00  0.00     0.000 C 
BRANCH   2   3
ATOM      3  C   UNL     1      24.924  11.629  31.590  1.00  0.00     0.000 C 
BRANCH   3   4
ATOM      4  C   UNL     1      24.716  11.882  33.095  1.00  0.00     0.006 C 
BRANCH   4   5
ATOM      5  C   UNL     1      23.273  12.295  33.418  1.00  0.00     0.053 C 
BRANCH   5   6
ATOM      6  C   UNL     1      23.086  12.573  34.878  1.00  0.00     0.041 C 
ATOM      7  O   UNL     1      21.928  12.673  35.360  1.00  0.00    -0.550 OA
ATOM      8  O   UNL     1      24.192  12.693  35.710  1.00  0.00    -0.550 OA
ENDBRANCH   5   6
ENDBRANCH   4   5
ENDBRANCH   3   4
ENDBRANCH   2   3
ENDBRANCH   1   2
BRANCH   1   9
ATOM      9  C   UNL     1      27.297  11.939  30.299  1.00  0.00     0.000 C 
BRANCH   9  10
ATOM     10  C   UNL     1      28.567  12.394  31.039  1.00  0.00    -0.000 C 
BRANCH  10  11
ATOM     11  C   UNL     1      28.254  13.049  32.394  1.00  0.00    -0.000 C 
BRANCH  11  12
ATOM     12  C   UNL     1      28.406  12.070  33.571  1.00  0.00    -0.000 C 
BRANCH  12  13
ATOM     13  C   UNL     1      27.884  12.654  34.894  1.00  0.00    -0.003 C 
ATOM     14  C   UNL     1      27.645  14.161  34.820  1.00  0.00     0.004 C 
ENDBRANCH  12  13
ENDBRANCH  11  12
ENDBRANCH  10  11
ENDBRANCH   9  10
ENDBRANCH   1   9
TORSDOF 10
ENDMDL
MODEL 2
REMARK VINA RESULT:    -4.674      1.059      1.450
REMARK INTER + INTRA:          -8.583
REMARK INTER:                  -7.147
REMARK INTRA:                  -1.436
REMARK UNBOUND:                -1.177
REMARK SMILES CCCCCCCCCCCC(=O)[O-]
REMARK SMILES IDX 7 1 8 2 9 3 10 4 11 5 12 6 13 7 14 8 6 9 5 10 4 11 3 12 2 13
REMARK SMILES IDX 1 14
REMARK H PARENT
REMARK Flexibility Score: inf
ROOT
ATOM      1  C   UNL     1      27.576  10.782  30.755  1.00  0.00     0.000 C 
ENDROOT
BRANCH   1   2
ATOM      2  C   UNL     1      26.054  10.562  30.770  1.00  0.00     0.000 C 
BRANCH   2   3
ATOM      3  C   UNL     1      25.446  10.732  32.172  1.00  0.00     0.000 C 
BRANCH   3   4
ATOM      4  C   UNL     1      24.618  12.023  32.308  1.00  0.00     0.006 C 
BRANCH   4   5
ATOM      5  C   UNL     1      24.113  12.238  33.742  1.00  0.00     0.053 C 
BRANCH   5   6
ATOM      6  C   UNL     1      22.659  12.598  33.772  1.00  0.00     0.041 C 
ATOM      7  O   UNL     1      22.057  12.888  32.706  1.00  0.00    -0.550 OA
ATOM      8  O   UNL     1      21.964  12.587  34.975  1.00  0.00    -0.550 OA
ENDBRANCH   5   6
ENDBRANCH   4   5
ENDBRANCH   3   4
ENDBRANCH   2   3
ENDBRANCH   1   2
BRANCH   1   9
ATOM      9  C   UNL     1      27.980  12.060  30.001  1.00  0.00     0.000 C 
BRANCH   9  10
ATOM     10  C   UNL     1      28.571  13.134  30.931  1.00  0.00    -0.000 C 
BRANCH  10  11
ATOM     11  C   UNL     1      28.610  12.683  32.400  1.00  0.00    -0.000 C 
BRANCH  11  12
ATOM     12  C   UNL     1      27.794  13.605  33.322  1.00  0.00    -0.000 C 
BRANCH  12  13
ATOM     13  C   UNL     1      27.636  13.031  34.739  1.00  0.00    -0.003 C 
ATOM     14  C   UNL     1      27.790  11.512  34.781  1.00  0.00     0.004 C 
ENDBRANCH  12  13
ENDBRANCH  11  12
ENDBRANCH  10  11
ENDBRANCH   9  10
ENDBRANCH   1   9
TORSDOF 10
ENDMDL
MODEL 3
REMARK VINA RESULT:    -4.640      1.370      1.934
REMARK INTER + INTRA:          -8.529
REMARK INTER:                  -7.388
REMARK INTRA:                  -1.141
REMARK UNBOUND:                -1.177
REMARK SMILES CCCCCCCCCCCC(=O)[O-]
REMARK SMILES IDX 7 1 8 2 9 3 10 4 11 5 12 6 13 7 14 8 6 9 5 10 4 11 3 12 2 13
REMARK SMILES IDX 1 14
REMARK H PARENT
REMARK Flexibility Score: inf
ROOT
ATOM      1  C   UNL     1      26.012  10.661  31.641  1.00  0.00     0.000 C 
ENDROOT
BRANCH   1   2
ATOM      2  C   UNL     1      24.909  11.728  31.760  1.00  0.00     0.000 C 
BRANCH   2   3
ATOM      3  C   UNL     1      24.378  11.871  33.195  1.00  0.00     0.000 C 
BRANCH   3   4
ATOM      4  C   UNL     1      22.911  12.334  33.241  1.00  0.00     0.006 C 
BRANCH   4   5
ATOM      5  C   UNL     1      22.483  12.761  34.653  1.00  0.00     0.053 C 
BRANCH   5   6
ATOM      6  C   UNL     1      21.160  13.464  34.646  1.00  0.00     0.041 C 
ATOM      7  O   UNL     1      20.303  13.208  35.531  1.00  0.00    -0.550 OA
ATOM      8  O   UNL     1      20.886  14.422  33.678  1.00  0.00    -0.550 OA
ENDBRANCH   5   6
ENDBRANCH   4   5
ENDBRANCH   3   4
ENDBRANCH   2   3
ENDBRANCH   1   2
BRANCH   1   9
ATOM      9  C   UNL     1      27.275  11.195  30.947  1.00  0.00     0.000 C 
BRANCH   9  10
ATOM     10  C   UNL     1      27.518  12.689  31.225  1.00  0.00    -0.000 C 
BRANCH  10  11
ATOM     11  C   UNL     1      28.384  12.921  32.474  1.00  0.00    -0.000 C 
BRANCH  11  12
ATOM     12  C   UNL     1      27.650  13.729  33.558  1.00  0.00    -0.000 C 
BRANCH  12  13
ATOM     13  C   UNL     1      27.491  12.943  34.870  1.00  0.00    -0.003 C 
ATOM     14  C   UNL     1      27.840  11.464  34.719  1.00  0.00     0.004 C 
ENDBRANCH  12  13
ENDBRANCH  11  12
ENDBRANCH  10  11
ENDBRANCH   9  10
ENDBRANCH   1   9
TORSDOF 10
ENDMDL
MODEL 4
REMARK VINA RESULT:    -4.611      1.436      3.267
REMARK INTER + INTRA:          -8.484
REMARK INTER:                  -7.400
REMARK INTRA:                  -1.084
REMARK UNBOUND:                -1.177
REMARK SMILES CCCCCCCCCCCC(=O)[O-]
REMARK SMILES IDX 7 1 8 2 9 3 10 4 11 5 12 6 13 7 14 8 6 9 5 10 4 11 3 12 2 13
REMARK SMILES IDX 1 14
REMARK H PARENT
REMARK Flexibility Score: inf
ROOT
ATOM      1  C   UNL     1      26.444  11.258  34.525  1.00  0.00     0.000 C 
ENDROOT
BRANCH   1   2
ATOM      2  C   UNL     1      25.215  12.171  34.370  1.00  0.00     0.000 C 
BRANCH   2   3
ATOM      3  C   UNL     1      24.378  11.830  33.126  1.00  0.00     0.000 C 
BRANCH   3   4
ATOM      4  C   UNL     1      22.985  12.486  33.151  1.00  0.00     0.006 C 
BRANCH   4   5
ATOM      5  C   UNL     1      22.458  12.671  34.581  1.00  0.00     0.053 C 
BRANCH   5   6
ATOM      6  C   UNL     1      21.208  13.495  34.612  1.00  0.00     0.041 C 
ATOM      7  O   UNL     1      20.407  13.395  35.578  1.00  0.00    -0.550 OA
ATOM      8  O   UNL     1      20.941  14.395  33.588  1.00  0.00    -0.550 OA
ENDBRANCH   5   6
ENDBRANCH   4   5
ENDBRANCH   3   4
ENDBRANCH   2   3
ENDBRANCH   1   2
BRANCH   1   9
ATOM      9  C   UNL     1      27.765  12.044  34.539  1.00  0.00     0.000 C 
BRANCH   9  10
ATOM     10  C   UNL     1      27.729  13.280  33.623  1.00  0.00    -0.000 C 
BRANCH  10  11
ATOM     11  C   UNL     1      28.451  13.043  32.287  1.00  0.00    -0.000 C 
BRANCH  11  12
ATOM     12  C   UNL     1      27.487  12.635  31.160  1.00  0.00    -0.000 C 
BRANCH  12  13
ATOM     13  C   UNL     1      27.789  11.234  30.605  1.00  0.00    -0.003 C 
ATOM     14  C   UNL     1      26.632  10.257  30.808  1.00  0.00     0.004 C 
ENDBRANCH  12  13
ENDBRANCH  11  12
ENDBRANCH  10  11
ENDBRANCH   9  10
ENDBRANCH   1   9
TORSDOF 10
ENDMDL
MODEL 5
REMARK VINA RESULT:    -4.578      1.996      3.238
REMARK INTER + INTRA:          -8.431
REMARK INTER:                  -7.147
REMARK INTRA:                  -1.285
REMARK UNBOUND:                -1.177
REMARK SMILES CCCCCCCCCCCC(=O)[O-]
REMARK SMILES IDX 7 1 8 2 9 3 10 4 11 5 12 6 13 7 14 8 6 9 5 10 4 11 3 12 2 13
REMARK SMILES IDX 1 14
REMARK H PARENT
REMARK Flexibility Score: inf
ROOT
ATOM      1  C   UNL     1      28.401  12.983  30.867  1.00  0.00     0.000 C 
ENDROOT
BRANCH   1   2
ATOM      2  C   UNL     1      28.311  11.757  29.941  1.00  0.00     0.000 C 
BRANCH   2   3
ATOM      3  C   UNL     1      27.613  10.561  30.609  1.00  0.00     0.000 C 
BRANCH   3   4
ATOM      4  C   UNL     1      26.122  10.461  30.237  1.00  0.00     0.006 C 
BRANCH   4   5
ATOM      5  C   UNL     1      25.208  10.678  31.451  1.00  0.00     0.053 C 
BRANCH   5   6
ATOM      6  C   UNL     1      24.532  12.014  31.410  1.00  0.00     0.041 C 
ATOM      7  O   UNL     1      24.823  12.842  30.508  1.00  0.00    -0.550 OA
ATOM      8  O   UNL     1      23.561  12.333  32.351  1.00  0.00    -0.550 OA
ENDBRANCH   5   6
ENDBRANCH   4   5
ENDBRANCH   3   4
ENDBRANCH   2   3
ENDBRANCH   1   2
BRANCH   1   9
ATOM      9  C   UNL     1      28.408  12.598  32.355  1.00  0.00     0.000 C 
BRANCH   9  10
ATOM     10  C   UNL     1      27.909  13.735  33.264  1.00  0.00    -0.000 C 
BRANCH  10  11
ATOM     11  C   UNL     1      27.592  13.253  34.688  1.00  0.00    -0.000 C 
BRANCH  11  12
ATOM     12  C   UNL     1      27.480  11.722  34.782  1.00  0.00    -0.000 C 
BRANCH  12  13
ATOM     13  C   UNL     1      26.024  11.243  34.895  1.00  0.00    -0.003 C 
ATOM     14  C   UNL     1      25.097  12.307  35.480  1.00  0.00     0.004 C 
ENDBRANCH  12  13
ENDBRANCH  11  12
ENDBRANCH  10  11
ENDBRANCH   9  10
ENDBRANCH   1   9
TORSDOF 10
ENDMDL
MODEL 6
REMARK VINA RESULT:    -4.574      1.178      3.431
REMARK INTER + INTRA:          -8.425
REMARK INTER:                  -7.263
REMARK INTRA:                  -1.162
REMARK UNBOUND:                -1.177
REMARK SMILES CCCCCCCCCCCC(=O)[O-]
REMARK SMILES IDX 7 1 8 2 9 3 10 4 11 5 12 6 13 7 14 8 6 9 5 10 4 11 3 12 2 13
REMARK SMILES IDX 1 14
REMARK H PARENT
REMARK Flexibility Score: inf
ROOT
ATOM      1  C   UNL     1      28.500  12.644  32.366  1.00  0.00     0.000 C 
ENDROOT
BRANCH   1   2
ATOM      2  C   UNL     1      27.621  13.724  33.020  1.00  0.00     0.000 C 
BRANCH   2   3
ATOM      3  C   UNL     1      27.436  13.501  34.530  1.00  0.00     0.000 C 
BRANCH   3   4
ATOM      4  C   UNL     1      26.867  12.109  34.859  1.00  0.00     0.006 C 
BRANCH   4   5
ATOM      5  C   UNL     1      25.453  11.914  34.293  1.00  0.00     0.053 C 
BRANCH   5   6
ATOM      6  C   UNL     1      24.407  12.503  35.190  1.00  0.00     0.041 C 
ATOM      7  O   UNL     1      24.705  12.861  36.360  1.00  0.00    -0.550 OA
ATOM      8  O   UNL     1      23.111  12.683  34.724  1.00  0.00    -0.550 OA
ENDBRANCH   5   6
ENDBRANCH   4   5
ENDBRANCH   3   4
ENDBRANCH   2   3
ENDBRANCH   1   2
BRANCH   1   9
ATOM      9  C   UNL     1      28.747  12.909  30.873  1.00  0.00     0.000 C 
BRANCH   9  10
ATOM     10  C   UNL     1      28.443  11.684  29.994  1.00  0.00    -0.000 C 
BRANCH  10  11
ATOM     11  C   UNL     1      27.489  10.692  30.678  1.00  0.00    -0.000 C 
BRANCH  11  12
ATOM     12  C   UNL     1      26.105  10.645  30.008  1.00  0.00    -0.000 C 
BRANCH  12  13
ATOM     13  C   UNL     1      25.073  11.529  30.727  1.00  0.00    -0.003 C 
ATOM     14  C   UNL     1      24.995  12.938  30.143  1.00  0.00     0.004 C 
ENDBRANCH  12  13
ENDBRANCH  11  12
ENDBRANCH  10  11
ENDBRANCH   9  10
ENDBRANCH   1   9
TORSDOF 10
ENDMDL
MODEL 7
REMARK VINA RESULT:    -4.517      1.343      3.792
REMARK INTER + INTRA:          -8.335
REMARK INTER:                  -7.128
REMARK INTRA:                  -1.206
REMARK UNBOUND:                -1.177
REMARK SMILES CCCCCCCCCCCC(=O)[O-]
REMARK SMILES IDX 7 1 8 2 9 3 10 4 11 5 12 6 13 7 14 8 6 9 5 10 4 11 3 12 2 13
REMARK SMILES IDX 1 14
REMARK H PARENT
REMARK Flexibility Score: inf
ROOT
ATOM      1  C   UNL     1      28.474  11.977  30.039  1.00  0.00     0.000 C 
ENDROOT
BRANCH   1   2
ATOM      2  C   UNL     1      28.765  13.030  31.123  1.00  0.00     0.000 C 
BRANCH   2   3
ATOM      3  C   UNL     1      28.433  12.528  32.538  1.00  0.00     0.000 C 
BRANCH   3   4
ATOM      4  C   UNL     1      27.687  13.579  33.380  1.00  0.00     0.006 C 
BRANCH   4   5
ATOM      5  C   UNL     1      27.595  13.177  34.859  1.00  0.00     0.053 C 
BRANCH   5   6
ATOM      6  C   UNL     1      26.393  12.325  35.132  1.00  0.00     0.041 C 
ATOM      7  O   UNL     1      26.425  11.090  34.891  1.00  0.00    -0.550 OA
ATOM      8  O   UNL     1      25.248  12.892  35.678  1.00  0.00    -0.550 OA
ENDBRANCH   5   6
ENDBRANCH   4   5
ENDBRANCH   3   4
ENDBRANCH   2   3
ENDBRANCH   1   2
BRANCH   1   9
ATOM      9  C   UNL     1      27.653  10.792  30.573  1.00  0.00     0.000 C 
BRANCH   9  10
ATOM     10  C   UNL     1      26.548  10.350  29.598  1.00  0.00    -0.000 C 
BRANCH  10  11
ATOM     11  C   UNL     1      25.144  10.742  30.083  1.00  0.00    -0.000 C 
BRANCH  11  12
ATOM     12  C   UNL     1      25.063  10.870  31.614  1.00  0.00    -0.000 C 
BRANCH  12  13
ATOM     13  C   UNL     1      24.503  12.229  32.063  1.00  0.00    -0.003 C 
ATOM     14  C   UNL     1      23.178  12.103  32.813  1.00  0.00     0.004 C 
ENDBRANCH  12  13
ENDBRANCH  11  12
ENDBRANCH  10  11
ENDBRANCH   9  10
ENDBRANCH   1   9
TORSDOF 10
ENDMDL
MODEL 8
REMARK VINA RESULT:    -4.488      2.956      5.837
REMARK INTER + INTRA:          -8.289
REMARK INTER:                  -7.606
REMARK INTRA:                  -0.683
REMARK UNBOUND:                -1.177
REMARK SMILES CCCCCCCCCCCC(=O)[O-]
REMARK SMILES IDX 7 1 8 2 9 3 10 4 11 5 12 6 13 7 14 8 6 9 5 10 4 11 3 12 2 13
REMARK SMILES IDX 1 14
REMARK H PARENT
REMARK Flexibility Score: inf
ROOT
ATOM      1  C   UNL     1      26.785  11.686  34.547  1.00  0.00     0.000 C 
ENDROOT
BRANCH   1   2
ATOM      2  C   UNL     1      27.528  13.021  34.734  1.00  0.00     0.000 C 
BRANCH   2   3
ATOM      3  C   UNL     1      27.822  13.726  33.399  1.00  0.00     0.000 C 
BRANCH   3   4
ATOM      4  C   UNL     1      28.565  12.820  32.401  1.00  0.00     0.006 C 
BRANCH   4   5
ATOM      5  C   UNL     1      27.852  12.749  31.043  1.00  0.00     0.053 C 
BRANCH   5   6
ATOM      6  C   UNL     1      27.845  11.357  30.489  1.00  0.00     0.041 C 
ATOM      7  O   UNL     1      27.214  10.443  31.081  1.00  0.00    -0.550 OA
ATOM      8  O   UNL     1      28.512  11.076  29.303  1.00  0.00    -0.550 OA
ENDBRANCH   5   6
ENDBRANCH   4   5
ENDBRANCH   3   4
ENDBRANCH   2   3
ENDBRANCH   1   2
BRANCH   1   9
ATOM      9  C   UNL     1      25.279  11.878  34.310  1.00  0.00     0.000 C 
BRANCH   9  10
ATOM     10  C   UNL     1      24.521  12.263  35.593  1.00  0.00    -0.000 C 
BRANCH  10  11
ATOM     11  C   UNL     1      23.059  12.649  35.318  1.00  0.00    -0.000 C 
BRANCH  11  12
ATOM     12  C   UNL     1      22.710  12.611  33.821  1.00  0.00    -0.000 C 
BRANCH  12  13
ATOM     13  C   UNL     1      21.211  12.833  33.560  1.00  0.00    -0.003 C 
ATOM     14  C   UNL     1      20.725  14.200  34.036  1.00  0.00     0.004 C 
ENDBRANCH  12  13
ENDBRANCH  11  12
ENDBRANCH  10  11
ENDBRANCH   9  10
ENDBRANCH   1   9
TORSDOF 10
ENDMDL
MODEL 9
REMARK VINA RESULT:    -4.442      1.172      3.287
REMARK INTER + INTRA:          -8.216
REMARK INTER:                  -7.320
REMARK INTRA:                  -0.897
REMARK UNBOUND:                -1.177
REMARK SMILES CCCCCCCCCCCC(=O)[O-]
REMARK SMILES IDX 7 1 8 2 9 3 10 4 11 5 12 6 13 7 14 8 6 9 5 10 4 11 3 12 2 13
REMARK SMILES IDX 1 14
REMARK H PARENT
REMARK Flexibility Score: inf
ROOT
ATOM      1  C   UNL     1      28.399  12.559  33.757  1.00  0.00     0.000 C 
ENDROOT
BRANCH   1   2
ATOM      2  C   UNL     1      27.394  12.655  34.919  1.00  0.00     0.000 C 
BRANCH   2   3
ATOM      3  C   UNL     1      26.276  11.604  34.821  1.00  0.00     0.000 C 
BRANCH   3   4
ATOM      4  C   UNL     1      24.958  12.189  34.282  1.00  0.00     0.006 C 
BRANCH   4   5
ATOM      5  C   UNL     1      23.927  12.416  35.397  1.00  0.00     0.053 C 
BRANCH   5   6
ATOM      6  C   UNL     1      22.543  12.589  34.849  1.00  0.00     0.041 C 
ATOM      7  O   UNL     1      22.373  13.076  33.701  1.00  0.00    -0.550 OA
ATOM      8  O   UNL     1      21.443  12.185  35.596  1.00  0.00    -0.550 OA
ENDBRANCH   5   6
ENDBRANCH   4   5
ENDBRANCH   3   4
ENDBRANCH   2   3
ENDBRANCH   1   2
BRANCH   1   9
ATOM      9  C   UNL     1      27.974  13.397  32.540  1.00  0.00     0.000 C 
BRANCH   9  10
ATOM     10  C   UNL     1      28.710  12.986  31.252  1.00  0.00    -0.000 C 
BRANCH  10  11
ATOM     11  C   UNL     1      27.751  12.774  30.070  1.00  0.00    -0.000 C 
BRANCH  11  12
ATOM     12  C   UNL     1      27.679  11.304  29.624  1.00  0.00    -0.000 C 
BRANCH  12  13
ATOM     13  C   UNL     1      27.210  10.370  30.751  1.00  0.00    -0.003 C 
ATOM     14  C   UNL     1      25.744  10.583  31.123  1.00  0.00     0.004 C 
ENDBRANCH  12  13
ENDBRANCH  11  12
ENDBRANCH  10  11
ENDBRANCH   9  10
ENDBRANCH   1   9
TORSDOF 10
ENDMDL
