MODEL 1
REMARK VINA RESULT:    -4.693      0.000      0.000
REMARK INTER + INTRA:         -10.219
REMARK INTER:                  -8.534
REMARK INTRA:                  -1.685
REMARK UNBOUND:                -1.685
REMARK SMILES CCCCCCCCCCCCCCCC(=O)[O-]
REMARK SMILES IDX 9 1 10 2 11 3 12 4 13 5 14 6 15 7 16 8 17 9 18 10 8 11 7 12
REMARK SMILES IDX 6 13 5 14 4 15 3 16 2 17 1 18
REMARK H PARENT
REMARK Flexibility Score: inf
ROOT
ATOM      1  C   UNL     1      44.427  60.835  49.058  1.00  0.00     0.000 C 
ENDROOT
BRANCH   1   2
ATOM      2  C   UNL     1      45.419  59.935  49.825  1.00  0.00     0.000 C 
BRANCH   2   3
ATOM      3  C   UNL     1      45.166  58.423  49.693  1.00  0.00     0.000 C 
BRANCH   3   4
ATOM      4  C   UNL     1      46.007  57.770  48.585  1.00  0.00     0.000 C 
BRANCH   4   5
ATOM      5  C   UNL     1      45.248  56.609  47.932  1.00  0.00     0.000 C 
BRANCH   5   6
ATOM      6  C   UNL     1      43.861  57.060  47.451  1.00  0.00     0.006 C 
BRANCH   6   7
ATOM      7  C   UNL     1      43.940  57.965  46.215  1.00  0.00     0.053 C 
BRANCH   7   8
ATOM      8  C   UNL     1      42.857  57.652  45.229  1.00  0.00     0.041 C 
ATOM      9  O   UNL     1      43.070  56.844  44.287  1.00  0.00    -0.550 OA
ATOM     10  O   UNL     1      41.620  58.277  45.334  1.00  0.00    -0.550 OA
ENDBRANCH   7   8
ENDBRANCH   6   7
ENDBRANCH   5   6
ENDBRANCH   4   5
ENDBRANCH   3   4
ENDBRANCH   2   3
ENDBRANCH   1   2
BRANCH   1  11
ATOM     11  C   UNL     1      43.121  61.155  49.809  1.00  0.00     0.000 C 
BRANCH  11  12
ATOM     12  C   UNL     1      41.858  61.184  48.928  1.00  0.00    -0.000 C 
BRANCH  12  13
ATOM     13  C   UNL     1      41.507  59.818  48.300  1.00  0.00    -0.000 C 
BRANCH  13  14
ATOM     14  C   UNL     1      41.452  58.688  49.342  1.00  0.00    -0.000 C 
BRANCH  14  15
ATOM     15  C   UNL     1      40.094  57.966  49.361  1.00  0.00    -0.000 C 
BRANCH  15  16
ATOM     16  C   UNL     1      39.682  57.447  47.977  1.00  0.00    -0.000 C 
BRANCH  16  17
ATOM     17  C   UNL     1      40.474  56.188  47.605  1.00  0.00    -0.003 C 
ATOM     18  C   UNL     1      39.583  55.159  46.914  1.00  0.00     0.004 C 
ENDBRANCH  16  17
ENDBRANCH  15  16
ENDBRANCH  14  15
ENDBRANCH  13  14
ENDBRANCH  12  13
ENDBRANCH  11  12
ENDBRANCH   1  11
TORSDOF 14
ENDMDL
MODEL 2
REMARK VINA RESULT:    -4.614      1.226      4.046
REMARK INTER + INTRA:         -10.075
REMARK INTER:                  -8.214
REMARK INTRA:                  -1.861
REMARK UNBOUND:                -1.685
REMARK SMILES CCCCCCCCCCCCCCCC(=O)[O-]
REMARK SMILES IDX 9 1 10 2 11 3 12 4 13 5 14 6 15 7 16 8 17 9 18 10 8 11 7 12
REMARK SMILES IDX 6 13 5 14 4 15 3 16 2 17 1 18
REMARK H PARENT
REMARK Flexibility Score: inf
ROOT
ATOM      1  C   UNL     1      44.456  60.873  48.951  1.00  0.00     0.000 C 
ENDROOT
BRANCH   1   2
ATOM      2  C   UNL     1      43.344  61.477  49.834  1.00  0.00     0.000 C 
BRANCH   2   3
ATOM      3  C   UNL     1      41.925  61.392  49.246  1.00  0.00     0.000 C 
BRANCH   3   4
ATOM      4  C   UNL     1      41.746  60.210  48.280  1.00  0.00     0.000 C 
BRANCH   4   5
ATOM      5  C   UNL     1      41.483  58.909  49.048  1.00  0.00     0.000 C 
BRANCH   5   6
ATOM      6  C   UNL     1      40.348  58.107  48.396  1.00  0.00     0.006 C 
BRANCH   6   7
ATOM      7  C   UNL     1      40.774  56.673  48.051  1.00  0.00     0.053 C 
BRANCH   7   8
ATOM      8  C   UNL     1      40.036  56.149  46.857  1.00  0.00     0.041 C 
ATOM      9  O   UNL     1      39.619  54.962  46.839  1.00  0.00    -0.550 OA
ATOM     10  O   UNL     1      39.836  56.967  45.750  1.00  0.00    -0.550 OA
ENDBRANCH   7   8
ENDBRANCH   6   7
ENDBRANCH   5   6
ENDBRANCH   4   5
ENDBRANCH   3   4
ENDBRANCH   2   3
ENDBRANCH   1   2
BRANCH   1  11
ATOM     11  C   UNL     1      45.469  59.982  49.695  1.00  0.00     0.000 C 
BRANCH  11  12
ATOM     12  C   UNL     1      45.139  58.478  49.686  1.00  0.00    -0.000 C 
BRANCH  12  13
ATOM     13  C   UNL     1      46.129  57.629  48.858  1.00  0.00    -0.000 C 
BRANCH  13  14
ATOM     14  C   UNL     1      45.415  56.635  47.926  1.00  0.00    -0.000 C 
BRANCH  14  15
ATOM     15  C   UNL     1      44.048  57.150  47.445  1.00  0.00    -0.000 C 
BRANCH  15  16
ATOM     16  C   UNL     1      44.173  58.251  46.383  1.00  0.00    -0.000 C 
BRANCH  16  17
ATOM     17  C   UNL     1      42.999  58.198  45.398  1.00  0.00    -0.003 C 
ATOM     18  C   UNL     1      43.103  56.982  44.481  1.00  0.00     0.004 C 
ENDBRANCH  16  17
ENDBRANCH  15  16
ENDBRANCH  14  15
ENDBRANCH  13  14
ENDBRANCH  12  13
ENDBRANCH  11  12
ENDBRANCH   1  11
TORSDOF 14
ENDMDL
MODEL 3
REMARK VINA RESULT:    -4.576      2.015      5.087
REMARK INTER + INTRA:         -10.006
REMARK INTER:                  -8.358
REMARK INTRA:                  -1.649
REMARK UNBOUND:                -1.685
REMARK SMILES CCCCCCCCCCCCCCCC(=O)[O-]
REMARK SMILES IDX 9 1 10 2 11 3 12 4 13 5 14 6 15 7 16 8 17 9 18 10 8 11 7 12
REMARK SMILES IDX 6 13 5 14 4 15 3 16 2 17 1 18
REMARK H PARENT
REMARK Flexibility Score: inf
ROOT
ATOM      1  C   UNL     1      40.380  56.747  47.345  1.00  0.00     0.000 C 
ENDROOT
BRANCH   1   2
ATOM      2  C   UNL     1      40.364  57.186  45.867  1.00  0.00     0.000 C 
BRANCH   2   3
ATOM      3  C   UNL     1      41.577  58.021  45.419  1.00  0.00     0.000 C 
BRANCH   3   4
ATOM      4  C   UNL     1      42.664  57.177  44.735  1.00  0.00     0.000 C 
BRANCH   4   5
ATOM      5  C   UNL     1      44.065  57.652  45.140  1.00  0.00     0.000 C 
BRANCH   5   6
ATOM      6  C   UNL     1      44.067  58.196  46.576  1.00  0.00     0.006 C 
BRANCH   6   7
ATOM      7  C   UNL     1      44.317  57.094  47.614  1.00  0.00     0.053 C 
BRANCH   7   8
ATOM      8  C   UNL     1      45.360  57.499  48.611  1.00  0.00     0.041 C 
ATOM      9  O   UNL     1      45.029  58.088  49.673  1.00  0.00    -0.550 OA
ATOM     10  O   UNL     1      46.703  57.250  48.350  1.00  0.00    -0.550 OA
ENDBRANCH   7   8
ENDBRANCH   6   7
ENDBRANCH   5   6
ENDBRANCH   4   5
ENDBRANCH   3   4
ENDBRANCH   2   3
ENDBRANCH   1   2
BRANCH   1  11
ATOM     11  C   UNL     1      39.622  57.676  48.312  1.00  0.00     0.000 C 
BRANCH  11  12
ATOM     12  C   UNL     1      40.421  58.106  49.557  1.00  0.00    -0.000 C 
BRANCH  12  13
ATOM     13  C   UNL     1      41.750  58.821  49.226  1.00  0.00    -0.000 C 
BRANCH  13  14
ATOM     14  C   UNL     1      41.543  60.083  48.372  1.00  0.00    -0.000 C 
BRANCH  14  15
ATOM     15  C   UNL     1      41.989  61.366  49.093  1.00  0.00    -0.000 C 
BRANCH  15  16
ATOM     16  C   UNL     1      43.357  61.215  49.774  1.00  0.00    -0.000 C 
BRANCH  16  17
ATOM     17  C   UNL     1      44.479  61.113  48.734  1.00  0.00    -0.003 C 
ATOM     18  C   UNL     1      45.613  62.085  49.050  1.00  0.00     0.004 C 
ENDBRANCH  16  17
ENDBRANCH  15  16
ENDBRANCH  14  15
ENDBRANCH  13  14
ENDBRANCH  12  13
ENDBRANCH  11  12
ENDBRANCH   1  11
TORSDOF 14
ENDMDL
MODEL 4
REMARK VINA RESULT:    -4.456      1.822      4.824
REMARK INTER + INTRA:          -9.788
REMARK INTER:                  -8.272
REMARK INTRA:                  -1.516
REMARK UNBOUND:                -1.685
REMARK SMILES CCCCCCCCCCCCCCCC(=O)[O-]
REMARK SMILES IDX 9 1 10 2 11 3 12 4 13 5 14 6 15 7 16 8 17 9 18 10 8 11 7 12
REMARK SMILES IDX 6 13 5 14 4 15 3 16 2 17 1 18
REMARK H PARENT
REMARK Flexibility Score: inf
ROOT
ATOM      1  C   UNL     1      44.259  57.102  47.476  1.00  0.00     0.000 C 
ENDROOT
BRANCH   1   2
ATOM      2  C   UNL     1      44.240  58.231  46.425  1.00  0.00     0.000 C 
BRANCH   2   3
ATOM      3  C   UNL     1      43.840  57.795  45.004  1.00  0.00     0.000 C 
BRANCH   3   4
ATOM      4  C   UNL     1      42.512  57.022  44.968  1.00  0.00     0.000 C 
BRANCH   4   5
ATOM      5  C   UNL     1      41.330  57.945  45.289  1.00  0.00     0.000 C 
BRANCH   5   6
ATOM      6  C   UNL     1      40.280  57.217  46.141  1.00  0.00     0.006 C 
BRANCH   6   7
ATOM      7  C   UNL     1      40.879  56.636  47.429  1.00  0.00     0.053 C 
BRANCH   7   8
ATOM      8  C   UNL     1      40.555  57.483  48.621  1.00  0.00     0.041 C 
ATOM      9  O   UNL     1      39.384  57.911  48.798  1.00  0.00    -0.550 OA
ATOM     10  O   UNL     1      41.557  57.825  49.523  1.00  0.00    -0.550 OA
ENDBRANCH   7   8
ENDBRANCH   6   7
ENDBRANCH   5   6
ENDBRANCH   4   5
ENDBRANCH   3   4
ENDBRANCH   2   3
ENDBRANCH   1   2
BRANCH   1  11
ATOM     11  C   UNL     1      45.656  56.717  47.997  1.00  0.00     0.000 C 
BRANCH  11  12
ATOM     12  C   UNL     1      46.280  57.726  48.981  1.00  0.00    -0.000 C 
BRANCH  12  13
ATOM     13  C   UNL     1      45.245  58.445  49.874  1.00  0.00    -0.000 C 
BRANCH  13  14
ATOM     14  C   UNL     1      45.343  59.977  49.772  1.00  0.00    -0.000 C 
BRANCH  14  15
ATOM     15  C   UNL     1      44.205  60.589  48.939  1.00  0.00    -0.000 C 
BRANCH  15  16
ATOM     16  C   UNL     1      43.128  61.253  49.810  1.00  0.00    -0.000 C 
BRANCH  16  17
ATOM     17  C   UNL     1      41.811  61.396  49.039  1.00  0.00    -0.003 C 
ATOM     18  C   UNL     1      41.817  60.542  47.773  1.00  0.00     0.004 C 
ENDBRANCH  16  17
ENDBRANCH  15  16
ENDBRANCH  14  15
ENDBRANCH  13  14
ENDBRANCH  12  13
ENDBRANCH  11  12
ENDBRANCH   1  11
TORSDOF 14
ENDMDL
MODEL 5
REMARK VINA RESULT:    -4.443      2.359      5.695
REMARK INTER + INTRA:          -9.764
REMARK INTER:                  -7.998
REMARK INTRA:                  -1.766
REMARK UNBOUND:                -1.685
REMARK SMILES CCCCCCCCCCCCCCCC(=O)[O-]
REMARK SMILES IDX 9 1 10 2 11 3 12 4 13 5 14 6 15 7 16 8 17 9 18 10 8 11 7 12
REMARK SMILES IDX 6 13 5 14 4 15 3 16 2 17 1 18
REMARK H PARENT
REMARK Flexibility Score: inf
ROOT
ATOM      1  C   UNL     1      40.781  57.501  45.924  1.00  0.00     0.000 C 
ENDROOT
BRANCH   1   2
ATOM      2  C   UNL     1      40.469  56.802  47.263  1.00  0.00     0.000 C 
BRANCH   2   3
ATOM      3  C   UNL     1      39.583  57.607  48.230  1.00  0.00     0.000 C 
BRANCH   3   4
ATOM      4  C   UNL     1      40.317  58.007  49.520  1.00  0.00     0.000 C 
BRANCH   4   5
ATOM      5  C   UNL     1      41.706  58.577  49.208  1.00  0.00     0.000 C 
BRANCH   5   6
ATOM      6  C   UNL     1      41.600  59.991  48.621  1.00  0.00     0.006 C 
BRANCH   6   7
ATOM      7  C   UNL     1      42.965  60.545  48.191  1.00  0.00     0.053 C 
BRANCH   7   8
ATOM      8  C   UNL     1      43.613  61.334  49.287  1.00  0.00     0.041 C 
ATOM      9  O   UNL     1      42.932  61.745  50.262  1.00  0.00    -0.550 OA
ATOM     10  O   UNL     1      44.968  61.640  49.215  1.00  0.00    -0.550 OA
ENDBRANCH   7   8
ENDBRANCH   6   7
ENDBRANCH   5   6
ENDBRANCH   4   5
ENDBRANCH   3   4
ENDBRANCH   2   3
ENDBRANCH   1   2
BRANCH   1  11
ATOM     11  C   UNL     1      42.192  57.241  45.364  1.00  0.00     0.000 C 
BRANCH  11  12
ATOM     12  C   UNL     1      43.187  58.403  45.550  1.00  0.00    -0.000 C 
BRANCH  12  13
ATOM     13  C   UNL     1      44.495  57.992  46.261  1.00  0.00    -0.000 C 
BRANCH  13  14
ATOM     14  C   UNL     1      44.252  57.006  47.416  1.00  0.00    -0.000 C 
BRANCH  14  15
ATOM     15  C   UNL     1      45.560  56.476  48.026  1.00  0.00    -0.000 C 
BRANCH  15  16
ATOM     16  C   UNL     1      46.300  57.538  48.852  1.00  0.00    -0.000 C 
BRANCH  16  17
ATOM     17  C   UNL     1      45.323  58.325  49.735  1.00  0.00    -0.003 C 
ATOM     18  C   UNL     1      45.947  58.657  51.088  1.00  0.00     0.004 C 
ENDBRANCH  16  17
ENDBRANCH  15  16
ENDBRANCH  14  15
ENDBRANCH  13  14
ENDBRANCH  12  13
ENDBRANCH  11  12
ENDBRANCH   1  11
TORSDOF 14
ENDMDL
MODEL 6
REMARK VINA RESULT:    -4.421      1.820      4.086
REMARK INTER + INTRA:          -9.724
REMARK INTER:                  -7.908
REMARK INTRA:                  -1.815
REMARK UNBOUND:                -1.685
REMARK SMILES CCCCCCCCCCCCCCCC(=O)[O-]
REMARK SMILES IDX 9 1 10 2 11 3 12 4 13 5 14 6 15 7 16 8 17 9 18 10 8 11 7 12
REMARK SMILES IDX 6 13 5 14 4 15 3 16 2 17 1 18
REMARK H PARENT
REMARK Flexibility Score: inf
ROOT
ATOM      1  C   UNL     1      46.009  57.897  48.641  1.00  0.00     0.000 C 
ENDROOT
BRANCH   1   2
ATOM      2  C   UNL     1      45.241  58.517  49.826  1.00  0.00     0.000 C 
BRANCH   2   3
ATOM      3  C   UNL     1      45.288  60.054  49.903  1.00  0.00     0.000 C 
BRANCH   3   4
ATOM      4  C   UNL     1      44.288  60.731  48.953  1.00  0.00     0.000 C 
BRANCH   4   5
ATOM      5  C   UNL     1      43.150  61.396  49.736  1.00  0.00     0.000 C 
BRANCH   5   6
ATOM      6  C   UNL     1      41.796  61.144  49.059  1.00  0.00     0.006 C 
BRANCH   6   7
ATOM      7  C   UNL     1      41.777  59.829  48.269  1.00  0.00     0.053 C 
BRANCH   7   8
ATOM      8  C   UNL     1      41.210  58.703  49.079  1.00  0.00     0.041 C 
ATOM      9  O   UNL     1      41.967  57.975  49.773  1.00  0.00    -0.550 OA
ATOM     10  O   UNL     1      39.845  58.441  49.042  1.00  0.00    -0.550 OA
ENDBRANCH   7   8
ENDBRANCH   6   7
ENDBRANCH   5   6
ENDBRANCH   4   5
ENDBRANCH   3   4
ENDBRANCH   2   3
ENDBRANCH   1   2
BRANCH   1  11
ATOM     11  C   UNL     1      45.361  56.640  48.029  1.00  0.00     0.000 C 
BRANCH  11  12
ATOM     12  C   UNL     1      43.971  56.866  47.405  1.00  0.00    -0.000 C 
BRANCH  12  13
ATOM     13  C   UNL     1      43.933  58.012  46.371  1.00  0.00    -0.000 C 
BRANCH  13  14
ATOM     14  C   UNL     1      43.752  57.500  44.931  1.00  0.00    -0.000 C 
BRANCH  14  15
ATOM     15  C   UNL     1      42.313  57.043  44.642  1.00  0.00    -0.000 C 
BRANCH  15  16
ATOM     16  C   UNL     1      41.262  58.009  45.209  1.00  0.00    -0.000 C 
BRANCH  16  17
ATOM     17  C   UNL     1      40.055  57.242  45.763  1.00  0.00    -0.003 C 
ATOM     18  C   UNL     1      40.497  56.106  46.681  1.00  0.00     0.004 C 
ENDBRANCH  16  17
ENDBRANCH  15  16
ENDBRANCH  14  15
ENDBRANCH  13  14
ENDBRANCH  12  13
ENDBRANCH  11  12
ENDBRANCH   1  11
TORSDOF 14
ENDMDL
MODEL 7
REMARK VINA RESULT:    -4.411      2.637      5.588
REMARK INTER + INTRA:          -9.705
REMARK INTER:                  -7.770
REMARK INTRA:                  -1.935
REMARK UNBOUND:                -1.685
REMARK SMILES CCCCCCCCCCCCCCCC(=O)[O-]
REMARK SMILES IDX 9 1 10 2 11 3 12 4 13 5 14 6 15 7 16 8 17 9 18 10 8 11 7 12
REMARK SMILES IDX 6 13 5 14 4 15 3 16 2 17 1 18
REMARK H PARENT
REMARK Flexibility Score: inf
ROOT
ATOM      1  C   UNL     1      40.669  56.872  47.523  1.00  0.00     0.000 C 
ENDROOT
BRANCH   1   2
ATOM      2  C   UNL     1      40.325  57.859  48.657  1.00  0.00     0.000 C 
BRANCH   2   3
ATOM      3  C   UNL     1      41.491  58.750  49.124  1.00  0.00     0.000 C 
BRANCH   3   4
ATOM      4  C   UNL     1      41.667  60.007  48.257  1.00  0.00     0.000 C 
BRANCH   4   5
ATOM      5  C   UNL     1      41.752  61.267  49.128  1.00  0.00     0.000 C 
BRANCH   5   6
ATOM      6  C   UNL     1      43.170  61.454  49.686  1.00  0.00     0.006 C 
BRANCH   6   7
ATOM      7  C   UNL     1      44.251  61.118  48.650  1.00  0.00     0.053 C 
BRANCH   7   8
ATOM      8  C   UNL     1      45.599  61.616  49.075  1.00  0.00     0.041 C 
ATOM      9  O   UNL     1      46.097  62.639  48.537  1.00  0.00    -0.550 OA
ATOM     10  O   UNL     1      46.317  60.929  50.047  1.00  0.00    -0.550 OA
ENDBRANCH   7   8
ENDBRANCH   6   7
ENDBRANCH   5   6
ENDBRANCH   4   5
ENDBRANCH   3   4
ENDBRANCH   2   3
ENDBRANCH   1   2
BRANCH   1  11
ATOM     11  C   UNL     1      40.154  57.275  46.128  1.00  0.00     0.000 C 
BRANCH  11  12
ATOM     12  C   UNL     1      41.201  57.952  45.223  1.00  0.00    -0.000 C 
BRANCH  12  13
ATOM     13  C   UNL     1      42.390  57.038  44.856  1.00  0.00    -0.000 C 
BRANCH  13  14
ATOM     14  C   UNL     1      43.737  57.780  44.897  1.00  0.00    -0.000 C 
BRANCH  14  15
ATOM     15  C   UNL     1      44.065  58.335  46.293  1.00  0.00    -0.000 C 
BRANCH  15  16
ATOM     16  C   UNL     1      44.297  57.226  47.329  1.00  0.00    -0.000 C 
BRANCH  16  17
ATOM     17  C   UNL     1      44.992  57.779  48.579  1.00  0.00    -0.003 C 
ATOM     18  C   UNL     1      46.457  57.353  48.629  1.00  0.00     0.004 C 
ENDBRANCH  16  17
ENDBRANCH  15  16
ENDBRANCH  14  15
ENDBRANCH  13  14
ENDBRANCH  12  13
ENDBRANCH  11  12
ENDBRANCH   1  11
TORSDOF 14
ENDMDL
MODEL 8
REMARK VINA RESULT:    -4.390      2.561      4.491
REMARK INTER + INTRA:          -9.667
REMARK INTER:                  -7.705
REMARK INTRA:                  -1.961
REMARK UNBOUND:                -1.685
REMARK SMILES CCCCCCCCCCCCCCCC(=O)[O-]
REMARK SMILES IDX 9 1 10 2 11 3 12 4 13 5 14 6 15 7 16 8 17 9 18 10 8 11 7 12
REMARK SMILES IDX 6 13 5 14 4 15 3 16 2 17 1 18
REMARK H PARENT
REMARK Flexibility Score: inf
ROOT
ATOM      1  C   UNL     1      44.042  58.057  46.519  1.00  0.00     0.000 C 
ENDROOT
BRANCH   1   2
ATOM      2  C   UNL     1      44.162  56.880  47.508  1.00  0.00     0.000 C 
BRANCH   2   3
ATOM      3  C   UNL     1      45.592  56.568  47.983  1.00  0.00     0.000 C 
BRANCH   3   4
ATOM      4  C   UNL     1      46.225  57.723  48.774  1.00  0.00     0.000 C 
BRANCH   4   5
ATOM      5  C   UNL     1      45.371  58.086  49.994  1.00  0.00     0.000 C 
BRANCH   5   6
ATOM      6  C   UNL     1      45.324  59.607  50.200  1.00  0.00     0.006 C 
BRANCH   6   7
ATOM      7  C   UNL     1      45.075  60.363  48.888  1.00  0.00     0.053 C 
BRANCH   7   8
ATOM      8  C   UNL     1      45.014  61.844  49.106  1.00  0.00     0.041 C 
ATOM      9  O   UNL     1      44.003  62.365  49.646  1.00  0.00    -0.550 OA
ATOM     10  O   UNL     1      46.063  62.652  48.683  1.00  0.00    -0.550 OA
ENDBRANCH   7   8
ENDBRANCH   6   7
ENDBRANCH   5   6
ENDBRANCH   4   5
ENDBRANCH   3   4
ENDBRANCH   2   3
ENDBRANCH   1   2
BRANCH   1  11
ATOM     11  C   UNL     1      43.760  57.658  45.058  1.00  0.00     0.000 C 
BRANCH  11  12
ATOM     12  C   UNL     1      42.365  57.054  44.810  1.00  0.00    -0.000 C 
BRANCH  12  13
ATOM     13  C   UNL     1      41.221  57.825  45.504  1.00  0.00    -0.000 C 
BRANCH  13  14
ATOM     14  C   UNL     1      40.533  56.996  46.601  1.00  0.00    -0.000 C 
BRANCH  14  15
ATOM     15  C   UNL     1      40.181  57.832  47.843  1.00  0.00    -0.000 C 
BRANCH  15  16
ATOM     16  C   UNL     1      41.227  57.699  48.960  1.00  0.00    -0.000 C 
BRANCH  16  17
ATOM     17  C   UNL     1      41.778  59.073  49.360  1.00  0.00    -0.003 C 
ATOM     18  C   UNL     1      41.620  60.083  48.226  1.00  0.00     0.004 C 
ENDBRANCH  16  17
ENDBRANCH  15  16
ENDBRANCH  14  15
ENDBRANCH  13  14
ENDBRANCH  12  13
ENDBRANCH  11  12
ENDBRANCH   1  11
TORSDOF 14
ENDMDL
MODEL 9
REMARK VINA RESULT:    -4.381      0.840      4.030
REMARK INTER + INTRA:          -9.651
REMARK INTER:                  -8.283
REMARK INTRA:                  -1.368
REMARK UNBOUND:                -1.685
REMARK SMILES CCCCCCCCCCCCCCCC(=O)[O-]
REMARK SMILES IDX 9 1 10 2 11 3 12 4 13 5 14 6 15 7 16 8 17 9 18 10 8 11 7 12
REMARK SMILES IDX 6 13 5 14 4 15 3 16 2 17 1 18
REMARK H PARENT
REMARK Flexibility Score: inf
ROOT
ATOM      1  C   UNL     1      41.788  60.006  48.305  1.00  0.00     0.000 C 
ENDROOT
BRANCH   1   2
ATOM      2  C   UNL     1      41.713  58.690  49.107  1.00  0.00     0.000 C 
BRANCH   2   3
ATOM      3  C   UNL     1      40.290  58.181  49.395  1.00  0.00     0.000 C 
BRANCH   3   4
ATOM      4  C   UNL     1      39.609  57.575  48.158  1.00  0.00     0.000 C 
BRANCH   4   5
ATOM      5  C   UNL     1      40.544  56.592  47.443  1.00  0.00     0.000 C 
BRANCH   5   6
ATOM      6  C   UNL     1      40.445  56.749  45.919  1.00  0.00     0.006 C 
BRANCH   6   7
ATOM      7  C   UNL     1      41.194  57.989  45.412  1.00  0.00     0.053 C 
BRANCH   7   8
ATOM      8  C   UNL     1      42.619  57.675  45.076  1.00  0.00     0.041 C 
ATOM      9  O   UNL     1      42.893  56.731  44.288  1.00  0.00    -0.550 OA
ATOM     10  O   UNL     1      43.648  58.408  45.657  1.00  0.00    -0.550 OA
ENDBRANCH   7   8
ENDBRANCH   6   7
ENDBRANCH   5   6
ENDBRANCH   4   5
ENDBRANCH   3   4
ENDBRANCH   2   3
ENDBRANCH   1   2
BRANCH   1  11
ATOM     11  C   UNL     1      41.950  61.280  49.155  1.00  0.00     0.000 C 
BRANCH  11  12
ATOM     12  C   UNL     1      43.316  61.425  49.852  1.00  0.00    -0.000 C 
BRANCH  12  13
ATOM     13  C   UNL     1      44.509  60.976  48.979  1.00  0.00    -0.000 C 
BRANCH  13  14
ATOM     14  C   UNL     1      45.439  59.995  49.714  1.00  0.00    -0.000 C 
BRANCH  14  15
ATOM     15  C   UNL     1      45.081  58.524  49.443  1.00  0.00    -0.000 C 
BRANCH  15  16
ATOM     16  C   UNL     1      46.237  57.744  48.802  1.00  0.00    -0.000 C 
BRANCH  16  17
ATOM     17  C   UNL     1      45.713  56.539  48.011  1.00  0.00    -0.003 C 
ATOM     18  C   UNL     1      44.187  56.496  48.019  1.00  0.00     0.004 C 
ENDBRANCH  16  17
ENDBRANCH  15  16
ENDBRANCH  14  15
ENDBRANCH  13  14
ENDBRANCH  12  13
ENDBRANCH  11  12
ENDBRANCH   1  11
TORSDOF 14
ENDMDL
