MODEL 1
REMARK VINA RESULT:    -7.087      0.000      0.000
REMARK INTER + INTRA:          -8.597
REMARK INTER:                  -8.330
REMARK INTRA:                  -0.266
REMARK UNBOUND:                -0.266
REMARK SMILES O=c1cc(-c2ccc(O)c(O)c2)oc2cc(O)cc(O)c12
REMARK SMILES IDX 4 1 3 2 2 3 1 4 21 5 19 6 18 7 16 8 15 9 14 10 13 11 5 12
REMARK SMILES IDX 6 13 7 14 8 15 12 16 10 17 9 18 11 20 20 22 17 24
REMARK H PARENT 9 19 11 21 20 23 17 25
REMARK Flexibility Score: inf
ROOT
ATOM      1  C   UNL     1      18.004 -10.192  18.870  1.00  0.00     0.138 A 
ATOM      2  C   UNL     1      17.197  -9.074  18.619  1.00  0.00     0.100 A 
ATOM      3  C   UNL     1      17.264  -7.969  19.469  1.00  0.00     0.197 A 
ATOM      4  O   UNL     1      16.482  -7.007  19.255  1.00  0.00    -0.289 OA
ATOM      5  C   UNL     1      18.169  -7.973  20.557  1.00  0.00     0.107 A 
ATOM      6  C   UNL     1      18.353  -6.887  21.464  1.00  0.00     0.134 A 
ATOM      7  C   UNL     1      19.193  -7.049  22.573  1.00  0.00     0.093 A 
ATOM      8  C   UNL     1      19.901  -8.233  22.774  1.00  0.00     0.123 A 
ATOM      9  C   UNL     1      19.771  -9.283  21.863  1.00  0.00     0.094 A 
ATOM     10  C   UNL     1      18.913  -9.165  20.766  1.00  0.00     0.146 A 
ATOM     11  O   UNL     1      18.805 -10.192  19.930  1.00  0.00    -0.456 OA
ENDROOT
BRANCH   1  12
ATOM     12  C   UNL     1      17.974 -11.393  17.998  1.00  0.00     0.021 A 
ATOM     13  C   UNL     1      17.210 -12.509  18.384  1.00  0.00     0.016 A 
ATOM     14  C   UNL     1      17.170 -13.654  17.584  1.00  0.00     0.051 A 
ATOM     15  C   UNL     1      17.900 -13.708  16.391  1.00  0.00     0.157 A 
ATOM     16  C   UNL     1      18.715 -11.459  16.802  1.00  0.00     0.062 A 
ATOM     17  C   UNL     1      18.676 -12.610  16.000  1.00  0.00     0.158 A 
BRANCH  15  18
ATOM     18  O   UNL     1      17.862 -14.847  15.590  1.00  0.00    -0.504 OA
ATOM     19  H   UNL     1      18.096 -14.810  14.604  1.00  0.00     0.293 HD
ENDBRANCH  15  18
BRANCH  17  20
ATOM     20  O   UNL     1      19.410 -12.670  14.817  1.00  0.00    -0.504 OA
ATOM     21  H   UNL     1      19.469 -13.522  14.272  1.00  0.00     0.293 HD
ENDBRANCH  17  20
ENDBRANCH   1  12
BRANCH   6  22
ATOM     22  O   UNL     1      17.759  -5.631  21.309  1.00  0.00    -0.507 OA
ATOM     23  H   UNL     1      17.104  -5.388  20.583  1.00  0.00     0.293 HD
ENDBRANCH   6  22
BRANCH   8  24
ATOM     24  O   UNL     1      20.740  -8.354  23.880  1.00  0.00    -0.508 OA
ATOM     25  H   UNL     1      20.401  -8.705  24.767  1.00  0.00     0.293 HD
ENDBRANCH   8  24
TORSDOF 5
ENDMDL
MODEL 2
REMARK VINA RESULT:    -7.043      1.386      7.293
REMARK INTER + INTRA:          -8.544
REMARK INTER:                  -8.278
REMARK INTRA:                  -0.266
REMARK UNBOUND:                -0.266
REMARK SMILES O=c1cc(-c2ccc(O)c(O)c2)oc2cc(O)cc(O)c12
REMARK SMILES IDX 4 1 3 2 2 3 1 4 21 5 19 6 18 7 16 8 15 9 14 10 13 11 5 12
REMARK SMILES IDX 6 13 7 14 8 15 12 16 10 17 9 18 11 20 20 22 17 24
REMARK H PARENT 9 19 11 21 20 23 17 25
REMARK Flexibility Score: inf
ROOT
ATOM      1  C   UNL     1      17.971 -10.686  18.394  1.00  0.00     0.138 A 
ATOM      2  C   UNL     1      17.128 -11.777  18.646  1.00  0.00     0.100 A 
ATOM      3  C   UNL     1      17.170 -12.891  17.807  1.00  0.00     0.197 A 
ATOM      4  O   UNL     1      16.358 -13.828  18.021  1.00  0.00    -0.289 OA
ATOM      5  C   UNL     1      18.085 -12.923  16.727  1.00  0.00     0.107 A 
ATOM      6  C   UNL     1      18.244 -14.022  15.830  1.00  0.00     0.134 A 
ATOM      7  C   UNL     1      19.099 -13.894  14.728  1.00  0.00     0.093 A 
ATOM      8  C   UNL     1      19.844 -12.733  14.525  1.00  0.00     0.123 A 
ATOM      9  C   UNL     1      19.737 -11.672  15.426  1.00  0.00     0.094 A 
ATOM     10  C   UNL     1      18.866 -11.756  16.515  1.00  0.00     0.146 A 
ATOM     11  O   UNL     1      18.781 -10.719  17.342  1.00  0.00    -0.456 OA
ENDROOT
BRANCH   1  12
ATOM     12  C   UNL     1      17.968  -9.478  19.257  1.00  0.00     0.021 A 
ATOM     13  C   UNL     1      17.215  -8.354  18.871  1.00  0.00     0.016 A 
ATOM     14  C   UNL     1      17.201  -7.202  19.661  1.00  0.00     0.051 A 
ATOM     15  C   UNL     1      17.947  -7.149  20.844  1.00  0.00     0.157 A 
ATOM     16  C   UNL     1      18.725  -9.412  20.443  1.00  0.00     0.062 A 
ATOM     17  C   UNL     1      18.712  -8.254  21.235  1.00  0.00     0.158 A 
BRANCH  15  18
ATOM     18  O   UNL     1      17.934  -6.002  21.636  1.00  0.00    -0.504 OA
ATOM     19  H   UNL     1      18.510  -5.198  21.414  1.00  0.00     0.293 HD
ENDBRANCH  15  18
BRANCH  17  20
ATOM     20  O   UNL     1      19.462  -8.194  22.408  1.00  0.00    -0.504 OA
ATOM     21  H   UNL     1      19.160  -7.645  23.204  1.00  0.00     0.293 HD
ENDBRANCH  17  20
ENDBRANCH   1  12
BRANCH   6  22
ATOM     22  O   UNL     1      17.612 -15.258  15.990  1.00  0.00    -0.507 OA
ATOM     23  H   UNL     1      17.581 -15.784  16.849  1.00  0.00     0.293 HD
ENDBRANCH   6  22
BRANCH   8  24
ATOM     24  O   UNL     1      20.696 -12.647  13.425  1.00  0.00    -0.508 OA
ATOM     25  H   UNL     1      21.564 -13.168  13.384  1.00  0.00     0.293 HD
ENDBRANCH   8  24
TORSDOF 5
ENDMDL
MODEL 3
REMARK VINA RESULT:    -6.841      1.142      1.410
REMARK INTER + INTRA:          -8.307
REMARK INTER:                  -8.014
REMARK INTRA:                  -0.293
REMARK UNBOUND:                -0.266
REMARK SMILES O=c1cc(-c2ccc(O)c(O)c2)oc2cc(O)cc(O)c12
REMARK SMILES IDX 4 1 3 2 2 3 1 4 21 5 19 6 18 7 16 8 15 9 14 10 13 11 5 12
REMARK SMILES IDX 6 13 7 14 8 15 12 16 10 17 9 18 11 20 20 22 17 24
REMARK H PARENT 9 19 11 21 20 23 17 25
REMARK Flexibility Score: inf
ROOT
ATOM      1  C   UNL     1      18.553 -10.752  19.265  1.00  0.00     0.138 A 
ATOM      2  C   UNL     1      17.694  -9.744  18.807  1.00  0.00     0.100 A 
ATOM      3  C   UNL     1      17.593  -8.547  19.518  1.00  0.00     0.197 A 
ATOM      4  O   UNL     1      16.767  -7.687  19.118  1.00  0.00    -0.289 OA
ATOM      5  C   UNL     1      18.381  -8.349  20.677  1.00  0.00     0.107 A 
ATOM      6  C   UNL     1      18.391  -7.155  21.458  1.00  0.00     0.134 A 
ATOM      7  C   UNL     1      19.124  -7.117  22.651  1.00  0.00     0.093 A 
ATOM      8  C   UNL     1      19.895  -8.205  23.058  1.00  0.00     0.123 A 
ATOM      9  C   UNL     1      19.935  -9.359  22.274  1.00  0.00     0.094 A 
ATOM     10  C   UNL     1      19.187  -9.441  21.097  1.00  0.00     0.146 A 
ATOM     11  O   UNL     1      19.241 -10.562  20.386  1.00  0.00    -0.456 OA
ENDROOT
BRANCH   1  12
ATOM     12  C   UNL     1      18.700 -12.043  18.546  1.00  0.00     0.021 A 
ATOM     13  C   UNL     1      19.832 -12.843  18.786  1.00  0.00     0.016 A 
ATOM     14  C   UNL     1      19.998 -14.059  18.117  1.00  0.00     0.051 A 
ATOM     15  C   UNL     1      19.041 -14.491  17.191  1.00  0.00     0.157 A 
ATOM     16  C   UNL     1      17.749 -12.479  17.604  1.00  0.00     0.062 A 
ATOM     17  C   UNL     1      17.917 -13.699  16.931  1.00  0.00     0.158 A 
BRANCH  15  18
ATOM     18  O   UNL     1      19.202 -15.703  16.524  1.00  0.00    -0.504 OA
ATOM     19  H   UNL     1      20.046 -15.914  16.003  1.00  0.00     0.293 HD
ENDBRANCH  15  18
BRANCH  17  20
ATOM     20  O   UNL     1      16.972 -14.127  16.000  1.00  0.00    -0.504 OA
ATOM     21  H   UNL     1      16.048 -14.432  16.283  1.00  0.00     0.293 HD
ENDBRANCH  17  20
ENDBRANCH   1  12
BRANCH   6  22
ATOM     22  O   UNL     1      17.724  -5.980  21.097  1.00  0.00    -0.507 OA
ATOM     23  H   UNL     1      17.046  -5.503  21.670  1.00  0.00     0.293 HD
ENDBRANCH   6  22
BRANCH   8  24
ATOM     24  O   UNL     1      20.624  -8.126  24.243  1.00  0.00    -0.508 OA
ATOM     25  H   UNL     1      21.280  -8.849  24.511  1.00  0.00     0.293 HD
ENDBRANCH   8  24
TORSDOF 5
ENDMDL
MODEL 4
REMARK VINA RESULT:    -6.809      1.404      7.190
REMARK INTER + INTRA:          -8.269
REMARK INTER:                  -8.006
REMARK INTRA:                  -0.263
REMARK UNBOUND:                -0.266
REMARK SMILES O=c1cc(-c2ccc(O)c(O)c2)oc2cc(O)cc(O)c12
REMARK SMILES IDX 4 1 3 2 2 3 1 4 21 5 19 6 18 7 16 8 15 9 14 10 13 11 5 12
REMARK SMILES IDX 6 13 7 14 8 15 12 16 10 17 9 18 11 20 20 22 17 24
REMARK H PARENT 9 19 11 21 20 23 17 25
REMARK Flexibility Score: inf
ROOT
ATOM      1  C   UNL     1      18.798 -10.853  19.256  1.00  0.00     0.138 A 
ATOM      2  C   UNL     1      17.665 -11.673  19.349  1.00  0.00     0.100 A 
ATOM      3  C   UNL     1      17.364 -12.556  18.311  1.00  0.00     0.197 A 
ATOM      4  O   UNL     1      16.307 -13.233  18.394  1.00  0.00    -0.289 OA
ATOM      5  C   UNL     1      18.221 -12.639  17.187  1.00  0.00     0.107 A 
ATOM      6  C   UNL     1      18.037 -13.531  16.089  1.00  0.00     0.134 A 
ATOM      7  C   UNL     1      18.886 -13.443  14.978  1.00  0.00     0.093 A 
ATOM      8  C   UNL     1      19.947 -12.539  14.952  1.00  0.00     0.123 A 
ATOM      9  C   UNL     1      20.169 -11.698  16.045  1.00  0.00     0.094 A 
ATOM     10  C   UNL     1      19.319 -11.738  17.152  1.00  0.00     0.146 A 
ATOM     11  O   UNL     1      19.556 -10.912  18.166  1.00  0.00    -0.456 OA
ENDROOT
BRANCH   1  12
ATOM     12  C   UNL     1      19.165  -9.898  20.331  1.00  0.00     0.021 A 
ATOM     13  C   UNL     1      20.230 -10.207  21.196  1.00  0.00     0.016 A 
ATOM     14  C   UNL     1      20.591  -9.328  22.221  1.00  0.00     0.051 A 
ATOM     15  C   UNL     1      19.888  -8.131  22.405  1.00  0.00     0.157 A 
ATOM     16  C   UNL     1      18.455  -8.698  20.531  1.00  0.00     0.062 A 
ATOM     17  C   UNL     1      18.817  -7.817  21.561  1.00  0.00     0.158 A 
BRANCH  15  18
ATOM     18  O   UNL     1      20.246  -7.252  23.424  1.00  0.00    -0.504 OA
ATOM     19  H   UNL     1      19.896  -6.301  23.451  1.00  0.00     0.293 HD
ENDBRANCH  15  18
BRANCH  17  20
ATOM     20  O   UNL     1      18.112  -6.630  21.754  1.00  0.00    -0.504 OA
ATOM     21  H   UNL     1      18.057  -6.188  22.664  1.00  0.00     0.293 HD
ENDBRANCH  17  20
ENDBRANCH   1  12
BRANCH   6  22
ATOM     22  O   UNL     1      17.060 -14.530  16.050  1.00  0.00    -0.507 OA
ATOM     23  H   UNL     1      17.165 -15.422  15.594  1.00  0.00     0.293 HD
ENDBRANCH   6  22
BRANCH   8  24
ATOM     24  O   UNL     1      20.780 -12.489  13.837  1.00  0.00    -0.508 OA
ATOM     25  H   UNL     1      20.981 -11.616  13.364  1.00  0.00     0.293 HD
ENDBRANCH   8  24
TORSDOF 5
ENDMDL
MODEL 5
REMARK VINA RESULT:    -6.543      1.942      2.875
REMARK INTER + INTRA:          -7.957
REMARK INTER:                  -7.645
REMARK INTRA:                  -0.312
REMARK UNBOUND:                -0.266
REMARK SMILES O=c1cc(-c2ccc(O)c(O)c2)oc2cc(O)cc(O)c12
REMARK SMILES IDX 4 1 3 2 2 3 1 4 21 5 19 6 18 7 16 8 15 9 14 10 13 11 5 12
REMARK SMILES IDX 6 13 7 14 8 15 12 16 10 17 9 18 11 20 20 22 17 24
REMARK H PARENT 9 19 11 21 20 23 17 25
REMARK Flexibility Score: inf
ROOT
ATOM      1  C   UNL     1      19.114 -11.018  16.798  1.00  0.00     0.138 A 
ATOM      2  C   UNL     1      18.423  -9.855  16.431  1.00  0.00     0.100 A 
ATOM      3  C   UNL     1      18.065  -8.927  17.410  1.00  0.00     0.197 A 
ATOM      4  O   UNL     1      17.391  -7.924  17.060  1.00  0.00    -0.289 OA
ATOM      5  C   UNL     1      18.431  -9.151  18.759  1.00  0.00     0.107 A 
ATOM      6  C   UNL     1      18.156  -8.255  19.835  1.00  0.00     0.134 A 
ATOM      7  C   UNL     1      18.463  -8.637  21.147  1.00  0.00     0.093 A 
ATOM      8  C   UNL     1      19.089  -9.854  21.415  1.00  0.00     0.123 A 
ATOM      9  C   UNL     1      19.412 -10.715  20.365  1.00  0.00     0.094 A 
ATOM     10  C   UNL     1      19.086 -10.377  19.049  1.00  0.00     0.146 A 
ATOM     11  O   UNL     1      19.397 -11.231  18.078  1.00  0.00    -0.456 OA
ENDROOT
BRANCH   1  12
ATOM     12  C   UNL     1      19.520 -12.037  15.797  1.00  0.00     0.021 A 
ATOM     13  C   UNL     1      19.625 -11.673  14.443  1.00  0.00     0.016 A 
ATOM     14  C   UNL     1      19.998 -12.614  13.480  1.00  0.00     0.051 A 
ATOM     15  C   UNL     1      20.263 -13.938  13.853  1.00  0.00     0.157 A 
ATOM     16  C   UNL     1      19.776 -13.373  16.162  1.00  0.00     0.062 A 
ATOM     17  C   UNL     1      20.149 -14.318  15.195  1.00  0.00     0.158 A 
BRANCH  15  18
ATOM     18  O   UNL     1      20.637 -14.879  12.897  1.00  0.00    -0.504 OA
ATOM     19  H   UNL     1      20.696 -15.866  13.120  1.00  0.00     0.293 HD
ENDBRANCH  15  18
BRANCH  17  20
ATOM     20  O   UNL     1      20.402 -15.639  15.561  1.00  0.00    -0.504 OA
ATOM     21  H   UNL     1      21.159 -16.169  15.147  1.00  0.00     0.293 HD
ENDBRANCH  17  20
ENDBRANCH   1  12
BRANCH   6  22
ATOM     22  O   UNL     1      17.610  -6.978  19.668  1.00  0.00    -0.507 OA
ATOM     23  H   UNL     1      18.063  -6.215  19.191  1.00  0.00     0.293 HD
ENDBRANCH   6  22
BRANCH   8  24
ATOM     24  O   UNL     1      19.394 -10.195  22.731  1.00  0.00    -0.508 OA
ATOM     25  H   UNL     1      19.459 -11.161  23.027  1.00  0.00     0.293 HD
ENDBRANCH   8  24
TORSDOF 5
ENDMDL
MODEL 6
REMARK VINA RESULT:    -6.532      1.599      7.301
REMARK INTER + INTRA:          -7.944
REMARK INTER:                  -7.681
REMARK INTRA:                  -0.263
REMARK UNBOUND:                -0.266
REMARK SMILES O=c1cc(-c2ccc(O)c(O)c2)oc2cc(O)cc(O)c12
REMARK SMILES IDX 4 1 3 2 2 3 1 4 21 5 19 6 18 7 16 8 15 9 14 10 13 11 5 12
REMARK SMILES IDX 6 13 7 14 8 15 12 16 10 17 9 18 11 20 20 22 17 24
REMARK H PARENT 9 19 11 21 20 23 17 25
REMARK Flexibility Score: inf
ROOT
ATOM      1  C   UNL     1      19.422 -10.125  17.985  1.00  0.00     0.138 A 
ATOM      2  C   UNL     1      20.348  -9.790  16.988  1.00  0.00     0.100 A 
ATOM      3  C   UNL     1      20.565 -10.667  15.924  1.00  0.00     0.197 A 
ATOM      4  O   UNL     1      21.448 -10.368  15.079  1.00  0.00    -0.289 OA
ATOM      5  C   UNL     1      19.827 -11.873  15.844  1.00  0.00     0.107 A 
ATOM      6  C   UNL     1      19.936 -12.823  14.786  1.00  0.00     0.134 A 
ATOM      7  C   UNL     1      19.240 -14.035  14.872  1.00  0.00     0.093 A 
ATOM      8  C   UNL     1      18.394 -14.305  15.947  1.00  0.00     0.123 A 
ATOM      9  C   UNL     1      18.238 -13.359  16.962  1.00  0.00     0.094 A 
ATOM     10  C   UNL     1      18.946 -12.156  16.922  1.00  0.00     0.146 A 
ATOM     11  O   UNL     1      18.782 -11.288  17.915  1.00  0.00    -0.456 OA
ENDROOT
BRANCH   1  12
ATOM     12  C   UNL     1      19.150  -9.229  19.136  1.00  0.00     0.021 A 
ATOM     13  C   UNL     1      18.009  -8.407  19.119  1.00  0.00     0.016 A 
ATOM     14  C   UNL     1      17.735  -7.549  20.187  1.00  0.00     0.051 A 
ATOM     15  C   UNL     1      18.601  -7.489  21.285  1.00  0.00     0.157 A 
ATOM     16  C   UNL     1      20.023  -9.154  20.239  1.00  0.00     0.062 A 
ATOM     17  C   UNL     1      19.748  -8.291  21.311  1.00  0.00     0.158 A 
BRANCH  15  18
ATOM     18  O   UNL     1      18.330  -6.637  22.353  1.00  0.00    -0.504 OA
ATOM     19  H   UNL     1      17.996  -6.990  23.242  1.00  0.00     0.293 HD
ENDBRANCH  15  18
BRANCH  17  20
ATOM     20  O   UNL     1      20.614  -8.222  22.401  1.00  0.00    -0.504 OA
ATOM     21  H   UNL     1      21.617  -8.306  22.287  1.00  0.00     0.293 HD
ENDBRANCH  17  20
ENDBRANCH   1  12
BRANCH   6  22
ATOM     22  O   UNL     1      20.687 -12.616  13.624  1.00  0.00    -0.507 OA
ATOM     23  H   UNL     1      20.968 -11.715  13.272  1.00  0.00     0.293 HD
ENDBRANCH   6  22
BRANCH   8  24
ATOM     24  O   UNL     1      17.706 -15.516  15.993  1.00  0.00    -0.508 OA
ATOM     25  H   UNL     1      17.833 -16.169  16.756  1.00  0.00     0.293 HD
ENDBRANCH   8  24
TORSDOF 5
ENDMDL
MODEL 7
REMARK VINA RESULT:    -6.500      1.298      2.854
REMARK INTER + INTRA:          -7.906
REMARK INTER:                  -7.643
REMARK INTRA:                  -0.263
REMARK UNBOUND:                -0.266
REMARK SMILES O=c1cc(-c2ccc(O)c(O)c2)oc2cc(O)cc(O)c12
REMARK SMILES IDX 4 1 3 2 2 3 1 4 21 5 19 6 18 7 16 8 15 9 14 10 13 11 5 12
REMARK SMILES IDX 6 13 7 14 8 15 12 16 10 17 9 18 11 20 20 22 17 24
REMARK H PARENT 9 19 11 21 20 23 17 25
REMARK Flexibility Score: inf
ROOT
ATOM      1  C   UNL     1      19.514 -10.829  19.048  1.00  0.00     0.138 A 
ATOM      2  C   UNL     1      20.394 -11.217  20.068  1.00  0.00     0.100 A 
ATOM      3  C   UNL     1      20.581 -10.384  21.172  1.00  0.00     0.197 A 
ATOM      4  O   UNL     1      21.423 -10.730  22.040  1.00  0.00    -0.289 OA
ATOM      5  C   UNL     1      19.859  -9.170  21.268  1.00  0.00     0.107 A 
ATOM      6  C   UNL     1      19.940  -8.263  22.366  1.00  0.00     0.134 A 
ATOM      7  C   UNL     1      19.267  -7.036  22.297  1.00  0.00     0.093 A 
ATOM      8  C   UNL     1      18.470  -6.711  21.200  1.00  0.00     0.123 A 
ATOM      9  C   UNL     1      18.341  -7.616  20.144  1.00  0.00     0.094 A 
ATOM     10  C   UNL     1      19.028  -8.832  20.167  1.00  0.00     0.146 A 
ATOM     11  O   UNL     1      18.890  -9.659  19.136  1.00  0.00    -0.456 OA
ENDROOT
BRANCH   1  12
ATOM     12  C   UNL     1      19.276 -11.677  17.853  1.00  0.00     0.021 A 
ATOM     13  C   UNL     1      18.206 -12.590  17.854  1.00  0.00     0.016 A 
ATOM     14  C   UNL     1      17.965 -13.405  16.745  1.00  0.00     0.051 A 
ATOM     15  C   UNL     1      18.794 -13.329  15.620  1.00  0.00     0.157 A 
ATOM     16  C   UNL     1      20.113 -11.616  16.722  1.00  0.00     0.062 A 
ATOM     17  C   UNL     1      19.872 -12.435  15.609  1.00  0.00     0.158 A 
BRANCH  15  18
ATOM     18  O   UNL     1      18.556 -14.138  14.511  1.00  0.00    -0.504 OA
ATOM     19  H   UNL     1      19.282 -14.333  13.832  1.00  0.00     0.293 HD
ENDBRANCH  15  18
BRANCH  17  20
ATOM     20  O   UNL     1      20.702 -12.370  14.491  1.00  0.00    -0.504 OA
ATOM     21  H   UNL     1      21.457 -11.697  14.430  1.00  0.00     0.293 HD
ENDBRANCH  17  20
ENDBRANCH   1  12
BRANCH   6  22
ATOM     22  O   UNL     1      20.639  -8.526  23.547  1.00  0.00    -0.507 OA
ATOM     23  H   UNL     1      21.326  -7.915  23.959  1.00  0.00     0.293 HD
ENDBRANCH   6  22
BRANCH   8  24
ATOM     24  O   UNL     1      17.803  -5.488  21.173  1.00  0.00    -0.508 OA
ATOM     25  H   UNL     1      18.031  -4.775  20.491  1.00  0.00     0.293 HD
ENDBRANCH   8  24
TORSDOF 5
ENDMDL
MODEL 8
REMARK VINA RESULT:    -6.422      1.331      3.130
REMARK INTER + INTRA:          -7.815
REMARK INTER:                  -7.549
REMARK INTRA:                  -0.265
REMARK UNBOUND:                -0.266
REMARK SMILES O=c1cc(-c2ccc(O)c(O)c2)oc2cc(O)cc(O)c12
REMARK SMILES IDX 4 1 3 2 2 3 1 4 21 5 19 6 18 7 16 8 15 9 14 10 13 11 5 12
REMARK SMILES IDX 6 13 7 14 8 15 12 16 10 17 9 18 11 20 20 22 17 24
REMARK H PARENT 9 19 11 21 20 23 17 25
REMARK Flexibility Score: inf
ROOT
ATOM      1  C   UNL     1      19.539 -10.910  19.102  1.00  0.00     0.138 A 
ATOM      2  C   UNL     1      20.467 -11.244  20.098  1.00  0.00     0.100 A 
ATOM      3  C   UNL     1      20.654 -10.388  21.184  1.00  0.00     0.197 A 
ATOM      4  O   UNL     1      21.538 -10.684  22.029  1.00  0.00    -0.289 OA
ATOM      5  C   UNL     1      19.885  -9.204  21.286  1.00  0.00     0.107 A 
ATOM      6  C   UNL     1      19.961  -8.277  22.368  1.00  0.00     0.134 A 
ATOM      7  C   UNL     1      19.235  -7.080  22.304  1.00  0.00     0.093 A 
ATOM      8  C   UNL     1      18.390  -6.807  21.229  1.00  0.00     0.123 A 
ATOM      9  C   UNL     1      18.266  -7.732  20.191  1.00  0.00     0.094 A 
ATOM     10  C   UNL     1      19.004  -8.918  20.209  1.00  0.00     0.146 A 
ATOM     11  O   UNL     1      18.869  -9.766  19.194  1.00  0.00    -0.456 OA
ENDROOT
BRANCH   1  12
ATOM     12  C   UNL     1      19.300 -11.786  17.928  1.00  0.00     0.021 A 
ATOM     13  C   UNL     1      20.236 -11.809  16.880  1.00  0.00     0.016 A 
ATOM     14  C   UNL     1      20.031 -12.619  15.760  1.00  0.00     0.051 A 
ATOM     15  C   UNL     1      18.881 -13.412  15.664  1.00  0.00     0.157 A 
ATOM     16  C   UNL     1      18.140 -12.577  17.819  1.00  0.00     0.062 A 
ATOM     17  C   UNL     1      17.933 -13.389  16.694  1.00  0.00     0.158 A 
BRANCH  15  18
ATOM     18  O   UNL     1      18.673 -14.223  14.551  1.00  0.00    -0.504 OA
ATOM     19  H   UNL     1      17.826 -14.158  13.998  1.00  0.00     0.293 HD
ENDBRANCH  15  18
BRANCH  17  20
ATOM     20  O   UNL     1      16.784 -14.172  16.590  1.00  0.00    -0.504 OA
ATOM     21  H   UNL     1      16.216 -14.173  15.751  1.00  0.00     0.293 HD
ENDBRANCH  17  20
ENDBRANCH   1  12
BRANCH   6  22
ATOM     22  O   UNL     1      20.709  -8.492  23.530  1.00  0.00    -0.507 OA
ATOM     23  H   UNL     1      20.677  -9.328  24.090  1.00  0.00     0.293 HD
ENDBRANCH   6  22
BRANCH   8  24
ATOM     24  O   UNL     1      17.671  -5.614  21.207  1.00  0.00    -0.508 OA
ATOM     25  H   UNL     1      18.045  -4.777  20.776  1.00  0.00     0.293 HD
ENDBRANCH   8  24
TORSDOF 5
ENDMDL
MODEL 9
REMARK VINA RESULT:    -6.413      1.635      7.255
REMARK INTER + INTRA:          -7.804
REMARK INTER:                  -7.539
REMARK INTRA:                  -0.265
REMARK UNBOUND:                -0.266
REMARK SMILES O=c1cc(-c2ccc(O)c(O)c2)oc2cc(O)cc(O)c12
REMARK SMILES IDX 4 1 3 2 2 3 1 4 21 5 19 6 18 7 16 8 15 9 14 10 13 11 5 12
REMARK SMILES IDX 6 13 7 14 8 15 12 16 10 17 9 18 11 20 20 22 17 24
REMARK H PARENT 9 19 11 21 20 23 17 25
REMARK Flexibility Score: inf
ROOT
ATOM      1  C   UNL     1      19.544  -9.982  18.234  1.00  0.00     0.138 A 
ATOM      2  C   UNL     1      20.454  -9.619  17.232  1.00  0.00     0.100 A 
ATOM      3  C   UNL     1      20.614 -10.440  16.114  1.00  0.00     0.197 A 
ATOM      4  O   UNL     1      21.482 -10.120  15.262  1.00  0.00    -0.289 OA
ATOM      5  C   UNL     1      19.835 -11.615  15.987  1.00  0.00     0.107 A 
ATOM      6  C   UNL     1      19.884 -12.505  14.873  1.00  0.00     0.134 A 
ATOM      7  C   UNL     1      19.151 -13.698  14.911  1.00  0.00     0.093 A 
ATOM      8  C   UNL     1      18.326 -14.003  15.993  1.00  0.00     0.123 A 
ATOM      9  C   UNL     1      18.229 -13.113  17.064  1.00  0.00     0.094 A 
ATOM     10  C   UNL     1      18.974 -11.932  17.072  1.00  0.00     0.146 A 
ATOM     11  O   UNL     1      18.865 -11.118  18.117  1.00  0.00    -0.456 OA
ENDROOT
BRANCH   1  12
ATOM     12  C   UNL     1      19.334  -9.145  19.442  1.00  0.00     0.021 A 
ATOM     13  C   UNL     1      20.279  -9.182  20.482  1.00  0.00     0.016 A 
ATOM     14  C   UNL     1      20.101  -8.409  21.633  1.00  0.00     0.051 A 
ATOM     15  C   UNL     1      18.970  -7.595  21.768  1.00  0.00     0.157 A 
ATOM     16  C   UNL     1      18.193  -8.333  19.591  1.00  0.00     0.062 A 
ATOM     17  C   UNL     1      18.013  -7.558  20.747  1.00  0.00     0.158 A 
BRANCH  15  18
ATOM     18  O   UNL     1      18.790  -6.821  22.912  1.00  0.00    -0.504 OA
ATOM     19  H   UNL     1      18.676  -5.816  22.860  1.00  0.00     0.293 HD
ENDBRANCH  15  18
BRANCH  17  20
ATOM     20  O   UNL     1      16.883  -6.755  20.889  1.00  0.00    -0.504 OA
ATOM     21  H   UNL     1      15.951  -7.119  20.734  1.00  0.00     0.293 HD
ENDBRANCH  17  20
ENDBRANCH   1  12
BRANCH   6  22
ATOM     22  O   UNL     1      20.609 -12.255  13.705  1.00  0.00    -0.507 OA
ATOM     23  H   UNL     1      20.478 -12.738  12.830  1.00  0.00     0.293 HD
ENDBRANCH   6  22
BRANCH   8  24
ATOM     24  O   UNL     1      17.599 -15.192  15.990  1.00  0.00    -0.508 OA
ATOM     25  H   UNL     1      17.307 -15.633  15.126  1.00  0.00     0.293 HD
ENDBRANCH   8  24
TORSDOF 5
ENDMDL
