MODEL 1
REMARK VINA RESULT:    -4.347      0.000      0.000
REMARK INTER + INTRA:          -8.181
REMARK INTER:                  -7.397
REMARK INTRA:                  -0.784
REMARK UNBOUND:                -0.784
REMARK SMILES CCCCCCCCCCCCCC(=O)[O-]
REMARK SMILES IDX 8 1 9 2 10 3 11 4 12 5 13 6 14 7 15 8 16 9 7 10 6 11 5 12
REMARK SMILES IDX 4 13 3 14 2 15 1 16
REMARK H PARENT
REMARK Flexibility Score: inf
ROOT
ATOM      1  C   UNL     1     -32.299 -23.208 -34.943  1.00  0.00     0.000 C 
ENDROOT
BRANCH   1   2
ATOM      2  C   UNL     1     -31.463 -22.354 -33.972  1.00  0.00     0.000 C 
BRANCH   2   3
ATOM      3  C   UNL     1     -31.881 -20.873 -33.868  1.00  0.00     0.000 C 
BRANCH   3   4
ATOM      4  C   UNL     1     -30.864 -19.951 -33.171  1.00  0.00     0.000 C 
BRANCH   4   5
ATOM      5  C   UNL     1     -29.588 -20.692 -32.736  1.00  0.00     0.006 C 
BRANCH   5   6
ATOM      6  C   UNL     1     -29.331 -20.565 -31.228  1.00  0.00     0.053 C 
BRANCH   6   7
ATOM      7  C   UNL     1     -30.315 -21.359 -30.425  1.00  0.00     0.041 C 
ATOM      8  O   UNL     1     -30.391 -22.607 -30.571  1.00  0.00    -0.550 OA
ATOM      9  O   UNL     1     -31.127 -20.725 -29.493  1.00  0.00    -0.550 OA
ENDBRANCH   6   7
ENDBRANCH   5   6
ENDBRANCH   4   5
ENDBRANCH   3   4
ENDBRANCH   2   3
ENDBRANCH   1   2
BRANCH   1  10
ATOM     10  C   UNL     1     -32.621 -22.477 -36.256  1.00  0.00     0.000 C 
BRANCH  10  11
ATOM     11  C   UNL     1     -31.976 -23.145 -37.483  1.00  0.00    -0.000 C 
BRANCH  11  12
ATOM     12  C   UNL     1     -31.435 -24.564 -37.205  1.00  0.00    -0.000 C 
BRANCH  12  13
ATOM     13  C   UNL     1     -31.655 -25.511 -38.394  1.00  0.00    -0.000 C 
BRANCH  13  14
ATOM     14  C   UNL     1     -32.673 -26.604 -38.048  1.00  0.00    -0.000 C 
BRANCH  14  15
ATOM     15  C   UNL     1     -32.316 -27.925 -38.737  1.00  0.00    -0.003 C 
ATOM     16  C   UNL     1     -33.543 -28.821 -38.881  1.00  0.00     0.004 C 
ENDBRANCH  14  15
ENDBRANCH  13  14
ENDBRANCH  12  13
ENDBRANCH  11  12
ENDBRANCH  10  11
ENDBRANCH   1  10
TORSDOF 12
ENDMDL
MODEL 2
REMARK VINA RESULT:    -4.346      3.924      7.974
REMARK INTER + INTRA:          -8.178
REMARK INTER:                  -7.256
REMARK INTRA:                  -0.922
REMARK UNBOUND:                -0.784
REMARK SMILES CCCCCCCCCCCCCC(=O)[O-]
REMARK SMILES IDX 8 1 9 2 10 3 11 4 12 5 13 6 14 7 15 8 16 9 7 10 6 11 5 12
REMARK SMILES IDX 4 13 3 14 2 15 1 16
REMARK H PARENT
REMARK Flexibility Score: inf
ROOT
ATOM      1  C   UNL     1     -32.377 -23.248 -34.993  1.00  0.00     0.000 C 
ENDROOT
BRANCH   1   2
ATOM      2  C   UNL     1     -32.739 -22.514 -36.298  1.00  0.00     0.000 C 
BRANCH   2   3
ATOM      3  C   UNL     1     -32.172 -23.141 -37.587  1.00  0.00     0.000 C 
BRANCH   3   4
ATOM      4  C   UNL     1     -31.152 -24.273 -37.373  1.00  0.00     0.000 C 
BRANCH   4   5
ATOM      5  C   UNL     1     -31.404 -25.485 -38.287  1.00  0.00     0.006 C 
BRANCH   5   6
ATOM      6  C   UNL     1     -32.647 -26.280 -37.865  1.00  0.00     0.053 C 
BRANCH   6   7
ATOM      7  C   UNL     1     -32.666 -27.650 -38.469  1.00  0.00     0.041 C 
ATOM      8  O   UNL     1     -31.587 -28.218 -38.785  1.00  0.00    -0.550 OA
ATOM      9  O   UNL     1     -33.872 -28.313 -38.656  1.00  0.00    -0.550 OA
ENDBRANCH   6   7
ENDBRANCH   5   6
ENDBRANCH   4   5
ENDBRANCH   3   4
ENDBRANCH   2   3
ENDBRANCH   1   2
BRANCH   1  10
ATOM     10  C   UNL     1     -31.520 -22.394 -34.045  1.00  0.00     0.000 C 
BRANCH  10  11
ATOM     11  C   UNL     1     -31.959 -20.920 -34.011  1.00  0.00    -0.000 C 
BRANCH  11  12
ATOM     12  C   UNL     1     -30.995 -20.004 -33.226  1.00  0.00    -0.000 C 
BRANCH  12  13
ATOM     13  C   UNL     1     -29.719 -20.741 -32.793  1.00  0.00    -0.000 C 
BRANCH  13  14
ATOM     14  C   UNL     1     -29.326 -20.366 -31.359  1.00  0.00    -0.000 C 
BRANCH  14  15
ATOM     15  C   UNL     1     -30.223 -21.077 -30.340  1.00  0.00    -0.003 C 
ATOM     16  C   UNL     1     -30.392 -22.553 -30.689  1.00  0.00     0.004 C 
ENDBRANCH  14  15
ENDBRANCH  13  14
ENDBRANCH  12  13
ENDBRANCH  11  12
ENDBRANCH  10  11
ENDBRANCH   1  10
TORSDOF 12
ENDMDL
MODEL 3
REMARK VINA RESULT:    -4.092      0.649      1.215
REMARK INTER + INTRA:          -7.747
REMARK INTER:                  -7.091
REMARK INTRA:                  -0.656
REMARK UNBOUND:                -0.784
REMARK SMILES CCCCCCCCCCCCCC(=O)[O-]
REMARK SMILES IDX 8 1 9 2 10 3 11 4 12 5 13 6 14 7 15 8 16 9 7 10 6 11 5 12
REMARK SMILES IDX 4 13 3 14 2 15 1 16
REMARK H PARENT
REMARK Flexibility Score: inf
ROOT
ATOM      1  C   UNL     1     -31.476 -22.356 -33.845  1.00  0.00     0.000 C 
ENDROOT
BRANCH   1   2
ATOM      2  C   UNL     1     -31.834 -20.868 -34.017  1.00  0.00     0.000 C 
BRANCH   2   3
ATOM      3  C   UNL     1     -30.931 -19.879 -33.253  1.00  0.00     0.000 C 
BRANCH   3   4
ATOM      4  C   UNL     1     -29.431 -20.218 -33.263  1.00  0.00     0.000 C 
BRANCH   4   5
ATOM      5  C   UNL     1     -28.873 -20.499 -31.857  1.00  0.00     0.006 C 
BRANCH   5   6
ATOM      6  C   UNL     1     -29.779 -19.939 -30.752  1.00  0.00     0.053 C 
BRANCH   6   7
ATOM      7  C   UNL     1     -30.579 -21.015 -30.086  1.00  0.00     0.041 C 
ATOM      8  O   UNL     1     -30.380 -22.224 -30.376  1.00  0.00    -0.550 OA
ATOM      9  O   UNL     1     -31.523 -20.687 -29.121  1.00  0.00    -0.550 OA
ENDBRANCH   6   7
ENDBRANCH   5   6
ENDBRANCH   4   5
ENDBRANCH   3   4
ENDBRANCH   2   3
ENDBRANCH   1   2
BRANCH   1  10
ATOM     10  C   UNL     1     -32.295 -23.278 -34.762  1.00  0.00     0.000 C 
BRANCH  10  11
ATOM     11  C   UNL     1     -32.083 -22.975 -36.255  1.00  0.00    -0.000 C 
BRANCH  11  12
ATOM     12  C   UNL     1     -31.095 -23.935 -36.949  1.00  0.00    -0.000 C 
BRANCH  12  13
ATOM     13  C   UNL     1     -31.668 -24.516 -38.251  1.00  0.00    -0.000 C 
BRANCH  13  14
ATOM     14  C   UNL     1     -31.566 -26.045 -38.265  1.00  0.00    -0.000 C 
BRANCH  14  15
ATOM     15  C   UNL     1     -32.914 -26.689 -37.921  1.00  0.00    -0.003 C 
ATOM     16  C   UNL     1     -32.954 -28.150 -38.359  1.00  0.00     0.004 C 
ENDBRANCH  14  15
ENDBRANCH  13  14
ENDBRANCH  12  13
ENDBRANCH  11  12
ENDBRANCH  10  11
ENDBRANCH   1  10
TORSDOF 12
ENDMDL
MODEL 4
REMARK VINA RESULT:    -3.963      1.123      1.841
REMARK INTER + INTRA:          -7.527
REMARK INTER:                  -6.827
REMARK INTRA:                  -0.700
REMARK UNBOUND:                -0.784
REMARK SMILES CCCCCCCCCCCCCC(=O)[O-]
REMARK SMILES IDX 8 1 9 2 10 3 11 4 12 5 13 6 14 7 15 8 16 9 7 10 6 11 5 12
REMARK SMILES IDX 4 13 3 14 2 15 1 16
REMARK H PARENT
REMARK Flexibility Score: inf
ROOT
ATOM      1  C   UNL     1     -33.097 -21.354 -34.939  1.00  0.00     0.000 C 
ENDROOT
BRANCH   1   2
ATOM      2  C   UNL     1     -32.631 -19.993 -34.389  1.00  0.00     0.000 C 
BRANCH   2   3
ATOM      3  C   UNL     1     -31.457 -20.052 -33.390  1.00  0.00     0.000 C 
BRANCH   3   4
ATOM      4  C   UNL     1     -30.610 -21.335 -33.447  1.00  0.00     0.000 C 
BRANCH   4   5
ATOM      5  C   UNL     1     -29.500 -21.365 -32.382  1.00  0.00     0.006 C 
BRANCH   5   6
ATOM      6  C   UNL     1     -29.665 -20.248 -31.342  1.00  0.00     0.053 C 
BRANCH   6   7
ATOM      7  C   UNL     1     -30.519 -20.679 -30.190  1.00  0.00     0.041 C 
ATOM      8  O   UNL     1     -31.339 -19.875 -29.674  1.00  0.00    -0.550 OA
ATOM      9  O   UNL     1     -30.434 -21.979 -29.707  1.00  0.00    -0.550 OA
ENDBRANCH   6   7
ENDBRANCH   5   6
ENDBRANCH   4   5
ENDBRANCH   3   4
ENDBRANCH   2   3
ENDBRANCH   1   2
BRANCH   1  10
ATOM     10  C   UNL     1     -33.708 -21.252 -36.346  1.00  0.00     0.000 C 
BRANCH  10  11
ATOM     11  C   UNL     1     -33.205 -22.354 -37.294  1.00  0.00    -0.000 C 
BRANCH  11  12
ATOM     12  C   UNL     1     -32.771 -23.646 -36.570  1.00  0.00    -0.000 C 
BRANCH  12  13
ATOM     13  C   UNL     1     -31.289 -23.975 -36.811  1.00  0.00    -0.000 C 
BRANCH  13  14
ATOM     14  C   UNL     1     -31.129 -25.004 -37.936  1.00  0.00    -0.000 C 
BRANCH  14  15
ATOM     15  C   UNL     1     -32.382 -25.878 -38.063  1.00  0.00    -0.003 C 
ATOM     16  C   UNL     1     -32.047 -27.235 -38.676  1.00  0.00     0.004 C 
ENDBRANCH  14  15
ENDBRANCH  13  14
ENDBRANCH  12  13
ENDBRANCH  11  12
ENDBRANCH  10  11
ENDBRANCH   1  10
TORSDOF 12
ENDMDL
MODEL 5
REMARK VINA RESULT:    -3.959      0.753      1.809
REMARK INTER + INTRA:          -7.519
REMARK INTER:                  -6.540
REMARK INTRA:                  -0.979
REMARK UNBOUND:                -0.784
REMARK SMILES CCCCCCCCCCCCCC(=O)[O-]
REMARK SMILES IDX 8 1 9 2 10 3 11 4 12 5 13 6 14 7 15 8 16 9 7 10 6 11 5 12
REMARK SMILES IDX 4 13 3 14 2 15 1 16
REMARK H PARENT
REMARK Flexibility Score: inf
ROOT
ATOM      1  C   UNL     1     -31.471 -22.333 -33.860  1.00  0.00     0.000 C 
ENDROOT
BRANCH   1   2
ATOM      2  C   UNL     1     -31.879 -20.848 -33.847  1.00  0.00     0.000 C 
BRANCH   2   3
ATOM      3  C   UNL     1     -30.813 -19.875 -33.303  1.00  0.00     0.000 C 
BRANCH   3   4
ATOM      4  C   UNL     1     -29.379 -20.431 -33.258  1.00  0.00     0.000 C 
BRANCH   4   5
ATOM      5  C   UNL     1     -28.835 -20.560 -31.824  1.00  0.00     0.006 C 
BRANCH   5   6
ATOM      6  C   UNL     1     -29.842 -20.069 -30.776  1.00  0.00     0.053 C 
BRANCH   6   7
ATOM      7  C   UNL     1     -30.538 -21.207 -30.094  1.00  0.00     0.041 C 
ATOM      8  O   UNL     1     -31.316 -20.987 -29.129  1.00  0.00    -0.550 OA
ATOM      9  O   UNL     1     -30.353 -22.508 -30.545  1.00  0.00    -0.550 OA
ENDBRANCH   6   7
ENDBRANCH   5   6
ENDBRANCH   4   5
ENDBRANCH   3   4
ENDBRANCH   2   3
ENDBRANCH   1   2
BRANCH   1  10
ATOM     10  C   UNL     1     -32.290 -23.169 -34.856  1.00  0.00     0.000 C 
BRANCH  10  11
ATOM     11  C   UNL     1     -32.932 -22.315 -35.964  1.00  0.00    -0.000 C 
BRANCH  11  12
ATOM     12  C   UNL     1     -32.505 -22.725 -37.389  1.00  0.00    -0.000 C 
BRANCH  12  13
ATOM     13  C   UNL     1     -31.283 -23.656 -37.383  1.00  0.00    -0.000 C 
BRANCH  13  14
ATOM     14  C   UNL     1     -31.464 -24.811 -38.374  1.00  0.00    -0.000 C 
BRANCH  14  15
ATOM     15  C   UNL     1     -32.326 -25.924 -37.769  1.00  0.00    -0.003 C 
ATOM     16  C   UNL     1     -32.313 -27.171 -38.648  1.00  0.00     0.004 C 
ENDBRANCH  14  15
ENDBRANCH  13  14
ENDBRANCH  12  13
ENDBRANCH  11  12
ENDBRANCH  10  11
ENDBRANCH   1  10
TORSDOF 12
ENDMDL
MODEL 6
REMARK VINA RESULT:    -3.766      3.268      7.530
REMARK INTER + INTRA:          -7.191
REMARK INTER:                  -6.183
REMARK INTRA:                  -1.008
REMARK UNBOUND:                -0.784
REMARK SMILES CCCCCCCCCCCCCC(=O)[O-]
REMARK SMILES IDX 8 1 9 2 10 3 11 4 12 5 13 6 14 7 15 8 16 9 7 10 6 11 5 12
REMARK SMILES IDX 4 13 3 14 2 15 1 16
REMARK H PARENT
REMARK Flexibility Score: inf
ROOT
ATOM      1  C   UNL     1     -31.494 -22.252 -34.060  1.00  0.00     0.000 C 
ENDROOT
BRANCH   1   2
ATOM      2  C   UNL     1     -32.164 -22.987 -35.236  1.00  0.00     0.000 C 
BRANCH   2   3
ATOM      3  C   UNL     1     -33.160 -22.146 -36.058  1.00  0.00     0.000 C 
BRANCH   3   4
ATOM      4  C   UNL     1     -33.158 -22.420 -37.572  1.00  0.00     0.000 C 
BRANCH   4   5
ATOM      5  C   UNL     1     -31.762 -22.781 -38.111  1.00  0.00     0.006 C 
BRANCH   5   6
ATOM      6  C   UNL     1     -31.808 -23.958 -39.095  1.00  0.00     0.053 C 
BRANCH   6   7
ATOM      7  C   UNL     1     -31.549 -25.266 -38.413  1.00  0.00     0.041 C 
ATOM      8  O   UNL     1     -30.760 -25.325 -37.434  1.00  0.00    -0.550 OA
ATOM      9  O   UNL     1     -32.203 -26.416 -38.838  1.00  0.00    -0.550 OA
ENDBRANCH   6   7
ENDBRANCH   5   6
ENDBRANCH   4   5
ENDBRANCH   3   4
ENDBRANCH   2   3
ENDBRANCH   1   2
BRANCH   1  10
ATOM     10  C   UNL     1     -32.012 -20.816 -33.879  1.00  0.00     0.000 C 
BRANCH  10  11
ATOM     11  C   UNL     1     -30.980 -19.891 -33.211  1.00  0.00    -0.000 C 
BRANCH  11  12
ATOM     12  C   UNL     1     -29.596 -20.545 -33.013  1.00  0.00    -0.000 C 
BRANCH  12  13
ATOM     13  C   UNL     1     -29.059 -20.343 -31.587  1.00  0.00    -0.000 C 
BRANCH  13  14
ATOM     14  C   UNL     1     -30.193 -20.397 -30.558  1.00  0.00    -0.000 C 
BRANCH  14  15
ATOM     15  C   UNL     1     -30.181 -21.728 -29.798  1.00  0.00    -0.003 C 
ATOM     16  C   UNL     1     -30.503 -22.896 -30.726  1.00  0.00     0.004 C 
ENDBRANCH  14  15
ENDBRANCH  13  14
ENDBRANCH  12  13
ENDBRANCH  11  12
ENDBRANCH  10  11
ENDBRANCH   1  10
TORSDOF 12
ENDMDL
MODEL 7
REMARK VINA RESULT:    -3.379      1.871      2.841
REMARK INTER + INTRA:          -6.532
REMARK INTER:                  -5.676
REMARK INTRA:                  -0.856
REMARK UNBOUND:                -0.784
REMARK SMILES CCCCCCCCCCCCCC(=O)[O-]
REMARK SMILES IDX 8 1 9 2 10 3 11 4 12 5 13 6 14 7 15 8 16 9 7 10 6 11 5 12
REMARK SMILES IDX 4 13 3 14 2 15 1 16
REMARK H PARENT
REMARK Flexibility Score: inf
ROOT
ATOM      1  C   UNL     1     -31.406 -22.511 -33.949  1.00  0.00     0.000 C 
ENDROOT
BRANCH   1   2
ATOM      2  C   UNL     1     -31.012 -21.036 -33.752  1.00  0.00     0.000 C 
BRANCH   2   3
ATOM      3  C   UNL     1     -29.605 -20.801 -33.164  1.00  0.00     0.000 C 
BRANCH   3   4
ATOM      4  C   UNL     1     -29.574 -20.074 -31.808  1.00  0.00     0.000 C 
BRANCH   4   5
ATOM      5  C   UNL     1     -30.954 -20.012 -31.132  1.00  0.00     0.006 C 
BRANCH   5   6
ATOM      6  C   UNL     1     -30.948 -20.666 -29.743  1.00  0.00     0.053 C 
BRANCH   6   7
ATOM      7  C   UNL     1     -30.323 -22.027 -29.769  1.00  0.00     0.041 C 
ATOM      8  O   UNL     1     -29.507 -22.366 -28.873  1.00  0.00    -0.550 OA
ATOM      9  O   UNL     1     -30.665 -22.932 -30.766  1.00  0.00    -0.550 OA
ENDBRANCH   6   7
ENDBRANCH   5   6
ENDBRANCH   4   5
ENDBRANCH   3   4
ENDBRANCH   2   3
ENDBRANCH   1   2
BRANCH   1  10
ATOM     10  C   UNL     1     -32.588 -22.690 -34.915  1.00  0.00     0.000 C 
BRANCH  10  11
ATOM     11  C   UNL     1     -33.154 -21.351 -35.418  1.00  0.00    -0.000 C 
BRANCH  11  12
ATOM     12  C   UNL     1     -33.636 -21.393 -36.884  1.00  0.00    -0.000 C 
BRANCH  12  13
ATOM     13  C   UNL     1     -33.328 -22.741 -37.556  1.00  0.00    -0.000 C 
BRANCH  13  14
ATOM     14  C   UNL     1     -32.420 -22.553 -38.777  1.00  0.00    -0.000 C 
BRANCH  14  15
ATOM     15  C   UNL     1     -31.513 -23.772 -38.979  1.00  0.00    -0.003 C 
ATOM     16  C   UNL     1     -31.499 -24.660 -37.738  1.00  0.00     0.004 C 
ENDBRANCH  14  15
ENDBRANCH  13  14
ENDBRANCH  12  13
ENDBRANCH  11  12
ENDBRANCH  10  11
ENDBRANCH   1  10
TORSDOF 12
ENDMDL
MODEL 8
REMARK VINA RESULT:    -2.839      1.339      2.098
REMARK INTER + INTRA:          -5.614
REMARK INTER:                  -5.249
REMARK INTRA:                  -0.365
REMARK UNBOUND:                -0.784
REMARK SMILES CCCCCCCCCCCCCC(=O)[O-]
REMARK SMILES IDX 8 1 9 2 10 3 11 4 12 5 13 6 14 7 15 8 16 9 7 10 6 11 5 12
REMARK SMILES IDX 4 13 3 14 2 15 1 16
REMARK H PARENT
REMARK Flexibility Score: inf
ROOT
ATOM      1  C   UNL     1     -33.761 -23.147 -36.867  1.00  0.00     0.000 C 
ENDROOT
BRANCH   1   2
ATOM      2  C   UNL     1     -32.869 -21.895 -36.775  1.00  0.00     0.000 C 
BRANCH   2   3
ATOM      3  C   UNL     1     -33.216 -20.920 -35.632  1.00  0.00     0.000 C 
BRANCH   3   4
ATOM      4  C   UNL     1     -32.464 -21.162 -34.312  1.00  0.00     0.000 C 
BRANCH   4   5
ATOM      5  C   UNL     1     -31.855 -19.875 -33.727  1.00  0.00     0.006 C 
BRANCH   5   6
ATOM      6  C   UNL     1     -31.563 -20.003 -32.226  1.00  0.00     0.053 C 
BRANCH   6   7
ATOM      7  C   UNL     1     -30.277 -20.726 -31.967  1.00  0.00     0.041 C 
ATOM      8  O   UNL     1     -30.143 -21.429 -30.931  1.00  0.00    -0.550 OA
ATOM      9  O   UNL     1     -29.237 -20.650 -32.884  1.00  0.00    -0.550 OA
ENDBRANCH   6   7
ENDBRANCH   5   6
ENDBRANCH   4   5
ENDBRANCH   3   4
ENDBRANCH   2   3
ENDBRANCH   1   2
BRANCH   1  10
ATOM     10  C   UNL     1     -32.971 -24.457 -36.721  1.00  0.00     0.000 C 
BRANCH  10  11
ATOM     11  C   UNL     1     -31.598 -24.404 -37.415  1.00  0.00    -0.000 C 
BRANCH  11  12
ATOM     12  C   UNL     1     -31.201 -25.726 -38.105  1.00  0.00    -0.000 C 
BRANCH  12  13
ATOM     13  C   UNL     1     -32.280 -26.217 -39.082  1.00  0.00    -0.000 C 
BRANCH  13  14
ATOM     14  C   UNL     1     -33.259 -27.172 -38.389  1.00  0.00    -0.000 C 
BRANCH  14  15
ATOM     15  C   UNL     1     -32.805 -28.628 -38.540  1.00  0.00    -0.003 C 
ATOM     16  C   UNL     1     -33.939 -29.508 -39.059  1.00  0.00     0.004 C 
ENDBRANCH  14  15
ENDBRANCH  13  14
ENDBRANCH  12  13
ENDBRANCH  11  12
ENDBRANCH  10  11
ENDBRANCH   1  10
TORSDOF 12
ENDMDL
MODEL 9
REMARK VINA RESULT:    -2.705      3.390      7.496
REMARK INTER + INTRA:          -5.385
REMARK INTER:                  -4.321
REMARK INTRA:                  -1.064
REMARK UNBOUND:                -0.784
REMARK SMILES CCCCCCCCCCCCCC(=O)[O-]
REMARK SMILES IDX 8 1 9 2 10 3 11 4 12 5 13 6 14 7 15 8 16 9 7 10 6 11 5 12
REMARK SMILES IDX 4 13 3 14 2 15 1 16
REMARK H PARENT
REMARK Flexibility Score: inf
ROOT
ATOM      1  C   UNL     1     -31.819 -21.515 -34.661  1.00  0.00     0.000 C 
ENDROOT
BRANCH   1   2
ATOM      2  C   UNL     1     -33.332 -21.680 -34.895  1.00  0.00     0.000 C 
BRANCH   2   3
ATOM      3  C   UNL     1     -33.984 -20.607 -35.790  1.00  0.00     0.000 C 
BRANCH   3   4
ATOM      4  C   UNL     1     -33.702 -20.749 -37.296  1.00  0.00     0.000 C 
BRANCH   4   5
ATOM      5  C   UNL     1     -33.818 -22.201 -37.790  1.00  0.00     0.006 C 
BRANCH   5   6
ATOM      6  C   UNL     1     -32.516 -22.701 -38.430  1.00  0.00     0.053 C 
BRANCH   6   7
ATOM      7  C   UNL     1     -31.899 -23.815 -37.642  1.00  0.00     0.041 C 
ATOM      8  O   UNL     1     -30.740 -23.689 -37.166  1.00  0.00    -0.550 OA
ATOM      9  O   UNL     1     -32.615 -24.982 -37.407  1.00  0.00    -0.550 OA
ENDBRANCH   6   7
ENDBRANCH   5   6
ENDBRANCH   4   5
ENDBRANCH   3   4
ENDBRANCH   2   3
ENDBRANCH   1   2
BRANCH   1  10
ATOM     10  C   UNL     1     -31.491 -20.461 -33.591  1.00  0.00     0.000 C 
BRANCH  10  11
ATOM     11  C   UNL     1     -29.979 -20.222 -33.435  1.00  0.00    -0.000 C 
BRANCH  11  12
ATOM     12  C   UNL     1     -29.429 -20.618 -32.048  1.00  0.00    -0.000 C 
BRANCH  12  13
ATOM     13  C   UNL     1     -30.151 -21.843 -31.466  1.00  0.00    -0.000 C 
BRANCH  13  14
ATOM     14  C   UNL     1     -30.406 -21.670 -29.964  1.00  0.00    -0.000 C 
BRANCH  14  15
ATOM     15  C   UNL     1     -30.685 -20.203 -29.620  1.00  0.00    -0.003 C 
ATOM     16  C   UNL     1     -32.168 -19.875 -29.767  1.00  0.00     0.004 C 
ENDBRANCH  14  15
ENDBRANCH  13  14
ENDBRANCH  12  13
ENDBRANCH  11  12
ENDBRANCH  10  11
ENDBRANCH   1  10
TORSDOF 12
ENDMDL
