MODEL 1
REMARK VINA RESULT:    -4.592      0.000      0.000
REMARK INTER + INTRA:         -16.624
REMARK INTER:                 -12.109
REMARK INTRA:                  -4.515
REMARK UNBOUND:                -4.515
REMARK SMILES CCCCCCCCCCCCCCCCCCCCCCCCCCCCCC(=O)[O-]
REMARK SMILES IDX 16 1 17 2 18 3 19 4 20 5 21 6 22 7 23 8 24 9 25 10 26 11
REMARK SMILES IDX 27 12 28 13 29 14 30 15 31 16 32 17 15 18 14 19 13 20 12 21
REMARK SMILES IDX 11 22 10 23 9 24 8 25 7 26 6 27 5 28 4 29 3 30 2 31 1 32
REMARK H PARENT
REMARK Flexibility Score: inf
ROOT
ATOM      1  C   UNL     1      70.403 -37.884  10.837  1.00  0.00     0.000 C 
ENDROOT
BRANCH   1   2
ATOM      2  C   UNL     1      70.773 -37.280   9.466  1.00  0.00     0.000 C 
BRANCH   2   3
ATOM      3  C   UNL     1      69.584 -36.765   8.629  1.00  0.00     0.000 C 
BRANCH   3   4
ATOM      4  C   UNL     1      69.761 -36.880   7.101  1.00  0.00     0.000 C 
BRANCH   4   5
ATOM      5  C   UNL     1      69.573 -35.562   6.329  1.00  0.00     0.000 C 
BRANCH   5   6
ATOM      6  C   UNL     1      69.327 -34.359   7.252  1.00  0.00     0.000 C 
BRANCH   6   7
ATOM      7  C   UNL     1      70.208 -33.171   6.836  1.00  0.00     0.000 C 
BRANCH   7   8
ATOM      8  C   UNL     1      71.697 -33.399   7.158  1.00  0.00     0.000 C 
BRANCH   8   9
ATOM      9  C   UNL     1      72.565 -33.718   5.921  1.00  0.00     0.000 C 
BRANCH   9  10
ATOM     10  C   UNL     1      73.168 -35.136   5.931  1.00  0.00     0.000 C 
BRANCH  10  11
ATOM     11  C   UNL     1      73.377 -35.682   7.356  1.00  0.00     0.000 C 
BRANCH  11  12
ATOM     12  C   UNL     1      74.438 -36.795   7.406  1.00  0.00     0.000 C 
BRANCH  12  13
ATOM     13  C   UNL     1      75.269 -36.740   8.700  1.00  0.00     0.006 C 
BRANCH  13  14
ATOM     14  C   UNL     1      74.431 -37.148   9.919  1.00  0.00     0.053 C 
BRANCH  14  15
ATOM     15  C   UNL     1      75.294 -37.246  11.139  1.00  0.00     0.041 C 
ATOM     16  O   UNL     1      76.256 -36.447  11.302  1.00  0.00    -0.550 OA
ATOM     17  O   UNL     1      75.057 -38.241  12.080  1.00  0.00    -0.550 OA
ENDBRANCH  14  15
ENDBRANCH  13  14
ENDBRANCH  12  13
ENDBRANCH  11  12
ENDBRANCH  10  11
ENDBRANCH   9  10
ENDBRANCH   8   9
ENDBRANCH   7   8
ENDBRANCH   6   7
ENDBRANCH   5   6
ENDBRANCH   4   5
ENDBRANCH   3   4
ENDBRANCH   2   3
ENDBRANCH   1   2
BRANCH   1  18
ATOM     18  C   UNL     1      71.183 -39.154  11.218  1.00  0.00     0.000 C 
BRANCH  18  19
ATOM     19  C   UNL     1      70.286 -40.402  11.301  1.00  0.00     0.000 C 
BRANCH  19  20
ATOM     20  C   UNL     1      69.946 -40.979   9.917  1.00  0.00     0.000 C 
BRANCH  20  21
ATOM     21  C   UNL     1      68.471 -40.784   9.530  1.00  0.00     0.000 C 
BRANCH  21  22
ATOM     22  C   UNL     1      68.347 -40.135   8.144  1.00  0.00     0.000 C 
BRANCH  22  23
ATOM     23  C   UNL     1      66.980 -39.456   7.922  1.00  0.00     0.000 C 
BRANCH  23  24
ATOM     24  C   UNL     1      65.845 -40.007   8.808  1.00  0.00    -0.000 C 
BRANCH  24  25
ATOM     25  C   UNL     1      65.108 -38.932   9.630  1.00  0.00    -0.000 C 
BRANCH  25  26
ATOM     26  C   UNL     1      65.841 -38.589  10.940  1.00  0.00    -0.000 C 
BRANCH  26  27
ATOM     27  C   UNL     1      66.602 -37.249  10.852  1.00  0.00    -0.000 C 
BRANCH  27  28
ATOM     28  C   UNL     1      65.737 -36.080  10.358  1.00  0.00    -0.000 C 
BRANCH  28  29
ATOM     29  C   UNL     1      65.308 -35.139  11.493  1.00  0.00    -0.000 C 
BRANCH  29  30
ATOM     30  C   UNL     1      66.169 -35.306  12.756  1.00  0.00    -0.000 C 
BRANCH  30  31
ATOM     31  C   UNL     1      65.345 -35.630  14.020  1.00  0.00    -0.003 C 
ATOM     32  C   UNL     1      64.142 -36.525  13.715  1.00  0.00     0.004 C 
ENDBRANCH  30  31
ENDBRANCH  29  30
ENDBRANCH  28  29
ENDBRANCH  27  28
ENDBRANCH  26  27
ENDBRANCH  25  26
ENDBRANCH  24  25
ENDBRANCH  23  24
ENDBRANCH  22  23
ENDBRANCH  21  22
ENDBRANCH  20  21
ENDBRANCH  19  20
ENDBRANCH  18  19
ENDBRANCH   1  18
TORSDOF 28
ENDMDL
MODEL 2
REMARK VINA RESULT:    -4.585      2.796      7.639
REMARK INTER + INTRA:         -16.605
REMARK INTER:                 -11.672
REMARK INTRA:                  -4.933
REMARK UNBOUND:                -4.515
REMARK SMILES CCCCCCCCCCCCCCCCCCCCCCCCCCCCCC(=O)[O-]
REMARK SMILES IDX 16 1 17 2 18 3 19 4 20 5 21 6 22 7 23 8 24 9 25 10 26 11
REMARK SMILES IDX 27 12 28 13 29 14 30 15 31 16 32 17 15 18 14 19 13 20 12 21
REMARK SMILES IDX 11 22 10 23 9 24 8 25 7 26 6 27 5 28 4 29 3 30 2 31 1 32
REMARK H PARENT
REMARK Flexibility Score: inf
ROOT
ATOM      1  C   UNL     1      74.170 -36.511   6.345  1.00  0.00     0.000 C 
ENDROOT
BRANCH   1   2
ATOM      2  C   UNL     1      73.833 -36.379   7.845  1.00  0.00     0.000 C 
BRANCH   2   3
ATOM      3  C   UNL     1      74.976 -36.748   8.812  1.00  0.00     0.000 C 
BRANCH   3   4
ATOM      4  C   UNL     1      74.525 -37.319  10.172  1.00  0.00     0.000 C 
BRANCH   4   5
ATOM      5  C   UNL     1      73.029 -37.137  10.484  1.00  0.00     0.000 C 
BRANCH   5   6
ATOM      6  C   UNL     1      72.550 -38.016  11.650  1.00  0.00     0.000 C 
BRANCH   6   7
ATOM      7  C   UNL     1      71.277 -38.782  11.261  1.00  0.00     0.000 C 
BRANCH   7   8
ATOM      8  C   UNL     1      70.446 -38.043  10.194  1.00  0.00     0.000 C 
BRANCH   8   9
ATOM      9  C   UNL     1      68.984 -37.775  10.611  1.00  0.00     0.000 C 
BRANCH   9  10
ATOM     10  C   UNL     1      68.007 -37.664   9.425  1.00  0.00     0.000 C 
BRANCH  10  11
ATOM     11  C   UNL     1      66.693 -36.952   9.802  1.00  0.00     0.000 C 
BRANCH  11  12
ATOM     12  C   UNL     1      65.568 -37.945  10.142  1.00  0.00     0.000 C 
BRANCH  12  13
ATOM     13  C   UNL     1      64.514 -37.322  11.073  1.00  0.00     0.006 C 
BRANCH  13  14
ATOM     14  C   UNL     1      64.855 -37.569  12.548  1.00  0.00     0.053 C 
BRANCH  14  15
ATOM     15  C   UNL     1      65.213 -36.283  13.226  1.00  0.00     0.041 C 
ATOM     16  O   UNL     1      64.359 -35.674  13.924  1.00  0.00    -0.550 OA
ATOM     17  O   UNL     1      66.482 -35.739  13.060  1.00  0.00    -0.550 OA
ENDBRANCH  14  15
ENDBRANCH  13  14
ENDBRANCH  12  13
ENDBRANCH  11  12
ENDBRANCH  10  11
ENDBRANCH   9  10
ENDBRANCH   8   9
ENDBRANCH   7   8
ENDBRANCH   6   7
ENDBRANCH   5   6
ENDBRANCH   4   5
ENDBRANCH   3   4
ENDBRANCH   2   3
ENDBRANCH   1   2
BRANCH   1  18
ATOM     18  C   UNL     1      73.231 -35.741   5.399  1.00  0.00     0.000 C 
BRANCH  18  19
ATOM     19  C   UNL     1      73.591 -34.248   5.289  1.00  0.00     0.000 C 
BRANCH  19  20
ATOM     20  C   UNL     1      72.363 -33.333   5.423  1.00  0.00     0.000 C 
BRANCH  20  21
ATOM     21  C   UNL     1      71.720 -33.390   6.818  1.00  0.00     0.000 C 
BRANCH  21  22
ATOM     22  C   UNL     1      70.221 -33.061   6.747  1.00  0.00     0.000 C 
BRANCH  22  23
ATOM     23  C   UNL     1      69.330 -34.230   7.215  1.00  0.00     0.000 C 
BRANCH  23  24
ATOM     24  C   UNL     1      70.071 -35.573   7.370  1.00  0.00    -0.000 C 
BRANCH  24  25
ATOM     25  C   UNL     1      69.838 -36.561   6.211  1.00  0.00    -0.000 C 
BRANCH  25  26
ATOM     26  C   UNL     1      70.392 -37.964   6.516  1.00  0.00    -0.000 C 
BRANCH  26  27
ATOM     27  C   UNL     1      69.305 -39.057   6.423  1.00  0.00    -0.000 C 
BRANCH  27  28
ATOM     28  C   UNL     1      69.767 -40.431   6.930  1.00  0.00    -0.000 C 
BRANCH  28  29
ATOM     29  C   UNL     1      68.918 -40.945   8.102  1.00  0.00    -0.000 C 
BRANCH  29  30
ATOM     30  C   UNL     1      69.775 -41.469   9.268  1.00  0.00    -0.000 C 
BRANCH  30  31
ATOM     31  C   UNL     1      68.988 -41.620  10.587  1.00  0.00    -0.003 C 
ATOM     32  C   UNL     1      67.517 -41.229  10.432  1.00  0.00     0.004 C 
ENDBRANCH  30  31
ENDBRANCH  29  30
ENDBRANCH  28  29
ENDBRANCH  27  28
ENDBRANCH  26  27
ENDBRANCH  25  26
ENDBRANCH  24  25
ENDBRANCH  23  24
ENDBRANCH  22  23
ENDBRANCH  21  22
ENDBRANCH  20  21
ENDBRANCH  19  20
ENDBRANCH  18  19
ENDBRANCH   1  18
TORSDOF 28
ENDMDL
MODEL 3
REMARK VINA RESULT:    -4.503      2.919      7.576
REMARK INTER + INTRA:         -16.389
REMARK INTER:                 -11.423
REMARK INTRA:                  -4.966
REMARK UNBOUND:                -4.515
REMARK SMILES CCCCCCCCCCCCCCCCCCCCCCCCCCCCCC(=O)[O-]
REMARK SMILES IDX 16 1 17 2 18 3 19 4 20 5 21 6 22 7 23 8 24 9 25 10 26 11
REMARK SMILES IDX 27 12 28 13 29 14 30 15 31 16 32 17 15 18 14 19 13 20 12 21
REMARK SMILES IDX 11 22 10 23 9 24 8 25 7 26 6 27 5 28 4 29 3 30 2 31 1 32
REMARK H PARENT
REMARK Flexibility Score: inf
ROOT
ATOM      1  C   UNL     1      71.407 -33.080   6.755  1.00  0.00     0.000 C 
ENDROOT
BRANCH   1   2
ATOM      2  C   UNL     1      69.874 -33.223   6.859  1.00  0.00     0.000 C 
BRANCH   2   3
ATOM      3  C   UNL     1      69.363 -34.650   7.144  1.00  0.00     0.000 C 
BRANCH   3   4
ATOM      4  C   UNL     1      70.442 -35.655   7.594  1.00  0.00     0.000 C 
BRANCH   4   5
ATOM      5  C   UNL     1      70.522 -36.939   6.749  1.00  0.00     0.000 C 
BRANCH   5   6
ATOM      6  C   UNL     1      69.396 -37.040   5.708  1.00  0.00     0.000 C 
BRANCH   6   7
ATOM      7  C   UNL     1      68.804 -38.457   5.688  1.00  0.00     0.000 C 
BRANCH   7   8
ATOM      8  C   UNL     1      67.306 -38.476   6.050  1.00  0.00     0.000 C 
BRANCH   8   9
ATOM      9  C   UNL     1      66.733 -37.091   6.423  1.00  0.00     0.000 C 
BRANCH   9  10
ATOM     10  C   UNL     1      66.386 -36.941   7.917  1.00  0.00     0.000 C 
BRANCH  10  11
ATOM     11  C   UNL     1      65.034 -37.586   8.280  1.00  0.00     0.000 C 
BRANCH  11  12
ATOM     12  C   UNL     1      64.795 -37.625   9.799  1.00  0.00     0.000 C 
BRANCH  12  13
ATOM     13  C   UNL     1      65.225 -36.315  10.482  1.00  0.00     0.006 C 
BRANCH  13  14
ATOM     14  C   UNL     1      66.029 -36.589  11.759  1.00  0.00     0.053 C 
BRANCH  14  15
ATOM     15  C   UNL     1      65.548 -35.719  12.879  1.00  0.00     0.041 C 
ATOM     16  O   UNL     1      66.297 -35.480  13.865  1.00  0.00    -0.550 OA
ATOM     17  O   UNL     1      64.259 -35.199  12.851  1.00  0.00    -0.550 OA
ENDBRANCH  14  15
ENDBRANCH  13  14
ENDBRANCH  12  13
ENDBRANCH  11  12
ENDBRANCH  10  11
ENDBRANCH   9  10
ENDBRANCH   8   9
ENDBRANCH   7   8
ENDBRANCH   6   7
ENDBRANCH   5   6
ENDBRANCH   4   5
ENDBRANCH   3   4
ENDBRANCH   2   3
ENDBRANCH   1   2
BRANCH   1  18
ATOM     18  C   UNL     1      71.954 -32.988   5.319  1.00  0.00     0.000 C 
BRANCH  18  19
ATOM     19  C   UNL     1      72.683 -34.269   4.875  1.00  0.00     0.000 C 
BRANCH  19  20
ATOM     20  C   UNL     1      73.661 -34.792   5.940  1.00  0.00     0.000 C 
BRANCH  20  21
ATOM     21  C   UNL     1      73.821 -36.320   5.911  1.00  0.00     0.000 C 
BRANCH  21  22
ATOM     22  C   UNL     1      74.788 -36.793   7.007  1.00  0.00     0.000 C 
BRANCH  22  23
ATOM     23  C   UNL     1      74.266 -36.502   8.429  1.00  0.00     0.000 C 
BRANCH  23  24
ATOM     24  C   UNL     1      75.240 -36.893   9.558  1.00  0.00    -0.000 C 
BRANCH  24  25
ATOM     25  C   UNL     1      74.561 -37.520  10.790  1.00  0.00    -0.000 C 
BRANCH  25  26
ATOM     26  C   UNL     1      73.064 -37.170  10.877  1.00  0.00    -0.000 C 
BRANCH  26  27
ATOM     27  C   UNL     1      72.343 -37.952  11.996  1.00  0.00    -0.000 C 
BRANCH  27  28
ATOM     28  C   UNL     1      71.044 -38.630  11.536  1.00  0.00    -0.000 C 
BRANCH  28  29
ATOM     29  C   UNL     1      70.577 -38.142  10.156  1.00  0.00    -0.000 C 
BRANCH  29  30
ATOM     30  C   UNL     1      69.045 -38.082  10.038  1.00  0.00    -0.000 C 
BRANCH  30  31
ATOM     31  C   UNL     1      68.399 -39.454   9.747  1.00  0.00    -0.003 C 
ATOM     32  C   UNL     1      69.251 -40.309   8.808  1.00  0.00     0.004 C 
ENDBRANCH  30  31
ENDBRANCH  29  30
ENDBRANCH  28  29
ENDBRANCH  27  28
ENDBRANCH  26  27
ENDBRANCH  25  26
ENDBRANCH  24  25
ENDBRANCH  23  24
ENDBRANCH  22  23
ENDBRANCH  21  22
ENDBRANCH  20  21
ENDBRANCH  19  20
ENDBRANCH  18  19
ENDBRANCH   1  18
TORSDOF 28
ENDMDL
MODEL 4
REMARK VINA RESULT:    -4.478      3.088      7.514
REMARK INTER + INTRA:         -16.324
REMARK INTER:                 -11.253
REMARK INTRA:                  -5.071
REMARK UNBOUND:                -4.515
REMARK SMILES CCCCCCCCCCCCCCCCCCCCCCCCCCCCCC(=O)[O-]
REMARK SMILES IDX 16 1 17 2 18 3 19 4 20 5 21 6 22 7 23 8 24 9 25 10 26 11
REMARK SMILES IDX 27 12 28 13 29 14 30 15 31 16 32 17 15 18 14 19 13 20 12 21
REMARK SMILES IDX 11 22 10 23 9 24 8 25 7 26 6 27 5 28 4 29 3 30 2 31 1 32
REMARK H PARENT
REMARK Flexibility Score: inf
ROOT
ATOM      1  C   UNL     1      73.958 -36.282   6.341  1.00  0.00     0.000 C 
ENDROOT
BRANCH   1   2
ATOM      2  C   UNL     1      73.602 -36.385   7.839  1.00  0.00     0.000 C 
BRANCH   2   3
ATOM      3  C   UNL     1      74.755 -36.831   8.762  1.00  0.00     0.000 C 
BRANCH   3   4
ATOM      4  C   UNL     1      74.347 -37.144  10.216  1.00  0.00     0.000 C 
BRANCH   4   5
ATOM      5  C   UNL     1      72.829 -37.167  10.469  1.00  0.00     0.000 C 
BRANCH   5   6
ATOM      6  C   UNL     1      72.450 -37.905  11.763  1.00  0.00     0.000 C 
BRANCH   6   7
ATOM      7  C   UNL     1      71.132 -38.672  11.580  1.00  0.00     0.000 C 
BRANCH   7   8
ATOM      8  C   UNL     1      70.275 -38.108  10.430  1.00  0.00     0.000 C 
BRANCH   8   9
ATOM      9  C   UNL     1      69.361 -39.156   9.756  1.00  0.00     0.000 C 
BRANCH   9  10
ATOM     10  C   UNL     1      67.871 -38.764   9.740  1.00  0.00     0.000 C 
BRANCH  10  11
ATOM     11  C   UNL     1      67.618 -37.368  10.341  1.00  0.00     0.000 C 
BRANCH  11  12
ATOM     12  C   UNL     1      66.283 -36.764   9.871  1.00  0.00     0.000 C 
BRANCH  12  13
ATOM     13  C   UNL     1      65.655 -35.855  10.942  1.00  0.00     0.006 C 
BRANCH  13  14
ATOM     14  C   UNL     1      66.066 -36.291  12.355  1.00  0.00     0.053 C 
BRANCH  14  15
ATOM     15  C   UNL     1      64.923 -36.966  13.048  1.00  0.00     0.041 C 
ATOM     16  O   UNL     1      64.214 -36.327  13.872  1.00  0.00    -0.550 OA
ATOM     17  O   UNL     1      64.662 -38.311  12.811  1.00  0.00    -0.550 OA
ENDBRANCH  14  15
ENDBRANCH  13  14
ENDBRANCH  12  13
ENDBRANCH  11  12
ENDBRANCH  10  11
ENDBRANCH   9  10
ENDBRANCH   8   9
ENDBRANCH   7   8
ENDBRANCH   6   7
ENDBRANCH   5   6
ENDBRANCH   4   5
ENDBRANCH   3   4
ENDBRANCH   2   3
ENDBRANCH   1   2
BRANCH   1  18
ATOM     18  C   UNL     1      72.957 -35.480   5.491  1.00  0.00     0.000 C 
BRANCH  18  19
ATOM     19  C   UNL     1      73.267 -33.972   5.470  1.00  0.00     0.000 C 
BRANCH  19  20
ATOM     20  C   UNL     1      72.015 -33.108   5.689  1.00  0.00     0.000 C 
BRANCH  20  21
ATOM     21  C   UNL     1      71.282 -33.432   7.000  1.00  0.00     0.000 C 
BRANCH  21  22
ATOM     22  C   UNL     1      69.762 -33.275   6.835  1.00  0.00     0.000 C 
BRANCH  22  23
ATOM     23  C   UNL     1      68.969 -34.424   7.491  1.00  0.00     0.000 C 
BRANCH  23  24
ATOM     24  C   UNL     1      69.733 -35.760   7.572  1.00  0.00    -0.000 C 
BRANCH  24  25
ATOM     25  C   UNL     1      69.622 -36.629   6.304  1.00  0.00    -0.000 C 
BRANCH  25  26
ATOM     26  C   UNL     1      70.432 -37.934   6.415  1.00  0.00    -0.000 C 
BRANCH  26  27
ATOM     27  C   UNL     1      69.567 -39.184   6.150  1.00  0.00    -0.000 C 
BRANCH  27  28
ATOM     28  C   UNL     1      68.170 -38.863   5.597  1.00  0.00    -0.000 C 
BRANCH  28  29
ATOM     29  C   UNL     1      67.067 -39.710   6.246  1.00  0.00    -0.000 C 
BRANCH  29  30
ATOM     30  C   UNL     1      65.845 -38.873   6.662  1.00  0.00    -0.000 C 
BRANCH  30  31
ATOM     31  C   UNL     1      66.045 -37.356   6.457  1.00  0.00    -0.003 C 
ATOM     32  C   UNL     1      64.717 -36.597   6.414  1.00  0.00     0.004 C 
ENDBRANCH  30  31
ENDBRANCH  29  30
ENDBRANCH  28  29
ENDBRANCH  27  28
ENDBRANCH  26  27
ENDBRANCH  25  26
ENDBRANCH  24  25
ENDBRANCH  23  24
ENDBRANCH  22  23
ENDBRANCH  21  22
ENDBRANCH  20  21
ENDBRANCH  19  20
ENDBRANCH  18  19
ENDBRANCH   1  18
TORSDOF 28
ENDMDL
MODEL 5
REMARK VINA RESULT:    -4.397      1.407      3.089
REMARK INTER + INTRA:         -16.109
REMARK INTER:                 -11.224
REMARK INTRA:                  -4.885
REMARK UNBOUND:                -4.515
REMARK SMILES CCCCCCCCCCCCCCCCCCCCCCCCCCCCCC(=O)[O-]
REMARK SMILES IDX 16 1 17 2 18 3 19 4 20 5 21 6 22 7 23 8 24 9 25 10 26 11
REMARK SMILES IDX 27 12 28 13 29 14 30 15 31 16 32 17 15 18 14 19 13 20 12 21
REMARK SMILES IDX 11 22 10 23 9 24 8 25 7 26 6 27 5 28 4 29 3 30 2 31 1 32
REMARK H PARENT
REMARK Flexibility Score: inf
ROOT
ATOM      1  C   UNL     1      70.144 -40.764  10.952  1.00  0.00     0.000 C 
ENDROOT
BRANCH   1   2
ATOM      2  C   UNL     1      71.000 -39.526  11.293  1.00  0.00     0.000 C 
BRANCH   2   3
ATOM      3  C   UNL     1      70.292 -38.166  11.117  1.00  0.00     0.000 C 
BRANCH   3   4
ATOM      4  C   UNL     1      70.615 -37.425   9.804  1.00  0.00     0.000 C 
BRANCH   4   5
ATOM      5  C   UNL     1      69.397 -37.144   8.905  1.00  0.00     0.000 C 
BRANCH   5   6
ATOM      6  C   UNL     1      69.693 -37.357   7.413  1.00  0.00     0.000 C 
BRANCH   6   7
ATOM      7  C   UNL     1      69.137 -36.192   6.580  1.00  0.00     0.000 C 
BRANCH   7   8
ATOM      8  C   UNL     1      68.702 -34.998   7.453  1.00  0.00     0.000 C 
BRANCH   8   9
ATOM      9  C   UNL     1      69.492 -33.699   7.178  1.00  0.00     0.000 C 
BRANCH   9  10
ATOM     10  C   UNL     1      70.680 -33.885   6.215  1.00  0.00     0.000 C 
BRANCH  10  11
ATOM     11  C   UNL     1      72.040 -33.860   6.939  1.00  0.00     0.000 C 
BRANCH  11  12
ATOM     12  C   UNL     1      73.110 -34.685   6.201  1.00  0.00     0.000 C 
BRANCH  12  13
ATOM     13  C   UNL     1      73.106 -36.158   6.644  1.00  0.00     0.006 C 
BRANCH  13  14
ATOM     14  C   UNL     1      73.451 -36.295   8.132  1.00  0.00     0.053 C 
BRANCH  14  15
ATOM     15  C   UNL     1      74.871 -36.740   8.302  1.00  0.00     0.041 C 
ATOM     16  O   UNL     1      75.409 -36.725   9.443  1.00  0.00    -0.550 OA
ATOM     17  O   UNL     1      75.612 -37.141   7.196  1.00  0.00    -0.550 OA
ENDBRANCH  14  15
ENDBRANCH  13  14
ENDBRANCH  12  13
ENDBRANCH  11  12
ENDBRANCH  10  11
ENDBRANCH   9  10
ENDBRANCH   8   9
ENDBRANCH   7   8
ENDBRANCH   6   7
ENDBRANCH   5   6
ENDBRANCH   4   5
ENDBRANCH   3   4
ENDBRANCH   2   3
ENDBRANCH   1   2
BRANCH   1  18
ATOM     18  C   UNL     1      69.889 -40.983   9.450  1.00  0.00     0.000 C 
BRANCH  18  19
ATOM     19  C   UNL     1      68.392 -40.982   9.093  1.00  0.00     0.000 C 
BRANCH  19  20
ATOM     20  C   UNL     1      67.494 -41.245  10.313  1.00  0.00     0.000 C 
BRANCH  20  21
ATOM     21  C   UNL     1      66.151 -40.500  10.244  1.00  0.00     0.000 C 
BRANCH  21  22
ATOM     22  C   UNL     1      66.209 -39.355   9.221  1.00  0.00     0.000 C 
BRANCH  22  23
ATOM     23  C   UNL     1      66.348 -37.970   9.883  1.00  0.00     0.000 C 
BRANCH  23  24
ATOM     24  C   UNL     1      65.426 -36.885   9.292  1.00  0.00    -0.000 C 
BRANCH  24  25
ATOM     25  C   UNL     1      65.726 -35.459   9.794  1.00  0.00    -0.000 C 
BRANCH  25  26
ATOM     26  C   UNL     1      64.644 -34.938  10.758  1.00  0.00    -0.000 C 
BRANCH  26  27
ATOM     27  C   UNL     1      65.216 -34.593  12.149  1.00  0.00    -0.000 C 
BRANCH  27  28
ATOM     28  C   UNL     1      65.635 -35.824  12.967  1.00  0.00    -0.000 C 
BRANCH  28  29
ATOM     29  C   UNL     1      64.438 -36.686  13.393  1.00  0.00    -0.000 C 
BRANCH  29  30
ATOM     30  C   UNL     1      64.448 -38.077  12.736  1.00  0.00    -0.000 C 
BRANCH  30  31
ATOM     31  C   UNL     1      63.163 -38.388  11.940  1.00  0.00    -0.003 C 
ATOM     32  C   UNL     1      62.865 -39.887  11.882  1.00  0.00     0.004 C 
ENDBRANCH  30  31
ENDBRANCH  29  30
ENDBRANCH  28  29
ENDBRANCH  27  28
ENDBRANCH  26  27
ENDBRANCH  25  26
ENDBRANCH  24  25
ENDBRANCH  23  24
ENDBRANCH  22  23
ENDBRANCH  21  22
ENDBRANCH  20  21
ENDBRANCH  19  20
ENDBRANCH  18  19
ENDBRANCH   1  18
TORSDOF 28
ENDMDL
MODEL 6
REMARK VINA RESULT:    -4.384      1.181      2.255
REMARK INTER + INTRA:         -16.075
REMARK INTER:                 -11.812
REMARK INTRA:                  -4.264
REMARK UNBOUND:                -4.515
REMARK SMILES CCCCCCCCCCCCCCCCCCCCCCCCCCCCCC(=O)[O-]
REMARK SMILES IDX 16 1 17 2 18 3 19 4 20 5 21 6 22 7 23 8 24 9 25 10 26 11
REMARK SMILES IDX 27 12 28 13 29 14 30 15 31 16 32 17 15 18 14 19 13 20 12 21
REMARK SMILES IDX 11 22 10 23 9 24 8 25 7 26 6 27 5 28 4 29 3 30 2 31 1 32
REMARK H PARENT
REMARK Flexibility Score: inf
ROOT
ATOM      1  C   UNL     1      68.916 -37.128   9.212  1.00  0.00     0.000 C 
ENDROOT
BRANCH   1   2
ATOM      2  C   UNL     1      68.148 -36.715   7.939  1.00  0.00     0.000 C 
BRANCH   2   3
ATOM      3  C   UNL     1      68.276 -35.229   7.545  1.00  0.00     0.000 C 
BRANCH   3   4
ATOM      4  C   UNL     1      69.627 -34.832   6.916  1.00  0.00     0.000 C 
BRANCH   4   5
ATOM      5  C   UNL     1      69.875 -33.315   6.823  1.00  0.00     0.000 C 
BRANCH   5   6
ATOM      6  C   UNL     1      71.364 -32.946   6.920  1.00  0.00     0.000 C 
BRANCH   6   7
ATOM      7  C   UNL     1      72.060 -33.151   5.566  1.00  0.00     0.000 C 
BRANCH   7   8
ATOM      8  C   UNL     1      73.222 -34.160   5.646  1.00  0.00     0.000 C 
BRANCH   8   9
ATOM      9  C   UNL     1      72.865 -35.572   5.134  1.00  0.00     0.000 C 
BRANCH   9  10
ATOM     10  C   UNL     1      72.749 -36.629   6.249  1.00  0.00     0.000 C 
BRANCH  10  11
ATOM     11  C   UNL     1      73.400 -36.173   7.569  1.00  0.00     0.000 C 
BRANCH  11  12
ATOM     12  C   UNL     1      72.457 -36.341   8.773  1.00  0.00     0.000 C 
BRANCH  12  13
ATOM     13  C   UNL     1      73.179 -36.955   9.986  1.00  0.00     0.006 C 
BRANCH  13  14
ATOM     14  C   UNL     1      74.684 -37.096   9.727  1.00  0.00     0.053 C 
BRANCH  14  15
ATOM     15  C   UNL     1      75.429 -37.227  11.020  1.00  0.00     0.041 C 
ATOM     16  O   UNL     1      75.106 -38.118  11.851  1.00  0.00    -0.550 OA
ATOM     17  O   UNL     1      76.458 -36.342  11.322  1.00  0.00    -0.550 OA
ENDBRANCH  14  15
ENDBRANCH  13  14
ENDBRANCH  12  13
ENDBRANCH  11  12
ENDBRANCH  10  11
ENDBRANCH   9  10
ENDBRANCH   8   9
ENDBRANCH   7   8
ENDBRANCH   6   7
ENDBRANCH   5   6
ENDBRANCH   4   5
ENDBRANCH   3   4
ENDBRANCH   2   3
ENDBRANCH   1   2
BRANCH   1  18
ATOM     18  C   UNL     1      69.516 -38.544   9.176  1.00  0.00     0.000 C 
BRANCH  18  19
ATOM     19  C   UNL     1      70.123 -38.969  10.526  1.00  0.00     0.000 C 
BRANCH  19  20
ATOM     20  C   UNL     1      70.129 -40.494  10.718  1.00  0.00     0.000 C 
BRANCH  20  21
ATOM     21  C   UNL     1      69.032 -41.207   9.911  1.00  0.00     0.000 C 
BRANCH  21  22
ATOM     22  C   UNL     1      67.882 -41.658  10.824  1.00  0.00     0.000 C 
BRANCH  22  23
ATOM     23  C   UNL     1      66.494 -41.283  10.265  1.00  0.00     0.000 C 
BRANCH  23  24
ATOM     24  C   UNL     1      66.389 -39.841   9.733  1.00  0.00    -0.000 C 
BRANCH  24  25
ATOM     25  C   UNL     1      65.169 -39.060  10.258  1.00  0.00    -0.000 C 
BRANCH  25  26
ATOM     26  C   UNL     1      65.060 -39.106  11.793  1.00  0.00    -0.000 C 
BRANCH  26  27
ATOM     27  C   UNL     1      64.882 -37.702  12.410  1.00  0.00    -0.000 C 
BRANCH  27  28
ATOM     28  C   UNL     1      66.046 -36.745  12.111  1.00  0.00    -0.000 C 
BRANCH  28  29
ATOM     29  C   UNL     1      65.696 -35.278  12.402  1.00  0.00    -0.000 C 
BRANCH  29  30
ATOM     30  C   UNL     1      65.034 -34.579  11.202  1.00  0.00    -0.000 C 
BRANCH  30  31
ATOM     31  C   UNL     1      65.291 -35.293   9.859  1.00  0.00    -0.003 C 
ATOM     32  C   UNL     1      63.993 -35.723   9.173  1.00  0.00     0.004 C 
ENDBRANCH  30  31
ENDBRANCH  29  30
ENDBRANCH  28  29
ENDBRANCH  27  28
ENDBRANCH  26  27
ENDBRANCH  25  26
ENDBRANCH  24  25
ENDBRANCH  23  24
ENDBRANCH  22  23
ENDBRANCH  21  22
ENDBRANCH  20  21
ENDBRANCH  19  20
ENDBRANCH  18  19
ENDBRANCH   1  18
TORSDOF 28
ENDMDL
MODEL 7
REMARK VINA RESULT:    -4.219      2.921      7.682
REMARK INTER + INTRA:         -15.641
REMARK INTER:                  -9.968
REMARK INTRA:                  -5.673
REMARK UNBOUND:                -4.515
REMARK SMILES CCCCCCCCCCCCCCCCCCCCCCCCCCCCCC(=O)[O-]
REMARK SMILES IDX 16 1 17 2 18 3 19 4 20 5 21 6 22 7 23 8 24 9 25 10 26 11
REMARK SMILES IDX 27 12 28 13 29 14 30 15 31 16 32 17 15 18 14 19 13 20 12 21
REMARK SMILES IDX 11 22 10 23 9 24 8 25 7 26 6 27 5 28 4 29 3 30 2 31 1 32
REMARK H PARENT
REMARK Flexibility Score: inf
ROOT
ATOM      1  C   UNL     1      74.107 -37.066   9.831  1.00  0.00     0.000 C 
ENDROOT
BRANCH   1   2
ATOM      2  C   UNL     1      72.895 -36.966  10.781  1.00  0.00     0.000 C 
BRANCH   2   3
ATOM      3  C   UNL     1      72.639 -38.211  11.655  1.00  0.00     0.000 C 
BRANCH   3   4
ATOM      4  C   UNL     1      71.189 -38.736  11.639  1.00  0.00     0.000 C 
BRANCH   4   5
ATOM      5  C   UNL     1      70.237 -37.972  10.701  1.00  0.00     0.000 C 
BRANCH   5   6
ATOM      6  C   UNL     1      69.683 -38.850   9.568  1.00  0.00     0.000 C 
BRANCH   6   7
ATOM      7  C   UNL     1      69.470 -40.291  10.055  1.00  0.00     0.000 C 
BRANCH   7   8
ATOM      8  C   UNL     1      68.088 -40.849   9.663  1.00  0.00     0.000 C 
BRANCH   8   9
ATOM      9  C   UNL     1      67.216 -39.859   8.860  1.00  0.00     0.000 C 
BRANCH   9  10
ATOM     10  C   UNL     1      65.758 -39.774   9.350  1.00  0.00     0.000 C 
BRANCH  10  11
ATOM     11  C   UNL     1      65.351 -38.345   9.756  1.00  0.00     0.000 C 
BRANCH  11  12
ATOM     12  C   UNL     1      66.286 -37.753  10.825  1.00  0.00     0.000 C 
BRANCH  12  13
ATOM     13  C   UNL     1      66.297 -36.214  10.791  1.00  0.00     0.006 C 
BRANCH  13  14
ATOM     14  C   UNL     1      65.128 -35.630  11.595  1.00  0.00     0.053 C 
BRANCH  14  15
ATOM     15  C   UNL     1      65.233 -36.025  13.036  1.00  0.00     0.041 C 
ATOM     16  O   UNL     1      66.209 -35.636  13.732  1.00  0.00    -0.550 OA
ATOM     17  O   UNL     1      64.269 -36.853  13.602  1.00  0.00    -0.550 OA
ENDBRANCH  14  15
ENDBRANCH  13  14
ENDBRANCH  12  13
ENDBRANCH  11  12
ENDBRANCH  10  11
ENDBRANCH   9  10
ENDBRANCH   8   9
ENDBRANCH   7   8
ENDBRANCH   6   7
ENDBRANCH   5   6
ENDBRANCH   4   5
ENDBRANCH   3   4
ENDBRANCH   2   3
ENDBRANCH   1   2
BRANCH   1  18
ATOM     18  C   UNL     1      73.813 -36.703   8.365  1.00  0.00     0.000 C 
BRANCH  18  19
ATOM     19  C   UNL     1      72.413 -36.093   8.171  1.00  0.00     0.000 C 
BRANCH  19  20
ATOM     20  C   UNL     1      72.355 -35.109   6.991  1.00  0.00     0.000 C 
BRANCH  20  21
ATOM     21  C   UNL     1      72.150 -33.651   7.433  1.00  0.00     0.000 C 
BRANCH  21  22
ATOM     22  C   UNL     1      70.884 -33.056   6.798  1.00  0.00     0.000 C 
BRANCH  22  23
ATOM     23  C   UNL     1      69.853 -34.131   6.401  1.00  0.00     0.000 C 
BRANCH  23  24
ATOM     24  C   UNL     1      68.800 -34.435   7.484  1.00  0.00    -0.000 C 
BRANCH  24  25
ATOM     25  C   UNL     1      68.691 -35.926   7.859  1.00  0.00    -0.000 C 
BRANCH  25  26
ATOM     26  C   UNL     1      67.624 -36.663   7.029  1.00  0.00    -0.000 C 
BRANCH  26  27
ATOM     27  C   UNL     1      68.240 -37.470   5.866  1.00  0.00    -0.000 C 
BRANCH  27  28
ATOM     28  C   UNL     1      69.733 -37.780   6.053  1.00  0.00    -0.000 C 
BRANCH  28  29
ATOM     29  C   UNL     1      70.040 -39.282   5.979  1.00  0.00    -0.000 C 
BRANCH  29  30
ATOM     30  C   UNL     1      68.868 -40.097   5.407  1.00  0.00    -0.000 C 
BRANCH  30  31
ATOM     31  C   UNL     1      68.787 -41.532   5.969  1.00  0.00    -0.003 C 
ATOM     32  C   UNL     1      70.068 -41.942   6.697  1.00  0.00     0.004 C 
ENDBRANCH  30  31
ENDBRANCH  29  30
ENDBRANCH  28  29
ENDBRANCH  27  28
ENDBRANCH  26  27
ENDBRANCH  25  26
ENDBRANCH  24  25
ENDBRANCH  23  24
ENDBRANCH  22  23
ENDBRANCH  21  22
ENDBRANCH  20  21
ENDBRANCH  19  20
ENDBRANCH  18  19
ENDBRANCH   1  18
TORSDOF 28
ENDMDL
MODEL 8
REMARK VINA RESULT:    -4.218      3.308      7.843
REMARK INTER + INTRA:         -15.637
REMARK INTER:                 -11.229
REMARK INTRA:                  -4.408
REMARK UNBOUND:                -4.515
REMARK SMILES CCCCCCCCCCCCCCCCCCCCCCCCCCCCCC(=O)[O-]
REMARK SMILES IDX 16 1 17 2 18 3 19 4 20 5 21 6 22 7 23 8 24 9 25 10 26 11
REMARK SMILES IDX 27 12 28 13 29 14 30 15 31 16 32 17 15 18 14 19 13 20 12 21
REMARK SMILES IDX 11 22 10 23 9 24 8 25 7 26 6 27 5 28 4 29 3 30 2 31 1 32
REMARK H PARENT
REMARK Flexibility Score: inf
ROOT
ATOM      1  C   UNL     1      70.905 -33.049   6.849  1.00  0.00     0.000 C 
ENDROOT
BRANCH   1   2
ATOM      2  C   UNL     1      69.565 -33.773   7.099  1.00  0.00     0.000 C 
BRANCH   2   3
ATOM      3  C   UNL     1      69.552 -35.275   6.747  1.00  0.00     0.000 C 
BRANCH   3   4
ATOM      4  C   UNL     1      69.283 -36.223   7.933  1.00  0.00     0.000 C 
BRANCH   4   5
ATOM      5  C   UNL     1      67.795 -36.450   8.253  1.00  0.00     0.000 C 
BRANCH   5   6
ATOM      6  C   UNL     1      66.947 -36.711   6.999  1.00  0.00     0.000 C 
BRANCH   6   7
ATOM      7  C   UNL     1      65.616 -37.379   7.376  1.00  0.00     0.000 C 
BRANCH   7   8
ATOM      8  C   UNL     1      64.606 -36.384   7.980  1.00  0.00     0.000 C 
BRANCH   8   9
ATOM      9  C   UNL     1      64.306 -36.626   9.476  1.00  0.00     0.000 C 
BRANCH   9  10
ATOM     10  C   UNL     1      64.605 -38.063   9.947  1.00  0.00     0.000 C 
BRANCH  10  11
ATOM     11  C   UNL     1      65.354 -38.102  11.293  1.00  0.00     0.000 C 
BRANCH  11  12
ATOM     12  C   UNL     1      66.412 -36.990  11.405  1.00  0.00     0.000 C 
BRANCH  12  13
ATOM     13  C   UNL     1      66.238 -36.158  12.688  1.00  0.00     0.006 C 
BRANCH  13  14
ATOM     14  C   UNL     1      65.554 -34.816  12.395  1.00  0.00     0.053 C 
BRANCH  14  15
ATOM     15  C   UNL     1      64.162 -34.805  12.945  1.00  0.00     0.041 C 
ATOM     16  O   UNL     1      63.359 -33.889  12.622  1.00  0.00    -0.550 OA
ATOM     17  O   UNL     1      63.761 -35.789  13.842  1.00  0.00    -0.550 OA
ENDBRANCH  14  15
ENDBRANCH  13  14
ENDBRANCH  12  13
ENDBRANCH  11  12
ENDBRANCH  10  11
ENDBRANCH   9  10
ENDBRANCH   8   9
ENDBRANCH   7   8
ENDBRANCH   6   7
ENDBRANCH   5   6
ENDBRANCH   4   5
ENDBRANCH   3   4
ENDBRANCH   2   3
ENDBRANCH   1   2
BRANCH   1  18
ATOM     18  C   UNL     1      72.158 -33.850   7.245  1.00  0.00     0.000 C 
BRANCH  18  19
ATOM     19  C   UNL     1      72.932 -34.386   6.027  1.00  0.00     0.000 C 
BRANCH  19  20
ATOM     20  C   UNL     1      73.755 -35.642   6.357  1.00  0.00     0.000 C 
BRANCH  20  21
ATOM     21  C   UNL     1      73.399 -36.255   7.721  1.00  0.00     0.000 C 
BRANCH  21  22
ATOM     22  C   UNL     1      74.656 -36.763   8.442  1.00  0.00     0.000 C 
BRANCH  22  23
ATOM     23  C   UNL     1      74.384 -37.164   9.906  1.00  0.00     0.000 C 
BRANCH  23  24
ATOM     24  C   UNL     1      72.904 -37.076  10.326  1.00  0.00    -0.000 C 
BRANCH  24  25
ATOM     25  C   UNL     1      72.528 -37.989  11.509  1.00  0.00    -0.000 C 
BRANCH  25  26
ATOM     26  C   UNL     1      71.012 -38.246  11.594  1.00  0.00    -0.000 C 
BRANCH  26  27
ATOM     27  C   UNL     1      70.592 -39.526  10.841  1.00  0.00    -0.000 C 
BRANCH  27  28
ATOM     28  C   UNL     1      69.187 -39.447  10.225  1.00  0.00    -0.000 C 
BRANCH  28  29
ATOM     29  C   UNL     1      68.936 -40.542   9.179  1.00  0.00    -0.000 C 
BRANCH  29  30
ATOM     30  C   UNL     1      67.867 -40.142   8.148  1.00  0.00    -0.000 C 
BRANCH  30  31
ATOM     31  C   UNL     1      68.373 -40.192   6.690  1.00  0.00    -0.003 C 
ATOM     32  C   UNL     1      69.780 -39.610   6.545  1.00  0.00     0.004 C 
ENDBRANCH  30  31
ENDBRANCH  29  30
ENDBRANCH  28  29
ENDBRANCH  27  28
ENDBRANCH  26  27
ENDBRANCH  25  26
ENDBRANCH  24  25
ENDBRANCH  23  24
ENDBRANCH  22  23
ENDBRANCH  21  22
ENDBRANCH  20  21
ENDBRANCH  19  20
ENDBRANCH  18  19
ENDBRANCH   1  18
TORSDOF 28
ENDMDL
MODEL 9
REMARK VINA RESULT:    -4.216      3.337      7.232
REMARK INTER + INTRA:         -15.632
REMARK INTER:                 -10.610
REMARK INTRA:                  -5.022
REMARK UNBOUND:                -4.515
REMARK SMILES CCCCCCCCCCCCCCCCCCCCCCCCCCCCCC(=O)[O-]
REMARK SMILES IDX 16 1 17 2 18 3 19 4 20 5 21 6 22 7 23 8 24 9 25 10 26 11
REMARK SMILES IDX 27 12 28 13 29 14 30 15 31 16 32 17 15 18 14 19 13 20 12 21
REMARK SMILES IDX 11 22 10 23 9 24 8 25 7 26 6 27 5 28 4 29 3 30 2 31 1 32
REMARK H PARENT
REMARK Flexibility Score: inf
ROOT
ATOM      1  C   UNL     1      71.528 -33.779   7.287  1.00  0.00     0.000 C 
ENDROOT
BRANCH   1   2
ATOM      2  C   UNL     1      70.067 -33.369   7.009  1.00  0.00     0.000 C 
BRANCH   2   3
ATOM      3  C   UNL     1      69.032 -34.510   7.106  1.00  0.00     0.000 C 
BRANCH   3   4
ATOM      4  C   UNL     1      69.519 -35.775   7.840  1.00  0.00     0.000 C 
BRANCH   4   5
ATOM      5  C   UNL     1      69.579 -37.043   6.970  1.00  0.00     0.000 C 
BRANCH   5   6
ATOM      6  C   UNL     1      68.433 -37.122   5.949  1.00  0.00     0.000 C 
BRANCH   6   7
ATOM      7  C   UNL     1      67.296 -38.008   6.481  1.00  0.00     0.000 C 
BRANCH   7   8
ATOM      8  C   UNL     1      65.973 -37.236   6.646  1.00  0.00     0.000 C 
BRANCH   8   9
ATOM      9  C   UNL     1      65.867 -36.446   7.969  1.00  0.00     0.000 C 
BRANCH   9  10
ATOM     10  C   UNL     1      65.586 -37.329   9.201  1.00  0.00     0.000 C 
BRANCH  10  11
ATOM     11  C   UNL     1      66.525 -37.016  10.382  1.00  0.00     0.000 C 
BRANCH  11  12
ATOM     12  C   UNL     1      65.820 -37.161  11.742  1.00  0.00     0.000 C 
BRANCH  12  13
ATOM     13  C   UNL     1      66.096 -35.961  12.664  1.00  0.00     0.006 C 
BRANCH  13  14
ATOM     14  C   UNL     1      65.758 -34.635  11.970  1.00  0.00     0.053 C 
BRANCH  14  15
ATOM     15  C   UNL     1      64.275 -34.441  11.903  1.00  0.00     0.041 C 
ATOM     16  O   UNL     1      63.598 -34.348  12.963  1.00  0.00    -0.550 OA
ATOM     17  O   UNL     1      63.634 -34.397  10.670  1.00  0.00    -0.550 OA
ENDBRANCH  14  15
ENDBRANCH  13  14
ENDBRANCH  12  13
ENDBRANCH  11  12
ENDBRANCH  10  11
ENDBRANCH   9  10
ENDBRANCH   8   9
ENDBRANCH   7   8
ENDBRANCH   6   7
ENDBRANCH   5   6
ENDBRANCH   4   5
ENDBRANCH   3   4
ENDBRANCH   2   3
ENDBRANCH   1   2
BRANCH   1  18
ATOM     18  C   UNL     1      72.293 -34.320   6.066  1.00  0.00     0.000 C 
BRANCH  18  19
ATOM     19  C   UNL     1      73.179 -35.531   6.407  1.00  0.00     0.000 C 
BRANCH  19  20
ATOM     20  C   UNL     1      73.100 -35.922   7.892  1.00  0.00     0.000 C 
BRANCH  20  21
ATOM     21  C   UNL     1      74.384 -36.593   8.407  1.00  0.00     0.000 C 
BRANCH  21  22
ATOM     22  C   UNL     1      74.193 -37.124   9.835  1.00  0.00     0.000 C 
BRANCH  22  23
ATOM     23  C   UNL     1      72.720 -37.094  10.291  1.00  0.00     0.000 C 
BRANCH  23  24
ATOM     24  C   UNL     1      72.448 -37.831  11.617  1.00  0.00    -0.000 C 
BRANCH  24  25
ATOM     25  C   UNL     1      71.126 -38.622  11.641  1.00  0.00    -0.000 C 
BRANCH  25  26
ATOM     26  C   UNL     1      70.162 -38.187  10.521  1.00  0.00    -0.000 C 
BRANCH  26  27
ATOM     27  C   UNL     1      69.773 -39.359   9.595  1.00  0.00    -0.000 C 
BRANCH  27  28
ATOM     28  C   UNL     1      68.561 -40.162  10.092  1.00  0.00    -0.000 C 
BRANCH  28  29
ATOM     29  C   UNL     1      67.702 -40.709   8.943  1.00  0.00    -0.000 C 
BRANCH  29  30
ATOM     30  C   UNL     1      66.222 -40.863   9.333  1.00  0.00    -0.000 C 
BRANCH  30  31
ATOM     31  C   UNL     1      65.973 -40.742  10.852  1.00  0.00    -0.003 C 
ATOM     32  C   UNL     1      65.642 -42.090  11.494  1.00  0.00     0.004 C 
ENDBRANCH  30  31
ENDBRANCH  29  30
ENDBRANCH  28  29
ENDBRANCH  27  28
ENDBRANCH  26  27
ENDBRANCH  25  26
ENDBRANCH  24  25
ENDBRANCH  23  24
ENDBRANCH  22  23
ENDBRANCH  21  22
ENDBRANCH  20  21
ENDBRANCH  19  20
ENDBRANCH  18  19
ENDBRANCH   1  18
TORSDOF 28
ENDMDL
