MODEL 1
REMARK VINA RESULT:    -6.343      0.000      0.000
REMARK INTER + INTRA:          -7.409
REMARK INTER:                  -7.270
REMARK INTRA:                  -0.139
REMARK UNBOUND:                -0.139
REMARK SMILES O=C([O-])C=Cc1ccc(O)cc1
REMARK SMILES IDX 6 1 7 2 12 3 8 4 11 5 9 6 5 7 4 8 2 9 1 10 3 11 10 12
REMARK H PARENT 10 13
REMARK Flexibility Score: inf
ROOT
ATOM      1  C   UNL     1      12.267  49.766  -4.944  1.00  0.00    -0.025 A 
ATOM      2  C   UNL     1      12.454  49.933  -3.556  1.00  0.00     0.012 A 
ATOM      3  C   UNL     1      11.532  48.658  -5.399  1.00  0.00     0.012 A 
ATOM      4  C   UNL     1      11.895  49.025  -2.652  1.00  0.00     0.047 A 
ATOM      5  C   UNL     1      10.974  47.752  -4.492  1.00  0.00     0.047 A 
ATOM      6  C   UNL     1      11.153  47.935  -3.115  1.00  0.00     0.115 A 
ENDROOT
BRANCH   1   7
ATOM      7  C   UNL     1      12.848  50.693  -5.946  1.00  0.00     0.010 C 
ATOM      8  C   UNL     1      13.256  51.938  -5.662  1.00  0.00     0.025 C 
BRANCH   8   9
ATOM      9  C   UNL     1      13.815  52.827  -6.692  1.00  0.00     0.064 C 
ATOM     10  O   UNL     1      15.019  52.699  -7.036  1.00  0.00    -0.545 OA
ATOM     11  O   UNL     1      13.033  53.806  -7.295  1.00  0.00    -0.545 OA
ENDBRANCH   8   9
ENDBRANCH   1   7
BRANCH   6  12
ATOM     12  O   UNL     1      10.602  47.040  -2.201  1.00  0.00    -0.508 OA
ATOM     13  H   UNL     1      10.988  46.929  -1.271  1.00  0.00     0.293 HD
ENDBRANCH   6  12
TORSDOF 3
ENDMDL
MODEL 2
REMARK VINA RESULT:    -6.293      0.244      1.418
REMARK INTER + INTRA:          -7.352
REMARK INTER:                  -7.201
REMARK INTRA:                  -0.151
REMARK UNBOUND:                -0.139
REMARK SMILES O=C([O-])C=Cc1ccc(O)cc1
REMARK SMILES IDX 6 1 7 2 12 3 8 4 11 5 9 6 5 7 4 8 2 9 1 10 3 11 10 12
REMARK H PARENT 10 13
REMARK Flexibility Score: inf
ROOT
ATOM      1  C   UNL     1      12.154  49.537  -4.937  1.00  0.00    -0.025 A 
ATOM      2  C   UNL     1      11.374  48.429  -5.326  1.00  0.00     0.012 A 
ATOM      3  C   UNL     1      12.385  49.755  -3.568  1.00  0.00     0.012 A 
ATOM      4  C   UNL     1      10.862  47.551  -4.366  1.00  0.00     0.047 A 
ATOM      5  C   UNL     1      11.870  48.875  -2.610  1.00  0.00     0.047 A 
ATOM      6  C   UNL     1      11.109  47.769  -3.008  1.00  0.00     0.115 A 
ENDROOT
BRANCH   1   7
ATOM      7  C   UNL     1      12.712  50.505  -5.913  1.00  0.00     0.010 C 
ATOM      8  C   UNL     1      13.297  51.660  -5.567  1.00  0.00     0.025 C 
BRANCH   8   9
ATOM      9  C   UNL     1      13.826  52.596  -6.571  1.00  0.00     0.064 C 
ATOM     10  O   UNL     1      15.006  52.458  -6.988  1.00  0.00    -0.545 OA
ATOM     11  O   UNL     1      13.042  53.630  -7.072  1.00  0.00    -0.545 OA
ENDBRANCH   8   9
ENDBRANCH   1   7
BRANCH   6  12
ATOM     12  O   UNL     1      10.593  46.885  -2.064  1.00  0.00    -0.508 OA
ATOM     13  H   UNL     1       9.926  47.189  -1.363  1.00  0.00     0.293 HD
ENDBRANCH   6  12
TORSDOF 3
ENDMDL
MODEL 3
REMARK VINA RESULT:    -6.176      0.820      1.717
REMARK INTER + INTRA:          -7.218
REMARK INTER:                  -7.069
REMARK INTRA:                  -0.148
REMARK UNBOUND:                -0.139
REMARK SMILES O=C([O-])C=Cc1ccc(O)cc1
REMARK SMILES IDX 6 1 7 2 12 3 8 4 11 5 9 6 5 7 4 8 2 9 1 10 3 11 10 12
REMARK H PARENT 10 13
REMARK Flexibility Score: inf
ROOT
ATOM      1  C   UNL     1      12.527  50.087  -4.922  1.00  0.00    -0.025 A 
ATOM      2  C   UNL     1      11.814  49.048  -5.554  1.00  0.00     0.012 A 
ATOM      3  C   UNL     1      12.578  50.115  -3.518  1.00  0.00     0.012 A 
ATOM      4  C   UNL     1      11.191  48.052  -4.795  1.00  0.00     0.047 A 
ATOM      5  C   UNL     1      11.955  49.118  -2.762  1.00  0.00     0.047 A 
ATOM      6  C   UNL     1      11.261  48.082  -3.400  1.00  0.00     0.115 A 
ENDROOT
BRANCH   1   7
ATOM      7  C   UNL     1      13.195  51.174  -5.679  1.00  0.00     0.010 C 
ATOM      8  C   UNL     1      13.268  52.443  -5.254  1.00  0.00     0.025 C 
BRANCH   8   9
ATOM      9  C   UNL     1      13.932  53.491  -6.044  1.00  0.00     0.064 C 
ATOM     10  O   UNL     1      14.023  54.657  -5.578  1.00  0.00    -0.545 OA
ATOM     11  O   UNL     1      14.464  53.215  -7.299  1.00  0.00    -0.545 OA
ENDBRANCH   8   9
ENDBRANCH   1   7
BRANCH   6  12
ATOM     12  O   UNL     1      10.637  47.082  -2.658  1.00  0.00    -0.508 OA
ATOM     13  H   UNL     1      10.741  47.027  -1.651  1.00  0.00     0.293 HD
ENDBRANCH   6  12
TORSDOF 3
ENDMDL
MODEL 4
REMARK VINA RESULT:    -5.889      1.706      1.930
REMARK INTER + INTRA:          -6.889
REMARK INTER:                  -6.751
REMARK INTRA:                  -0.138
REMARK UNBOUND:                -0.139
REMARK SMILES O=C([O-])C=Cc1ccc(O)cc1
REMARK SMILES IDX 6 1 7 2 12 3 8 4 11 5 9 6 5 7 4 8 2 9 1 10 3 11 10 12
REMARK H PARENT 10 13
REMARK Flexibility Score: inf
ROOT
ATOM      1  C   UNL     1      12.863  50.763  -4.334  1.00  0.00    -0.025 A 
ATOM      2  C   UNL     1      12.476  50.182  -3.109  1.00  0.00     0.012 A 
ATOM      3  C   UNL     1      12.504  50.120  -5.531  1.00  0.00     0.012 A 
ATOM      4  C   UNL     1      11.728  49.000  -3.090  1.00  0.00     0.047 A 
ATOM      5  C   UNL     1      11.757  48.938  -5.508  1.00  0.00     0.047 A 
ATOM      6  C   UNL     1      11.365  48.377  -4.287  1.00  0.00     0.115 A 
ENDROOT
BRANCH   1   7
ATOM      7  C   UNL     1      13.666  52.009  -4.410  1.00  0.00     0.010 C 
ATOM      8  C   UNL     1      13.222  53.149  -4.957  1.00  0.00     0.025 C 
BRANCH   8   9
ATOM      9  C   UNL     1      14.058  54.357  -5.021  1.00  0.00     0.064 C 
ATOM     10  O   UNL     1      14.511  54.856  -3.958  1.00  0.00    -0.545 OA
ATOM     11  O   UNL     1      14.361  54.957  -6.239  1.00  0.00    -0.545 OA
ENDBRANCH   8   9
ENDBRANCH   1   7
BRANCH   6  12
ATOM     12  O   UNL     1      10.619  47.202  -4.251  1.00  0.00    -0.508 OA
ATOM     13  H   UNL     1      10.134  46.908  -3.411  1.00  0.00     0.293 HD
ENDBRANCH   6  12
TORSDOF 3
ENDMDL
MODEL 5
REMARK VINA RESULT:    -5.860      1.192      5.711
REMARK INTER + INTRA:          -6.855
REMARK INTER:                  -6.713
REMARK INTRA:                  -0.142
REMARK UNBOUND:                -0.139
REMARK SMILES O=C([O-])C=Cc1ccc(O)cc1
REMARK SMILES IDX 6 1 7 2 12 3 8 4 11 5 9 6 5 7 4 8 2 9 1 10 3 11 10 12
REMARK H PARENT 10 13
REMARK Flexibility Score: inf
ROOT
ATOM      1  C   UNL     1      12.772  50.716  -4.906  1.00  0.00    -0.025 A 
ATOM      2  C   UNL     1      13.229  51.645  -3.949  1.00  0.00     0.012 A 
ATOM      3  C   UNL     1      12.895  51.033  -6.270  1.00  0.00     0.012 A 
ATOM      4  C   UNL     1      13.816  52.848  -4.354  1.00  0.00     0.047 A 
ATOM      5  C   UNL     1      13.482  52.237  -6.671  1.00  0.00     0.047 A 
ATOM      6  C   UNL     1      13.946  53.147  -5.713  1.00  0.00     0.115 A 
ENDROOT
BRANCH   1   7
ATOM      7  C   UNL     1      12.132  49.431  -4.531  1.00  0.00     0.010 C 
ATOM      8  C   UNL     1      11.675  49.156  -3.301  1.00  0.00     0.025 C 
BRANCH   8   9
ATOM      9  C   UNL     1      11.058  47.862  -2.972  1.00  0.00     0.064 C 
ATOM     10  O   UNL     1      10.995  47.492  -1.770  1.00  0.00    -0.545 OA
ATOM     11  O   UNL     1      10.539  47.041  -3.967  1.00  0.00    -0.545 OA
ENDBRANCH   8   9
ENDBRANCH   1   7
BRANCH   6  12
ATOM     12  O   UNL     1      14.534  54.349  -6.100  1.00  0.00    -0.508 OA
ATOM     13  H   UNL     1      13.975  55.169  -6.303  1.00  0.00     0.293 HD
ENDBRANCH   6  12
TORSDOF 3
ENDMDL
MODEL 6
REMARK VINA RESULT:    -5.701     12.781     13.769
REMARK INTER + INTRA:          -6.673
REMARK INTER:                  -6.534
REMARK INTRA:                  -0.139
REMARK UNBOUND:                -0.139
REMARK SMILES O=C([O-])C=Cc1ccc(O)cc1
REMARK SMILES IDX 6 1 7 2 12 3 8 4 11 5 9 6 5 7 4 8 2 9 1 10 3 11 10 12
REMARK H PARENT 10 13
REMARK Flexibility Score: inf
ROOT
ATOM      1  C   UNL     1      11.954  55.913   6.835  1.00  0.00    -0.025 A 
ATOM      2  C   UNL     1      10.882  55.633   7.708  1.00  0.00     0.012 A 
ATOM      3  C   UNL     1      11.819  55.594   5.473  1.00  0.00     0.012 A 
ATOM      4  C   UNL     1       9.699  55.070   7.219  1.00  0.00     0.047 A 
ATOM      5  C   UNL     1      10.634  55.031   4.988  1.00  0.00     0.047 A 
ATOM      6  C   UNL     1       9.570  54.771   5.860  1.00  0.00     0.115 A 
ENDROOT
BRANCH   1   7
ATOM      7  C   UNL     1      13.234  56.499   7.304  1.00  0.00     0.010 C 
ATOM      8  C   UNL     1      13.322  57.648   7.988  1.00  0.00     0.025 C 
BRANCH   8   9
ATOM      9  C   UNL     1      14.615  58.198   8.422  1.00  0.00     0.064 C 
ATOM     10  O   UNL     1      15.670  57.545   8.210  1.00  0.00    -0.545 OA
ATOM     11  O   UNL     1      14.694  59.430   9.061  1.00  0.00    -0.545 OA
ENDBRANCH   8   9
ENDBRANCH   1   7
BRANCH   6  12
ATOM     12  O   UNL     1       8.385  54.211   5.389  1.00  0.00    -0.508 OA
ATOM     13  H   UNL     1       7.855  54.646   4.642  1.00  0.00     0.293 HD
ENDBRANCH   6  12
TORSDOF 3
ENDMDL
MODEL 7
REMARK VINA RESULT:    -5.669     12.425     13.623
REMARK INTER + INTRA:          -6.636
REMARK INTER:                  -6.486
REMARK INTRA:                  -0.151
REMARK UNBOUND:                -0.139
REMARK SMILES O=C([O-])C=Cc1ccc(O)cc1
REMARK SMILES IDX 6 1 7 2 12 3 8 4 11 5 9 6 5 7 4 8 2 9 1 10 3 11 10 12
REMARK H PARENT 10 13
REMARK Flexibility Score: inf
ROOT
ATOM      1  C   UNL     1      11.796  55.832   6.415  1.00  0.00    -0.025 A 
ATOM      2  C   UNL     1      11.481  55.844   5.041  1.00  0.00     0.012 A 
ATOM      3  C   UNL     1      10.821  55.395   7.329  1.00  0.00     0.012 A 
ATOM      4  C   UNL     1      10.230  55.405   4.597  1.00  0.00     0.047 A 
ATOM      5  C   UNL     1       9.571  54.957   6.881  1.00  0.00     0.047 A 
ATOM      6  C   UNL     1       9.274  54.959   5.512  1.00  0.00     0.115 A 
ENDROOT
BRANCH   1   7
ATOM      7  C   UNL     1      13.103  56.297   6.941  1.00  0.00     0.010 C 
ATOM      8  C   UNL     1      13.348  56.520   8.240  1.00  0.00     0.025 C 
BRANCH   8   9
ATOM      9  C   UNL     1      14.657  56.993   8.714  1.00  0.00     0.064 C 
ATOM     10  O   UNL     1      15.530  56.156   9.066  1.00  0.00    -0.545 OA
ATOM     11  O   UNL     1      14.951  58.351   8.778  1.00  0.00    -0.545 OA
ENDBRANCH   8   9
ENDBRANCH   1   7
BRANCH   6  12
ATOM     12  O   UNL     1       8.033  54.524   5.054  1.00  0.00    -0.508 OA
ATOM     13  H   UNL     1       7.951  53.889   4.268  1.00  0.00     0.293 HD
ENDBRANCH   6  12
TORSDOF 3
ENDMDL
MODEL 8
REMARK VINA RESULT:    -5.627     10.735     12.336
REMARK INTER + INTRA:          -6.588
REMARK INTER:                  -6.450
REMARK INTRA:                  -0.139
REMARK UNBOUND:                -0.139
REMARK SMILES O=C([O-])C=Cc1ccc(O)cc1
REMARK SMILES IDX 6 1 7 2 12 3 8 4 11 5 9 6 5 7 4 8 2 9 1 10 3 11 10 12
REMARK H PARENT 10 13
REMARK Flexibility Score: inf
ROOT
ATOM      1  C   UNL     1      11.115  55.303   4.708  1.00  0.00    -0.025 A 
ATOM      2  C   UNL     1      12.296  55.465   3.957  1.00  0.00     0.012 A 
ATOM      3  C   UNL     1       9.889  55.200   4.028  1.00  0.00     0.012 A 
ATOM      4  C   UNL     1      12.249  55.498   2.559  1.00  0.00     0.047 A 
ATOM      5  C   UNL     1       9.845  55.235   2.630  1.00  0.00     0.047 A 
ATOM      6  C   UNL     1      11.026  55.381   1.893  1.00  0.00     0.115 A 
ENDROOT
BRANCH   1   7
ATOM      7  C   UNL     1      11.108  55.272   6.191  1.00  0.00     0.010 C 
ATOM      8  C   UNL     1      11.910  56.025   6.956  1.00  0.00     0.025 C 
BRANCH   8   9
ATOM      9  C   UNL     1      11.877  55.953   8.425  1.00  0.00     0.064 C 
ATOM     10  O   UNL     1      12.944  55.747   9.061  1.00  0.00    -0.545 OA
ATOM     11  O   UNL     1      10.686  56.111   9.125  1.00  0.00    -0.545 OA
ENDBRANCH   8   9
ENDBRANCH   1   7
BRANCH   6  12
ATOM     12  O   UNL     1      10.995  55.415   0.501  1.00  0.00    -0.508 OA
ATOM     13  H   UNL     1      10.130  55.292  -0.012  1.00  0.00     0.293 HD
ENDBRANCH   6  12
TORSDOF 3
ENDMDL
MODEL 9
REMARK VINA RESULT:    -5.619      9.236     10.135
REMARK INTER + INTRA:          -6.579
REMARK INTER:                  -6.425
REMARK INTRA:                  -0.154
REMARK UNBOUND:                -0.139
REMARK SMILES O=C([O-])C=Cc1ccc(O)cc1
REMARK SMILES IDX 6 1 7 2 12 3 8 4 11 5 9 6 5 7 4 8 2 9 1 10 3 11 10 12
REMARK H PARENT 10 13
REMARK Flexibility Score: inf
ROOT
ATOM      1  C   UNL     1      10.992  54.986   3.908  1.00  0.00    -0.025 A 
ATOM      2  C   UNL     1      11.719  55.346   5.061  1.00  0.00     0.012 A 
ATOM      3  C   UNL     1       9.636  54.644   4.043  1.00  0.00     0.012 A 
ATOM      4  C   UNL     1      11.093  55.385   6.311  1.00  0.00     0.047 A 
ATOM      5  C   UNL     1       9.012  54.683   5.294  1.00  0.00     0.047 A 
ATOM      6  C   UNL     1       9.740  55.057   6.431  1.00  0.00     0.115 A 
ENDROOT
BRANCH   1   7
ATOM      7  C   UNL     1      11.611  54.919   2.561  1.00  0.00     0.010 C 
ATOM      8  C   UNL     1      10.909  54.844   1.422  1.00  0.00     0.025 C 
BRANCH   8   9
ATOM      9  C   UNL     1      11.565  54.767   0.108  1.00  0.00     0.064 C 
ATOM     10  O   UNL     1      12.814  54.907   0.028  1.00  0.00    -0.545 OA
ATOM     11  O   UNL     1      10.830  54.538  -1.050  1.00  0.00    -0.545 OA
ENDBRANCH   8   9
ENDBRANCH   1   7
BRANCH   6  12
ATOM     12  O   UNL     1       9.130  55.101   7.683  1.00  0.00    -0.508 OA
ATOM     13  H   UNL     1       8.121  55.113   7.779  1.00  0.00     0.293 HD
ENDBRANCH   6  12
TORSDOF 3
ENDMDL
