MODEL 1
REMARK VINA RESULT:    -4.169      0.000      0.000
REMARK INTER + INTRA:          -8.007
REMARK INTER:                  -6.606
REMARK INTRA:                  -1.402
REMARK UNBOUND:                -1.402
REMARK SMILES CCCCCCCCCCCC(=O)[O-]
REMARK SMILES IDX 7 1 8 2 9 3 10 4 11 5 12 6 13 7 14 8 6 9 5 10 4 11 3 12 2 13
REMARK SMILES IDX 1 14
REMARK H PARENT
REMARK Flexibility Score: inf
ROOT
ATOM      1  C   UNL     1     -37.838  18.055 -30.223  1.00  0.00     0.000 C 
ENDROOT
BRANCH   1   2
ATOM      2  C   UNL     1     -39.194  18.345 -29.558  1.00  0.00     0.000 C 
BRANCH   2   3
ATOM      3  C   UNL     1     -40.193  19.010 -30.520  1.00  0.00     0.000 C 
BRANCH   3   4
ATOM      4  C   UNL     1     -40.481  20.480 -30.158  1.00  0.00     0.006 C 
BRANCH   4   5
ATOM      5  C   UNL     1     -40.710  20.732 -28.659  1.00  0.00     0.053 C 
BRANCH   5   6
ATOM      6  C   UNL     1     -41.924  21.572 -28.409  1.00  0.00     0.041 C 
ATOM      7  O   UNL     1     -41.971  22.758 -28.828  1.00  0.00    -0.550 OA
ATOM      8  O   UNL     1     -42.991  21.056 -27.684  1.00  0.00    -0.550 OA
ENDBRANCH   5   6
ENDBRANCH   4   5
ENDBRANCH   3   4
ENDBRANCH   2   3
ENDBRANCH   1   2
BRANCH   1   9
ATOM      9  C   UNL     1     -36.870  19.246 -30.139  1.00  0.00     0.000 C 
BRANCH   9  10
ATOM     10  C   UNL     1     -37.033  19.991 -28.806  1.00  0.00    -0.000 C 
BRANCH  10  11
ATOM     11  C   UNL     1     -36.923  21.516 -28.962  1.00  0.00    -0.000 C 
BRANCH  11  12
ATOM     12  C   UNL     1     -37.023  21.970 -30.426  1.00  0.00    -0.000 C 
BRANCH  12  13
ATOM     13  C   UNL     1     -38.012  23.132 -30.573  1.00  0.00    -0.003 C 
ATOM     14  C   UNL     1     -38.643  23.149 -31.963  1.00  0.00     0.004 C 
ENDBRANCH  12  13
ENDBRANCH  11  12
ENDBRANCH  10  11
ENDBRANCH   9  10
ENDBRANCH   1   9
TORSDOF 10
ENDMDL
MODEL 2
REMARK VINA RESULT:    -4.070      1.434      3.619
REMARK INTER + INTRA:          -7.850
REMARK INTER:                  -6.873
REMARK INTRA:                  -0.977
REMARK UNBOUND:                -1.402
REMARK SMILES CCCCCCCCCCCC(=O)[O-]
REMARK SMILES IDX 7 1 8 2 9 3 10 4 11 5 12 6 13 7 14 8 6 9 5 10 4 11 3 12 2 13
REMARK SMILES IDX 1 14
REMARK H PARENT
REMARK Flexibility Score: inf
ROOT
ATOM      1  C   UNL     1     -37.886  23.310 -29.848  1.00  0.00     0.000 C 
ENDROOT
BRANCH   1   2
ATOM      2  C   UNL     1     -38.739  23.309 -28.568  1.00  0.00     0.000 C 
BRANCH   2   3
ATOM      3  C   UNL     1     -39.902  24.314 -28.633  1.00  0.00     0.000 C 
BRANCH   3   4
ATOM      4  C   UNL     1     -41.276  23.628 -28.752  1.00  0.00     0.006 C 
BRANCH   4   5
ATOM      5  C   UNL     1     -41.215  22.153 -29.181  1.00  0.00     0.053 C 
BRANCH   5   6
ATOM      6  C   UNL     1     -41.621  21.228 -28.075  1.00  0.00     0.041 C 
ATOM      7  O   UNL     1     -40.749  20.575 -27.444  1.00  0.00    -0.550 OA
ATOM      8  O   UNL     1     -42.964  21.062 -27.764  1.00  0.00    -0.550 OA
ENDBRANCH   5   6
ENDBRANCH   4   5
ENDBRANCH   3   4
ENDBRANCH   2   3
ENDBRANCH   1   2
BRANCH   1   9
ATOM      9  C   UNL     1     -37.908  21.957 -30.576  1.00  0.00     0.000 C 
BRANCH   9  10
ATOM     10  C   UNL     1     -36.860  21.001 -29.986  1.00  0.00    -0.000 C 
BRANCH  10  11
ATOM     11  C   UNL     1     -37.493  19.838 -29.204  1.00  0.00    -0.000 C 
BRANCH  11  12
ATOM     12  C   UNL     1     -38.010  18.720 -30.123  1.00  0.00    -0.000 C 
BRANCH  12  13
ATOM     13  C   UNL     1     -39.445  18.327 -29.752  1.00  0.00    -0.003 C 
ATOM     14  C   UNL     1     -40.449  18.900 -30.749  1.00  0.00     0.004 C 
ENDBRANCH  12  13
ENDBRANCH  11  12
ENDBRANCH  10  11
ENDBRANCH   9  10
ENDBRANCH   1   9
TORSDOF 10
ENDMDL
MODEL 3
REMARK VINA RESULT:    -4.029      0.997      3.225
REMARK INTER + INTRA:          -7.787
REMARK INTER:                  -6.483
REMARK INTRA:                  -1.304
REMARK UNBOUND:                -1.402
REMARK SMILES CCCCCCCCCCCC(=O)[O-]
REMARK SMILES IDX 7 1 8 2 9 3 10 4 11 5 12 6 13 7 14 8 6 9 5 10 4 11 3 12 2 13
REMARK SMILES IDX 1 14
REMARK H PARENT
REMARK Flexibility Score: inf
ROOT
ATOM      1  C   UNL     1     -36.593  21.671 -30.648  1.00  0.00     0.000 C 
ENDROOT
BRANCH   1   2
ATOM      2  C   UNL     1     -37.413  22.904 -31.065  1.00  0.00     0.000 C 
BRANCH   2   3
ATOM      3  C   UNL     1     -38.926  22.694 -30.887  1.00  0.00     0.000 C 
BRANCH   3   4
ATOM      4  C   UNL     1     -39.503  23.495 -29.703  1.00  0.00     0.006 C 
BRANCH   4   5
ATOM      5  C   UNL     1     -40.125  22.631 -28.595  1.00  0.00     0.053 C 
BRANCH   5   6
ATOM      6  C   UNL     1     -41.604  22.473 -28.768  1.00  0.00     0.041 C 
ATOM      7  O   UNL     1     -42.274  23.370 -29.345  1.00  0.00    -0.550 OA
ATOM      8  O   UNL     1     -42.248  21.351 -28.263  1.00  0.00    -0.550 OA
ENDBRANCH   5   6
ENDBRANCH   4   5
ENDBRANCH   3   4
ENDBRANCH   2   3
ENDBRANCH   1   2
BRANCH   1   9
ATOM      9  C   UNL     1     -36.592  21.445 -29.128  1.00  0.00     0.000 C 
BRANCH   9  10
ATOM     10  C   UNL     1     -36.982  19.999 -28.789  1.00  0.00    -0.000 C 
BRANCH  10  11
ATOM     11  C   UNL     1     -37.342  19.175 -30.036  1.00  0.00    -0.000 C 
BRANCH  11  12
ATOM     12  C   UNL     1     -38.639  18.371 -29.860  1.00  0.00    -0.000 C 
BRANCH  12  13
ATOM     13  C   UNL     1     -39.867  19.282 -29.972  1.00  0.00    -0.003 C 
ATOM     14  C   UNL     1     -40.850  18.757 -31.014  1.00  0.00     0.004 C 
ENDBRANCH  12  13
ENDBRANCH  11  12
ENDBRANCH  10  11
ENDBRANCH   9  10
ENDBRANCH   1   9
TORSDOF 10
ENDMDL
MODEL 4
REMARK VINA RESULT:    -4.024      2.024      3.887
REMARK INTER + INTRA:          -7.777
REMARK INTER:                  -6.597
REMARK INTRA:                  -1.180
REMARK UNBOUND:                -1.402
REMARK SMILES CCCCCCCCCCCC(=O)[O-]
REMARK SMILES IDX 7 1 8 2 9 3 10 4 11 5 12 6 13 7 14 8 6 9 5 10 4 11 3 12 2 13
REMARK SMILES IDX 1 14
REMARK H PARENT
REMARK Flexibility Score: inf
ROOT
ATOM      1  C   UNL     1     -36.809  22.155 -30.077  1.00  0.00     0.000 C 
ENDROOT
BRANCH   1   2
ATOM      2  C   UNL     1     -36.918  20.621 -30.077  1.00  0.00     0.000 C 
BRANCH   2   3
ATOM      3  C   UNL     1     -37.416  20.065 -28.733  1.00  0.00     0.000 C 
BRANCH   3   4
ATOM      4  C   UNL     1     -38.908  19.680 -28.763  1.00  0.00     0.006 C 
BRANCH   4   5
ATOM      5  C   UNL     1     -39.276  18.647 -29.839  1.00  0.00     0.053 C 
BRANCH   5   6
ATOM      6  C   UNL     1     -40.349  19.147 -30.755  1.00  0.00     0.041 C 
ATOM      7  O   UNL     1     -40.348  20.347 -31.137  1.00  0.00    -0.550 OA
ATOM      8  O   UNL     1     -41.371  18.297 -31.161  1.00  0.00    -0.550 OA
ENDBRANCH   5   6
ENDBRANCH   4   5
ENDBRANCH   3   4
ENDBRANCH   2   3
ENDBRANCH   1   2
BRANCH   1   9
ATOM      9  C   UNL     1     -37.976  22.833 -30.813  1.00  0.00     0.000 C 
BRANCH   9  10
ATOM     10  C   UNL     1     -38.635  23.899 -29.926  1.00  0.00    -0.000 C 
BRANCH  10  11
ATOM     11  C   UNL     1     -39.414  23.291 -28.748  1.00  0.00    -0.000 C 
BRANCH  11  12
ATOM     12  C   UNL     1     -40.807  23.915 -28.575  1.00  0.00    -0.000 C 
BRANCH  12  13
ATOM     13  C   UNL     1     -41.893  22.996 -29.147  1.00  0.00    -0.003 C 
ATOM     14  C   UNL     1     -41.998  21.700 -28.347  1.00  0.00     0.004 C 
ENDBRANCH  12  13
ENDBRANCH  11  12
ENDBRANCH  10  11
ENDBRANCH   9  10
ENDBRANCH   1   9
TORSDOF 10
ENDMDL
MODEL 5
REMARK VINA RESULT:    -3.991      2.442      3.677
REMARK INTER + INTRA:          -7.725
REMARK INTER:                  -6.395
REMARK INTRA:                  -1.330
REMARK UNBOUND:                -1.402
REMARK SMILES CCCCCCCCCCCC(=O)[O-]
REMARK SMILES IDX 7 1 8 2 9 3 10 4 11 5 12 6 13 7 14 8 6 9 5 10 4 11 3 12 2 13
REMARK SMILES IDX 1 14
REMARK H PARENT
REMARK Flexibility Score: inf
ROOT
ATOM      1  C   UNL     1     -36.914  21.116 -27.495  1.00  0.00     0.000 C 
ENDROOT
BRANCH   1   2
ATOM      2  C   UNL     1     -38.116  20.567 -26.708  1.00  0.00     0.000 C 
BRANCH   2   3
ATOM      3  C   UNL     1     -39.099  19.787 -27.597  1.00  0.00     0.000 C 
BRANCH   3   4
ATOM      4  C   UNL     1     -38.609  19.656 -29.052  1.00  0.00     0.006 C 
BRANCH   4   5
ATOM      5  C   UNL     1     -39.286  18.531 -29.851  1.00  0.00     0.053 C 
BRANCH   5   6
ATOM      6  C   UNL     1     -40.350  19.054 -30.766  1.00  0.00     0.041 C 
ATOM      7  O   UNL     1     -40.323  20.252 -31.151  1.00  0.00    -0.550 OA
ATOM      8  O   UNL     1     -41.392  18.226 -31.167  1.00  0.00    -0.550 OA
ENDBRANCH   5   6
ENDBRANCH   4   5
ENDBRANCH   3   4
ENDBRANCH   2   3
ENDBRANCH   1   2
BRANCH   1   9
ATOM      9  C   UNL     1     -36.767  22.640 -27.369  1.00  0.00     0.000 C 
BRANCH   9  10
ATOM     10  C   UNL     1     -37.268  23.345 -28.639  1.00  0.00    -0.000 C 
BRANCH  10  11
ATOM     11  C   UNL     1     -38.071  24.619 -28.332  1.00  0.00    -0.000 C 
BRANCH  11  12
ATOM     12  C   UNL     1     -39.587  24.372 -28.308  1.00  0.00    -0.000 C 
BRANCH  12  13
ATOM     13  C   UNL     1     -39.962  23.181 -29.198  1.00  0.00    -0.003 C 
ATOM     14  C   UNL     1     -41.307  22.587 -28.788  1.00  0.00     0.004 C 
ENDBRANCH  12  13
ENDBRANCH  11  12
ENDBRANCH  10  11
ENDBRANCH   9  10
ENDBRANCH   1   9
TORSDOF 10
ENDMDL
MODEL 6
REMARK VINA RESULT:    -3.921      2.304      3.994
REMARK INTER + INTRA:          -7.615
REMARK INTER:                  -6.114
REMARK INTRA:                  -1.500
REMARK UNBOUND:                -1.402
REMARK SMILES CCCCCCCCCCCC(=O)[O-]
REMARK SMILES IDX 7 1 8 2 9 3 10 4 11 5 12 6 13 7 14 8 6 9 5 10 4 11 3 12 2 13
REMARK SMILES IDX 1 14
REMARK H PARENT
REMARK Flexibility Score: inf
ROOT
ATOM      1  C   UNL     1     -41.441  21.813 -28.924  1.00  0.00     0.000 C 
ENDROOT
BRANCH   1   2
ATOM      2  C   UNL     1     -40.732  20.985 -27.838  1.00  0.00     0.000 C 
BRANCH   2   3
ATOM      3  C   UNL     1     -39.209  21.198 -27.834  1.00  0.00     0.000 C 
BRANCH   3   4
ATOM      4  C   UNL     1     -38.427  19.914 -28.171  1.00  0.00     0.006 C 
BRANCH   4   5
ATOM      5  C   UNL     1     -38.459  19.521 -29.656  1.00  0.00     0.053 C 
BRANCH   5   6
ATOM      6  C   UNL     1     -39.418  18.402 -29.922  1.00  0.00     0.041 C 
ATOM      7  O   UNL     1     -39.183  17.247 -29.480  1.00  0.00    -0.550 OA
ATOM      8  O   UNL     1     -40.555  18.627 -30.688  1.00  0.00    -0.550 OA
ENDBRANCH   5   6
ENDBRANCH   4   5
ENDBRANCH   3   4
ENDBRANCH   2   3
ENDBRANCH   1   2
BRANCH   1   9
ATOM      9  C   UNL     1     -40.512  22.842 -29.587  1.00  0.00     0.000 C 
BRANCH   9  10
ATOM     10  C   UNL     1     -40.291  22.503 -31.068  1.00  0.00    -0.000 C 
BRANCH  10  11
ATOM     11  C   UNL     1     -38.876  22.863 -31.553  1.00  0.00    -0.000 C 
BRANCH  11  12
ATOM     12  C   UNL     1     -38.226  23.971 -30.712  1.00  0.00    -0.000 C 
BRANCH  12  13
ATOM     13  C   UNL     1     -36.916  23.483 -30.082  1.00  0.00    -0.003 C 
ATOM     14  C   UNL     1     -36.345  22.293 -30.848  1.00  0.00     0.004 C 
ENDBRANCH  12  13
ENDBRANCH  11  12
ENDBRANCH  10  11
ENDBRANCH   9  10
ENDBRANCH   1   9
TORSDOF 10
ENDMDL
MODEL 7
REMARK VINA RESULT:    -3.908      2.256      3.844
REMARK INTER + INTRA:          -7.595
REMARK INTER:                  -6.408
REMARK INTRA:                  -1.187
REMARK UNBOUND:                -1.402
REMARK SMILES CCCCCCCCCCCC(=O)[O-]
REMARK SMILES IDX 7 1 8 2 9 3 10 4 11 5 12 6 13 7 14 8 6 9 5 10 4 11 3 12 2 13
REMARK SMILES IDX 1 14
REMARK H PARENT
REMARK Flexibility Score: inf
ROOT
ATOM      1  C   UNL     1     -40.460  23.151 -29.179  1.00  0.00     0.000 C 
ENDROOT
BRANCH   1   2
ATOM      2  C   UNL     1     -41.686  22.441 -28.581  1.00  0.00     0.000 C 
BRANCH   2   3
ATOM      3  C   UNL     1     -41.426  20.951 -28.297  1.00  0.00     0.000 C 
BRANCH   3   4
ATOM      4  C   UNL     1     -39.939  20.572 -28.429  1.00  0.00     0.006 C 
BRANCH   4   5
ATOM      5  C   UNL     1     -39.665  19.398 -29.382  1.00  0.00     0.053 C 
BRANCH   5   6
ATOM      6  C   UNL     1     -40.423  19.528 -30.667  1.00  0.00     0.041 C 
ATOM      7  O   UNL     1     -41.142  18.579 -31.077  1.00  0.00    -0.550 OA
ATOM      8  O   UNL     1     -40.309  20.684 -31.429  1.00  0.00    -0.550 OA
ENDBRANCH   5   6
ENDBRANCH   4   5
ENDBRANCH   3   4
ENDBRANCH   2   3
ENDBRANCH   1   2
BRANCH   1   9
ATOM      9  C   UNL     1     -40.178  24.508 -28.515  1.00  0.00     0.000 C 
BRANCH   9  10
ATOM     10  C   UNL     1     -38.668  24.729 -28.342  1.00  0.00    -0.000 C 
BRANCH  10  11
ATOM     11  C   UNL     1     -37.866  23.419 -28.408  1.00  0.00    -0.000 C 
BRANCH  11  12
ATOM     12  C   UNL     1     -36.812  23.425 -29.525  1.00  0.00    -0.000 C 
BRANCH  12  13
ATOM     13  C   UNL     1     -37.248  22.535 -30.694  1.00  0.00    -0.003 C 
ATOM     14  C   UNL     1     -37.896  23.359 -31.804  1.00  0.00     0.004 C 
ENDBRANCH  12  13
ENDBRANCH  11  12
ENDBRANCH  10  11
ENDBRANCH   9  10
ENDBRANCH   1   9
TORSDOF 10
ENDMDL
MODEL 8
REMARK VINA RESULT:    -3.899      2.003      4.169
REMARK INTER + INTRA:          -7.580
REMARK INTER:                  -6.258
REMARK INTRA:                  -1.322
REMARK UNBOUND:                -1.402
REMARK SMILES CCCCCCCCCCCC(=O)[O-]
REMARK SMILES IDX 7 1 8 2 9 3 10 4 11 5 12 6 13 7 14 8 6 9 5 10 4 11 3 12 2 13
REMARK SMILES IDX 1 14
REMARK H PARENT
REMARK Flexibility Score: inf
ROOT
ATOM      1  C   UNL     1     -37.007  21.075 -27.647  1.00  0.00     0.000 C 
ENDROOT
BRANCH   1   2
ATOM      2  C   UNL     1     -36.621  20.155 -28.818  1.00  0.00     0.000 C 
BRANCH   2   3
ATOM      3  C   UNL     1     -36.621  20.889 -30.170  1.00  0.00     0.000 C 
BRANCH   3   4
ATOM      4  C   UNL     1     -36.504  22.417 -30.018  1.00  0.00     0.006 C 
BRANCH   4   5
ATOM      5  C   UNL     1     -37.205  23.221 -31.124  1.00  0.00     0.053 C 
BRANCH   5   6
ATOM      6  C   UNL     1     -38.696  23.190 -30.983  1.00  0.00     0.041 C 
ATOM      7  O   UNL     1     -39.414  22.779 -31.932  1.00  0.00    -0.550 OA
ATOM      8  O   UNL     1     -39.294  23.647 -29.816  1.00  0.00    -0.550 OA
ENDBRANCH   5   6
ENDBRANCH   4   5
ENDBRANCH   3   4
ENDBRANCH   2   3
ENDBRANCH   1   2
BRANCH   1   9
ATOM      9  C   UNL     1     -38.113  20.477 -26.763  1.00  0.00     0.000 C 
BRANCH   9  10
ATOM     10  C   UNL     1     -39.200  19.813 -27.622  1.00  0.00    -0.000 C 
BRANCH  10  11
ATOM     11  C   UNL     1     -40.417  20.726 -27.847  1.00  0.00    -0.000 C 
BRANCH  11  12
ATOM     12  C   UNL     1     -40.943  20.665 -29.288  1.00  0.00    -0.000 C 
BRANCH  12  13
ATOM     13  C   UNL     1     -40.084  19.730 -30.147  1.00  0.00    -0.003 C 
ATOM     14  C   UNL     1     -40.948  18.726 -30.905  1.00  0.00     0.004 C 
ENDBRANCH  12  13
ENDBRANCH  11  12
ENDBRANCH  10  11
ENDBRANCH   9  10
ENDBRANCH   1   9
TORSDOF 10
ENDMDL
MODEL 9
REMARK VINA RESULT:    -3.802      2.197      3.014
REMARK INTER + INTRA:          -7.426
REMARK INTER:                  -5.962
REMARK INTRA:                  -1.464
REMARK UNBOUND:                -1.402
REMARK SMILES CCCCCCCCCCCC(=O)[O-]
REMARK SMILES IDX 7 1 8 2 9 3 10 4 11 5 12 6 13 7 14 8 6 9 5 10 4 11 3 12 2 13
REMARK SMILES IDX 1 14
REMARK H PARENT
REMARK Flexibility Score: inf
ROOT
ATOM      1  C   UNL     1     -37.255  20.849 -27.436  1.00  0.00     0.000 C 
ENDROOT
BRANCH   1   2
ATOM      2  C   UNL     1     -38.677  20.270 -27.329  1.00  0.00     0.000 C 
BRANCH   2   3
ATOM      3  C   UNL     1     -39.758  21.277 -27.755  1.00  0.00     0.000 C 
BRANCH   3   4
ATOM      4  C   UNL     1     -40.794  20.667 -28.718  1.00  0.00     0.006 C 
BRANCH   4   5
ATOM      5  C   UNL     1     -40.268  20.414 -30.140  1.00  0.00     0.053 C 
BRANCH   5   6
ATOM      6  C   UNL     1     -40.233  18.955 -30.476  1.00  0.00     0.041 C 
ATOM      7  O   UNL     1     -41.156  18.441 -31.161  1.00  0.00    -0.550 OA
ATOM      8  O   UNL     1     -39.199  18.156 -30.005  1.00  0.00    -0.550 OA
ENDBRANCH   5   6
ENDBRANCH   4   5
ENDBRANCH   3   4
ENDBRANCH   2   3
ENDBRANCH   1   2
BRANCH   1   9
ATOM      9  C   UNL     1     -36.459  20.251 -28.607  1.00  0.00     0.000 C 
BRANCH   9  10
ATOM     10  C   UNL     1     -36.773  20.991 -29.916  1.00  0.00    -0.000 C 
BRANCH  10  11
ATOM     11  C   UNL     1     -36.546  22.507 -29.809  1.00  0.00    -0.000 C 
BRANCH  11  12
ATOM     12  C   UNL     1     -37.088  23.274 -31.025  1.00  0.00    -0.000 C 
BRANCH  12  13
ATOM     13  C   UNL     1     -38.570  23.619 -30.838  1.00  0.00    -0.003 C 
ATOM     14  C   UNL     1     -38.810  24.320 -29.503  1.00  0.00     0.004 C 
ENDBRANCH  12  13
ENDBRANCH  11  12
ENDBRANCH  10  11
ENDBRANCH   9  10
ENDBRANCH   1   9
TORSDOF 10
ENDMDL
