MODEL 1
REMARK VINA RESULT:    -4.498      0.000      0.000
REMARK INTER + INTRA:          -5.423
REMARK INTER:                  -5.287
REMARK INTRA:                  -0.136
REMARK UNBOUND:                -0.136
REMARK SMILES O=C([O-])C=Cc1ccc(O)c(O)c1
REMARK SMILES IDX 6 1 13 2 7 3 11 4 8 5 9 6 5 7 4 8 2 9 1 10 3 11 12 12 10 14
REMARK H PARENT 12 13 10 15
REMARK Flexibility Score: inf
ROOT
ATOM      1  C   UNL     1      42.993  20.048  -3.331  1.00  0.00    -0.022 A 
ATOM      2  C   UNL     1      42.871  18.786  -2.724  1.00  0.00     0.058 A 
ATOM      3  C   UNL     1      42.280  21.135  -2.788  1.00  0.00     0.012 A 
ATOM      4  C   UNL     1      42.034  18.603  -1.614  1.00  0.00     0.157 A 
ATOM      5  C   UNL     1      41.446  20.952  -1.682  1.00  0.00     0.051 A 
ATOM      6  C   UNL     1      41.319  19.687  -1.094  1.00  0.00     0.157 A 
ENDROOT
BRANCH   1   7
ATOM      7  C   UNL     1      43.901  20.191  -4.496  1.00  0.00     0.010 C 
ATOM      8  C   UNL     1      43.742  21.113  -5.456  1.00  0.00     0.025 C 
BRANCH   8   9
ATOM      9  C   UNL     1      44.657  21.218  -6.605  1.00  0.00     0.064 C 
ATOM     10  O   UNL     1      44.926  22.335  -7.125  1.00  0.00    -0.545 OA
ATOM     11  O   UNL     1      45.233  20.067  -7.125  1.00  0.00    -0.545 OA
ENDBRANCH   8   9
ENDBRANCH   1   7
BRANCH   4  12
ATOM     12  O   UNL     1      41.909  17.347  -1.024  1.00  0.00    -0.504 OA
ATOM     13  H   UNL     1      42.595  17.000  -0.364  1.00  0.00     0.293 HD
ENDBRANCH   4  12
BRANCH   6  14
ATOM     14  O   UNL     1      40.487  19.502   0.010  1.00  0.00    -0.504 OA
ATOM     15  H   UNL     1      39.895  20.247   0.358  1.00  0.00     0.293 HD
ENDBRANCH   6  14
TORSDOF 4
ENDMDL
MODEL 2
REMARK VINA RESULT:    -4.148      2.253      2.869
REMARK INTER + INTRA:          -5.011
REMARK INTER:                  -4.880
REMARK INTRA:                  -0.131
REMARK UNBOUND:                -0.136
REMARK SMILES O=C([O-])C=Cc1ccc(O)c(O)c1
REMARK SMILES IDX 6 1 13 2 7 3 11 4 8 5 9 6 5 7 4 8 2 9 1 10 3 11 12 12 10 14
REMARK H PARENT 12 13 10 15
REMARK Flexibility Score: inf
ROOT
ATOM      1  C   UNL     1      43.261  19.194  -3.857  1.00  0.00    -0.022 A 
ATOM      2  C   UNL     1      42.886  18.460  -2.719  1.00  0.00     0.058 A 
ATOM      3  C   UNL     1      42.946  20.566  -3.916  1.00  0.00     0.012 A 
ATOM      4  C   UNL     1      42.186  19.073  -1.670  1.00  0.00     0.157 A 
ATOM      5  C   UNL     1      42.250  21.177  -2.870  1.00  0.00     0.051 A 
ATOM      6  C   UNL     1      41.866  20.434  -1.747  1.00  0.00     0.157 A 
ENDROOT
BRANCH   1   7
ATOM      7  C   UNL     1      44.009  18.500  -4.935  1.00  0.00     0.010 C 
ATOM      8  C   UNL     1      44.681  17.354  -4.757  1.00  0.00     0.025 C 
BRANCH   8   9
ATOM      9  C   UNL     1      45.422  16.699  -5.848  1.00  0.00     0.064 C 
ATOM     10  O   UNL     1      44.919  15.743  -6.496  1.00  0.00    -0.545 OA
ATOM     11  O   UNL     1      46.698  17.144  -6.168  1.00  0.00    -0.545 OA
ENDBRANCH   8   9
ENDBRANCH   1   7
BRANCH   4  12
ATOM     12  O   UNL     1      41.807  18.337  -0.549  1.00  0.00    -0.504 OA
ATOM     13  H   UNL     1      40.918  17.852  -0.510  1.00  0.00     0.293 HD
ENDBRANCH   4  12
BRANCH   6  14
ATOM     14  O   UNL     1      41.169  21.040  -0.702  1.00  0.00    -0.504 OA
ATOM     15  H   UNL     1      40.676  21.916  -0.832  1.00  0.00     0.293 HD
ENDBRANCH   6  14
TORSDOF 4
ENDMDL
MODEL 3
REMARK VINA RESULT:    -4.111      8.034     10.499
REMARK INTER + INTRA:          -4.968
REMARK INTER:                  -4.836
REMARK INTRA:                  -0.132
REMARK UNBOUND:                -0.136
REMARK SMILES O=C([O-])C=Cc1ccc(O)c(O)c1
REMARK SMILES IDX 6 1 13 2 7 3 11 4 8 5 9 6 5 7 4 8 2 9 1 10 3 11 12 12 10 14
REMARK H PARENT 12 13 10 15
REMARK Flexibility Score: inf
ROOT
ATOM      1  C   UNL     1      49.669  13.817  -4.494  1.00  0.00    -0.022 A 
ATOM      2  C   UNL     1      48.944  15.017  -4.581  1.00  0.00     0.058 A 
ATOM      3  C   UNL     1      50.906  13.720  -5.161  1.00  0.00     0.012 A 
ATOM      4  C   UNL     1      49.426  16.093  -5.339  1.00  0.00     0.157 A 
ATOM      5  C   UNL     1      51.387  14.793  -5.916  1.00  0.00     0.051 A 
ATOM      6  C   UNL     1      50.649  15.980  -6.010  1.00  0.00     0.157 A 
ENDROOT
BRANCH   1   7
ATOM      7  C   UNL     1      49.119  12.712  -3.670  1.00  0.00     0.010 C 
ATOM      8  C   UNL     1      48.144  12.872  -2.763  1.00  0.00     0.025 C 
BRANCH   8   9
ATOM      9  C   UNL     1      47.631  11.754  -1.955  1.00  0.00     0.064 C 
ATOM     10  O   UNL     1      46.403  11.468  -1.942  1.00  0.00    -0.545 OA
ATOM     11  O   UNL     1      48.514  11.001  -1.194  1.00  0.00    -0.545 OA
ENDBRANCH   8   9
ENDBRANCH   1   7
BRANCH   4  12
ATOM     12  O   UNL     1      48.696  17.276  -5.430  1.00  0.00    -0.504 OA
ATOM     13  H   UNL     1      49.125  18.178  -5.255  1.00  0.00     0.293 HD
ENDBRANCH   4  12
BRANCH   6  14
ATOM     14  O   UNL     1      51.127  17.051  -6.764  1.00  0.00    -0.504 OA
ATOM     15  H   UNL     1      51.757  17.738  -6.367  1.00  0.00     0.293 HD
ENDBRANCH   6  14
TORSDOF 4
ENDMDL
MODEL 4
REMARK VINA RESULT:    -4.024      8.122     10.521
REMARK INTER + INTRA:          -4.866
REMARK INTER:                  -4.732
REMARK INTRA:                  -0.134
REMARK UNBOUND:                -0.136
REMARK SMILES O=C([O-])C=Cc1ccc(O)c(O)c1
REMARK SMILES IDX 6 1 13 2 7 3 11 4 8 5 9 6 5 7 4 8 2 9 1 10 3 11 12 12 10 14
REMARK H PARENT 12 13 10 15
REMARK Flexibility Score: inf
ROOT
ATOM      1  C   UNL     1      49.429  14.085  -4.446  1.00  0.00    -0.022 A 
ATOM      2  C   UNL     1      50.741  13.815  -4.872  1.00  0.00     0.058 A 
ATOM      3  C   UNL     1      48.834  15.309  -4.811  1.00  0.00     0.012 A 
ATOM      4  C   UNL     1      51.458  14.756  -5.623  1.00  0.00     0.157 A 
ATOM      5  C   UNL     1      49.549  16.247  -5.561  1.00  0.00     0.051 A 
ATOM      6  C   UNL     1      50.862  15.976  -5.967  1.00  0.00     0.157 A 
ENDROOT
BRANCH   1   7
ATOM      7  C   UNL     1      48.710  13.051  -3.661  1.00  0.00     0.010 C 
ATOM      8  C   UNL     1      47.730  13.325  -2.788  1.00  0.00     0.025 C 
BRANCH   8   9
ATOM      9  C   UNL     1      47.047  12.273  -2.018  1.00  0.00     0.064 C 
ATOM     10  O   UNL     1      47.533  11.830  -0.942  1.00  0.00    -0.545 OA
ATOM     11  O   UNL     1      45.845  11.758  -2.485  1.00  0.00    -0.545 OA
ENDBRANCH   8   9
ENDBRANCH   1   7
BRANCH   4  12
ATOM     12  O   UNL     1      52.763  14.488  -6.032  1.00  0.00    -0.504 OA
ATOM     13  H   UNL     1      53.258  15.106  -6.664  1.00  0.00     0.293 HD
ENDBRANCH   4  12
BRANCH   6  14
ATOM     14  O   UNL     1      51.578  16.910  -6.714  1.00  0.00    -0.504 OA
ATOM     15  H   UNL     1      52.590  16.941  -6.693  1.00  0.00     0.293 HD
ENDBRANCH   6  14
TORSDOF 4
ENDMDL
MODEL 5
REMARK VINA RESULT:    -4.020      9.179     11.607
REMARK INTER + INTRA:          -4.862
REMARK INTER:                  -4.730
REMARK INTRA:                  -0.131
REMARK UNBOUND:                -0.136
REMARK SMILES O=C([O-])C=Cc1ccc(O)c(O)c1
REMARK SMILES IDX 6 1 13 2 7 3 11 4 8 5 9 6 5 7 4 8 2 9 1 10 3 11 12 12 10 14
REMARK H PARENT 12 13 10 15
REMARK Flexibility Score: inf
ROOT
ATOM      1  C   UNL     1      50.572  13.940  -5.451  1.00  0.00    -0.022 A 
ATOM      2  C   UNL     1      51.022  15.263  -5.598  1.00  0.00     0.058 A 
ATOM      3  C   UNL     1      51.416  12.886  -5.852  1.00  0.00     0.012 A 
ATOM      4  C   UNL     1      52.278  15.534  -6.158  1.00  0.00     0.157 A 
ATOM      5  C   UNL     1      52.668  13.157  -6.409  1.00  0.00     0.051 A 
ATOM      6  C   UNL     1      53.102  14.479  -6.567  1.00  0.00     0.157 A 
ENDROOT
BRANCH   1   7
ATOM      7  C   UNL     1      49.238  13.707  -4.842  1.00  0.00     0.010 C 
ATOM      8  C   UNL     1      49.049  13.045  -3.692  1.00  0.00     0.025 C 
BRANCH   8   9
ATOM      9  C   UNL     1      47.709  12.823  -3.124  1.00  0.00     0.064 C 
ATOM     10  O   UNL     1      46.703  12.668  -3.867  1.00  0.00    -0.545 OA
ATOM     11  O   UNL     1      47.551  12.783  -1.745  1.00  0.00    -0.545 OA
ENDBRANCH   8   9
ENDBRANCH   1   7
BRANCH   4  12
ATOM     12  O   UNL     1      52.714  16.849  -6.312  1.00  0.00    -0.504 OA
ATOM     13  H   UNL     1      52.082  17.633  -6.201  1.00  0.00     0.293 HD
ENDBRANCH   4  12
BRANCH   6  14
ATOM     14  O   UNL     1      54.351  14.752  -7.124  1.00  0.00    -0.504 OA
ATOM     15  H   UNL     1      54.537  15.624  -7.604  1.00  0.00     0.293 HD
ENDBRANCH   6  14
TORSDOF 4
ENDMDL
MODEL 6
REMARK VINA RESULT:    -3.989      6.604      8.945
REMARK INTER + INTRA:          -4.825
REMARK INTER:                  -4.691
REMARK INTRA:                  -0.134
REMARK UNBOUND:                -0.136
REMARK SMILES O=C([O-])C=Cc1ccc(O)c(O)c1
REMARK SMILES IDX 6 1 13 2 7 3 11 4 8 5 9 6 5 7 4 8 2 9 1 10 3 11 12 12 10 14
REMARK H PARENT 12 13 10 15
REMARK Flexibility Score: inf
ROOT
ATOM      1  C   UNL     1      48.751  16.651  -5.624  1.00  0.00    -0.022 A 
ATOM      2  C   UNL     1      49.478  15.675  -4.921  1.00  0.00     0.058 A 
ATOM      3  C   UNL     1      49.381  17.339  -6.679  1.00  0.00     0.012 A 
ATOM      4  C   UNL     1      50.815  15.407  -5.245  1.00  0.00     0.157 A 
ATOM      5  C   UNL     1      50.713  17.071  -7.002  1.00  0.00     0.051 A 
ATOM      6  C   UNL     1      51.435  16.108  -6.286  1.00  0.00     0.157 A 
ENDROOT
BRANCH   1   7
ATOM      7  C   UNL     1      47.335  16.889  -5.248  1.00  0.00     0.010 C 
ATOM      8  C   UNL     1      46.642  16.100  -4.414  1.00  0.00     0.025 C 
BRANCH   8   9
ATOM      9  C   UNL     1      45.234  16.361  -4.073  1.00  0.00     0.064 C 
ATOM     10  O   UNL     1      44.401  16.702  -4.955  1.00  0.00    -0.545 OA
ATOM     11  O   UNL     1      44.816  16.230  -2.756  1.00  0.00    -0.545 OA
ENDBRANCH   8   9
ENDBRANCH   1   7
BRANCH   4  12
ATOM     12  O   UNL     1      51.535  14.446  -4.537  1.00  0.00    -0.504 OA
ATOM     13  H   UNL     1      51.911  13.623  -4.993  1.00  0.00     0.293 HD
ENDBRANCH   4  12
BRANCH   6  14
ATOM     14  O   UNL     1      52.765  15.840  -6.606  1.00  0.00    -0.504 OA
ATOM     15  H   UNL     1      53.013  15.258  -7.398  1.00  0.00     0.293 HD
ENDBRANCH   6  14
TORSDOF 4
ENDMDL
MODEL 7
REMARK VINA RESULT:    -3.900      7.406      9.611
REMARK INTER + INTRA:          -4.720
REMARK INTER:                  -4.581
REMARK INTRA:                  -0.139
REMARK UNBOUND:                -0.136
REMARK SMILES O=C([O-])C=Cc1ccc(O)c(O)c1
REMARK SMILES IDX 6 1 13 2 7 3 11 4 8 5 9 6 5 7 4 8 2 9 1 10 3 11 12 12 10 14
REMARK H PARENT 12 13 10 15
REMARK Flexibility Score: inf
ROOT
ATOM      1  C   UNL     1      49.267  15.572  -5.089  1.00  0.00    -0.022 A 
ATOM      2  C   UNL     1      50.337  16.326  -5.602  1.00  0.00     0.058 A 
ATOM      3  C   UNL     1      49.457  14.196  -4.852  1.00  0.00     0.012 A 
ATOM      4  C   UNL     1      51.564  15.718  -5.899  1.00  0.00     0.157 A 
ATOM      5  C   UNL     1      50.681  13.591  -5.147  1.00  0.00     0.051 A 
ATOM      6  C   UNL     1      51.736  14.347  -5.673  1.00  0.00     0.157 A 
ENDROOT
BRANCH   1   7
ATOM      7  C   UNL     1      47.992  16.266  -4.782  1.00  0.00     0.010 C 
ATOM      8  C   UNL     1      46.867  15.633  -4.420  1.00  0.00     0.025 C 
BRANCH   8   9
ATOM      9  C   UNL     1      45.616  16.354  -4.134  1.00  0.00     0.064 C 
ATOM     10  O   UNL     1      45.090  17.115  -4.991  1.00  0.00    -0.545 OA
ATOM     11  O   UNL     1      45.004  16.195  -2.898  1.00  0.00    -0.545 OA
ENDBRANCH   8   9
ENDBRANCH   1   7
BRANCH   4  12
ATOM     12  O   UNL     1      52.617  16.468  -6.418  1.00  0.00    -0.504 OA
ATOM     13  H   UNL     1      53.533  16.062  -6.571  1.00  0.00     0.293 HD
ENDBRANCH   4  12
BRANCH   6  14
ATOM     14  O   UNL     1      52.958  13.745  -5.970  1.00  0.00    -0.504 OA
ATOM     15  H   UNL     1      53.151  13.362  -6.888  1.00  0.00     0.293 HD
ENDBRANCH   6  14
TORSDOF 4
ENDMDL
MODEL 8
REMARK VINA RESULT:    -3.888      3.482      4.295
REMARK INTER + INTRA:          -4.706
REMARK INTER:                  -4.565
REMARK INTRA:                  -0.141
REMARK UNBOUND:                -0.136
REMARK SMILES O=C([O-])C=Cc1ccc(O)c(O)c1
REMARK SMILES IDX 6 1 13 2 7 3 11 4 8 5 9 6 5 7 4 8 2 9 1 10 3 11 12 12 10 14
REMARK H PARENT 12 13 10 15
REMARK Flexibility Score: inf
ROOT
ATOM      1  C   UNL     1      44.193  16.660  -3.348  1.00  0.00    -0.022 A 
ATOM      2  C   UNL     1      43.301  15.847  -2.629  1.00  0.00     0.058 A 
ATOM      3  C   UNL     1      43.869  18.017  -3.544  1.00  0.00     0.012 A 
ATOM      4  C   UNL     1      42.095  16.367  -2.137  1.00  0.00     0.157 A 
ATOM      5  C   UNL     1      42.667  18.535  -3.053  1.00  0.00     0.051 A 
ATOM      6  C   UNL     1      41.777  17.713  -2.352  1.00  0.00     0.157 A 
ENDROOT
BRANCH   1   7
ATOM      7  C   UNL     1      45.461  16.064  -3.838  1.00  0.00     0.010 C 
ATOM      8  C   UNL     1      46.326  16.704  -4.638  1.00  0.00     0.025 C 
BRANCH   8   9
ATOM      9  C   UNL     1      47.569  16.076  -5.114  1.00  0.00     0.064 C 
ATOM     10  O   UNL     1      47.710  14.823  -5.111  1.00  0.00    -0.545 OA
ATOM     11  O   UNL     1      48.605  16.877  -5.575  1.00  0.00    -0.545 OA
ENDBRANCH   8   9
ENDBRANCH   1   7
BRANCH   4  12
ATOM     12  O   UNL     1      41.209  15.552  -1.435  1.00  0.00    -0.504 OA
ATOM     13  H   UNL     1      41.534  14.762  -0.890  1.00  0.00     0.293 HD
ENDBRANCH   4  12
BRANCH   6  14
ATOM     14  O   UNL     1      40.577  18.226  -1.862  1.00  0.00    -0.504 OA
ATOM     15  H   UNL     1      39.718  17.690  -1.895  1.00  0.00     0.293 HD
ENDBRANCH   6  14
TORSDOF 4
ENDMDL
MODEL 9
REMARK VINA RESULT:    -3.861      6.542      8.528
REMARK INTER + INTRA:          -4.674
REMARK INTER:                  -4.543
REMARK INTRA:                  -0.131
REMARK UNBOUND:                -0.136
REMARK SMILES O=C([O-])C=Cc1ccc(O)c(O)c1
REMARK SMILES IDX 6 1 13 2 7 3 11 4 8 5 9 6 5 7 4 8 2 9 1 10 3 11 12 12 10 14
REMARK H PARENT 12 13 10 15
REMARK Flexibility Score: inf
ROOT
ATOM      1  C   UNL     1      47.670  15.523  -4.452  1.00  0.00    -0.022 A 
ATOM      2  C   UNL     1      48.041  14.269  -3.937  1.00  0.00     0.058 A 
ATOM      3  C   UNL     1      48.614  16.260  -5.194  1.00  0.00     0.012 A 
ATOM      4  C   UNL     1      49.336  13.769  -4.134  1.00  0.00     0.157 A 
ATOM      5  C   UNL     1      49.904  15.760  -5.391  1.00  0.00     0.051 A 
ATOM      6  C   UNL     1      50.270  14.516  -4.861  1.00  0.00     0.157 A 
ENDROOT
BRANCH   1   7
ATOM      7  C   UNL     1      46.284  16.002  -4.223  1.00  0.00     0.010 C 
ATOM      8  C   UNL     1      45.506  15.581  -3.217  1.00  0.00     0.025 C 
BRANCH   8   9
ATOM      9  C   UNL     1      44.131  16.071  -3.028  1.00  0.00     0.064 C 
ATOM     10  O   UNL     1      43.162  15.271  -2.915  1.00  0.00    -0.545 OA
ATOM     11  O   UNL     1      43.895  17.438  -2.973  1.00  0.00    -0.545 OA
ENDBRANCH   8   9
ENDBRANCH   1   7
BRANCH   4  12
ATOM     12  O   UNL     1      49.701  12.530  -3.612  1.00  0.00    -0.504 OA
ATOM     13  H   UNL     1      50.440  12.442  -2.924  1.00  0.00     0.293 HD
ENDBRANCH   4  12
BRANCH   6  14
ATOM     14  O   UNL     1      51.557  14.016  -5.055  1.00  0.00    -0.504 OA
ATOM     15  H   UNL     1      52.032  14.109  -5.945  1.00  0.00     0.293 HD
ENDBRANCH   6  14
TORSDOF 4
ENDMDL
