MODEL 1
REMARK VINA RESULT:    -3.410      0.000      0.000
REMARK INTER + INTRA:          -6.665
REMARK INTER:                  -5.403
REMARK INTRA:                  -1.261
REMARK UNBOUND:                -1.261
REMARK SMILES CCCCCCCCCCCC(=O)[O-]
REMARK SMILES IDX 7 1 8 2 9 3 10 4 11 5 12 6 13 7 14 8 6 9 5 10 4 11 3 12 2 13
REMARK SMILES IDX 1 14
REMARK H PARENT
REMARK Flexibility Score: inf
ROOT
ATOM      1  C   UNL     1      35.919 -49.715   2.010  1.00  0.00     0.000 C 
ENDROOT
BRANCH   1   2
ATOM      2  C   UNL     1      36.575 -48.453   2.600  1.00  0.00     0.000 C 
BRANCH   2   3
ATOM      3  C   UNL     1      36.559 -48.364   4.136  1.00  0.00     0.000 C 
BRANCH   3   4
ATOM      4  C   UNL     1      37.468 -49.404   4.807  1.00  0.00     0.006 C 
BRANCH   4   5
ATOM      5  C   UNL     1      36.642 -50.446   5.568  1.00  0.00     0.053 C 
BRANCH   5   6
ATOM      6  C   UNL     1      36.812 -51.800   4.955  1.00  0.00     0.041 C 
ATOM      7  O   UNL     1      37.959 -52.310   4.854  1.00  0.00    -0.550 OA
ATOM      8  O   UNL     1      35.699 -52.519   4.539  1.00  0.00    -0.550 OA
ENDBRANCH   5   6
ENDBRANCH   4   5
ENDBRANCH   3   4
ENDBRANCH   2   3
ENDBRANCH   1   2
BRANCH   1   9
ATOM      9  C   UNL     1      34.457 -49.894   2.454  1.00  0.00     0.000 C 
BRANCH   9  10
ATOM     10  C   UNL     1      33.486 -49.986   1.265  1.00  0.00    -0.000 C 
BRANCH  10  11
ATOM     11  C   UNL     1      33.806 -48.969   0.158  1.00  0.00    -0.000 C 
BRANCH  11  12
ATOM     12  C   UNL     1      33.077 -47.640   0.409  1.00  0.00    -0.000 C 
BRANCH  12  13
ATOM     13  C   UNL     1      34.043 -46.486   0.718  1.00  0.00    -0.003 C 
ATOM     14  C   UNL     1      33.871 -45.933   2.133  1.00  0.00     0.004 C 
ENDBRANCH  12  13
ENDBRANCH  11  12
ENDBRANCH  10  11
ENDBRANCH   9  10
ENDBRANCH   1   9
TORSDOF 10
ENDMDL
MODEL 2
REMARK VINA RESULT:    -3.382      4.163      6.164
REMARK INTER + INTRA:          -6.620
REMARK INTER:                  -5.226
REMARK INTRA:                  -1.394
REMARK UNBOUND:                -1.261
REMARK SMILES CCCCCCCCCCCC(=O)[O-]
REMARK SMILES IDX 7 1 8 2 9 3 10 4 11 5 12 6 13 7 14 8 6 9 5 10 4 11 3 12 2 13
REMARK SMILES IDX 1 14
REMARK H PARENT
REMARK Flexibility Score: inf
ROOT
ATOM      1  C   UNL     1      36.709 -47.255   3.072  1.00  0.00     0.000 C 
ENDROOT
BRANCH   1   2
ATOM      2  C   UNL     1      35.854 -46.219   2.318  1.00  0.00     0.000 C 
BRANCH   2   3
ATOM      3  C   UNL     1      34.341 -46.300   2.586  1.00  0.00     0.000 C 
BRANCH   3   4
ATOM      4  C   UNL     1      33.493 -46.009   1.339  1.00  0.00     0.006 C 
BRANCH   4   5
ATOM      5  C   UNL     1      32.806 -44.644   1.449  1.00  0.00     0.053 C 
BRANCH   5   6
ATOM      6  C   UNL     1      33.531 -43.625   0.628  1.00  0.00     0.041 C 
ATOM      7  O   UNL     1      33.099 -43.305  -0.511  1.00  0.00    -0.550 OA
ATOM      8  O   UNL     1      34.656 -42.992   1.141  1.00  0.00    -0.550 OA
ENDBRANCH   5   6
ENDBRANCH   4   5
ENDBRANCH   3   4
ENDBRANCH   2   3
ENDBRANCH   1   2
BRANCH   1   9
ATOM      9  C   UNL     1      35.886 -48.118   4.042  1.00  0.00     0.000 C 
BRANCH   9  10
ATOM     10  C   UNL     1      36.112 -49.624   3.829  1.00  0.00    -0.000 C 
BRANCH  10  11
ATOM     11  C   UNL     1      35.710 -50.092   2.422  1.00  0.00    -0.000 C 
BRANCH  11  12
ATOM     12  C   UNL     1      34.186 -50.258   2.316  1.00  0.00    -0.000 C 
BRANCH  12  13
ATOM     13  C   UNL     1      33.620 -49.683   1.009  1.00  0.00    -0.003 C 
ATOM     14  C   UNL     1      34.709 -49.179   0.062  1.00  0.00     0.004 C 
ENDBRANCH  12  13
ENDBRANCH  11  12
ENDBRANCH  10  11
ENDBRANCH   9  10
ENDBRANCH   1   9
TORSDOF 10
ENDMDL
MODEL 3
REMARK VINA RESULT:    -3.305      1.494      2.882
REMARK INTER + INTRA:          -6.498
REMARK INTER:                  -4.962
REMARK INTRA:                  -1.536
REMARK UNBOUND:                -1.261
REMARK SMILES CCCCCCCCCCCC(=O)[O-]
REMARK SMILES IDX 7 1 8 2 9 3 10 4 11 5 12 6 13 7 14 8 6 9 5 10 4 11 3 12 2 13
REMARK SMILES IDX 1 14
REMARK H PARENT
REMARK Flexibility Score: inf
ROOT
ATOM      1  C   UNL     1      34.481 -48.075  -0.056  1.00  0.00     0.000 C 
ENDROOT
BRANCH   1   2
ATOM      2  C   UNL     1      35.174 -48.909   1.037  1.00  0.00     0.000 C 
BRANCH   2   3
ATOM      3  C   UNL     1      34.548 -48.799   2.439  1.00  0.00     0.000 C 
BRANCH   3   4
ATOM      4  C   UNL     1      35.595 -48.681   3.556  1.00  0.00     0.006 C 
BRANCH   4   5
ATOM      5  C   UNL     1      36.692 -49.738   3.395  1.00  0.00     0.053 C 
BRANCH   5   6
ATOM      6  C   UNL     1      36.282 -51.021   4.047  1.00  0.00     0.041 C 
ATOM      7  O   UNL     1      36.444 -51.184   5.285  1.00  0.00    -0.550 OA
ATOM      8  O   UNL     1      35.676 -52.020   3.295  1.00  0.00    -0.550 OA
ENDBRANCH   5   6
ENDBRANCH   4   5
ENDBRANCH   3   4
ENDBRANCH   2   3
ENDBRANCH   1   2
BRANCH   1   9
ATOM      9  C   UNL     1      33.233 -47.336   0.454  1.00  0.00     0.000 C 
BRANCH   9  10
ATOM     10  C   UNL     1      33.440 -45.815   0.537  1.00  0.00    -0.000 C 
BRANCH  10  11
ATOM     11  C   UNL     1      33.237 -45.264   1.956  1.00  0.00    -0.000 C 
BRANCH  11  12
ATOM     12  C   UNL     1      34.577 -45.169   2.703  1.00  0.00    -0.000 C 
BRANCH  12  13
ATOM     13  C   UNL     1      35.737 -44.756   1.784  1.00  0.00    -0.003 C 
ATOM     14  C   UNL     1      36.945 -45.685   1.902  1.00  0.00     0.004 C 
ENDBRANCH  12  13
ENDBRANCH  11  12
ENDBRANCH  10  11
ENDBRANCH   9  10
ENDBRANCH   1   9
TORSDOF 10
ENDMDL
MODEL 4
REMARK VINA RESULT:    -3.285      1.522      3.486
REMARK INTER + INTRA:          -6.467
REMARK INTER:                  -5.409
REMARK INTRA:                  -1.058
REMARK UNBOUND:                -1.261
REMARK SMILES CCCCCCCCCCCC(=O)[O-]
REMARK SMILES IDX 7 1 8 2 9 3 10 4 11 5 12 6 13 7 14 8 6 9 5 10 4 11 3 12 2 13
REMARK SMILES IDX 1 14
REMARK H PARENT
REMARK Flexibility Score: inf
ROOT
ATOM      1  C   UNL     1      33.097 -47.677   0.596  1.00  0.00     0.000 C 
ENDROOT
BRANCH   1   2
ATOM      2  C   UNL     1      34.096 -48.840   0.742  1.00  0.00     0.000 C 
BRANCH   2   3
ATOM      3  C   UNL     1      33.610 -50.016   1.606  1.00  0.00     0.000 C 
BRANCH   3   4
ATOM      4  C   UNL     1      34.712 -50.598   2.504  1.00  0.00     0.006 C 
BRANCH   4   5
ATOM      5  C   UNL     1      35.417 -49.492   3.294  1.00  0.00     0.053 C 
BRANCH   5   6
ATOM      6  C   UNL     1      36.437 -50.077   4.220  1.00  0.00     0.041 C 
ATOM      7  O   UNL     1      36.455 -49.745   5.434  1.00  0.00    -0.550 OA
ATOM      8  O   UNL     1      37.336 -51.027   3.751  1.00  0.00    -0.550 OA
ENDBRANCH   5   6
ENDBRANCH   4   5
ENDBRANCH   3   4
ENDBRANCH   2   3
ENDBRANCH   1   2
BRANCH   1   9
ATOM      9  C   UNL     1      33.575 -46.596  -0.386  1.00  0.00     0.000 C 
BRANCH   9  10
ATOM     10  C   UNL     1      33.286 -45.172   0.117  1.00  0.00    -0.000 C 
BRANCH  10  11
ATOM     11  C   UNL     1      32.899 -45.134   1.603  1.00  0.00    -0.000 C 
BRANCH  11  12
ATOM     12  C   UNL     1      34.082 -44.664   2.464  1.00  0.00    -0.000 C 
BRANCH  12  13
ATOM     13  C   UNL     1      34.892 -45.833   3.043  1.00  0.00    -0.003 C 
ATOM     14  C   UNL     1      36.237 -46.026   2.344  1.00  0.00     0.004 C 
ENDBRANCH  12  13
ENDBRANCH  11  12
ENDBRANCH  10  11
ENDBRANCH   9  10
ENDBRANCH   1   9
TORSDOF 10
ENDMDL
MODEL 5
REMARK VINA RESULT:    -3.275      2.739      4.229
REMARK INTER + INTRA:          -6.451
REMARK INTER:                  -5.418
REMARK INTRA:                  -1.033
REMARK UNBOUND:                -1.261
REMARK SMILES CCCCCCCCCCCC(=O)[O-]
REMARK SMILES IDX 7 1 8 2 9 3 10 4 11 5 12 6 13 7 14 8 6 9 5 10 4 11 3 12 2 13
REMARK SMILES IDX 1 14
REMARK H PARENT
REMARK Flexibility Score: inf
ROOT
ATOM      1  C   UNL     1      36.737 -47.239   2.758  1.00  0.00     0.000 C 
ENDROOT
BRANCH   1   2
ATOM      2  C   UNL     1      35.928 -47.905   3.886  1.00  0.00     0.000 C 
BRANCH   2   3
ATOM      3  C   UNL     1      35.908 -49.443   3.857  1.00  0.00     0.000 C 
BRANCH   3   4
ATOM      4  C   UNL     1      35.621 -50.014   2.460  1.00  0.00     0.006 C 
BRANCH   4   5
ATOM      5  C   UNL     1      34.183 -50.531   2.363  1.00  0.00     0.053 C 
BRANCH   5   6
ATOM      6  C   UNL     1      33.500 -49.959   1.161  1.00  0.00     0.041 C 
ATOM      7  O   UNL     1      32.283 -50.202   0.948  1.00  0.00    -0.550 OA
ATOM      8  O   UNL     1      34.195 -49.118   0.302  1.00  0.00    -0.550 OA
ENDBRANCH   5   6
ENDBRANCH   4   5
ENDBRANCH   3   4
ENDBRANCH   2   3
ENDBRANCH   1   2
BRANCH   1   9
ATOM      9  C   UNL     1      35.879 -46.330   1.862  1.00  0.00     0.000 C 
BRANCH   9  10
ATOM     10  C   UNL     1      34.431 -46.203   2.365  1.00  0.00    -0.000 C 
BRANCH  10  11
ATOM     11  C   UNL     1      33.961 -44.743   2.456  1.00  0.00    -0.000 C 
BRANCH  11  12
ATOM     12  C   UNL     1      35.088 -43.779   2.056  1.00  0.00    -0.000 C 
BRANCH  12  13
ATOM     13  C   UNL     1      34.687 -42.850   0.899  1.00  0.00    -0.003 C 
ATOM     14  C   UNL     1      33.849 -43.559  -0.165  1.00  0.00     0.004 C 
ENDBRANCH  12  13
ENDBRANCH  11  12
ENDBRANCH  10  11
ENDBRANCH   9  10
ENDBRANCH   1   9
TORSDOF 10
ENDMDL
MODEL 6
REMARK VINA RESULT:    -3.257      2.809      4.624
REMARK INTER + INTRA:          -6.423
REMARK INTER:                  -5.412
REMARK INTRA:                  -1.011
REMARK UNBOUND:                -1.261
REMARK SMILES CCCCCCCCCCCC(=O)[O-]
REMARK SMILES IDX 7 1 8 2 9 3 10 4 11 5 12 6 13 7 14 8 6 9 5 10 4 11 3 12 2 13
REMARK SMILES IDX 1 14
REMARK H PARENT
REMARK Flexibility Score: inf
ROOT
ATOM      1  C   UNL     1      33.202 -46.308   0.659  1.00  0.00     0.000 C 
ENDROOT
BRANCH   1   2
ATOM      2  C   UNL     1      34.574 -46.863   1.084  1.00  0.00     0.000 C 
BRANCH   2   3
ATOM      3  C   UNL     1      34.689 -47.258   2.566  1.00  0.00     0.000 C 
BRANCH   3   4
ATOM      4  C   UNL     1      34.780 -48.776   2.778  1.00  0.00     0.006 C 
BRANCH   4   5
ATOM      5  C   UNL     1      34.527 -49.530   1.469  1.00  0.00     0.053 C 
BRANCH   5   6
ATOM      6  C   UNL     1      33.327 -50.415   1.596  1.00  0.00     0.041 C 
ATOM      7  O   UNL     1      33.314 -51.347   2.442  1.00  0.00    -0.550 OA
ATOM      8  O   UNL     1      32.204 -50.179   0.814  1.00  0.00    -0.550 OA
ENDBRANCH   5   6
ENDBRANCH   4   5
ENDBRANCH   3   4
ENDBRANCH   2   3
ENDBRANCH   1   2
BRANCH   1   9
ATOM      9  C   UNL     1      33.130 -45.970  -0.840  1.00  0.00     0.000 C 
BRANCH   9  10
ATOM     10  C   UNL     1      32.632 -44.539  -1.099  1.00  0.00    -0.000 C 
BRANCH  10  11
ATOM     11  C   UNL     1      33.113 -43.541  -0.034  1.00  0.00    -0.000 C 
BRANCH  11  12
ATOM     12  C   UNL     1      34.396 -42.830  -0.491  1.00  0.00    -0.000 C 
BRANCH  12  13
ATOM     13  C   UNL     1      35.492 -42.840   0.586  1.00  0.00    -0.003 C 
ATOM     14  C   UNL     1      34.969 -43.260   1.959  1.00  0.00     0.004 C 
ENDBRANCH  12  13
ENDBRANCH  11  12
ENDBRANCH  10  11
ENDBRANCH   9  10
ENDBRANCH   1   9
TORSDOF 10
ENDMDL
MODEL 7
REMARK VINA RESULT:    -3.234      3.072      4.487
REMARK INTER + INTRA:          -6.387
REMARK INTER:                  -4.977
REMARK INTRA:                  -1.410
REMARK UNBOUND:                -1.261
REMARK SMILES CCCCCCCCCCCC(=O)[O-]
REMARK SMILES IDX 7 1 8 2 9 3 10 4 11 5 12 6 13 7 14 8 6 9 5 10 4 11 3 12 2 13
REMARK SMILES IDX 1 14
REMARK H PARENT
REMARK Flexibility Score: inf
ROOT
ATOM      1  C   UNL     1      35.908 -47.311   0.380  1.00  0.00     0.000 C 
ENDROOT
BRANCH   1   2
ATOM      2  C   UNL     1      34.965 -47.332  -0.837  1.00  0.00     0.000 C 
BRANCH   2   3
ATOM      3  C   UNL     1      33.542 -47.844  -0.553  1.00  0.00     0.000 C 
BRANCH   3   4
ATOM      4  C   UNL     1      33.370 -48.381   0.875  1.00  0.00     0.006 C 
BRANCH   4   5
ATOM      5  C   UNL     1      32.832 -49.815   0.862  1.00  0.00     0.053 C 
BRANCH   5   6
ATOM      6  C   UNL     1      33.458 -50.620   1.957  1.00  0.00     0.041 C 
ATOM      7  O   UNL     1      34.545 -50.250   2.474  1.00  0.00    -0.550 OA
ATOM      8  O   UNL     1      32.815 -51.753   2.440  1.00  0.00    -0.550 OA
ENDBRANCH   5   6
ENDBRANCH   4   5
ENDBRANCH   3   4
ENDBRANCH   2   3
ENDBRANCH   1   2
BRANCH   1   9
ATOM      9  C   UNL     1      36.749 -46.027   0.464  1.00  0.00     0.000 C 
BRANCH   9  10
ATOM     10  C   UNL     1      36.350 -45.136   1.652  1.00  0.00    -0.000 C 
BRANCH  10  11
ATOM     11  C   UNL     1      35.354 -45.823   2.600  1.00  0.00    -0.000 C 
BRANCH  11  12
ATOM     12  C   UNL     1      34.008 -45.081   2.609  1.00  0.00    -0.000 C 
BRANCH  12  13
ATOM     13  C   UNL     1      33.902 -44.036   1.488  1.00  0.00    -0.003 C 
ATOM     14  C   UNL     1      32.771 -44.335   0.504  1.00  0.00     0.004 C 
ENDBRANCH  12  13
ENDBRANCH  11  12
ENDBRANCH  10  11
ENDBRANCH   9  10
ENDBRANCH   1   9
TORSDOF 10
ENDMDL
MODEL 8
REMARK VINA RESULT:    -3.190      3.589      6.277
REMARK INTER + INTRA:          -6.317
REMARK INTER:                  -4.851
REMARK INTRA:                  -1.466
REMARK UNBOUND:                -1.261
REMARK SMILES CCCCCCCCCCCC(=O)[O-]
REMARK SMILES IDX 7 1 8 2 9 3 10 4 11 5 12 6 13 7 14 8 6 9 5 10 4 11 3 12 2 13
REMARK SMILES IDX 1 14
REMARK H PARENT
REMARK Flexibility Score: inf
ROOT
ATOM      1  C   UNL     1      34.093 -43.325   0.077  1.00  0.00     0.000 C 
ENDROOT
BRANCH   1   2
ATOM      2  C   UNL     1      34.707 -43.997  -1.165  1.00  0.00     0.000 C 
BRANCH   2   3
ATOM      3  C   UNL     1      35.568 -45.240  -0.878  1.00  0.00     0.000 C 
BRANCH   3   4
ATOM      4  C   UNL     1      35.253 -46.417  -1.813  1.00  0.00     0.006 C 
BRANCH   4   5
ATOM      5  C   UNL     1      33.823 -46.924  -1.595  1.00  0.00     0.053 C 
BRANCH   5   6
ATOM      6  C   UNL     1      33.792 -48.420  -1.593  1.00  0.00     0.041 C 
ATOM      7  O   UNL     1      34.650 -49.071  -0.941  1.00  0.00    -0.550 OA
ATOM      8  O   UNL     1      32.785 -49.094  -2.272  1.00  0.00    -0.550 OA
ENDBRANCH   5   6
ENDBRANCH   4   5
ENDBRANCH   3   4
ENDBRANCH   2   3
ENDBRANCH   1   2
BRANCH   1   9
ATOM      9  C   UNL     1      32.739 -43.933   0.479  1.00  0.00     0.000 C 
BRANCH   9  10
ATOM     10  C   UNL     1      32.845 -44.852   1.708  1.00  0.00    -0.000 C 
BRANCH  10  11
ATOM     11  C   UNL     1      34.117 -44.596   2.531  1.00  0.00    -0.000 C 
BRANCH  11  12
ATOM     12  C   UNL     1      34.828 -45.917   2.864  1.00  0.00    -0.000 C 
BRANCH  12  13
ATOM     13  C   UNL     1      34.250 -47.110   2.087  1.00  0.00    -0.003 C 
ATOM     14  C   UNL     1      34.729 -48.457   2.628  1.00  0.00     0.004 C 
ENDBRANCH  12  13
ENDBRANCH  11  12
ENDBRANCH  10  11
ENDBRANCH   9  10
ENDBRANCH   1   9
TORSDOF 10
ENDMDL
MODEL 9
REMARK VINA RESULT:    -3.181      2.664      4.681
REMARK INTER + INTRA:          -6.303
REMARK INTER:                  -5.195
REMARK INTRA:                  -1.108
REMARK UNBOUND:                -1.261
REMARK SMILES CCCCCCCCCCCC(=O)[O-]
REMARK SMILES IDX 7 1 8 2 9 3 10 4 11 5 12 6 13 7 14 8 6 9 5 10 4 11 3 12 2 13
REMARK SMILES IDX 1 14
REMARK H PARENT
REMARK Flexibility Score: inf
ROOT
ATOM      1  C   UNL     1      33.804 -46.922  -2.367  1.00  0.00     0.000 C 
ENDROOT
BRANCH   1   2
ATOM      2  C   UNL     1      34.411 -47.343  -1.016  1.00  0.00     0.000 C 
BRANCH   2   3
ATOM      3  C   UNL     1      33.884 -48.672  -0.447  1.00  0.00     0.000 C 
BRANCH   3   4
ATOM      4  C   UNL     1      33.288 -48.528   0.961  1.00  0.00     0.006 C 
BRANCH   4   5
ATOM      5  C   UNL     1      34.272 -49.020   2.027  1.00  0.00     0.053 C 
BRANCH   5   6
ATOM      6  C   UNL     1      34.061 -50.474   2.305  1.00  0.00     0.041 C 
ATOM      7  O   UNL     1      34.963 -51.150   2.867  1.00  0.00    -0.550 OA
ATOM      8  O   UNL     1      32.848 -51.073   1.988  1.00  0.00    -0.550 OA
ENDBRANCH   5   6
ENDBRANCH   4   5
ENDBRANCH   3   4
ENDBRANCH   2   3
ENDBRANCH   1   2
BRANCH   1   9
ATOM      9  C   UNL     1      32.498 -46.124  -2.215  1.00  0.00     0.000 C 
BRANCH   9  10
ATOM     10  C   UNL     1      32.743 -44.611  -2.092  1.00  0.00    -0.000 C 
BRANCH  10  11
ATOM     11  C   UNL     1      32.200 -44.026  -0.779  1.00  0.00    -0.000 C 
BRANCH  11  12
ATOM     12  C   UNL     1      33.294 -43.994   0.299  1.00  0.00    -0.000 C 
BRANCH  12  13
ATOM     13  C   UNL     1      32.953 -44.872   1.512  1.00  0.00    -0.003 C 
ATOM     14  C   UNL     1      34.077 -44.914   2.548  1.00  0.00     0.004 C 
ENDBRANCH  12  13
ENDBRANCH  11  12
ENDBRANCH  10  11
ENDBRANCH   9  10
ENDBRANCH   1   9
TORSDOF 10
ENDMDL
