MODEL 1
REMARK VINA RESULT:    36.888      0.000      0.000
REMARK INTER + INTRA:          41.148
REMARK INTER:                  40.123
REMARK INTRA:                   1.025
REMARK UNBOUND:                 1.025
REMARK SMILES C[C@H]1[C@H](C)CC[C@]2(C(=O)[O-])CC[C@]3(C)C(=CC[C@H]4[C@]5(C)CC[C@@H](O)C(C)(C)[C@H]5CC[C@@]43C)[C@H]12
REMARK SMILES IDX 7 1 6 2 11 3 33 4 5 5 12 6 15 7 2 8 3 9 13 10 16 11 1 12
REMARK SMILES IDX 4 13 14 14 31 15 17 16 18 17 30 18 32 19 19 20 29 21 28 22
REMARK SMILES IDX 21 23 20 24 25 25 22 26 23 27 26 28 27 29 8 30 9 31 10 32
REMARK SMILES IDX 24 33
REMARK H PARENT 24 34
REMARK Flexibility Score: inf
ROOT
ATOM      1  C   UNL     1      54.737  24.044  22.615  1.00  0.00     0.017 C 
ATOM      2  C   UNL     1      53.219  24.266  22.378  1.00  0.00     0.014 C 
ATOM      3  C   UNL     1      55.426  23.521  21.328  1.00  0.00     0.014 C 
ATOM      4  C   UNL     1      54.973  23.030  23.782  1.00  0.00     0.030 C 
ATOM      5  C   UNL     1      52.409  22.969  22.294  1.00  0.00     0.004 C 
ATOM      6  C   UNL     1      56.946  23.283  21.514  1.00  0.00     0.013 C 
ATOM      7  C   UNL     1      56.484  22.760  23.922  1.00  0.00    -0.063 C 
ATOM      8  C   UNL     1      54.092  21.741  23.729  1.00  0.00    -0.003 C 
ATOM      9  C   UNL     1      52.594  22.114  23.558  1.00  0.00    -0.011 C 
ATOM     10  C   UNL     1      57.329  22.312  22.688  1.00  0.00    -0.006 C 
ATOM     11  C   UNL     1      57.052  23.232  25.059  1.00  0.00    -0.027 C 
ATOM     12  C   UNL     1      54.317  20.894  24.999  1.00  0.00     0.008 C 
ATOM     13  C   UNL     1      51.684  20.875  23.463  1.00  0.00     0.008 C 
ATOM     14  C   UNL     1      56.913  20.875  22.235  1.00  0.00     0.017 C 
ATOM     15  C   UNL     1      58.926  22.318  23.013  1.00  0.00    -0.020 C 
ATOM     16  C   UNL     1      58.514  23.443  25.264  1.00  0.00     0.032 C 
ATOM     17  C   UNL     1      59.271  23.565  23.922  1.00  0.00     0.006 C 
ATOM     18  C   UNL     1      59.767  22.382  21.692  1.00  0.00     0.008 C 
ATOM     19  C   UNL     1      59.319  20.993  23.752  1.00  0.00     0.012 C 
ATOM     20  C   UNL     1      60.811  23.983  24.070  1.00  0.00    -0.025 C 
ATOM     21  C   UNL     1      61.254  22.666  21.907  1.00  0.00     0.005 C 
ATOM     22  C   UNL     1      61.431  24.028  22.623  1.00  0.00     0.003 C 
ATOM     23  C   UNL     1      60.876  25.432  24.655  1.00  0.00     0.010 C 
ATOM     24  C   UNL     1      61.601  23.035  25.038  1.00  0.00     0.012 C 
ATOM     25  C   UNL     1      62.864  24.684  22.490  1.00  0.00    -0.006 C 
ATOM     26  C   UNL     1      62.269  26.082  24.582  1.00  0.00     0.033 C 
ATOM     27  C   UNL     1      62.834  26.098  23.156  1.00  0.00     0.120 C 
ATOM     28  C   UNL     1      63.995  23.808  23.088  1.00  0.00     0.014 C 
ATOM     29  C   UNL     1      63.206  24.905  20.989  1.00  0.00     0.014 C 
ENDROOT
BRANCH   1  30
ATOM     30  C   UNL     1      55.316  25.417  22.961  1.00  0.00     0.048 C 
ATOM     31  O   UNL     1      55.020  26.437  22.282  1.00  0.00    -0.550 OA
ATOM     32  O   UNL     1      56.266  25.543  23.968  1.00  0.00    -0.550 OA
ENDBRANCH   1  30
BRANCH  27  33
ATOM     33  O   UNL     1      64.125  26.659  23.175  1.00  0.00    -0.393 OA
ATOM     34  H   UNL     1      64.711  26.065  22.640  1.00  0.00     0.210 HD
ENDBRANCH  27  33
TORSDOF 2
ENDMDL
