MODEL 1
REMARK VINA RESULT:    -4.765      0.000      0.000
REMARK INTER + INTRA:         -14.044
REMARK INTER:                 -10.893
REMARK INTRA:                  -3.152
REMARK UNBOUND:                -3.152
REMARK SMILES CCCCCCCCCCCCCCCCCCCCCCCC(=O)[O-]
REMARK SMILES IDX 13 1 14 2 15 3 16 4 17 5 18 6 19 7 20 8 21 9 22 10 23 11
REMARK SMILES IDX 24 12 25 13 26 14 12 15 11 16 10 17 9 18 8 19 7 20 6 21 5 22
REMARK SMILES IDX 4 23 3 24 2 25 1 26
REMARK H PARENT
REMARK Flexibility Score: inf
ROOT
ATOM      1  C   UNL     1      42.362 117.179  10.371  1.00  0.00     0.000 C 
ENDROOT
BRANCH   1   2
ATOM      2  C   UNL     1      42.731 117.105   8.879  1.00  0.00     0.000 C 
BRANCH   2   3
ATOM      3  C   UNL     1      43.996 116.275   8.623  1.00  0.00     0.000 C 
BRANCH   3   4
ATOM      4  C   UNL     1      43.839 114.840   9.150  1.00  0.00     0.000 C 
BRANCH   4   5
ATOM      5  C   UNL     1      45.163 114.239   9.649  1.00  0.00     0.000 C 
BRANCH   5   6
ATOM      6  C   UNL     1      45.170 113.796  11.126  1.00  0.00     0.000 C 
BRANCH   6   7
ATOM      7  C   UNL     1      43.779 113.420  11.680  1.00  0.00     0.000 C 
BRANCH   7   8
ATOM      8  C   UNL     1      43.613 113.748  13.176  1.00  0.00     0.000 C 
BRANCH   8   9
ATOM      9  C   UNL     1      44.962 113.878  13.906  1.00  0.00     0.000 C 
BRANCH   9  10
ATOM     10  C   UNL     1      44.925 114.895  15.054  1.00  0.00     0.006 C 
BRANCH  10  11
ATOM     11  C   UNL     1      44.611 116.304  14.535  1.00  0.00     0.053 C 
BRANCH  11  12
ATOM     12  C   UNL     1      45.663 116.752  13.565  1.00  0.00     0.041 C 
ATOM     13  O   UNL     1      45.342 117.089  12.395  1.00  0.00    -0.550 OA
ATOM     14  O   UNL     1      46.998 116.788  13.949  1.00  0.00    -0.550 OA
ENDBRANCH  11  12
ENDBRANCH  10  11
ENDBRANCH   9  10
ENDBRANCH   8   9
ENDBRANCH   7   8
ENDBRANCH   6   7
ENDBRANCH   5   6
ENDBRANCH   4   5
ENDBRANCH   3   4
ENDBRANCH   2   3
ENDBRANCH   1   2
BRANCH   1  15
ATOM     15  C   UNL     1      41.023 117.894  10.613  1.00  0.00     0.000 C 
BRANCH  15  16
ATOM     16  C   UNL     1      40.430 117.514  11.977  1.00  0.00     0.000 C 
BRANCH  16  17
ATOM     17  C   UNL     1      41.289 116.488  12.736  1.00  0.00     0.000 C 
BRANCH  17  18
ATOM     18  C   UNL     1      40.945 116.333  14.228  1.00  0.00    -0.000 C 
BRANCH  18  19
ATOM     19  C   UNL     1      40.223 117.556  14.833  1.00  0.00    -0.000 C 
BRANCH  19  20
ATOM     20  C   UNL     1      39.184 117.157  15.894  1.00  0.00    -0.000 C 
BRANCH  20  21
ATOM     21  C   UNL     1      38.112 116.192  15.341  1.00  0.00    -0.000 C 
BRANCH  21  22
ATOM     22  C   UNL     1      36.858 116.903  14.798  1.00  0.00    -0.000 C 
BRANCH  22  23
ATOM     23  C   UNL     1      36.871 117.170  13.282  1.00  0.00    -0.000 C 
BRANCH  23  24
ATOM     24  C   UNL     1      36.035 118.380  12.821  1.00  0.00    -0.000 C 
BRANCH  24  25
ATOM     25  C   UNL     1      36.254 119.666  13.636  1.00  0.00    -0.003 C 
ATOM     26  C   UNL     1      37.664 120.238  13.486  1.00  0.00     0.004 C 
ENDBRANCH  24  25
ENDBRANCH  23  24
ENDBRANCH  22  23
ENDBRANCH  21  22
ENDBRANCH  20  21
ENDBRANCH  19  20
ENDBRANCH  18  19
ENDBRANCH  17  18
ENDBRANCH  16  17
ENDBRANCH  15  16
ENDBRANCH   1  15
TORSDOF 22
ENDMDL
MODEL 2
REMARK VINA RESULT:    -4.765      2.985      7.359
REMARK INTER + INTRA:         -14.044
REMARK INTER:                 -11.103
REMARK INTRA:                  -2.941
REMARK UNBOUND:                -3.152
REMARK SMILES CCCCCCCCCCCCCCCCCCCCCCCC(=O)[O-]
REMARK SMILES IDX 13 1 14 2 15 3 16 4 17 5 18 6 19 7 20 8 21 9 22 10 23 11
REMARK SMILES IDX 24 12 25 13 26 14 12 15 11 16 10 17 9 18 8 19 7 20 6 21 5 22
REMARK SMILES IDX 4 23 3 24 2 25 1 26
REMARK H PARENT
REMARK Flexibility Score: inf
ROOT
ATOM      1  C   UNL     1      43.039 116.434   8.346  1.00  0.00     0.000 C 
ENDROOT
BRANCH   1   2
ATOM      2  C   UNL     1      42.543 117.342   9.485  1.00  0.00     0.000 C 
BRANCH   2   3
ATOM      3  C   UNL     1      43.027 116.878  10.865  1.00  0.00     0.000 C 
BRANCH   3   4
ATOM      4  C   UNL     1      41.853 116.726  11.845  1.00  0.00     0.000 C 
BRANCH   4   5
ATOM      5  C   UNL     1      40.634 117.576  11.452  1.00  0.00     0.000 C 
BRANCH   5   6
ATOM      6  C   UNL     1      39.821 118.147  12.632  1.00  0.00     0.000 C 
BRANCH   6   7
ATOM      7  C   UNL     1      39.607 117.152  13.793  1.00  0.00     0.000 C 
BRANCH   7   8
ATOM      8  C   UNL     1      38.155 117.125  14.308  1.00  0.00     0.000 C 
BRANCH   8   9
ATOM      9  C   UNL     1      37.125 117.328  13.182  1.00  0.00     0.000 C 
BRANCH   9  10
ATOM     10  C   UNL     1      35.964 118.244  13.594  1.00  0.00     0.006 C 
BRANCH  10  11
ATOM     11  C   UNL     1      36.255 119.705  13.227  1.00  0.00     0.053 C 
BRANCH  11  12
ATOM     12  C   UNL     1      36.630 120.487  14.449  1.00  0.00     0.041 C 
ATOM     13  O   UNL     1      37.303 121.546  14.339  1.00  0.00    -0.550 OA
ATOM     14  O   UNL     1      36.246 120.044  15.709  1.00  0.00    -0.550 OA
ENDBRANCH  11  12
ENDBRANCH  10  11
ENDBRANCH   9  10
ENDBRANCH   8   9
ENDBRANCH   7   8
ENDBRANCH   6   7
ENDBRANCH   5   6
ENDBRANCH   4   5
ENDBRANCH   3   4
ENDBRANCH   2   3
ENDBRANCH   1   2
BRANCH   1  15
ATOM     15  C   UNL     1      44.467 115.916   8.584  1.00  0.00     0.000 C 
BRANCH  15  16
ATOM     16  C   UNL     1      44.521 114.384   8.502  1.00  0.00     0.000 C 
BRANCH  16  17
ATOM     17  C   UNL     1      45.389 113.757   9.606  1.00  0.00     0.000 C 
BRANCH  17  18
ATOM     18  C   UNL     1      44.778 113.809  11.018  1.00  0.00    -0.000 C 
BRANCH  18  19
ATOM     19  C   UNL     1      45.492 112.897  12.040  1.00  0.00    -0.000 C 
BRANCH  19  20
ATOM     20  C   UNL     1      44.830 112.943  13.427  1.00  0.00    -0.000 C 
BRANCH  20  21
ATOM     21  C   UNL     1      43.566 113.832  13.452  1.00  0.00    -0.000 C 
BRANCH  21  22
ATOM     22  C   UNL     1      43.303 114.497  14.815  1.00  0.00    -0.000 C 
BRANCH  22  23
ATOM     23  C   UNL     1      43.624 116.002  14.874  1.00  0.00    -0.000 C 
BRANCH  23  24
ATOM     24  C   UNL     1      45.010 116.357  15.449  1.00  0.00    -0.000 C 
BRANCH  24  25
ATOM     25  C   UNL     1      46.175 116.235  14.451  1.00  0.00    -0.003 C 
ATOM     26  C   UNL     1      45.852 116.826  13.079  1.00  0.00     0.004 C 
ENDBRANCH  24  25
ENDBRANCH  23  24
ENDBRANCH  22  23
ENDBRANCH  21  22
ENDBRANCH  20  21
ENDBRANCH  19  20
ENDBRANCH  18  19
ENDBRANCH  17  18
ENDBRANCH  16  17
ENDBRANCH  15  16
ENDBRANCH   1  15
TORSDOF 22
ENDMDL
MODEL 3
REMARK VINA RESULT:    -4.638      2.535      7.614
REMARK INTER + INTRA:         -13.754
REMARK INTER:                 -10.709
REMARK INTRA:                  -3.045
REMARK UNBOUND:                -3.152
REMARK SMILES CCCCCCCCCCCCCCCCCCCCCCCC(=O)[O-]
REMARK SMILES IDX 13 1 14 2 15 3 16 4 17 5 18 6 19 7 20 8 21 9 22 10 23 11
REMARK SMILES IDX 24 12 25 13 26 14 12 15 11 16 10 17 9 18 8 19 7 20 6 21 5 22
REMARK SMILES IDX 4 23 3 24 2 25 1 26
REMARK H PARENT
REMARK Flexibility Score: inf
ROOT
ATOM      1  C   UNL     1      40.680 117.465  11.570  1.00  0.00     0.000 C 
ENDROOT
BRANCH   1   2
ATOM      2  C   UNL     1      40.548 116.882  12.987  1.00  0.00     0.000 C 
BRANCH   2   3
ATOM      3  C   UNL     1      41.690 115.919  13.341  1.00  0.00     0.000 C 
BRANCH   3   4
ATOM      4  C   UNL     1      41.271 114.941  14.449  1.00  0.00     0.000 C 
BRANCH   4   5
ATOM      5  C   UNL     1      40.348 115.586  15.496  1.00  0.00     0.000 C 
BRANCH   5   6
ATOM      6  C   UNL     1      39.232 114.672  16.042  1.00  0.00     0.000 C 
BRANCH   6   7
ATOM      7  C   UNL     1      37.958 115.424  16.485  1.00  0.00     0.000 C 
BRANCH   7   8
ATOM      8  C   UNL     1      37.065 115.851  15.305  1.00  0.00     0.000 C 
BRANCH   8   9
ATOM      9  C   UNL     1      37.038 117.378  15.107  1.00  0.00     0.000 C 
BRANCH   9  10
ATOM     10  C   UNL     1      36.732 117.786  13.660  1.00  0.00     0.006 C 
BRANCH  10  11
ATOM     11  C   UNL     1      36.194 119.222  13.592  1.00  0.00     0.053 C 
BRANCH  11  12
ATOM     12  C   UNL     1      37.321 120.207  13.673  1.00  0.00     0.041 C 
ATOM     13  O   UNL     1      37.132 121.342  14.185  1.00  0.00    -0.550 OA
ATOM     14  O   UNL     1      38.576 119.878  13.175  1.00  0.00    -0.550 OA
ENDBRANCH  11  12
ENDBRANCH  10  11
ENDBRANCH   9  10
ENDBRANCH   8   9
ENDBRANCH   7   8
ENDBRANCH   6   7
ENDBRANCH   5   6
ENDBRANCH   4   5
ENDBRANCH   3   4
ENDBRANCH   2   3
ENDBRANCH   1   2
BRANCH   1  15
ATOM     15  C   UNL     1      42.052 117.177  10.939  1.00  0.00     0.000 C 
BRANCH  15  16
ATOM     16  C   UNL     1      42.096 117.638   9.475  1.00  0.00     0.000 C 
BRANCH  16  17
ATOM     17  C   UNL     1      43.013 116.766   8.602  1.00  0.00     0.000 C 
BRANCH  17  18
ATOM     18  C   UNL     1      44.200 116.127   9.346  1.00  0.00    -0.000 C 
BRANCH  18  19
ATOM     19  C   UNL     1      44.729 114.836   8.683  1.00  0.00    -0.000 C 
BRANCH  19  20
ATOM     20  C   UNL     1      44.903 113.690   9.694  1.00  0.00    -0.000 C 
BRANCH  20  21
ATOM     21  C   UNL     1      43.947 113.814  10.900  1.00  0.00    -0.000 C 
BRANCH  21  22
ATOM     22  C   UNL     1      44.291 112.866  12.064  1.00  0.00    -0.000 C 
BRANCH  22  23
ATOM     23  C   UNL     1      44.723 113.568  13.365  1.00  0.00    -0.000 C 
BRANCH  23  24
ATOM     24  C   UNL     1      45.776 114.680  13.194  1.00  0.00    -0.000 C 
BRANCH  24  25
ATOM     25  C   UNL     1      45.330 116.073  13.670  1.00  0.00    -0.003 C 
ATOM     26  C   UNL     1      45.370 117.126  12.563  1.00  0.00     0.004 C 
ENDBRANCH  24  25
ENDBRANCH  23  24
ENDBRANCH  22  23
ENDBRANCH  21  22
ENDBRANCH  20  21
ENDBRANCH  19  20
ENDBRANCH  18  19
ENDBRANCH  17  18
ENDBRANCH  16  17
ENDBRANCH  15  16
ENDBRANCH   1  15
TORSDOF 22
ENDMDL
MODEL 4
REMARK VINA RESULT:    -4.585      4.430     10.011
REMARK INTER + INTRA:         -13.633
REMARK INTER:                 -11.824
REMARK INTRA:                  -1.809
REMARK UNBOUND:                -3.152
REMARK SMILES CCCCCCCCCCCCCCCCCCCCCCCC(=O)[O-]
REMARK SMILES IDX 13 1 14 2 15 3 16 4 17 5 18 6 19 7 20 8 21 9 22 10 23 11
REMARK SMILES IDX 24 12 25 13 26 14 12 15 11 16 10 17 9 18 8 19 7 20 6 21 5 22
REMARK SMILES IDX 4 23 3 24 2 25 1 26
REMARK H PARENT
REMARK Flexibility Score: inf
ROOT
ATOM      1  C   UNL     1      44.080 114.356   9.323  1.00  0.00     0.000 C 
ENDROOT
BRANCH   1   2
ATOM      2  C   UNL     1      43.912 115.678   8.555  1.00  0.00     0.000 C 
BRANCH   2   3
ATOM      3  C   UNL     1      43.702 116.881   9.485  1.00  0.00     0.000 C 
BRANCH   3   4
ATOM      4  C   UNL     1      42.297 117.481   9.310  1.00  0.00     0.000 C 
BRANCH   4   5
ATOM      5  C   UNL     1      41.545 117.636  10.642  1.00  0.00     0.000 C 
BRANCH   5   6
ATOM      6  C   UNL     1      42.053 116.743  11.793  1.00  0.00     0.000 C 
BRANCH   6   7
ATOM      7  C   UNL     1      41.052 116.582  12.957  1.00  0.00     0.000 C 
BRANCH   7   8
ATOM      8  C   UNL     1      40.056 117.752  13.067  1.00  0.00     0.000 C 
BRANCH   8   9
ATOM      9  C   UNL     1      39.717 118.105  14.527  1.00  0.00     0.000 C 
BRANCH   9  10
ATOM     10  C   UNL     1      38.223 118.381  14.743  1.00  0.00     0.006 C 
BRANCH  10  11
ATOM     11  C   UNL     1      37.378 117.764  13.620  1.00  0.00     0.053 C 
BRANCH  11  12
ATOM     12  C   UNL     1      36.189 118.627  13.324  1.00  0.00     0.041 C 
ATOM     13  O   UNL     1      35.391 118.308  12.404  1.00  0.00    -0.550 OA
ATOM     14  O   UNL     1      35.966 119.786  14.057  1.00  0.00    -0.550 OA
ENDBRANCH  11  12
ENDBRANCH  10  11
ENDBRANCH   9  10
ENDBRANCH   8   9
ENDBRANCH   7   8
ENDBRANCH   6   7
ENDBRANCH   5   6
ENDBRANCH   4   5
ENDBRANCH   3   4
ENDBRANCH   2   3
ENDBRANCH   1   2
BRANCH   1  15
ATOM     15  C   UNL     1      45.377 113.619   8.953  1.00  0.00     0.000 C 
BRANCH  15  16
ATOM     16  C   UNL     1      45.453 113.357   7.442  1.00  0.00     0.000 C 
BRANCH  16  17
ATOM     17  C   UNL     1      45.654 111.871   7.104  1.00  0.00     0.000 C 
BRANCH  17  18
ATOM     18  C   UNL     1      46.580 111.106   8.068  1.00  0.00    -0.000 C 
BRANCH  18  19
ATOM     19  C   UNL     1      48.045 111.018   7.587  1.00  0.00    -0.000 C 
BRANCH  19  20
ATOM     20  C   UNL     1      48.150 110.723   6.081  1.00  0.00    -0.000 C 
BRANCH  20  21
ATOM     21  C   UNL     1      49.007 111.766   5.331  1.00  0.00    -0.000 C 
BRANCH  21  22
ATOM     22  C   UNL     1      48.823 113.206   5.846  1.00  0.00    -0.000 C 
BRANCH  22  23
ATOM     23  C   UNL     1      49.117 114.307   4.810  1.00  0.00    -0.000 C 
BRANCH  23  24
ATOM     24  C   UNL     1      48.014 115.371   4.651  1.00  0.00    -0.000 C 
BRANCH  24  25
ATOM     25  C   UNL     1      46.741 114.882   3.939  1.00  0.00    -0.003 C 
ATOM     26  C   UNL     1      46.261 115.838   2.847  1.00  0.00     0.004 C 
ENDBRANCH  24  25
ENDBRANCH  23  24
ENDBRANCH  22  23
ENDBRANCH  21  22
ENDBRANCH  20  21
ENDBRANCH  19  20
ENDBRANCH  18  19
ENDBRANCH  17  18
ENDBRANCH  16  17
ENDBRANCH  15  16
ENDBRANCH   1  15
TORSDOF 22
ENDMDL
MODEL 5
REMARK VINA RESULT:    -4.534      1.525      3.222
REMARK INTER + INTRA:         -13.516
REMARK INTER:                 -10.089
REMARK INTRA:                  -3.428
REMARK UNBOUND:                -3.152
REMARK SMILES CCCCCCCCCCCCCCCCCCCCCCCC(=O)[O-]
REMARK SMILES IDX 13 1 14 2 15 3 16 4 17 5 18 6 19 7 20 8 21 9 22 10 23 11
REMARK SMILES IDX 24 12 25 13 26 14 12 15 11 16 10 17 9 18 8 19 7 20 6 21 5 22
REMARK SMILES IDX 4 23 3 24 2 25 1 26
REMARK H PARENT
REMARK Flexibility Score: inf
ROOT
ATOM      1  C   UNL     1      40.817 117.590  10.869  1.00  0.00     0.000 C 
ENDROOT
BRANCH   1   2
ATOM      2  C   UNL     1      42.228 117.158  11.302  1.00  0.00     0.000 C 
BRANCH   2   3
ATOM      3  C   UNL     1      42.217 115.908  12.194  1.00  0.00     0.000 C 
BRANCH   3   4
ATOM      4  C   UNL     1      43.189 116.058  13.375  1.00  0.00     0.000 C 
BRANCH   4   5
ATOM      5  C   UNL     1      43.452 114.730  14.103  1.00  0.00     0.000 C 
BRANCH   5   6
ATOM      6  C   UNL     1      44.929 114.450  14.448  1.00  0.00     0.000 C 
BRANCH   6   7
ATOM      7  C   UNL     1      45.824 114.171  13.221  1.00  0.00     0.000 C 
BRANCH   7   8
ATOM      8  C   UNL     1      45.807 112.695  12.781  1.00  0.00     0.000 C 
BRANCH   8   9
ATOM      9  C   UNL     1      45.478 112.527  11.287  1.00  0.00     0.000 C 
BRANCH   9  10
ATOM     10  C   UNL     1      44.597 113.657  10.739  1.00  0.00     0.006 C 
BRANCH  10  11
ATOM     11  C   UNL     1      45.182 114.237   9.444  1.00  0.00     0.053 C 
BRANCH  11  12
ATOM     12  C   UNL     1      44.997 115.725   9.407  1.00  0.00     0.041 C 
ATOM     13  O   UNL     1      44.348 116.257   8.468  1.00  0.00    -0.550 OA
ATOM     14  O   UNL     1      45.548 116.523  10.401  1.00  0.00    -0.550 OA
ENDBRANCH  11  12
ENDBRANCH  10  11
ENDBRANCH   9  10
ENDBRANCH   8   9
ENDBRANCH   7   8
ENDBRANCH   6   7
ENDBRANCH   5   6
ENDBRANCH   4   5
ENDBRANCH   3   4
ENDBRANCH   2   3
ENDBRANCH   1   2
BRANCH   1  15
ATOM     15  C   UNL     1      39.793 117.494  12.011  1.00  0.00     0.000 C 
BRANCH  15  16
ATOM     16  C   UNL     1      39.990 118.628  13.028  1.00  0.00     0.000 C 
BRANCH  16  17
ATOM     17  C   UNL     1      40.155 118.116  14.468  1.00  0.00     0.000 C 
BRANCH  17  18
ATOM     18  C   UNL     1      39.552 116.724  14.735  1.00  0.00    -0.000 C 
BRANCH  18  19
ATOM     19  C   UNL     1      38.577 116.686  15.932  1.00  0.00    -0.000 C 
BRANCH  19  20
ATOM     20  C   UNL     1      37.108 116.594  15.488  1.00  0.00    -0.000 C 
BRANCH  20  21
ATOM     21  C   UNL     1      36.210 117.637  16.189  1.00  0.00    -0.000 C 
BRANCH  21  22
ATOM     22  C   UNL     1      36.847 119.036  16.289  1.00  0.00    -0.000 C 
BRANCH  22  23
ATOM     23  C   UNL     1      36.209 120.103  15.381  1.00  0.00    -0.000 C 
BRANCH  23  24
ATOM     24  C   UNL     1      36.887 120.290  14.010  1.00  0.00    -0.000 C 
BRANCH  24  25
ATOM     25  C   UNL     1      36.510 119.236  12.954  1.00  0.00    -0.003 C 
ATOM     26  C   UNL     1      35.003 119.009  12.845  1.00  0.00     0.004 C 
ENDBRANCH  24  25
ENDBRANCH  23  24
ENDBRANCH  22  23
ENDBRANCH  21  22
ENDBRANCH  20  21
ENDBRANCH  19  20
ENDBRANCH  18  19
ENDBRANCH  17  18
ENDBRANCH  16  17
ENDBRANCH  15  16
ENDBRANCH   1  15
TORSDOF 22
ENDMDL
MODEL 6
REMARK VINA RESULT:    -4.528      2.698      6.921
REMARK INTER + INTRA:         -13.502
REMARK INTER:                  -9.652
REMARK INTRA:                  -3.851
REMARK UNBOUND:                -3.152
REMARK SMILES CCCCCCCCCCCCCCCCCCCCCCCC(=O)[O-]
REMARK SMILES IDX 13 1 14 2 15 3 16 4 17 5 18 6 19 7 20 8 21 9 22 10 23 11
REMARK SMILES IDX 24 12 25 13 26 14 12 15 11 16 10 17 9 18 8 19 7 20 6 21 5 22
REMARK SMILES IDX 4 23 3 24 2 25 1 26
REMARK H PARENT
REMARK Flexibility Score: inf
ROOT
ATOM      1  C   UNL     1      45.873 113.060  12.992  1.00  0.00     0.000 C 
ENDROOT
BRANCH   1   2
ATOM      2  C   UNL     1      44.996 112.489  11.864  1.00  0.00     0.000 C 
BRANCH   2   3
ATOM      3  C   UNL     1      43.883 113.453  11.433  1.00  0.00     0.000 C 
BRANCH   3   4
ATOM      4  C   UNL     1      44.179 114.066  10.055  1.00  0.00     0.000 C 
BRANCH   4   5
ATOM      5  C   UNL     1      45.080 115.309  10.137  1.00  0.00     0.000 C 
BRANCH   5   6
ATOM      6  C   UNL     1      44.338 116.660  10.151  1.00  0.00     0.000 C 
BRANCH   6   7
ATOM      7  C   UNL     1      43.211 116.774   9.101  1.00  0.00     0.000 C 
BRANCH   7   8
ATOM      8  C   UNL     1      41.977 117.538   9.617  1.00  0.00     0.000 C 
BRANCH   8   9
ATOM      9  C   UNL     1      41.771 117.373  11.134  1.00  0.00     0.000 C 
BRANCH   9  10
ATOM     10  C   UNL     1      40.335 117.678  11.579  1.00  0.00     0.006 C 
BRANCH  10  11
ATOM     11  C   UNL     1      40.266 118.995  12.362  1.00  0.00     0.053 C 
BRANCH  11  12
ATOM     12  C   UNL     1      39.399 118.838  13.575  1.00  0.00     0.041 C 
ATOM     13  O   UNL     1      39.717 118.019  14.477  1.00  0.00    -0.550 OA
ATOM     14  O   UNL     1      38.238 119.590  13.707  1.00  0.00    -0.550 OA
ENDBRANCH  11  12
ENDBRANCH  10  11
ENDBRANCH   9  10
ENDBRANCH   8   9
ENDBRANCH   7   8
ENDBRANCH   6   7
ENDBRANCH   5   6
ENDBRANCH   4   5
ENDBRANCH   3   4
ENDBRANCH   2   3
ENDBRANCH   1   2
BRANCH   1  15
ATOM     15  C   UNL     1      45.867 112.176  14.249  1.00  0.00     0.000 C 
BRANCH  15  16
ATOM     16  C   UNL     1      45.275 112.927  15.451  1.00  0.00     0.000 C 
BRANCH  16  17
ATOM     17  C   UNL     1      43.775 112.652  15.647  1.00  0.00     0.000 C 
BRANCH  17  18
ATOM     18  C   UNL     1      42.899 113.910  15.789  1.00  0.00    -0.000 C 
BRANCH  18  19
ATOM     19  C   UNL     1      42.437 114.504  14.440  1.00  0.00    -0.000 C 
BRANCH  19  20
ATOM     20  C   UNL     1      42.510 116.040  14.421  1.00  0.00    -0.000 C 
BRANCH  20  21
ATOM     21  C   UNL     1      43.909 116.571  14.801  1.00  0.00    -0.000 C 
BRANCH  21  22
ATOM     22  C   UNL     1      44.984 116.310  13.729  1.00  0.00    -0.000 C 
BRANCH  22  23
ATOM     23  C   UNL     1      46.415 116.706  14.137  1.00  0.00    -0.000 C 
BRANCH  23  24
ATOM     24  C   UNL     1      46.789 116.403  15.601  1.00  0.00    -0.000 C 
BRANCH  24  25
ATOM     25  C   UNL     1      48.219 115.876  15.808  1.00  0.00    -0.003 C 
ATOM     26  C   UNL     1      48.670 114.918  14.705  1.00  0.00     0.004 C 
ENDBRANCH  24  25
ENDBRANCH  23  24
ENDBRANCH  22  23
ENDBRANCH  21  22
ENDBRANCH  20  21
ENDBRANCH  19  20
ENDBRANCH  18  19
ENDBRANCH  17  18
ENDBRANCH  16  17
ENDBRANCH  15  16
ENDBRANCH   1  15
TORSDOF 22
ENDMDL
MODEL 7
REMARK VINA RESULT:    -4.520      3.235      7.376
REMARK INTER + INTRA:         -13.486
REMARK INTER:                 -10.486
REMARK INTRA:                  -3.000
REMARK UNBOUND:                -3.152
REMARK SMILES CCCCCCCCCCCCCCCCCCCCCCCC(=O)[O-]
REMARK SMILES IDX 13 1 14 2 15 3 16 4 17 5 18 6 19 7 20 8 21 9 22 10 23 11
REMARK SMILES IDX 24 12 25 13 26 14 12 15 11 16 10 17 9 18 8 19 7 20 6 21 5 22
REMARK SMILES IDX 4 23 3 24 2 25 1 26
REMARK H PARENT
REMARK Flexibility Score: inf
ROOT
ATOM      1  C   UNL     1      44.263 114.352   9.592  1.00  0.00     0.000 C 
ENDROOT
BRANCH   1   2
ATOM      2  C   UNL     1      44.149 115.885   9.645  1.00  0.00     0.000 C 
BRANCH   2   3
ATOM      3  C   UNL     1      43.361 116.462   8.461  1.00  0.00     0.000 C 
BRANCH   3   4
ATOM      4  C   UNL     1      42.252 117.412   8.941  1.00  0.00     0.000 C 
BRANCH   4   5
ATOM      5  C   UNL     1      42.158 117.494  10.473  1.00  0.00     0.000 C 
BRANCH   5   6
ATOM      6  C   UNL     1      40.729 117.421  11.050  1.00  0.00     0.000 C 
BRANCH   6   7
ATOM      7  C   UNL     1      40.405 118.527  12.078  1.00  0.00     0.000 C 
BRANCH   7   8
ATOM      8  C   UNL     1      39.794 117.981  13.383  1.00  0.00     0.000 C 
BRANCH   8   9
ATOM      9  C   UNL     1      38.745 118.933  13.987  1.00  0.00     0.000 C 
BRANCH   9  10
ATOM     10  C   UNL     1      37.312 118.593  13.554  1.00  0.00     0.006 C 
BRANCH  10  11
ATOM     11  C   UNL     1      36.436 119.851  13.507  1.00  0.00     0.053 C 
BRANCH  11  12
ATOM     12  C   UNL     1      36.621 120.665  14.752  1.00  0.00     0.041 C 
ATOM     13  O   UNL     1      36.276 120.199  15.869  1.00  0.00    -0.550 OA
ATOM     14  O   UNL     1      37.167 121.941  14.679  1.00  0.00    -0.550 OA
ENDBRANCH  11  12
ENDBRANCH  10  11
ENDBRANCH   9  10
ENDBRANCH   8   9
ENDBRANCH   7   8
ENDBRANCH   6   7
ENDBRANCH   5   6
ENDBRANCH   4   5
ENDBRANCH   3   4
ENDBRANCH   2   3
ENDBRANCH   1   2
BRANCH   1  15
ATOM     15  C   UNL     1      43.945 113.690  10.943  1.00  0.00     0.000 C 
BRANCH  15  16
ATOM     16  C   UNL     1      45.218 113.140  11.602  1.00  0.00     0.000 C 
BRANCH  16  17
ATOM     17  C   UNL     1      44.921 112.228  12.804  1.00  0.00     0.000 C 
BRANCH  17  18
ATOM     18  C   UNL     1      45.585 112.659  14.125  1.00  0.00    -0.000 C 
BRANCH  18  19
ATOM     19  C   UNL     1      46.884 113.473  13.933  1.00  0.00    -0.000 C 
BRANCH  19  20
ATOM     20  C   UNL     1      47.196 114.370  15.142  1.00  0.00    -0.000 C 
BRANCH  20  21
ATOM     21  C   UNL     1      47.561 115.814  14.731  1.00  0.00    -0.000 C 
BRANCH  21  22
ATOM     22  C   UNL     1      46.390 116.808  14.852  1.00  0.00    -0.000 C 
BRANCH  22  23
ATOM     23  C   UNL     1      45.716 117.179  13.518  1.00  0.00    -0.000 C 
BRANCH  23  24
ATOM     24  C   UNL     1      44.471 116.345  13.156  1.00  0.00    -0.000 C 
BRANCH  24  25
ATOM     25  C   UNL     1      43.648 115.856  14.361  1.00  0.00    -0.003 C 
ATOM     26  C   UNL     1      42.319 115.216  13.958  1.00  0.00     0.004 C 
ENDBRANCH  24  25
ENDBRANCH  23  24
ENDBRANCH  22  23
ENDBRANCH  21  22
ENDBRANCH  20  21
ENDBRANCH  19  20
ENDBRANCH  18  19
ENDBRANCH  17  18
ENDBRANCH  16  17
ENDBRANCH  15  16
ENDBRANCH   1  15
TORSDOF 22
ENDMDL
MODEL 8
REMARK VINA RESULT:    -4.488      3.021      7.882
REMARK INTER + INTRA:         -13.411
REMARK INTER:                 -10.827
REMARK INTRA:                  -2.584
REMARK UNBOUND:                -3.152
REMARK SMILES CCCCCCCCCCCCCCCCCCCCCCCC(=O)[O-]
REMARK SMILES IDX 13 1 14 2 15 3 16 4 17 5 18 6 19 7 20 8 21 9 22 10 23 11
REMARK SMILES IDX 24 12 25 13 26 14 12 15 11 16 10 17 9 18 8 19 7 20 6 21 5 22
REMARK SMILES IDX 4 23 3 24 2 25 1 26
REMARK H PARENT
REMARK Flexibility Score: inf
ROOT
ATOM      1  C   UNL     1      41.323 117.864  10.402  1.00  0.00     0.000 C 
ENDROOT
BRANCH   1   2
ATOM      2  C   UNL     1      40.495 117.368  11.599  1.00  0.00     0.000 C 
BRANCH   2   3
ATOM      3  C   UNL     1      41.342 116.613  12.633  1.00  0.00     0.000 C 
BRANCH   3   4
ATOM      4  C   UNL     1      40.555 116.376  13.932  1.00  0.00     0.000 C 
BRANCH   4   5
ATOM      5  C   UNL     1      39.980 117.673  14.526  1.00  0.00     0.000 C 
BRANCH   5   6
ATOM      6  C   UNL     1      38.816 117.482  15.520  1.00  0.00     0.000 C 
BRANCH   6   7
ATOM      7  C   UNL     1      37.532 116.905  14.886  1.00  0.00     0.000 C 
BRANCH   7   8
ATOM      8  C   UNL     1      37.264 117.438  13.466  1.00  0.00     0.000 C 
BRANCH   8   9
ATOM      9  C   UNL     1      35.923 118.187  13.360  1.00  0.00     0.000 C 
BRANCH   9  10
ATOM     10  C   UNL     1      36.094 119.663  12.976  1.00  0.00     0.006 C 
BRANCH  10  11
ATOM     11  C   UNL     1      37.355 120.259  13.614  1.00  0.00     0.053 C 
BRANCH  11  12
ATOM     12  C   UNL     1      37.004 121.023  14.855  1.00  0.00     0.041 C 
ATOM     13  O   UNL     1      37.041 122.282  14.853  1.00  0.00    -0.550 OA
ATOM     14  O   UNL     1      36.644 120.347  16.014  1.00  0.00    -0.550 OA
ENDBRANCH  11  12
ENDBRANCH  10  11
ENDBRANCH   9  10
ENDBRANCH   8   9
ENDBRANCH   7   8
ENDBRANCH   6   7
ENDBRANCH   5   6
ENDBRANCH   4   5
ENDBRANCH   3   4
ENDBRANCH   2   3
ENDBRANCH   1   2
BRANCH   1  15
ATOM     15  C   UNL     1      42.724 117.235  10.352  1.00  0.00     0.000 C 
BRANCH  15  16
ATOM     16  C   UNL     1      43.074 116.774   8.929  1.00  0.00     0.000 C 
BRANCH  16  17
ATOM     17  C   UNL     1      44.184 115.711   8.902  1.00  0.00     0.000 C 
BRANCH  17  18
ATOM     18  C   UNL     1      43.910 114.464   9.762  1.00  0.00    -0.000 C 
BRANCH  18  19
ATOM     19  C   UNL     1      44.791 114.372  11.026  1.00  0.00    -0.000 C 
BRANCH  19  20
ATOM     20  C   UNL     1      43.979 114.004  12.280  1.00  0.00    -0.000 C 
BRANCH  20  21
ATOM     21  C   UNL     1      44.638 114.511  13.582  1.00  0.00    -0.000 C 
BRANCH  21  22
ATOM     22  C   UNL     1      44.713 116.046  13.683  1.00  0.00    -0.000 C 
BRANCH  22  23
ATOM     23  C   UNL     1      44.386 116.619  15.074  1.00  0.00    -0.000 C 
BRANCH  23  24
ATOM     24  C   UNL     1      45.606 117.068  15.903  1.00  0.00    -0.000 C 
BRANCH  24  25
ATOM     25  C   UNL     1      46.965 116.884  15.205  1.00  0.00    -0.003 C 
ATOM     26  C   UNL     1      48.151 117.017  16.160  1.00  0.00     0.004 C 
ENDBRANCH  24  25
ENDBRANCH  23  24
ENDBRANCH  22  23
ENDBRANCH  21  22
ENDBRANCH  20  21
ENDBRANCH  19  20
ENDBRANCH  18  19
ENDBRANCH  17  18
ENDBRANCH  16  17
ENDBRANCH  15  16
ENDBRANCH   1  15
TORSDOF 22
ENDMDL
MODEL 9
REMARK VINA RESULT:    -4.464      1.214      1.973
REMARK INTER + INTRA:         -13.357
REMARK INTER:                 -10.752
REMARK INTRA:                  -2.605
REMARK UNBOUND:                -3.152
REMARK SMILES CCCCCCCCCCCCCCCCCCCCCCCC(=O)[O-]
REMARK SMILES IDX 13 1 14 2 15 3 16 4 17 5 18 6 19 7 20 8 21 9 22 10 23 11
REMARK SMILES IDX 24 12 25 13 26 14 12 15 11 16 10 17 9 18 8 19 7 20 6 21 5 22
REMARK SMILES IDX 4 23 3 24 2 25 1 26
REMARK H PARENT
REMARK Flexibility Score: inf
ROOT
ATOM      1  C   UNL     1      41.304 117.919  10.744  1.00  0.00     0.000 C 
ENDROOT
BRANCH   1   2
ATOM      2  C   UNL     1      42.548 117.044  10.515  1.00  0.00     0.000 C 
BRANCH   2   3
ATOM      3  C   UNL     1      42.954 116.967   9.038  1.00  0.00     0.000 C 
BRANCH   3   4
ATOM      4  C   UNL     1      43.925 115.802   8.787  1.00  0.00     0.000 C 
BRANCH   4   5
ATOM      5  C   UNL     1      43.728 114.639   9.772  1.00  0.00     0.000 C 
BRANCH   5   6
ATOM      6  C   UNL     1      45.019 113.904  10.190  1.00  0.00     0.000 C 
BRANCH   6   7
ATOM      7  C   UNL     1      44.882 113.069  11.481  1.00  0.00     0.000 C 
BRANCH   7   8
ATOM      8  C   UNL     1      45.619 113.688  12.684  1.00  0.00     0.000 C 
BRANCH   8   9
ATOM      9  C   UNL     1      44.682 114.496  13.600  1.00  0.00     0.000 C 
BRANCH   9  10
ATOM     10  C   UNL     1      44.581 115.973  13.196  1.00  0.00     0.006 C 
BRANCH  10  11
ATOM     11  C   UNL     1      45.940 116.675  13.319  1.00  0.00     0.053 C 
BRANCH  11  12
ATOM     12  C   UNL     1      46.196 117.075  14.741  1.00  0.00     0.041 C 
ATOM     13  O   UNL     1      45.378 117.818  15.345  1.00  0.00    -0.550 OA
ATOM     14  O   UNL     1      47.339 116.635  15.397  1.00  0.00    -0.550 OA
ENDBRANCH  11  12
ENDBRANCH  10  11
ENDBRANCH   9  10
ENDBRANCH   8   9
ENDBRANCH   7   8
ENDBRANCH   6   7
ENDBRANCH   5   6
ENDBRANCH   4   5
ENDBRANCH   3   4
ENDBRANCH   2   3
ENDBRANCH   1   2
BRANCH   1  15
ATOM     15  C   UNL     1      40.357 117.335  11.805  1.00  0.00     0.000 C 
BRANCH  15  16
ATOM     16  C   UNL     1      41.105 116.384  12.751  1.00  0.00     0.000 C 
BRANCH  16  17
ATOM     17  C   UNL     1      40.946 116.768  14.231  1.00  0.00     0.000 C 
BRANCH  17  18
ATOM     18  C   UNL     1      39.703 117.618  14.550  1.00  0.00    -0.000 C 
BRANCH  18  19
ATOM     19  C   UNL     1      38.388 116.809  14.589  1.00  0.00    -0.000 C 
BRANCH  19  20
ATOM     20  C   UNL     1      37.768 116.768  15.996  1.00  0.00    -0.000 C 
BRANCH  20  21
ATOM     21  C   UNL     1      36.594 117.759  16.155  1.00  0.00    -0.000 C 
BRANCH  21  22
ATOM     22  C   UNL     1      37.033 119.185  16.534  1.00  0.00    -0.000 C 
BRANCH  22  23
ATOM     23  C   UNL     1      36.252 120.311  15.833  1.00  0.00    -0.000 C 
BRANCH  23  24
ATOM     24  C   UNL     1      36.996 121.006  14.676  1.00  0.00    -0.000 C 
BRANCH  24  25
ATOM     25  C   UNL     1      37.205 120.135  13.425  1.00  0.00    -0.003 C 
ATOM     26  C   UNL     1      35.935 119.410  12.981  1.00  0.00     0.004 C 
ENDBRANCH  24  25
ENDBRANCH  23  24
ENDBRANCH  22  23
ENDBRANCH  21  22
ENDBRANCH  20  21
ENDBRANCH  19  20
ENDBRANCH  18  19
ENDBRANCH  17  18
ENDBRANCH  16  17
ENDBRANCH  15  16
ENDBRANCH   1  15
TORSDOF 22
ENDMDL
