MODEL 1
REMARK VINA RESULT:    -5.116      0.000      0.000
REMARK INTER + INTRA:          -6.675
REMARK INTER:                  -6.312
REMARK INTRA:                  -0.363
REMARK UNBOUND:                -0.363
REMARK SMILES Oc1cc(O)c2cc(O)c(-c3cc(O)c(O)c(O)c3)[o+]c2c1
REMARK SMILES IDX 10 1 20 2 21 3 22 4 2 5 3 6 4 7 6 8 7 9 8 10 11 11 12 12
REMARK SMILES IDX 13 13 19 14 15 15 17 16 14 17 16 19 18 21 9 23 1 25 5 27
REMARK H PARENT 14 18 16 20 18 22 9 24 1 26 5 28
REMARK Flexibility Score: inf
ROOT
ATOM      1  C   UNL     1      15.952  16.498  32.680  1.00  0.00     0.402 A 
ATOM      2  O   UNL     1      15.685  15.327  33.252  1.00  0.00    -0.202 OA
ATOM      3  C   UNL     1      16.187  14.174  32.823  1.00  0.00     0.368 A 
ATOM      4  C   UNL     1      15.845  12.993  33.488  1.00  0.00     0.162 A 
ATOM      5  C   UNL     1      16.356  11.768  33.058  1.00  0.00     0.128 A 
ATOM      6  C   UNL     1      17.216  11.720  31.955  1.00  0.00     0.093 A 
ATOM      7  C   UNL     1      17.574  12.889  31.271  1.00  0.00     0.136 A 
ATOM      8  C   UNL     1      17.058  14.137  31.708  1.00  0.00     0.125 A 
ATOM      9  C   UNL     1      17.373  15.360  31.092  1.00  0.00     0.078 A 
ATOM     10  C   UNL     1      16.828  16.551  31.581  1.00  0.00     0.223 A 
ENDROOT
BRANCH   1  11
ATOM     11  C   UNL     1      15.321  17.713  33.245  1.00  0.00     0.091 A 
ATOM     12  C   UNL     1      15.812  18.254  34.441  1.00  0.00     0.068 A 
ATOM     13  C   UNL     1      15.228  19.390  35.014  1.00  0.00     0.162 A 
ATOM     14  C   UNL     1      14.201  18.304  32.638  1.00  0.00     0.068 A 
ATOM     15  C   UNL     1      14.114  19.994  34.384  1.00  0.00     0.200 A 
ATOM     16  C   UNL     1      13.605  19.440  33.201  1.00  0.00     0.162 A 
BRANCH  13  17
ATOM     17  O   UNL     1      15.781  19.878  36.200  1.00  0.00    -0.504 OA
ATOM     18  H   UNL     1      16.757  19.792  36.446  1.00  0.00     0.293 HD
ENDBRANCH  13  17
BRANCH  15  19
ATOM     19  O   UNL     1      13.487  21.132  34.899  1.00  0.00    -0.502 OA
ATOM     20  H   UNL     1      12.716  21.107  35.551  1.00  0.00     0.293 HD
ENDBRANCH  15  19
BRANCH  16  21
ATOM     21  O   UNL     1      12.499  20.026  32.588  1.00  0.00    -0.504 OA
ATOM     22  H   UNL     1      12.542  20.380  31.639  1.00  0.00     0.293 HD
ENDBRANCH  16  21
ENDBRANCH   1  11
BRANCH  10  23
ATOM     23  O   UNL     1      17.179  17.771  31.002  1.00  0.00    -0.500 OA
ATOM     24  H   UNL     1      16.701  18.129  30.184  1.00  0.00     0.294 HD
ENDBRANCH  10  23
BRANCH   5  25
ATOM     25  O   UNL     1      16.004  10.602  33.734  1.00  0.00    -0.507 OA
ATOM     26  H   UNL     1      15.833   9.734  33.241  1.00  0.00     0.293 HD
ENDBRANCH   5  25
BRANCH   7  27
ATOM     27  O   UNL     1      18.434  12.757  30.177  1.00  0.00    -0.507 OA
ATOM     28  H   UNL     1      19.096  13.460  29.884  1.00  0.00     0.293 HD
ENDBRANCH   7  27
TORSDOF 7
ENDMDL
MODEL 2
REMARK VINA RESULT:    -5.072      1.169      7.234
REMARK INTER + INTRA:          -6.622
REMARK INTER:                  -6.240
REMARK INTRA:                  -0.382
REMARK UNBOUND:                -0.363
REMARK SMILES Oc1cc(O)c2cc(O)c(-c3cc(O)c(O)c(O)c3)[o+]c2c1
REMARK SMILES IDX 10 1 20 2 21 3 22 4 2 5 3 6 4 7 6 8 7 9 8 10 11 11 12 12
REMARK SMILES IDX 13 13 19 14 15 15 17 16 14 17 16 19 18 21 9 23 1 25 5 27
REMARK H PARENT 14 18 16 20 18 22 9 24 1 26 5 28
REMARK Flexibility Score: inf
ROOT
ATOM      1  C   UNL     1      16.262  15.423  33.401  1.00  0.00     0.402 A 
ATOM      2  O   UNL     1      15.329  16.213  32.875  1.00  0.00    -0.202 OA
ATOM      3  C   UNL     1      15.036  17.417  33.356  1.00  0.00     0.368 A 
ATOM      4  C   UNL     1      14.037  18.172  32.735  1.00  0.00     0.162 A 
ATOM      5  C   UNL     1      13.707  19.438  33.220  1.00  0.00     0.128 A 
ATOM      6  C   UNL     1      14.379  19.955  34.333  1.00  0.00     0.093 A 
ATOM      7  C   UNL     1      15.384  19.218  34.973  1.00  0.00     0.136 A 
ATOM      8  C   UNL     1      15.724  17.931  34.481  1.00  0.00     0.125 A 
ATOM      9  C   UNL     1      16.726  17.128  35.050  1.00  0.00     0.078 A 
ATOM     10  C   UNL     1      17.008  15.871  34.507  1.00  0.00     0.223 A 
ENDROOT
BRANCH   1  11
ATOM     11  C   UNL     1      16.488  14.098  32.781  1.00  0.00     0.091 A 
ATOM     12  C   UNL     1      17.410  13.975  31.732  1.00  0.00     0.068 A 
ATOM     13  C   UNL     1      17.635  12.741  31.110  1.00  0.00     0.162 A 
ATOM     14  C   UNL     1      15.756  12.969  33.182  1.00  0.00     0.068 A 
ATOM     15  C   UNL     1      16.910  11.602  31.535  1.00  0.00     0.200 A 
ATOM     16  C   UNL     1      15.970  11.728  32.568  1.00  0.00     0.162 A 
BRANCH  13  17
ATOM     17  O   UNL     1      18.578  12.694  30.081  1.00  0.00    -0.504 OA
ATOM     18  H   UNL     1      18.362  12.857  29.108  1.00  0.00     0.293 HD
ENDBRANCH  13  17
BRANCH  15  19
ATOM     19  O   UNL     1      17.089  10.341  30.961  1.00  0.00    -0.502 OA
ATOM     20  H   UNL     1      16.686  10.058  30.080  1.00  0.00     0.293 HD
ENDBRANCH  15  19
BRANCH  16  21
ATOM     21  O   UNL     1      15.245  10.610  32.977  1.00  0.00    -0.504 OA
ATOM     22  H   UNL     1      14.440  10.693  33.588  1.00  0.00     0.293 HD
ENDBRANCH  16  21
ENDBRANCH   1  11
BRANCH  10  23
ATOM     23  O   UNL     1      18.037  15.093  35.039  1.00  0.00    -0.500 OA
ATOM     24  H   UNL     1      18.248  14.170  34.679  1.00  0.00     0.294 HD
ENDBRANCH  10  23
BRANCH   5  25
ATOM     25  O   UNL     1      12.709  20.176  32.589  1.00  0.00    -0.507 OA
ATOM     26  H   UNL     1      12.585  20.150  31.584  1.00  0.00     0.293 HD
ENDBRANCH   5  25
BRANCH   7  27
ATOM     27  O   UNL     1      16.005  19.803  36.080  1.00  0.00    -0.507 OA
ATOM     28  H   UNL     1      16.713  19.352  36.641  1.00  0.00     0.293 HD
ENDBRANCH   7  27
TORSDOF 7
ENDMDL
MODEL 3
REMARK VINA RESULT:    -4.974      2.764      5.299
REMARK INTER + INTRA:          -6.500
REMARK INTER:                  -6.512
REMARK INTRA:                   0.012
REMARK UNBOUND:                -0.363
REMARK SMILES Oc1cc(O)c2cc(O)c(-c3cc(O)c(O)c(O)c3)[o+]c2c1
REMARK SMILES IDX 10 1 20 2 21 3 22 4 2 5 3 6 4 7 6 8 7 9 8 10 11 11 12 12
REMARK SMILES IDX 13 13 19 14 15 15 17 16 14 17 16 19 18 21 9 23 1 25 5 27
REMARK H PARENT 14 18 16 20 18 22 9 24 1 26 5 28
REMARK Flexibility Score: inf
ROOT
ATOM      1  C   UNL     1      15.080  19.559  35.655  1.00  0.00     0.402 A 
ATOM      2  O   UNL     1      14.628  19.439  34.410  1.00  0.00    -0.202 OA
ATOM      3  C   UNL     1      14.943  18.423  33.614  1.00  0.00     0.368 A 
ATOM      4  C   UNL     1      14.420  18.387  32.318  1.00  0.00     0.162 A 
ATOM      5  C   UNL     1      14.736  17.334  31.459  1.00  0.00     0.128 A 
ATOM      6  C   UNL     1      15.581  16.308  31.897  1.00  0.00     0.093 A 
ATOM      7  C   UNL     1      16.119  16.321  33.190  1.00  0.00     0.136 A 
ATOM      8  C   UNL     1      15.797  17.389  34.067  1.00  0.00     0.125 A 
ATOM      9  C   UNL     1      16.278  17.479  35.384  1.00  0.00     0.078 A 
ATOM     10  C   UNL     1      15.914  18.561  36.191  1.00  0.00     0.223 A 
ENDROOT
BRANCH   1  11
ATOM     11  C   UNL     1      14.665  20.744  36.440  1.00  0.00     0.091 A 
ATOM     12  C   UNL     1      13.353  21.224  36.325  1.00  0.00     0.068 A 
ATOM     13  C   UNL     1      12.931  22.353  37.037  1.00  0.00     0.162 A 
ATOM     14  C   UNL     1      15.574  21.435  37.257  1.00  0.00     0.068 A 
ATOM     15  C   UNL     1      13.848  23.031  37.875  1.00  0.00     0.200 A 
ATOM     16  C   UNL     1      15.167  22.567  37.974  1.00  0.00     0.162 A 
BRANCH  13  17
ATOM     17  O   UNL     1      11.606  22.763  36.880  1.00  0.00    -0.504 OA
ATOM     18  H   UNL     1      10.830  22.382  37.401  1.00  0.00     0.293 HD
ENDBRANCH  13  17
BRANCH  15  19
ATOM     19  O   UNL     1      13.492  24.160  38.618  1.00  0.00    -0.502 OA
ATOM     20  H   UNL     1      12.864  24.879  38.288  1.00  0.00     0.293 HD
ENDBRANCH  15  19
BRANCH  16  21
ATOM     21  O   UNL     1      16.074  23.243  38.789  1.00  0.00    -0.504 OA
ATOM     22  H   UNL     1      16.022  23.190  39.799  1.00  0.00     0.293 HD
ENDBRANCH  16  21
ENDBRANCH   1  11
BRANCH  10  23
ATOM     23  O   UNL     1      16.351  18.625  37.514  1.00  0.00    -0.500 OA
ATOM     24  H   UNL     1      15.754  18.972  38.256  1.00  0.00     0.294 HD
ENDBRANCH  10  23
BRANCH   5  25
ATOM     25  O   UNL     1      14.205  17.315  30.172  1.00  0.00    -0.507 OA
ATOM     26  H   UNL     1      14.508  16.637  29.483  1.00  0.00     0.293 HD
ENDBRANCH   5  25
BRANCH   7  27
ATOM     27  O   UNL     1      16.957  15.262  33.549  1.00  0.00    -0.507 OA
ATOM     28  H   UNL     1      16.906  14.335  33.153  1.00  0.00     0.293 HD
ENDBRANCH   7  27
TORSDOF 7
ENDMDL
MODEL 4
REMARK VINA RESULT:    -4.831      3.701      8.462
REMARK INTER + INTRA:          -6.324
REMARK INTER:                  -6.098
REMARK INTRA:                  -0.225
REMARK UNBOUND:                -0.363
REMARK SMILES Oc1cc(O)c2cc(O)c(-c3cc(O)c(O)c(O)c3)[o+]c2c1
REMARK SMILES IDX 10 1 20 2 21 3 22 4 2 5 3 6 4 7 6 8 7 9 8 10 11 11 12 12
REMARK SMILES IDX 13 13 19 14 15 15 17 16 14 17 16 19 18 21 9 23 1 25 5 27
REMARK H PARENT 14 18 16 20 18 22 9 24 1 26 5 28
REMARK Flexibility Score: inf
ROOT
ATOM      1  C   UNL     1      15.669  20.390  36.412  1.00  0.00     0.402 A 
ATOM      2  O   UNL     1      14.789  20.712  37.357  1.00  0.00    -0.202 OA
ATOM      3  C   UNL     1      15.128  21.295  38.501  1.00  0.00     0.368 A 
ATOM      4  C   UNL     1      14.132  21.592  39.435  1.00  0.00     0.162 A 
ATOM      5  C   UNL     1      14.459  22.203  40.646  1.00  0.00     0.128 A 
ATOM      6  C   UNL     1      15.793  22.519  40.928  1.00  0.00     0.093 A 
ATOM      7  C   UNL     1      16.811  22.231  40.009  1.00  0.00     0.136 A 
ATOM      8  C   UNL     1      16.480  21.613  38.776  1.00  0.00     0.125 A 
ATOM      9  C   UNL     1      17.431  21.301  37.790  1.00  0.00     0.078 A 
ATOM     10  C   UNL     1      17.030  20.695  36.596  1.00  0.00     0.223 A 
ENDROOT
BRANCH   1  11
ATOM     11  C   UNL     1      15.167  19.732  35.183  1.00  0.00     0.091 A 
ATOM     12  C   UNL     1      14.203  20.379  34.398  1.00  0.00     0.068 A 
ATOM     13  C   UNL     1      13.692  19.779  33.241  1.00  0.00     0.162 A 
ATOM     14  C   UNL     1      15.595  18.446  34.816  1.00  0.00     0.068 A 
ATOM     15  C   UNL     1      14.145  18.491  32.865  1.00  0.00     0.200 A 
ATOM     16  C   UNL     1      15.092  17.832  33.662  1.00  0.00     0.162 A 
BRANCH  13  17
ATOM     17  O   UNL     1      12.743  20.490  32.504  1.00  0.00    -0.504 OA
ATOM     18  H   UNL     1      12.509  20.292  31.542  1.00  0.00     0.293 HD
ENDBRANCH  13  17
BRANCH  15  19
ATOM     19  O   UNL     1      13.681  17.838  31.720  1.00  0.00    -0.502 OA
ATOM     20  H   UNL     1      14.262  17.274  31.117  1.00  0.00     0.293 HD
ENDBRANCH  15  19
BRANCH  16  21
ATOM     21  O   UNL     1      15.527  16.559  33.300  1.00  0.00    -0.504 OA
ATOM     22  H   UNL     1      15.967  16.382  32.404  1.00  0.00     0.293 HD
ENDBRANCH  16  21
ENDBRANCH   1  11
BRANCH  10  23
ATOM     23  O   UNL     1      17.966  20.429  35.596  1.00  0.00    -0.500 OA
ATOM     24  H   UNL     1      17.798  20.682  34.629  1.00  0.00     0.294 HD
ENDBRANCH  10  23
BRANCH   5  25
ATOM     25  O   UNL     1      13.452  22.491  41.564  1.00  0.00    -0.507 OA
ATOM     26  H   UNL     1      12.888  23.328  41.486  1.00  0.00     0.293 HD
ENDBRANCH   5  25
BRANCH   7  27
ATOM     27  O   UNL     1      18.117  22.575  40.367  1.00  0.00    -0.507 OA
ATOM     28  H   UNL     1      18.831  21.911  40.627  1.00  0.00     0.293 HD
ENDBRANCH   7  27
TORSDOF 7
ENDMDL
MODEL 5
REMARK VINA RESULT:    -4.816      2.740      5.133
REMARK INTER + INTRA:          -6.305
REMARK INTER:                  -5.932
REMARK INTRA:                  -0.373
REMARK UNBOUND:                -0.363
REMARK SMILES Oc1cc(O)c2cc(O)c(-c3cc(O)c(O)c(O)c3)[o+]c2c1
REMARK SMILES IDX 10 1 20 2 21 3 22 4 2 5 3 6 4 7 6 8 7 9 8 10 11 11 12 12
REMARK SMILES IDX 13 13 19 14 15 15 17 16 14 17 16 19 18 21 9 23 1 25 5 27
REMARK H PARENT 14 18 16 20 18 22 9 24 1 26 5 28
REMARK Flexibility Score: inf
ROOT
ATOM      1  C   UNL     1      14.996  19.874  35.371  1.00  0.00     0.402 A 
ATOM      2  O   UNL     1      15.571  18.676  35.299  1.00  0.00    -0.202 OA
ATOM      3  C   UNL     1      15.393  17.841  34.281  1.00  0.00     0.368 A 
ATOM      4  C   UNL     1      16.038  16.602  34.297  1.00  0.00     0.162 A 
ATOM      5  C   UNL     1      15.867  15.703  33.243  1.00  0.00     0.128 A 
ATOM      6  C   UNL     1      15.044  16.045  32.164  1.00  0.00     0.093 A 
ATOM      7  C   UNL     1      14.386  17.281  32.124  1.00  0.00     0.136 A 
ATOM      8  C   UNL     1      14.560  18.198  33.193  1.00  0.00     0.125 A 
ATOM      9  C   UNL     1      13.951  19.463  33.232  1.00  0.00     0.078 A 
ATOM     10  C   UNL     1      14.173  20.314  34.319  1.00  0.00     0.223 A 
ENDROOT
BRANCH   1  11
ATOM     11  C   UNL     1      15.266  20.709  36.564  1.00  0.00     0.091 A 
ATOM     12  C   UNL     1      16.481  21.401  36.662  1.00  0.00     0.068 A 
ATOM     13  C   UNL     1      16.777  22.185  37.784  1.00  0.00     0.162 A 
ATOM     14  C   UNL     1      14.353  20.779  37.629  1.00  0.00     0.068 A 
ATOM     15  C   UNL     1      15.842  22.268  38.844  1.00  0.00     0.200 A 
ATOM     16  C   UNL     1      14.636  21.557  38.758  1.00  0.00     0.162 A 
BRANCH  13  17
ATOM     17  O   UNL     1      18.002  22.855  37.804  1.00  0.00    -0.504 OA
ATOM     18  H   UNL     1      18.442  23.205  38.643  1.00  0.00     0.293 HD
ENDBRANCH  13  17
BRANCH  15  19
ATOM     19  O   UNL     1      16.072  23.035  39.989  1.00  0.00    -0.502 OA
ATOM     20  H   UNL     1      15.346  23.508  40.508  1.00  0.00     0.293 HD
ENDBRANCH  15  19
BRANCH  16  21
ATOM     21  O   UNL     1      13.722  21.627  39.808  1.00  0.00    -0.504 OA
ATOM     22  H   UNL     1      13.155  22.453  39.965  1.00  0.00     0.293 HD
ENDBRANCH  16  21
ENDBRANCH   1  11
BRANCH  10  23
ATOM     23  O   UNL     1      13.610  21.590  34.335  1.00  0.00    -0.500 OA
ATOM     24  H   UNL     1      13.435  22.107  33.480  1.00  0.00     0.294 HD
ENDBRANCH  10  23
BRANCH   5  25
ATOM     25  O   UNL     1      16.518  14.473  33.277  1.00  0.00    -0.507 OA
ATOM     26  H   UNL     1      16.955  14.128  34.123  1.00  0.00     0.293 HD
ENDBRANCH   5  25
BRANCH   7  27
ATOM     27  O   UNL     1      13.579  17.545  31.014  1.00  0.00    -0.507 OA
ATOM     28  H   UNL     1      13.872  17.426  30.055  1.00  0.00     0.293 HD
ENDBRANCH   7  27
TORSDOF 7
ENDMDL
MODEL 6
REMARK VINA RESULT:    -4.729      2.402      4.597
REMARK INTER + INTRA:          -6.198
REMARK INTER:                  -5.867
REMARK INTRA:                  -0.330
REMARK UNBOUND:                -0.363
REMARK SMILES Oc1cc(O)c2cc(O)c(-c3cc(O)c(O)c(O)c3)[o+]c2c1
REMARK SMILES IDX 10 1 20 2 21 3 22 4 2 5 3 6 4 7 6 8 7 9 8 10 11 11 12 12
REMARK SMILES IDX 13 13 19 14 15 15 17 16 14 17 16 19 18 21 9 23 1 25 5 27
REMARK H PARENT 14 18 16 20 18 22 9 24 1 26 5 28
REMARK Flexibility Score: inf
ROOT
ATOM      1  C   UNL     1      15.286  19.830  34.619  1.00  0.00     0.402 A 
ATOM      2  O   UNL     1      15.343  18.501  34.653  1.00  0.00    -0.202 OA
ATOM      3  C   UNL     1      15.711  17.760  33.614  1.00  0.00     0.368 A 
ATOM      4  C   UNL     1      15.736  16.368  33.745  1.00  0.00     0.162 A 
ATOM      5  C   UNL     1      16.116  15.565  32.670  1.00  0.00     0.128 A 
ATOM      6  C   UNL     1      16.475  16.155  31.452  1.00  0.00     0.093 A 
ATOM      7  C   UNL     1      16.458  17.547  31.295  1.00  0.00     0.136 A 
ATOM      8  C   UNL     1      16.075  18.366  32.388  1.00  0.00     0.125 A 
ATOM      9  C   UNL     1      16.041  19.769  32.325  1.00  0.00     0.078 A 
ATOM     10  C   UNL     1      15.655  20.511  33.445  1.00  0.00     0.223 A 
ENDROOT
BRANCH   1  11
ATOM     11  C   UNL     1      14.849  20.543  35.841  1.00  0.00     0.091 A 
ATOM     12  C   UNL     1      13.565  21.102  35.893  1.00  0.00     0.068 A 
ATOM     13  C   UNL     1      13.125  21.800  37.024  1.00  0.00     0.162 A 
ATOM     14  C   UNL     1      15.715  20.723  36.932  1.00  0.00     0.068 A 
ATOM     15  C   UNL     1      13.996  21.957  38.129  1.00  0.00     0.200 A 
ATOM     16  C   UNL     1      15.290  21.420  38.070  1.00  0.00     0.162 A 
BRANCH  13  17
ATOM     17  O   UNL     1      11.828  22.317  37.006  1.00  0.00    -0.504 OA
ATOM     18  H   UNL     1      11.542  23.107  36.446  1.00  0.00     0.293 HD
ENDBRANCH  13  17
BRANCH  15  19
ATOM     19  O   UNL     1      13.620  22.637  39.290  1.00  0.00    -0.502 OA
ATOM     20  H   UNL     1      13.383  22.182  40.160  1.00  0.00     0.293 HD
ENDBRANCH  15  19
BRANCH  16  21
ATOM     21  O   UNL     1      16.153  21.587  39.152  1.00  0.00    -0.504 OA
ATOM     22  H   UNL     1      16.721  22.421  39.254  1.00  0.00     0.293 HD
ENDBRANCH  16  21
ENDBRANCH   1  11
BRANCH  10  23
ATOM     23  O   UNL     1      15.670  21.906  33.400  1.00  0.00    -0.500 OA
ATOM     24  H   UNL     1      15.334  22.416  32.592  1.00  0.00     0.294 HD
ENDBRANCH  10  23
BRANCH   5  25
ATOM     25  O   UNL     1      16.135  14.180  32.820  1.00  0.00    -0.507 OA
ATOM     26  H   UNL     1      15.382  13.687  33.284  1.00  0.00     0.293 HD
ENDBRANCH   5  25
BRANCH   7  27
ATOM     27  O   UNL     1      16.826  18.057  30.047  1.00  0.00    -0.507 OA
ATOM     28  H   UNL     1      16.262  18.692  29.502  1.00  0.00     0.293 HD
ENDBRANCH   7  27
TORSDOF 7
ENDMDL
MODEL 7
REMARK VINA RESULT:    -4.722      1.905      7.488
REMARK INTER + INTRA:          -6.190
REMARK INTER:                  -5.911
REMARK INTRA:                  -0.279
REMARK UNBOUND:                -0.363
REMARK SMILES Oc1cc(O)c2cc(O)c(-c3cc(O)c(O)c(O)c3)[o+]c2c1
REMARK SMILES IDX 10 1 20 2 21 3 22 4 2 5 3 6 4 7 6 8 7 9 8 10 11 11 12 12
REMARK SMILES IDX 13 13 19 14 15 15 17 16 14 17 16 19 18 21 9 23 1 25 5 27
REMARK H PARENT 14 18 16 20 18 22 9 24 1 26 5 28
REMARK Flexibility Score: inf
ROOT
ATOM      1  C   UNL     1      15.905  14.008  33.468  1.00  0.00     0.402 A 
ATOM      2  O   UNL     1      15.310  15.057  32.906  1.00  0.00    -0.202 OA
ATOM      3  C   UNL     1      15.351  16.281  33.421  1.00  0.00     0.368 A 
ATOM      4  C   UNL     1      14.691  17.320  32.758  1.00  0.00     0.162 A 
ATOM      5  C   UNL     1      14.715  18.615  33.278  1.00  0.00     0.128 A 
ATOM      6  C   UNL     1      15.403  18.876  34.468  1.00  0.00     0.093 A 
ATOM      7  C   UNL     1      16.071  17.852  35.152  1.00  0.00     0.136 A 
ATOM      8  C   UNL     1      16.051  16.535  34.625  1.00  0.00     0.125 A 
ATOM      9  C   UNL     1      16.704  15.450  35.234  1.00  0.00     0.078 A 
ATOM     10  C   UNL     1      16.642  14.180  34.653  1.00  0.00     0.223 A 
ENDROOT
BRANCH   1  11
ATOM     11  C   UNL     1      15.777  12.691  32.802  1.00  0.00     0.091 A 
ATOM     12  C   UNL     1      14.556  12.005  32.857  1.00  0.00     0.068 A 
ATOM     13  C   UNL     1      14.406  10.750  32.256  1.00  0.00     0.162 A 
ATOM     14  C   UNL     1      16.871  12.087  32.162  1.00  0.00     0.068 A 
ATOM     15  C   UNL     1      15.507  10.157  31.593  1.00  0.00     0.200 A 
ATOM     16  C   UNL     1      16.736  10.831  31.557  1.00  0.00     0.162 A 
BRANCH  13  17
ATOM     17  O   UNL     1      13.156  10.133  32.342  1.00  0.00    -0.504 OA
ATOM     18  H   UNL     1      12.478  10.328  33.064  1.00  0.00     0.293 HD
ENDBRANCH  13  17
BRANCH  15  19
ATOM     19  O   UNL     1      15.424   8.910  30.968  1.00  0.00    -0.502 OA
ATOM     20  H   UNL     1      15.512   8.028  31.451  1.00  0.00     0.293 HD
ENDBRANCH  15  19
BRANCH  16  21
ATOM     21  O   UNL     1      17.825  10.241  30.918  1.00  0.00    -0.504 OA
ATOM     22  H   UNL     1      17.769   9.307  30.527  1.00  0.00     0.293 HD
ENDBRANCH  16  21
ENDBRANCH   1  11
BRANCH  10  23
ATOM     23  O   UNL     1      17.331  13.112  35.230  1.00  0.00    -0.500 OA
ATOM     24  H   UNL     1      17.615  12.305  34.687  1.00  0.00     0.294 HD
ENDBRANCH  10  23
BRANCH   5  25
ATOM     25  O   UNL     1      14.052  19.638  32.603  1.00  0.00    -0.507 OA
ATOM     26  H   UNL     1      13.892  19.596  31.604  1.00  0.00     0.293 HD
ENDBRANCH   5  25
BRANCH   7  27
ATOM     27  O   UNL     1      16.731  18.193  36.336  1.00  0.00    -0.507 OA
ATOM     28  H   UNL     1      16.367  18.021  37.261  1.00  0.00     0.293 HD
ENDBRANCH   7  27
TORSDOF 7
ENDMDL
MODEL 8
REMARK VINA RESULT:    -4.702      1.288      6.983
REMARK INTER + INTRA:          -6.165
REMARK INTER:                  -5.973
REMARK INTRA:                  -0.192
REMARK UNBOUND:                -0.363
REMARK SMILES Oc1cc(O)c2cc(O)c(-c3cc(O)c(O)c(O)c3)[o+]c2c1
REMARK SMILES IDX 10 1 20 2 21 3 22 4 2 5 3 6 4 7 6 8 7 9 8 10 11 11 12 12
REMARK SMILES IDX 13 13 19 14 15 15 17 16 14 17 16 19 18 21 9 23 1 25 5 27
REMARK H PARENT 14 18 16 20 18 22 9 24 1 26 5 28
REMARK Flexibility Score: inf
ROOT
ATOM      1  C   UNL     1      15.918  16.651  32.700  1.00  0.00     0.402 A 
ATOM      2  O   UNL     1      16.160  16.966  33.970  1.00  0.00    -0.202 OA
ATOM      3  C   UNL     1      15.673  18.054  34.557  1.00  0.00     0.368 A 
ATOM      4  C   UNL     1      15.986  18.301  35.897  1.00  0.00     0.162 A 
ATOM      5  C   UNL     1      15.491  19.437  36.539  1.00  0.00     0.128 A 
ATOM      6  C   UNL     1      14.677  20.334  35.838  1.00  0.00     0.093 A 
ATOM      7  C   UNL     1      14.349  20.109  34.495  1.00  0.00     0.136 A 
ATOM      8  C   UNL     1      14.849  18.954  33.840  1.00  0.00     0.125 A 
ATOM      9  C   UNL     1      14.561  18.641  32.501  1.00  0.00     0.078 A 
ATOM     10  C   UNL     1      15.087  17.481  31.924  1.00  0.00     0.223 A 
ENDROOT
BRANCH   1  11
ATOM     11  C   UNL     1      16.527  15.416  32.156  1.00  0.00     0.091 A 
ATOM     12  C   UNL     1      16.300  14.192  32.801  1.00  0.00     0.068 A 
ATOM     13  C   UNL     1      16.875  13.008  32.327  1.00  0.00     0.162 A 
ATOM     14  C   UNL     1      17.377  15.451  31.039  1.00  0.00     0.068 A 
ATOM     15  C   UNL     1      17.713  13.047  31.186  1.00  0.00     0.200 A 
ATOM     16  C   UNL     1      17.961  14.274  30.554  1.00  0.00     0.162 A 
BRANCH  13  17
ATOM     17  O   UNL     1      16.592  11.826  33.015  1.00  0.00    -0.504 OA
ATOM     18  H   UNL     1      15.832  11.204  32.781  1.00  0.00     0.293 HD
ENDBRANCH  13  17
BRANCH  15  19
ATOM     19  O   UNL     1      18.314  11.902  30.657  1.00  0.00    -0.502 OA
ATOM     20  H   UNL     1      17.962  11.396  29.857  1.00  0.00     0.293 HD
ENDBRANCH  15  19
BRANCH  16  21
ATOM     21  O   UNL     1      18.797  14.315  29.439  1.00  0.00    -0.504 OA
ATOM     22  H   UNL     1      19.778  14.065  29.502  1.00  0.00     0.293 HD
ENDBRANCH  16  21
ENDBRANCH   1  11
BRANCH  10  23
ATOM     23  O   UNL     1      14.762  17.143  30.610  1.00  0.00    -0.500 OA
ATOM     24  H   UNL     1      14.663  17.847  29.888  1.00  0.00     0.294 HD
ENDBRANCH  10  23
BRANCH   5  25
ATOM     25  O   UNL     1      15.813  19.666  37.874  1.00  0.00    -0.507 OA
ATOM     26  H   UNL     1      16.395  20.447  38.153  1.00  0.00     0.293 HD
ENDBRANCH   5  25
BRANCH   7  27
ATOM     27  O   UNL     1      13.535  21.054  33.865  1.00  0.00    -0.507 OA
ATOM     28  H   UNL     1      12.599  21.288  34.161  1.00  0.00     0.293 HD
ENDBRANCH   7  27
TORSDOF 7
ENDMDL
MODEL 9
REMARK VINA RESULT:    -4.610      3.386      8.617
REMARK INTER + INTRA:          -6.052
REMARK INTER:                  -5.732
REMARK INTRA:                  -0.319
REMARK UNBOUND:                -0.363
REMARK SMILES Oc1cc(O)c2cc(O)c(-c3cc(O)c(O)c(O)c3)[o+]c2c1
REMARK SMILES IDX 10 1 20 2 21 3 22 4 2 5 3 6 4 7 6 8 7 9 8 10 11 11 12 12
REMARK SMILES IDX 13 13 19 14 15 15 17 16 14 17 16 19 18 21 9 23 1 25 5 27
REMARK H PARENT 14 18 16 20 18 22 9 24 1 26 5 28
REMARK Flexibility Score: inf
ROOT
ATOM      1  C   UNL     1      14.945  20.025  34.994  1.00  0.00     0.402 A 
ATOM      2  O   UNL     1      14.571  21.279  34.755  1.00  0.00    -0.202 OA
ATOM      3  C   UNL     1      14.217  22.130  35.712  1.00  0.00     0.368 A 
ATOM      4  C   UNL     1      13.836  23.428  35.361  1.00  0.00     0.162 A 
ATOM      5  C   UNL     1      13.457  24.342  36.346  1.00  0.00     0.128 A 
ATOM      6  C   UNL     1      13.459  23.957  37.691  1.00  0.00     0.093 A 
ATOM      7  C   UNL     1      13.837  22.662  38.068  1.00  0.00     0.136 A 
ATOM      8  C   UNL     1      14.225  21.731  37.070  1.00  0.00     0.125 A 
ATOM      9  C   UNL     1      14.631  20.418  37.357  1.00  0.00     0.078 A 
ATOM     10  C   UNL     1      15.004  19.557  36.319  1.00  0.00     0.223 A 
ENDROOT
BRANCH   1  11
ATOM     11  C   UNL     1      15.306  19.170  33.840  1.00  0.00     0.091 A 
ATOM     12  C   UNL     1      14.291  18.604  33.055  1.00  0.00     0.068 A 
ATOM     13  C   UNL     1      14.595  17.775  31.969  1.00  0.00     0.162 A 
ATOM     14  C   UNL     1      16.645  18.866  33.546  1.00  0.00     0.068 A 
ATOM     15  C   UNL     1      15.948  17.491  31.665  1.00  0.00     0.200 A 
ATOM     16  C   UNL     1      16.964  18.037  32.462  1.00  0.00     0.162 A 
BRANCH  13  17
ATOM     17  O   UNL     1      13.530  17.259  31.227  1.00  0.00    -0.504 OA
ATOM     18  H   UNL     1      13.587  17.019  30.248  1.00  0.00     0.293 HD
ENDBRANCH  13  17
BRANCH  15  19
ATOM     19  O   UNL     1      16.322  16.678  30.592  1.00  0.00    -0.502 OA
ATOM     20  H   UNL     1      16.558  15.700  30.680  1.00  0.00     0.293 HD
ENDBRANCH  15  19
BRANCH  16  21
ATOM     21  O   UNL     1      18.296  17.746  32.173  1.00  0.00    -0.504 OA
ATOM     22  H   UNL     1      18.598  16.803  31.954  1.00  0.00     0.293 HD
ENDBRANCH  16  21
ENDBRANCH   1  11
BRANCH  10  23
ATOM     23  O   UNL     1      15.455  18.269  36.606  1.00  0.00    -0.500 OA
ATOM     24  H   UNL     1      16.092  17.778  35.990  1.00  0.00     0.294 HD
ENDBRANCH  10  23
BRANCH   5  25
ATOM     25  O   UNL     1      13.081  25.631  35.977  1.00  0.00    -0.507 OA
ATOM     26  H   UNL     1      12.521  26.215  36.586  1.00  0.00     0.293 HD
ENDBRANCH   5  25
BRANCH   7  27
ATOM     27  O   UNL     1      13.808  22.355  39.432  1.00  0.00    -0.507 OA
ATOM     28  H   UNL     1      14.595  21.995  39.952  1.00  0.00     0.293 HD
ENDBRANCH   7  27
TORSDOF 7
ENDMDL
