MODEL 1
REMARK VINA RESULT:    -4.713      0.000      0.000
REMARK INTER + INTRA:          -9.739
REMARK INTER:                  -8.570
REMARK INTRA:                  -1.169
REMARK UNBOUND:                -1.169
REMARK SMILES CCCCCCCCCCCCCCCC(=O)[O-]
REMARK SMILES IDX 9 1 10 2 11 3 12 4 13 5 14 6 15 7 16 8 17 9 18 10 8 11 7 12
REMARK SMILES IDX 6 13 5 14 4 15 3 16 2 17 1 18
REMARK H PARENT
REMARK Flexibility Score: inf
ROOT
ATOM      1  C   UNL     1      53.565  72.003  37.239  1.00  0.00     0.000 C 
ENDROOT
BRANCH   1   2
ATOM      2  C   UNL     1      54.884  72.591  37.780  1.00  0.00     0.000 C 
BRANCH   2   3
ATOM      3  C   UNL     1      55.988  71.557  38.061  1.00  0.00     0.000 C 
BRANCH   3   4
ATOM      4  C   UNL     1      56.580  71.681  39.472  1.00  0.00     0.000 C 
BRANCH   4   5
ATOM      5  C   UNL     1      56.137  72.992  40.139  1.00  0.00     0.000 C 
BRANCH   5   6
ATOM      6  C   UNL     1      57.279  74.012  40.260  1.00  0.00     0.006 C 
BRANCH   6   7
ATOM      7  C   UNL     1      57.489  74.819  38.972  1.00  0.00     0.053 C 
BRANCH   7   8
ATOM      8  C   UNL     1      57.834  76.238  39.295  1.00  0.00     0.041 C 
ATOM      9  O   UNL     1      58.407  76.962  38.439  1.00  0.00    -0.550 OA
ATOM     10  O   UNL     1      57.478  76.776  40.526  1.00  0.00    -0.550 OA
ENDBRANCH   7   8
ENDBRANCH   6   7
ENDBRANCH   5   6
ENDBRANCH   4   5
ENDBRANCH   3   4
ENDBRANCH   2   3
ENDBRANCH   1   2
BRANCH   1  11
ATOM     11  C   UNL     1      52.367  72.080  38.206  1.00  0.00     0.000 C 
BRANCH  11  12
ATOM     12  C   UNL     1      52.733  72.019  39.700  1.00  0.00    -0.000 C 
BRANCH  12  13
ATOM     13  C   UNL     1      51.739  72.780  40.589  1.00  0.00    -0.000 C 
BRANCH  13  14
ATOM     14  C   UNL     1      50.707  73.532  39.739  1.00  0.00    -0.000 C 
BRANCH  14  15
ATOM     15  C   UNL     1      49.587  74.110  40.618  1.00  0.00    -0.000 C 
BRANCH  15  16
ATOM     16  C   UNL     1      49.074  73.110  41.670  1.00  0.00    -0.000 C 
BRANCH  16  17
ATOM     17  C   UNL     1      47.542  73.047  41.809  1.00  0.00    -0.003 C 
ATOM     18  C   UNL     1      46.844  72.580  40.532  1.00  0.00     0.004 C 
ENDBRANCH  16  17
ENDBRANCH  15  16
ENDBRANCH  14  15
ENDBRANCH  13  14
ENDBRANCH  12  13
ENDBRANCH  11  12
ENDBRANCH   1  11
TORSDOF 14
ENDMDL
MODEL 2
REMARK VINA RESULT:    -4.707      1.365      2.010
REMARK INTER + INTRA:          -9.729
REMARK INTER:                  -8.413
REMARK INTRA:                  -1.316
REMARK UNBOUND:                -1.169
REMARK SMILES CCCCCCCCCCCCCCCC(=O)[O-]
REMARK SMILES IDX 9 1 10 2 11 3 12 4 13 5 14 6 15 7 16 8 17 9 18 10 8 11 7 12
REMARK SMILES IDX 6 13 5 14 4 15 3 16 2 17 1 18
REMARK H PARENT
REMARK Flexibility Score: inf
ROOT
ATOM      1  C   UNL     1      55.113  72.477  38.296  1.00  0.00     0.000 C 
ENDROOT
BRANCH   1   2
ATOM      2  C   UNL     1      56.318  71.543  38.063  1.00  0.00     0.000 C 
BRANCH   2   3
ATOM      3  C   UNL     1      56.555  70.503  39.173  1.00  0.00     0.000 C 
BRANCH   3   4
ATOM      4  C   UNL     1      55.934  70.911  40.517  1.00  0.00     0.000 C 
BRANCH   4   5
ATOM      5  C   UNL     1      56.893  71.806  41.315  1.00  0.00     0.000 C 
BRANCH   5   6
ATOM      6  C   UNL     1      56.304  73.194  41.607  1.00  0.00     0.006 C 
BRANCH   6   7
ATOM      7  C   UNL     1      57.100  74.326  40.944  1.00  0.00     0.053 C 
BRANCH   7   8
ATOM      8  C   UNL     1      57.793  75.153  41.980  1.00  0.00     0.041 C 
ATOM      9  O   UNL     1      58.458  74.597  42.894  1.00  0.00    -0.550 OA
ATOM     10  O   UNL     1      57.745  76.539  41.910  1.00  0.00    -0.550 OA
ENDBRANCH   7   8
ENDBRANCH   6   7
ENDBRANCH   5   6
ENDBRANCH   4   5
ENDBRANCH   3   4
ENDBRANCH   2   3
ENDBRANCH   1   2
BRANCH   1  11
ATOM     11  C   UNL     1      53.834  72.102  37.522  1.00  0.00     0.000 C 
BRANCH  11  12
ATOM     12  C   UNL     1      52.542  72.115  38.358  1.00  0.00    -0.000 C 
BRANCH  12  13
ATOM     13  C   UNL     1      52.792  72.445  39.837  1.00  0.00    -0.000 C 
BRANCH  13  14
ATOM     14  C   UNL     1      51.473  72.718  40.569  1.00  0.00    -0.000 C 
BRANCH  14  15
ATOM     15  C   UNL     1      50.563  73.636  39.740  1.00  0.00    -0.000 C 
BRANCH  15  16
ATOM     16  C   UNL     1      49.273  74.031  40.482  1.00  0.00    -0.000 C 
BRANCH  16  17
ATOM     17  C   UNL     1      48.512  72.857  41.124  1.00  0.00    -0.003 C 
ATOM     18  C   UNL     1      47.028  72.834  40.755  1.00  0.00     0.004 C 
ENDBRANCH  16  17
ENDBRANCH  15  16
ENDBRANCH  14  15
ENDBRANCH  13  14
ENDBRANCH  12  13
ENDBRANCH  11  12
ENDBRANCH   1  11
TORSDOF 14
ENDMDL
MODEL 3
REMARK VINA RESULT:    -4.501      4.331      8.437
REMARK INTER + INTRA:          -9.354
REMARK INTER:                  -8.681
REMARK INTRA:                  -0.674
REMARK UNBOUND:                -1.169
REMARK SMILES CCCCCCCCCCCCCCCC(=O)[O-]
REMARK SMILES IDX 9 1 10 2 11 3 12 4 13 5 14 6 15 7 16 8 17 9 18 10 8 11 7 12
REMARK SMILES IDX 6 13 5 14 4 15 3 16 2 17 1 18
REMARK H PARENT
REMARK Flexibility Score: inf
ROOT
ATOM      1  C   UNL     1      55.005  72.307  38.142  1.00  0.00     0.000 C 
ENDROOT
BRANCH   1   2
ATOM      2  C   UNL     1      54.077  71.816  39.272  1.00  0.00     0.000 C 
BRANCH   2   3
ATOM      3  C   UNL     1      52.578  72.077  39.039  1.00  0.00     0.000 C 
BRANCH   3   4
ATOM      4  C   UNL     1      51.886  72.713  40.253  1.00  0.00     0.000 C 
BRANCH   4   5
ATOM      5  C   UNL     1      50.677  73.553  39.817  1.00  0.00     0.000 C 
BRANCH   5   6
ATOM      6  C   UNL     1      49.696  73.822  40.968  1.00  0.00     0.006 C 
BRANCH   6   7
ATOM      7  C   UNL     1      48.283  74.158  40.474  1.00  0.00     0.053 C 
BRANCH   7   8
ATOM      8  C   UNL     1      47.306  73.130  40.949  1.00  0.00     0.041 C 
ATOM      9  O   UNL     1      47.716  72.056  41.463  1.00  0.00    -0.550 OA
ATOM     10  O   UNL     1      45.941  73.378  40.868  1.00  0.00    -0.550 OA
ENDBRANCH   7   8
ENDBRANCH   6   7
ENDBRANCH   5   6
ENDBRANCH   4   5
ENDBRANCH   3   4
ENDBRANCH   2   3
ENDBRANCH   1   2
BRANCH   1  11
ATOM     11  C   UNL     1      56.484  72.482  38.538  1.00  0.00     0.000 C 
BRANCH  11  12
ATOM     12  C   UNL     1      56.896  73.922  38.891  1.00  0.00    -0.000 C 
BRANCH  12  13
ATOM     13  C   UNL     1      57.555  74.031  40.275  1.00  0.00    -0.000 C 
BRANCH  13  14
ATOM     14  C   UNL     1      57.074  72.909  41.202  1.00  0.00    -0.000 C 
BRANCH  14  15
ATOM     15  C   UNL     1      57.462  73.196  42.661  1.00  0.00    -0.000 C 
BRANCH  15  16
ATOM     16  C   UNL     1      58.737  72.453  43.100  1.00  0.00    -0.000 C 
BRANCH  16  17
ATOM     17  C   UNL     1      60.028  73.287  43.030  1.00  0.00    -0.003 C 
ATOM     18  C   UNL     1      60.779  73.339  44.360  1.00  0.00     0.004 C 
ENDBRANCH  16  17
ENDBRANCH  15  16
ENDBRANCH  14  15
ENDBRANCH  13  14
ENDBRANCH  12  13
ENDBRANCH  11  12
ENDBRANCH   1  11
TORSDOF 14
ENDMDL
MODEL 4
REMARK VINA RESULT:    -4.479      2.771      3.507
REMARK INTER + INTRA:          -9.314
REMARK INTER:                  -8.234
REMARK INTRA:                  -1.079
REMARK UNBOUND:                -1.169
REMARK SMILES CCCCCCCCCCCCCCCC(=O)[O-]
REMARK SMILES IDX 9 1 10 2 11 3 12 4 13 5 14 6 15 7 16 8 17 9 18 10 8 11 7 12
REMARK SMILES IDX 6 13 5 14 4 15 3 16 2 17 1 18
REMARK H PARENT
REMARK Flexibility Score: inf
ROOT
ATOM      1  C   UNL     1      55.960  71.638  39.135  1.00  0.00     0.000 C 
ENDROOT
BRANCH   1   2
ATOM      2  C   UNL     1      56.042  73.149  38.831  1.00  0.00     0.000 C 
BRANCH   2   3
ATOM      3  C   UNL     1      57.394  73.804  39.162  1.00  0.00     0.000 C 
BRANCH   3   4
ATOM      4  C   UNL     1      57.296  74.842  40.289  1.00  0.00     0.000 C 
BRANCH   4   5
ATOM      5  C   UNL     1      57.011  74.163  41.637  1.00  0.00     0.000 C 
BRANCH   5   6
ATOM      6  C   UNL     1      57.937  72.966  41.905  1.00  0.00     0.006 C 
BRANCH   6   7
ATOM      7  C   UNL     1      59.145  73.338  42.775  1.00  0.00     0.053 C 
BRANCH   7   8
ATOM      8  C   UNL     1      59.361  72.305  43.835  1.00  0.00     0.041 C 
ATOM      9  O   UNL     1      59.719  71.139  43.521  1.00  0.00    -0.550 OA
ATOM     10  O   UNL     1      59.215  72.642  45.175  1.00  0.00    -0.550 OA
ENDBRANCH   7   8
ENDBRANCH   6   7
ENDBRANCH   5   6
ENDBRANCH   4   5
ENDBRANCH   3   4
ENDBRANCH   2   3
ENDBRANCH   1   2
BRANCH   1  11
ATOM     11  C   UNL     1      54.781  71.213  40.033  1.00  0.00     0.000 C 
BRANCH  11  12
ATOM     12  C   UNL     1      53.975  72.375  40.640  1.00  0.00    -0.000 C 
BRANCH  12  13
ATOM     13  C   UNL     1      52.494  72.028  40.849  1.00  0.00    -0.000 C 
BRANCH  13  14
ATOM     14  C   UNL     1      51.607  72.781  39.850  1.00  0.00    -0.000 C 
BRANCH  14  15
ATOM     15  C   UNL     1      50.722  73.812  40.568  1.00  0.00    -0.000 C 
BRANCH  15  16
ATOM     16  C   UNL     1      49.227  73.648  40.242  1.00  0.00    -0.000 C 
BRANCH  16  17
ATOM     17  C   UNL     1      48.437  72.789  41.245  1.00  0.00    -0.003 C 
ATOM     18  C   UNL     1      46.942  72.726  40.932  1.00  0.00     0.004 C 
ENDBRANCH  16  17
ENDBRANCH  15  16
ENDBRANCH  14  15
ENDBRANCH  13  14
ENDBRANCH  12  13
ENDBRANCH  11  12
ENDBRANCH   1  11
TORSDOF 14
ENDMDL
MODEL 5
REMARK VINA RESULT:    -4.449      5.545      7.955
REMARK INTER + INTRA:          -9.260
REMARK INTER:                  -7.932
REMARK INTRA:                  -1.328
REMARK UNBOUND:                -1.169
REMARK SMILES CCCCCCCCCCCCCCCC(=O)[O-]
REMARK SMILES IDX 9 1 10 2 11 3 12 4 13 5 14 6 15 7 16 8 17 9 18 10 8 11 7 12
REMARK SMILES IDX 6 13 5 14 4 15 3 16 2 17 1 18
REMARK H PARENT
REMARK Flexibility Score: inf
ROOT
ATOM      1  C   UNL     1      58.495  72.319  42.586  1.00  0.00     0.000 C 
ENDROOT
BRANCH   1   2
ATOM      2  C   UNL     1      59.610  72.414  43.647  1.00  0.00     0.000 C 
BRANCH   2   3
ATOM      3  C   UNL     1      60.295  73.789  43.747  1.00  0.00     0.000 C 
BRANCH   3   4
ATOM      4  C   UNL     1      61.797  73.689  44.048  1.00  0.00     0.000 C 
BRANCH   4   5
ATOM      5  C   UNL     1      62.305  74.965  44.734  1.00  0.00     0.000 C 
BRANCH   5   6
ATOM      6  C   UNL     1      63.288  74.672  45.878  1.00  0.00     0.006 C 
BRANCH   6   7
ATOM      7  C   UNL     1      64.631  75.393  45.703  1.00  0.00     0.053 C 
BRANCH   7   8
ATOM      8  C   UNL     1      65.313  74.930  44.455  1.00  0.00     0.041 C 
ATOM      9  O   UNL     1      65.622  75.757  43.557  1.00  0.00    -0.550 OA
ATOM     10  O   UNL     1      65.652  73.591  44.304  1.00  0.00    -0.550 OA
ENDBRANCH   7   8
ENDBRANCH   6   7
ENDBRANCH   5   6
ENDBRANCH   4   5
ENDBRANCH   3   4
ENDBRANCH   2   3
ENDBRANCH   1   2
BRANCH   1  11
ATOM     11  C   UNL     1      57.278  73.233  42.831  1.00  0.00     0.000 C 
BRANCH  11  12
ATOM     12  C   UNL     1      56.642  73.822  41.559  1.00  0.00    -0.000 C 
BRANCH  12  13
ATOM     13  C   UNL     1      57.675  74.131  40.465  1.00  0.00    -0.000 C 
BRANCH  13  14
ATOM     14  C   UNL     1      57.066  73.950  39.069  1.00  0.00    -0.000 C 
BRANCH  14  15
ATOM     15  C   UNL     1      55.957  72.886  39.086  1.00  0.00    -0.000 C 
BRANCH  15  16
ATOM     16  C   UNL     1      56.381  71.568  38.414  1.00  0.00    -0.000 C 
BRANCH  16  17
ATOM     17  C   UNL     1      56.714  70.424  39.388  1.00  0.00    -0.003 C 
ATOM     18  C   UNL     1      55.693  70.282  40.517  1.00  0.00     0.004 C 
ENDBRANCH  16  17
ENDBRANCH  15  16
ENDBRANCH  14  15
ENDBRANCH  13  14
ENDBRANCH  12  13
ENDBRANCH  11  12
ENDBRANCH   1  11
TORSDOF 14
ENDMDL
MODEL 6
REMARK VINA RESULT:    -4.415      5.073      7.136
REMARK INTER + INTRA:          -9.197
REMARK INTER:                  -8.098
REMARK INTRA:                  -1.100
REMARK UNBOUND:                -1.169
REMARK SMILES CCCCCCCCCCCCCCCC(=O)[O-]
REMARK SMILES IDX 9 1 10 2 11 3 12 4 13 5 14 6 15 7 16 8 17 9 18 10 8 11 7 12
REMARK SMILES IDX 6 13 5 14 4 15 3 16 2 17 1 18
REMARK H PARENT
REMARK Flexibility Score: inf
ROOT
ATOM      1  C   UNL     1      58.422  73.855  41.855  1.00  0.00     0.000 C 
ENDROOT
BRANCH   1   2
ATOM      2  C   UNL     1      58.124  72.830  42.969  1.00  0.00     0.000 C 
BRANCH   2   3
ATOM      3  C   UNL     1      59.368  72.244  43.660  1.00  0.00     0.000 C 
BRANCH   3   4
ATOM      4  C   UNL     1      60.600  73.153  43.544  1.00  0.00     0.000 C 
BRANCH   4   5
ATOM      5  C   UNL     1      60.706  74.091  44.755  1.00  0.00     0.000 C 
BRANCH   5   6
ATOM      6  C   UNL     1      62.147  74.240  45.265  1.00  0.00     0.006 C 
BRANCH   6   7
ATOM      7  C   UNL     1      63.176  74.272  44.127  1.00  0.00     0.053 C 
BRANCH   7   8
ATOM      8  C   UNL     1      63.666  75.667  43.905  1.00  0.00     0.041 C 
ATOM      9  O   UNL     1      63.219  76.615  44.604  1.00  0.00    -0.550 OA
ATOM     10  O   UNL     1      64.653  75.916  42.959  1.00  0.00    -0.550 OA
ENDBRANCH   7   8
ENDBRANCH   6   7
ENDBRANCH   5   6
ENDBRANCH   4   5
ENDBRANCH   3   4
ENDBRANCH   2   3
ENDBRANCH   1   2
BRANCH   1  11
ATOM     11  C   UNL     1      57.179  74.470  41.181  1.00  0.00     0.000 C 
BRANCH  11  12
ATOM     12  C   UNL     1      57.404  74.981  39.747  1.00  0.00    -0.000 C 
BRANCH  12  13
ATOM     13  C   UNL     1      57.183  73.894  38.685  1.00  0.00    -0.000 C 
BRANCH  13  14
ATOM     14  C   UNL     1      55.973  73.021  39.037  1.00  0.00    -0.000 C 
BRANCH  14  15
ATOM     15  C   UNL     1      56.344  71.530  39.011  1.00  0.00    -0.000 C 
BRANCH  15  16
ATOM     16  C   UNL     1      56.516  70.931  40.418  1.00  0.00    -0.000 C 
BRANCH  16  17
ATOM     17  C   UNL     1      56.512  69.393  40.470  1.00  0.00    -0.003 C 
ATOM     18  C   UNL     1      55.118  68.805  40.693  1.00  0.00     0.004 C 
ENDBRANCH  16  17
ENDBRANCH  15  16
ENDBRANCH  14  15
ENDBRANCH  13  14
ENDBRANCH  12  13
ENDBRANCH  11  12
ENDBRANCH   1  11
TORSDOF 14
ENDMDL
MODEL 7
REMARK VINA RESULT:    -4.413      3.532      5.040
REMARK INTER + INTRA:          -9.194
REMARK INTER:                  -7.473
REMARK INTRA:                  -1.721
REMARK UNBOUND:                -1.169
REMARK SMILES CCCCCCCCCCCCCCCC(=O)[O-]
REMARK SMILES IDX 9 1 10 2 11 3 12 4 13 5 14 6 15 7 16 8 17 9 18 10 8 11 7 12
REMARK SMILES IDX 6 13 5 14 4 15 3 16 2 17 1 18
REMARK H PARENT
REMARK Flexibility Score: inf
ROOT
ATOM      1  C   UNL     1      56.056  73.165  38.734  1.00  0.00     0.000 C 
ENDROOT
BRANCH   1   2
ATOM      2  C   UNL     1      57.224  74.170  38.798  1.00  0.00     0.000 C 
BRANCH   2   3
ATOM      3  C   UNL     1      58.032  74.142  40.108  1.00  0.00     0.000 C 
BRANCH   3   4
ATOM      4  C   UNL     1      57.217  74.610  41.323  1.00  0.00     0.000 C 
BRANCH   4   5
ATOM      5  C   UNL     1      57.965  74.315  42.631  1.00  0.00     0.000 C 
BRANCH   5   6
ATOM      6  C   UNL     1      58.019  72.815  42.958  1.00  0.00     0.006 C 
BRANCH   6   7
ATOM      7  C   UNL     1      59.288  72.423  43.726  1.00  0.00     0.053 C 
BRANCH   7   8
ATOM      8  C   UNL     1      59.134  72.734  45.181  1.00  0.00     0.041 C 
ATOM      9  O   UNL     1      59.796  73.670  45.703  1.00  0.00    -0.550 OA
ATOM     10  O   UNL     1      58.223  72.023  45.952  1.00  0.00    -0.550 OA
ENDBRANCH   7   8
ENDBRANCH   6   7
ENDBRANCH   5   6
ENDBRANCH   4   5
ENDBRANCH   3   4
ENDBRANCH   2   3
ENDBRANCH   1   2
BRANCH   1  11
ATOM     11  C   UNL     1      56.440  71.695  38.994  1.00  0.00     0.000 C 
BRANCH  11  12
ATOM     12  C   UNL     1      55.532  70.953  39.990  1.00  0.00    -0.000 C 
BRANCH  12  13
ATOM     13  C   UNL     1      54.903  71.887  41.034  1.00  0.00    -0.000 C 
BRANCH  13  14
ATOM     14  C   UNL     1      53.376  71.905  40.906  1.00  0.00    -0.000 C 
BRANCH  14  15
ATOM     15  C   UNL     1      52.932  71.354  39.542  1.00  0.00    -0.000 C 
BRANCH  15  16
ATOM     16  C   UNL     1      52.175  72.392  38.694  1.00  0.00    -0.000 C 
BRANCH  16  17
ATOM     17  C   UNL     1      52.153  72.101  37.183  1.00  0.00    -0.003 C 
ATOM     18  C   UNL     1      53.548  72.082  36.557  1.00  0.00     0.004 C 
ENDBRANCH  16  17
ENDBRANCH  15  16
ENDBRANCH  14  15
ENDBRANCH  13  14
ENDBRANCH  12  13
ENDBRANCH  11  12
ENDBRANCH   1  11
TORSDOF 14
ENDMDL
MODEL 8
REMARK VINA RESULT:    -4.334      1.873      2.422
REMARK INTER + INTRA:          -9.050
REMARK INTER:                  -7.910
REMARK INTRA:                  -1.140
REMARK UNBOUND:                -1.169
REMARK SMILES CCCCCCCCCCCCCCCC(=O)[O-]
REMARK SMILES IDX 9 1 10 2 11 3 12 4 13 5 14 6 15 7 16 8 17 9 18 10 8 11 7 12
REMARK SMILES IDX 6 13 5 14 4 15 3 16 2 17 1 18
REMARK H PARENT
REMARK Flexibility Score: inf
ROOT
ATOM      1  C   UNL     1      53.734  70.918  40.283  1.00  0.00     0.000 C 
ENDROOT
BRANCH   1   2
ATOM      2  C   UNL     1      55.213  71.298  40.506  1.00  0.00     0.000 C 
BRANCH   2   3
ATOM      3  C   UNL     1      56.179  70.813  39.411  1.00  0.00     0.000 C 
BRANCH   3   4
ATOM      4  C   UNL     1      56.462  71.882  38.346  1.00  0.00     0.000 C 
BRANCH   4   5
ATOM      5  C   UNL     1      56.221  73.291  38.906  1.00  0.00     0.000 C 
BRANCH   5   6
ATOM      6  C   UNL     1      57.499  73.933  39.467  1.00  0.00     0.006 C 
BRANCH   6   7
ATOM      7  C   UNL     1      57.257  74.675  40.788  1.00  0.00     0.053 C 
BRANCH   7   8
ATOM      8  C   UNL     1      57.978  73.995  41.908  1.00  0.00     0.041 C 
ATOM      9  O   UNL     1      58.519  74.676  42.819  1.00  0.00    -0.550 OA
ATOM     10  O   UNL     1      58.012  72.608  41.972  1.00  0.00    -0.550 OA
ENDBRANCH   7   8
ENDBRANCH   6   7
ENDBRANCH   5   6
ENDBRANCH   4   5
ENDBRANCH   3   4
ENDBRANCH   2   3
ENDBRANCH   1   2
BRANCH   1  11
ATOM     11  C   UNL     1      52.932  71.897  39.403  1.00  0.00     0.000 C 
BRANCH  11  12
ATOM     12  C   UNL     1      51.863  72.715  40.150  1.00  0.00    -0.000 C 
BRANCH  12  13
ATOM     13  C   UNL     1      52.067  72.713  41.672  1.00  0.00    -0.000 C 
BRANCH  13  14
ATOM     14  C   UNL     1      50.822  72.180  42.392  1.00  0.00    -0.000 C 
BRANCH  14  15
ATOM     15  C   UNL     1      49.836  73.318  42.700  1.00  0.00    -0.000 C 
BRANCH  15  16
ATOM     16  C   UNL     1      48.377  72.951  42.376  1.00  0.00    -0.000 C 
BRANCH  16  17
ATOM     17  C   UNL     1      47.938  73.260  40.933  1.00  0.00    -0.003 C 
ATOM     18  C   UNL     1      46.645  72.547  40.535  1.00  0.00     0.004 C 
ENDBRANCH  16  17
ENDBRANCH  15  16
ENDBRANCH  14  15
ENDBRANCH  13  14
ENDBRANCH  12  13
ENDBRANCH  11  12
ENDBRANCH   1  11
TORSDOF 14
ENDMDL
MODEL 9
REMARK VINA RESULT:    -4.270      4.316      6.090
REMARK INTER + INTRA:          -8.933
REMARK INTER:                  -8.062
REMARK INTRA:                  -0.872
REMARK UNBOUND:                -1.169
REMARK SMILES CCCCCCCCCCCCCCCC(=O)[O-]
REMARK SMILES IDX 9 1 10 2 11 3 12 4 13 5 14 6 15 7 16 8 17 9 18 10 8 11 7 12
REMARK SMILES IDX 6 13 5 14 4 15 3 16 2 17 1 18
REMARK H PARENT
REMARK Flexibility Score: inf
ROOT
ATOM      1  C   UNL     1      57.204  73.313  41.093  1.00  0.00     0.000 C 
ENDROOT
BRANCH   1   2
ATOM      2  C   UNL     1      58.271  73.481  42.194  1.00  0.00     0.000 C 
BRANCH   2   3
ATOM      3  C   UNL     1      58.713  72.173  42.874  1.00  0.00     0.000 C 
BRANCH   3   4
ATOM      4  C   UNL     1      59.603  72.409  44.102  1.00  0.00     0.000 C 
BRANCH   4   5
ATOM      5  C   UNL     1      59.722  73.907  44.414  1.00  0.00     0.000 C 
BRANCH   5   6
ATOM      6  C   UNL     1      61.090  74.284  45.004  1.00  0.00     0.006 C 
BRANCH   6   7
ATOM      7  C   UNL     1      62.255  73.902  44.083  1.00  0.00     0.053 C 
BRANCH   7   8
ATOM      8  C   UNL     1      63.458  74.736  44.390  1.00  0.00     0.041 C 
ATOM      9  O   UNL     1      63.963  74.719  45.544  1.00  0.00    -0.550 OA
ATOM     10  O   UNL     1      64.052  75.495  43.390  1.00  0.00    -0.550 OA
ENDBRANCH   7   8
ENDBRANCH   6   7
ENDBRANCH   5   6
ENDBRANCH   4   5
ENDBRANCH   3   4
ENDBRANCH   2   3
ENDBRANCH   1   2
BRANCH   1  11
ATOM     11  C   UNL     1      56.408  71.994  41.148  1.00  0.00     0.000 C 
BRANCH  11  12
ATOM     12  C   UNL     1      56.137  71.341  39.781  1.00  0.00    -0.000 C 
BRANCH  12  13
ATOM     13  C   UNL     1      56.157  72.351  38.624  1.00  0.00    -0.000 C 
BRANCH  13  14
ATOM     14  C   UNL     1      54.815  72.362  37.882  1.00  0.00    -0.000 C 
BRANCH  14  15
ATOM     15  C   UNL     1      53.659  72.008  38.830  1.00  0.00    -0.000 C 
BRANCH  15  16
ATOM     16  C   UNL     1      52.279  72.097  38.153  1.00  0.00    -0.000 C 
BRANCH  16  17
ATOM     17  C   UNL     1      52.309  72.041  36.615  1.00  0.00    -0.003 C 
ATOM     18  C   UNL     1      51.525  70.860  36.044  1.00  0.00     0.004 C 
ENDBRANCH  16  17
ENDBRANCH  15  16
ENDBRANCH  14  15
ENDBRANCH  13  14
ENDBRANCH  12  13
ENDBRANCH  11  12
ENDBRANCH   1  11
TORSDOF 14
ENDMDL
