MODEL 1
REMARK VINA RESULT:    -3.752      0.000      0.000
REMARK INTER + INTRA:         -12.536
REMARK INTER:                  -8.577
REMARK INTRA:                  -3.959
REMARK UNBOUND:                -3.959
REMARK SMILES CCCCCCCCCCCCCCCCCCCCCCCC(=O)[O-]
REMARK SMILES IDX 13 1 14 2 15 3 16 4 17 5 18 6 19 7 20 8 21 9 22 10 23 11
REMARK SMILES IDX 24 12 25 13 26 14 12 15 11 16 10 17 9 18 8 19 7 20 6 21 5 22
REMARK SMILES IDX 4 23 3 24 2 25 1 26
REMARK H PARENT
REMARK Flexibility Score: inf
ROOT
ATOM      1  C   UNL     1      29.265  28.983  19.393  1.00  0.00     0.000 C 
ENDROOT
BRANCH   1   2
ATOM      2  C   UNL     1      28.007  28.163  19.069  1.00  0.00     0.000 C 
BRANCH   2   3
ATOM      3  C   UNL     1      26.732  28.771  19.673  1.00  0.00     0.000 C 
BRANCH   3   4
ATOM      4  C   UNL     1      25.486  27.993  19.225  1.00  0.00     0.000 C 
BRANCH   4   5
ATOM      5  C   UNL     1      24.250  28.283  20.095  1.00  0.00     0.000 C 
BRANCH   5   6
ATOM      6  C   UNL     1      23.576  27.039  20.705  1.00  0.00     0.000 C 
BRANCH   6   7
ATOM      7  C   UNL     1      22.300  27.372  21.491  1.00  0.00     0.000 C 
BRANCH   7   8
ATOM      8  C   UNL     1      22.640  27.885  22.897  1.00  0.00     0.000 C 
BRANCH   8   9
ATOM      9  C   UNL     1      22.494  26.805  23.982  1.00  0.00     0.000 C 
BRANCH   9  10
ATOM     10  C   UNL     1      23.529  26.874  25.122  1.00  0.00     0.006 C 
BRANCH  10  11
ATOM     11  C   UNL     1      24.262  25.546  25.388  1.00  0.00     0.053 C 
BRANCH  11  12
ATOM     12  C   UNL     1      23.449  24.593  26.213  1.00  0.00     0.041 C 
ATOM     13  O   UNL     1      23.597  23.349  26.079  1.00  0.00    -0.550 OA
ATOM     14  O   UNL     1      22.557  25.078  27.160  1.00  0.00    -0.550 OA
ENDBRANCH  11  12
ENDBRANCH  10  11
ENDBRANCH   9  10
ENDBRANCH   8   9
ENDBRANCH   7   8
ENDBRANCH   6   7
ENDBRANCH   5   6
ENDBRANCH   4   5
ENDBRANCH   3   4
ENDBRANCH   2   3
ENDBRANCH   1   2
BRANCH   1  15
ATOM     15  C   UNL     1      30.181  28.284  20.412  1.00  0.00     0.000 C 
BRANCH  15  16
ATOM     16  C   UNL     1      29.949  28.770  21.853  1.00  0.00     0.000 C 
BRANCH  16  17
ATOM     17  C   UNL     1      29.275  27.742  22.783  1.00  0.00     0.000 C 
BRANCH  17  18
ATOM     18  C   UNL     1      27.851  28.111  23.243  1.00  0.00    -0.000 C 
BRANCH  18  19
ATOM     19  C   UNL     1      26.758  27.090  22.871  1.00  0.00    -0.000 C 
BRANCH  19  20
ATOM     20  C   UNL     1      27.277  25.748  22.325  1.00  0.00    -0.000 C 
BRANCH  20  21
ATOM     21  C   UNL     1      26.174  24.681  22.206  1.00  0.00    -0.000 C 
BRANCH  21  22
ATOM     22  C   UNL     1      25.896  24.286  20.740  1.00  0.00    -0.000 C 
BRANCH  22  23
ATOM     23  C   UNL     1      27.030  24.657  19.768  1.00  0.00    -0.000 C 
BRANCH  23  24
ATOM     24  C   UNL     1      26.632  24.487  18.293  1.00  0.00    -0.000 C 
BRANCH  24  25
ATOM     25  C   UNL     1      25.109  24.411  18.099  1.00  0.00    -0.003 C 
ATOM     26  C   UNL     1      24.652  23.069  17.531  1.00  0.00     0.004 C 
ENDBRANCH  24  25
ENDBRANCH  23  24
ENDBRANCH  22  23
ENDBRANCH  21  22
ENDBRANCH  20  21
ENDBRANCH  19  20
ENDBRANCH  18  19
ENDBRANCH  17  18
ENDBRANCH  16  17
ENDBRANCH  15  16
ENDBRANCH   1  15
TORSDOF 22
ENDMDL
MODEL 2
REMARK VINA RESULT:    -3.574      2.798      5.592
REMARK INTER + INTRA:         -12.129
REMARK INTER:                  -7.958
REMARK INTRA:                  -4.172
REMARK UNBOUND:                -3.959
REMARK SMILES CCCCCCCCCCCCCCCCCCCCCCCC(=O)[O-]
REMARK SMILES IDX 13 1 14 2 15 3 16 4 17 5 18 6 19 7 20 8 21 9 22 10 23 11
REMARK SMILES IDX 24 12 25 13 26 14 12 15 11 16 10 17 9 18 8 19 7 20 6 21 5 22
REMARK SMILES IDX 4 23 3 24 2 25 1 26
REMARK H PARENT
REMARK Flexibility Score: inf
ROOT
ATOM      1  C   UNL     1      24.290  26.868  24.051  1.00  0.00     0.000 C 
ENDROOT
BRANCH   1   2
ATOM      2  C   UNL     1      22.943  27.607  24.076  1.00  0.00     0.000 C 
BRANCH   2   3
ATOM      3  C   UNL     1      22.258  27.635  22.701  1.00  0.00     0.000 C 
BRANCH   3   4
ATOM      4  C   UNL     1      22.871  26.586  21.761  1.00  0.00     0.000 C 
BRANCH   4   5
ATOM      5  C   UNL     1      23.010  27.085  20.311  1.00  0.00     0.000 C 
BRANCH   5   6
ATOM      6  C   UNL     1      24.451  27.112  19.768  1.00  0.00     0.000 C 
BRANCH   6   7
ATOM      7  C   UNL     1      25.172  28.439  20.042  1.00  0.00     0.000 C 
BRANCH   7   8
ATOM      8  C   UNL     1      26.598  28.193  20.555  1.00  0.00     0.000 C 
BRANCH   8   9
ATOM      9  C   UNL     1      26.825  26.746  21.024  1.00  0.00     0.000 C 
BRANCH   9  10
ATOM     10  C   UNL     1      27.562  26.599  22.370  1.00  0.00     0.006 C 
BRANCH  10  11
ATOM     11  C   UNL     1      27.765  27.927  23.123  1.00  0.00     0.053 C 
BRANCH  11  12
ATOM     12  C   UNL     1      29.208  28.327  23.210  1.00  0.00     0.041 C 
ATOM     13  O   UNL     1      29.756  28.492  24.332  1.00  0.00    -0.550 OA
ATOM     14  O   UNL     1      29.960  28.479  22.052  1.00  0.00    -0.550 OA
ENDBRANCH  11  12
ENDBRANCH  10  11
ENDBRANCH   9  10
ENDBRANCH   8   9
ENDBRANCH   7   8
ENDBRANCH   6   7
ENDBRANCH   5   6
ENDBRANCH   4   5
ENDBRANCH   3   4
ENDBRANCH   2   3
ENDBRANCH   1   2
BRANCH   1  15
ATOM     15  C   UNL     1      24.471  25.928  25.256  1.00  0.00     0.000 C 
BRANCH  15  16
ATOM     16  C   UNL     1      23.148  25.637  25.987  1.00  0.00     0.000 C 
BRANCH  16  17
ATOM     17  C   UNL     1      22.932  24.160  26.373  1.00  0.00     0.000 C 
BRANCH  17  18
ATOM     18  C   UNL     1      23.276  23.139  25.270  1.00  0.00    -0.000 C 
BRANCH  18  19
ATOM     19  C   UNL     1      22.385  23.207  24.014  1.00  0.00    -0.000 C 
BRANCH  19  20
ATOM     20  C   UNL     1      23.129  23.040  22.676  1.00  0.00    -0.000 C 
BRANCH  20  21
ATOM     21  C   UNL     1      24.631  23.355  22.781  1.00  0.00    -0.000 C 
BRANCH  21  22
ATOM     22  C   UNL     1      25.242  23.756  21.422  1.00  0.00    -0.000 C 
BRANCH  22  23
ATOM     23  C   UNL     1      24.396  23.331  20.208  1.00  0.00    -0.000 C 
BRANCH  23  24
ATOM     24  C   UNL     1      25.079  23.641  18.866  1.00  0.00    -0.000 C 
BRANCH  24  25
ATOM     25  C   UNL     1      25.286  22.384  18.007  1.00  0.00    -0.003 C 
ATOM     26  C   UNL     1      24.487  21.184  18.513  1.00  0.00     0.004 C 
ENDBRANCH  24  25
ENDBRANCH  23  24
ENDBRANCH  22  23
ENDBRANCH  21  22
ENDBRANCH  20  21
ENDBRANCH  19  20
ENDBRANCH  18  19
ENDBRANCH  17  18
ENDBRANCH  16  17
ENDBRANCH  15  16
ENDBRANCH   1  15
TORSDOF 22
ENDMDL
MODEL 3
REMARK VINA RESULT:    -3.541      9.264     12.673
REMARK INTER + INTRA:         -12.054
REMARK INTER:                  -8.292
REMARK INTRA:                  -3.762
REMARK UNBOUND:                -3.959
REMARK SMILES CCCCCCCCCCCCCCCCCCCCCCCC(=O)[O-]
REMARK SMILES IDX 13 1 14 2 15 3 16 4 17 5 18 6 19 7 20 8 21 9 22 10 23 11
REMARK SMILES IDX 24 12 25 13 26 14 12 15 11 16 10 17 9 18 8 19 7 20 6 21 5 22
REMARK SMILES IDX 4 23 3 24 2 25 1 26
REMARK H PARENT
REMARK Flexibility Score: inf
ROOT
ATOM      1  C   UNL     1      24.306  18.918  20.919  1.00  0.00     0.000 C 
ENDROOT
BRANCH   1   2
ATOM      2  C   UNL     1      24.907  18.101  19.765  1.00  0.00     0.000 C 
BRANCH   2   3
ATOM      3  C   UNL     1      23.862  17.713  18.708  1.00  0.00     0.000 C 
BRANCH   3   4
ATOM      4  C   UNL     1      23.829  16.191  18.501  1.00  0.00     0.000 C 
BRANCH   4   5
ATOM      5  C   UNL     1      22.501  15.694  17.902  1.00  0.00     0.000 C 
BRANCH   5   6
ATOM      6  C   UNL     1      22.227  14.190  18.084  1.00  0.00     0.000 C 
BRANCH   6   7
ATOM      7  C   UNL     1      23.203  13.516  19.059  1.00  0.00     0.000 C 
BRANCH   7   8
ATOM      8  C   UNL     1      22.460  12.567  20.010  1.00  0.00     0.000 C 
BRANCH   8   9
ATOM      9  C   UNL     1      23.314  11.365  20.448  1.00  0.00     0.000 C 
BRANCH   9  10
ATOM     10  C   UNL     1      24.746  11.708  20.901  1.00  0.00     0.006 C 
BRANCH  10  11
ATOM     11  C   UNL     1      25.152  11.068  22.242  1.00  0.00     0.053 C 
BRANCH  11  12
ATOM     12  C   UNL     1      26.622  11.180  22.516  1.00  0.00     0.041 C 
ATOM     13  O   UNL     1      27.333  10.145  22.608  1.00  0.00    -0.550 OA
ATOM     14  O   UNL     1      27.215  12.431  22.629  1.00  0.00    -0.550 OA
ENDBRANCH  11  12
ENDBRANCH  10  11
ENDBRANCH   9  10
ENDBRANCH   8   9
ENDBRANCH   7   8
ENDBRANCH   6   7
ENDBRANCH   5   6
ENDBRANCH   4   5
ENDBRANCH   3   4
ENDBRANCH   2   3
ENDBRANCH   1   2
BRANCH   1  15
ATOM     15  C   UNL     1      24.149  18.094  22.209  1.00  0.00     0.000 C 
BRANCH  15  16
ATOM     16  C   UNL     1      22.786  17.383  22.298  1.00  0.00     0.000 C 
BRANCH  16  17
ATOM     17  C   UNL     1      22.822  15.874  21.985  1.00  0.00     0.000 C 
BRANCH  17  18
ATOM     18  C   UNL     1      24.215  15.220  22.074  1.00  0.00    -0.000 C 
BRANCH  18  19
ATOM     19  C   UNL     1      24.584  14.651  23.457  1.00  0.00    -0.000 C 
BRANCH  19  20
ATOM     20  C   UNL     1      23.389  14.332  24.373  1.00  0.00    -0.000 C 
BRANCH  20  21
ATOM     21  C   UNL     1      23.196  15.371  25.492  1.00  0.00    -0.000 C 
BRANCH  21  22
ATOM     22  C   UNL     1      24.409  16.314  25.632  1.00  0.00    -0.000 C 
BRANCH  22  23
ATOM     23  C   UNL     1      24.146  17.540  26.525  1.00  0.00    -0.000 C 
BRANCH  23  24
ATOM     24  C   UNL     1      23.488  18.703  25.763  1.00  0.00    -0.000 C 
BRANCH  24  25
ATOM     25  C   UNL     1      24.358  19.970  25.759  1.00  0.00    -0.003 C 
ATOM     26  C   UNL     1      25.832  19.675  25.485  1.00  0.00     0.004 C 
ENDBRANCH  24  25
ENDBRANCH  23  24
ENDBRANCH  22  23
ENDBRANCH  21  22
ENDBRANCH  20  21
ENDBRANCH  19  20
ENDBRANCH  18  19
ENDBRANCH  17  18
ENDBRANCH  16  17
ENDBRANCH  15  16
ENDBRANCH   1  15
TORSDOF 22
ENDMDL
MODEL 4
REMARK VINA RESULT:    -3.517     12.297     15.241
REMARK INTER + INTRA:         -11.998
REMARK INTER:                  -7.933
REMARK INTRA:                  -4.065
REMARK UNBOUND:                -3.959
REMARK SMILES CCCCCCCCCCCCCCCCCCCCCCCC(=O)[O-]
REMARK SMILES IDX 13 1 14 2 15 3 16 4 17 5 18 6 19 7 20 8 21 9 22 10 23 11
REMARK SMILES IDX 24 12 25 13 26 14 12 15 11 16 10 17 9 18 8 19 7 20 6 21 5 22
REMARK SMILES IDX 4 23 3 24 2 25 1 26
REMARK H PARENT
REMARK Flexibility Score: inf
ROOT
ATOM      1  C   UNL     1      25.586  11.873  20.644  1.00  0.00     0.000 C 
ENDROOT
BRANCH   1   2
ATOM      2  C   UNL     1      24.450  12.714  20.040  1.00  0.00     0.000 C 
BRANCH   2   3
ATOM      3  C   UNL     1      23.061  12.130  20.337  1.00  0.00     0.000 C 
BRANCH   3   4
ATOM      4  C   UNL     1      23.164  10.664  20.784  1.00  0.00     0.000 C 
BRANCH   4   5
ATOM      5  C   UNL     1      22.526  10.409  22.161  1.00  0.00     0.000 C 
BRANCH   5   6
ATOM      6  C   UNL     1      23.418  10.759  23.367  1.00  0.00     0.000 C 
BRANCH   6   7
ATOM      7  C   UNL     1      22.706  11.634  24.408  1.00  0.00     0.000 C 
BRANCH   7   8
ATOM      8  C   UNL     1      22.653  13.098  23.949  1.00  0.00     0.000 C 
BRANCH   8   9
ATOM      9  C   UNL     1      23.919  13.889  24.317  1.00  0.00     0.000 C 
BRANCH   9  10
ATOM     10  C   UNL     1      24.275  15.043  23.360  1.00  0.00     0.006 C 
BRANCH  10  11
ATOM     11  C   UNL     1      23.156  15.401  22.363  1.00  0.00     0.053 C 
BRANCH  11  12
ATOM     12  C   UNL     1      23.646  16.240  21.221  1.00  0.00     0.041 C 
ATOM     13  O   UNL     1      23.263  16.002  20.046  1.00  0.00    -0.550 OA
ATOM     14  O   UNL     1      24.495  17.313  21.461  1.00  0.00    -0.550 OA
ENDBRANCH  11  12
ENDBRANCH  10  11
ENDBRANCH   9  10
ENDBRANCH   8   9
ENDBRANCH   7   8
ENDBRANCH   6   7
ENDBRANCH   5   6
ENDBRANCH   4   5
ENDBRANCH   3   4
ENDBRANCH   2   3
ENDBRANCH   1   2
BRANCH   1  15
ATOM     15  C   UNL     1      26.258  12.562  21.845  1.00  0.00     0.000 C 
BRANCH  15  16
ATOM     16  C   UNL     1      27.213  11.628  22.609  1.00  0.00     0.000 C 
BRANCH  16  17
ATOM     17  C   UNL     1      27.232  10.171  22.108  1.00  0.00     0.000 C 
BRANCH  17  18
ATOM     18  C   UNL     1      28.023   9.185  22.992  1.00  0.00    -0.000 C 
BRANCH  18  19
ATOM     19  C   UNL     1      28.330   9.686  24.416  1.00  0.00    -0.000 C 
BRANCH  19  20
ATOM     20  C   UNL     1      27.504   9.023  25.534  1.00  0.00    -0.000 C 
BRANCH  20  21
ATOM     21  C   UNL     1      26.091   9.617  25.668  1.00  0.00    -0.000 C 
BRANCH  21  22
ATOM     22  C   UNL     1      26.114  11.147  25.868  1.00  0.00    -0.000 C 
BRANCH  22  23
ATOM     23  C   UNL     1      26.927  11.603  27.093  1.00  0.00    -0.000 C 
BRANCH  23  24
ATOM     24  C   UNL     1      27.182  13.119  27.111  1.00  0.00    -0.000 C 
BRANCH  24  25
ATOM     25  C   UNL     1      26.429  13.829  28.247  1.00  0.00    -0.003 C 
ATOM     26  C   UNL     1      25.220  14.621  27.751  1.00  0.00     0.004 C 
ENDBRANCH  24  25
ENDBRANCH  23  24
ENDBRANCH  22  23
ENDBRANCH  21  22
ENDBRANCH  20  21
ENDBRANCH  19  20
ENDBRANCH  18  19
ENDBRANCH  17  18
ENDBRANCH  16  17
ENDBRANCH  15  16
ENDBRANCH   1  15
TORSDOF 22
ENDMDL
MODEL 5
REMARK VINA RESULT:    -3.514     10.850     13.740
REMARK INTER + INTRA:         -11.993
REMARK INTER:                  -7.324
REMARK INTRA:                  -4.669
REMARK UNBOUND:                -3.959
REMARK SMILES CCCCCCCCCCCCCCCCCCCCCCCC(=O)[O-]
REMARK SMILES IDX 13 1 14 2 15 3 16 4 17 5 18 6 19 7 20 8 21 9 22 10 23 11
REMARK SMILES IDX 24 12 25 13 26 14 12 15 11 16 10 17 9 18 8 19 7 20 6 21 5 22
REMARK SMILES IDX 4 23 3 24 2 25 1 26
REMARK H PARENT
REMARK Flexibility Score: inf
ROOT
ATOM      1  C   UNL     1      26.070  11.129  21.976  1.00  0.00     0.000 C 
ENDROOT
BRANCH   1   2
ATOM      2  C   UNL     1      25.399  11.484  20.639  1.00  0.00     0.000 C 
BRANCH   2   3
ATOM      3  C   UNL     1      23.890  11.193  20.640  1.00  0.00     0.000 C 
BRANCH   3   4
ATOM      4  C   UNL     1      23.111  12.328  19.959  1.00  0.00     0.000 C 
BRANCH   4   5
ATOM      5  C   UNL     1      24.027  13.409  19.357  1.00  0.00     0.000 C 
BRANCH   5   6
ATOM      6  C   UNL     1      23.449  14.836  19.376  1.00  0.00     0.000 C 
BRANCH   6   7
ATOM      7  C   UNL     1      22.897  15.243  20.750  1.00  0.00     0.000 C 
BRANCH   7   8
ATOM      8  C   UNL     1      23.738  16.371  21.366  1.00  0.00     0.000 C 
BRANCH   8   9
ATOM      9  C   UNL     1      22.884  17.447  22.058  1.00  0.00     0.000 C 
BRANCH   9  10
ATOM     10  C   UNL     1      23.120  17.599  23.573  1.00  0.00     0.006 C 
BRANCH  10  11
ATOM     11  C   UNL     1      24.223  18.609  23.939  1.00  0.00     0.053 C 
BRANCH  11  12
ATOM     12  C   UNL     1      24.705  18.453  25.351  1.00  0.00     0.041 C 
ATOM     13  O   UNL     1      24.468  17.394  25.991  1.00  0.00    -0.550 OA
ATOM     14  O   UNL     1      25.450  19.461  25.948  1.00  0.00    -0.550 OA
ENDBRANCH  11  12
ENDBRANCH  10  11
ENDBRANCH   9  10
ENDBRANCH   8   9
ENDBRANCH   7   8
ENDBRANCH   6   7
ENDBRANCH   5   6
ENDBRANCH   4   5
ENDBRANCH   3   4
ENDBRANCH   2   3
ENDBRANCH   1   2
BRANCH   1  15
ATOM     15  C   UNL     1      26.744  12.343  22.639  1.00  0.00     0.000 C 
BRANCH  15  16
ATOM     16  C   UNL     1      25.853  13.598  22.628  1.00  0.00     0.000 C 
BRANCH  16  17
ATOM     17  C   UNL     1      25.565  14.201  24.016  1.00  0.00     0.000 C 
BRANCH  17  18
ATOM     18  C   UNL     1      24.129  13.993  24.535  1.00  0.00    -0.000 C 
BRANCH  18  19
ATOM     19  C   UNL     1      23.234  13.107  23.647  1.00  0.00    -0.000 C 
BRANCH  19  20
ATOM     20  C   UNL     1      22.492  11.979  24.386  1.00  0.00    -0.000 C 
BRANCH  20  21
ATOM     21  C   UNL     1      23.279  10.657  24.407  1.00  0.00    -0.000 C 
BRANCH  21  22
ATOM     22  C   UNL     1      24.177  10.529  25.656  1.00  0.00    -0.000 C 
BRANCH  22  23
ATOM     23  C   UNL     1      25.580   9.968  25.360  1.00  0.00    -0.000 C 
BRANCH  23  24
ATOM     24  C   UNL     1      26.706  10.827  25.957  1.00  0.00    -0.000 C 
BRANCH  24  25
ATOM     25  C   UNL     1      26.176  11.914  26.905  1.00  0.00    -0.003 C 
ATOM     26  C   UNL     1      27.170  13.056  27.111  1.00  0.00     0.004 C 
ENDBRANCH  24  25
ENDBRANCH  23  24
ENDBRANCH  22  23
ENDBRANCH  21  22
ENDBRANCH  20  21
ENDBRANCH  19  20
ENDBRANCH  18  19
ENDBRANCH  17  18
ENDBRANCH  16  17
ENDBRANCH  15  16
ENDBRANCH   1  15
TORSDOF 22
ENDMDL
MODEL 6
REMARK VINA RESULT:    -3.497     12.546     15.332
REMARK INTER + INTRA:         -11.953
REMARK INTER:                  -7.804
REMARK INTRA:                  -4.150
REMARK UNBOUND:                -3.959
REMARK SMILES CCCCCCCCCCCCCCCCCCCCCCCC(=O)[O-]
REMARK SMILES IDX 13 1 14 2 15 3 16 4 17 5 18 6 19 7 20 8 21 9 22 10 23 11
REMARK SMILES IDX 24 12 25 13 26 14 12 15 11 16 10 17 9 18 8 19 7 20 6 21 5 22
REMARK SMILES IDX 4 23 3 24 2 25 1 26
REMARK H PARENT
REMARK Flexibility Score: inf
ROOT
ATOM      1  C   UNL     1      24.127  12.985  20.254  1.00  0.00     0.000 C 
ENDROOT
BRANCH   1   2
ATOM      2  C   UNL     1      22.839  12.151  20.332  1.00  0.00     0.000 C 
BRANCH   2   3
ATOM      3  C   UNL     1      23.105  10.688  20.722  1.00  0.00     0.000 C 
BRANCH   3   4
ATOM      4  C   UNL     1      22.386  10.329  22.031  1.00  0.00     0.000 C 
BRANCH   4   5
ATOM      5  C   UNL     1      23.202  10.691  23.285  1.00  0.00     0.000 C 
BRANCH   5   6
ATOM      6  C   UNL     1      22.384  10.793  24.586  1.00  0.00     0.000 C 
BRANCH   6   7
ATOM      7  C   UNL     1      22.248  12.235  25.098  1.00  0.00     0.000 C 
BRANCH   7   8
ATOM      8  C   UNL     1      22.893  13.227  24.120  1.00  0.00     0.000 C 
BRANCH   8   9
ATOM      9  C   UNL     1      23.670  14.349  24.830  1.00  0.00     0.000 C 
BRANCH   9  10
ATOM     10  C   UNL     1      24.374  15.353  23.896  1.00  0.00     0.006 C 
BRANCH  10  11
ATOM     11  C   UNL     1      23.466  16.494  23.400  1.00  0.00     0.053 C 
BRANCH  11  12
ATOM     12  C   UNL     1      23.369  16.546  21.904  1.00  0.00     0.041 C 
ATOM     13  O   UNL     1      24.205  17.209  21.235  1.00  0.00    -0.550 OA
ATOM     14  O   UNL     1      22.379  15.829  21.246  1.00  0.00    -0.550 OA
ENDBRANCH  11  12
ENDBRANCH  10  11
ENDBRANCH   9  10
ENDBRANCH   8   9
ENDBRANCH   7   8
ENDBRANCH   6   7
ENDBRANCH   5   6
ENDBRANCH   4   5
ENDBRANCH   3   4
ENDBRANCH   2   3
ENDBRANCH   1   2
BRANCH   1  15
ATOM     15  C   UNL     1      25.380  12.177  20.636  1.00  0.00     0.000 C 
BRANCH  15  16
ATOM     16  C   UNL     1      26.026  12.665  21.945  1.00  0.00     0.000 C 
BRANCH  16  17
ATOM     17  C   UNL     1      27.001  11.666  22.598  1.00  0.00     0.000 C 
BRANCH  17  18
ATOM     18  C   UNL     1      27.214  10.354  21.816  1.00  0.00    -0.000 C 
BRANCH  18  19
ATOM     19  C   UNL     1      28.103   9.310  22.520  1.00  0.00    -0.000 C 
BRANCH  19  20
ATOM     20  C   UNL     1      29.362   9.876  23.200  1.00  0.00    -0.000 C 
BRANCH  20  21
ATOM     21  C   UNL     1      29.689   9.181  24.533  1.00  0.00    -0.000 C 
BRANCH  21  22
ATOM     22  C   UNL     1      28.422   8.875  25.361  1.00  0.00    -0.000 C 
BRANCH  22  23
ATOM     23  C   UNL     1      27.806  10.113  26.037  1.00  0.00    -0.000 C 
BRANCH  23  24
ATOM     24  C   UNL     1      26.297  10.249  25.773  1.00  0.00    -0.000 C 
BRANCH  24  25
ATOM     25  C   UNL     1      25.705  11.526  26.389  1.00  0.00    -0.003 C 
ATOM     26  C   UNL     1      26.645  12.726  26.281  1.00  0.00     0.004 C 
ENDBRANCH  24  25
ENDBRANCH  23  24
ENDBRANCH  22  23
ENDBRANCH  21  22
ENDBRANCH  20  21
ENDBRANCH  19  20
ENDBRANCH  18  19
ENDBRANCH  17  18
ENDBRANCH  16  17
ENDBRANCH  15  16
ENDBRANCH   1  15
TORSDOF 22
ENDMDL
MODEL 7
REMARK VINA RESULT:    -3.496      2.469      5.716
REMARK INTER + INTRA:         -11.950
REMARK INTER:                  -8.052
REMARK INTRA:                  -3.898
REMARK UNBOUND:                -3.959
REMARK SMILES CCCCCCCCCCCCCCCCCCCCCCCC(=O)[O-]
REMARK SMILES IDX 13 1 14 2 15 3 16 4 17 5 18 6 19 7 20 8 21 9 22 10 23 11
REMARK SMILES IDX 24 12 25 13 26 14 12 15 11 16 10 17 9 18 8 19 7 20 6 21 5 22
REMARK SMILES IDX 4 23 3 24 2 25 1 26
REMARK H PARENT
REMARK Flexibility Score: inf
ROOT
ATOM      1  C   UNL     1      23.689  26.945  21.962  1.00  0.00     0.000 C 
ENDROOT
BRANCH   1   2
ATOM      2  C   UNL     1      22.612  27.526  22.892  1.00  0.00     0.000 C 
BRANCH   2   3
ATOM      3  C   UNL     1      23.004  27.440  24.376  1.00  0.00     0.000 C 
BRANCH   3   4
ATOM      4  C   UNL     1      24.412  26.848  24.539  1.00  0.00     0.000 C 
BRANCH   4   5
ATOM      5  C   UNL     1      24.419  25.524  25.324  1.00  0.00     0.000 C 
BRANCH   5   6
ATOM      6  C   UNL     1      23.094  25.175  26.025  1.00  0.00     0.000 C 
BRANCH   6   7
ATOM      7  C   UNL     1      22.581  23.770  25.677  1.00  0.00     0.000 C 
BRANCH   7   8
ATOM      8  C   UNL     1      22.690  23.505  24.169  1.00  0.00     0.000 C 
BRANCH   8   9
ATOM      9  C   UNL     1      23.594  22.306  23.834  1.00  0.00     0.000 C 
BRANCH   9  10
ATOM     10  C   UNL     1      24.094  21.501  25.050  1.00  0.00     0.006 C 
BRANCH  10  11
ATOM     11  C   UNL     1      23.894  19.980  24.922  1.00  0.00     0.053 C 
BRANCH  11  12
ATOM     12  C   UNL     1      25.024  19.195  25.521  1.00  0.00     0.041 C 
ATOM     13  O   UNL     1      26.198  19.650  25.496  1.00  0.00    -0.550 OA
ATOM     14  O   UNL     1      24.774  17.979  26.143  1.00  0.00    -0.550 OA
ENDBRANCH  11  12
ENDBRANCH  10  11
ENDBRANCH   9  10
ENDBRANCH   8   9
ENDBRANCH   7   8
ENDBRANCH   6   7
ENDBRANCH   5   6
ENDBRANCH   4   5
ENDBRANCH   3   4
ENDBRANCH   2   3
ENDBRANCH   1   2
BRANCH   1  15
ATOM     15  C   UNL     1      23.172  25.761  21.126  1.00  0.00     0.000 C 
BRANCH  15  16
ATOM     16  C   UNL     1      24.220  24.646  20.963  1.00  0.00     0.000 C 
BRANCH  16  17
ATOM     17  C   UNL     1      25.464  24.789  21.861  1.00  0.00     0.000 C 
BRANCH  17  18
ATOM     18  C   UNL     1      26.816  24.641  21.136  1.00  0.00    -0.000 C 
BRANCH  18  19
ATOM     19  C   UNL     1      26.723  24.456  19.609  1.00  0.00    -0.000 C 
BRANCH  19  20
ATOM     20  C   UNL     1      27.272  25.627  18.774  1.00  0.00    -0.000 C 
BRANCH  20  21
ATOM     21  C   UNL     1      26.290  26.807  18.676  1.00  0.00    -0.000 C 
BRANCH  21  22
ATOM     22  C   UNL     1      26.900  28.123  19.205  1.00  0.00    -0.000 C 
BRANCH  22  23
ATOM     23  C   UNL     1      26.767  28.304  20.728  1.00  0.00    -0.000 C 
BRANCH  23  24
ATOM     24  C   UNL     1      28.092  28.080  21.474  1.00  0.00    -0.000 C 
BRANCH  24  25
ATOM     25  C   UNL     1      27.896  27.937  22.992  1.00  0.00    -0.003 C 
ATOM     26  C   UNL     1      29.061  28.512  23.796  1.00  0.00     0.004 C 
ENDBRANCH  24  25
ENDBRANCH  23  24
ENDBRANCH  22  23
ENDBRANCH  21  22
ENDBRANCH  20  21
ENDBRANCH  19  20
ENDBRANCH  18  19
ENDBRANCH  17  18
ENDBRANCH  16  17
ENDBRANCH  15  16
ENDBRANCH   1  15
TORSDOF 22
ENDMDL
MODEL 8
REMARK VINA RESULT:    -3.493      3.307      7.409
REMARK INTER + INTRA:         -11.943
REMARK INTER:                  -8.039
REMARK INTRA:                  -3.904
REMARK UNBOUND:                -3.959
REMARK SMILES CCCCCCCCCCCCCCCCCCCCCCCC(=O)[O-]
REMARK SMILES IDX 13 1 14 2 15 3 16 4 17 5 18 6 19 7 20 8 21 9 22 10 23 11
REMARK SMILES IDX 24 12 25 13 26 14 12 15 11 16 10 17 9 18 8 19 7 20 6 21 5 22
REMARK SMILES IDX 4 23 3 24 2 25 1 26
REMARK H PARENT
REMARK Flexibility Score: inf
ROOT
ATOM      1  C   UNL     1      24.159  20.612  25.683  1.00  0.00     0.000 C 
ENDROOT
BRANCH   1   2
ATOM      2  C   UNL     1      23.915  21.088  24.242  1.00  0.00     0.000 C 
BRANCH   2   3
ATOM      3  C   UNL     1      22.625  21.910  24.102  1.00  0.00     0.000 C 
BRANCH   3   4
ATOM      4  C   UNL     1      22.760  22.956  22.984  1.00  0.00     0.000 C 
BRANCH   4   5
ATOM      5  C   UNL     1      24.072  22.823  22.192  1.00  0.00     0.000 C 
BRANCH   5   6
ATOM      6  C   UNL     1      25.166  23.840  22.569  1.00  0.00     0.000 C 
BRANCH   6   7
ATOM      7  C   UNL     1      25.843  24.476  21.346  1.00  0.00     0.000 C 
BRANCH   7   8
ATOM      8  C   UNL     1      27.064  25.307  21.766  1.00  0.00     0.000 C 
BRANCH   8   9
ATOM      9  C   UNL     1      26.750  26.307  22.891  1.00  0.00     0.000 C 
BRANCH   9  10
ATOM     10  C   UNL     1      27.149  27.768  22.602  1.00  0.00     0.006 C 
BRANCH  10  11
ATOM     11  C   UNL     1      28.035  27.942  21.354  1.00  0.00     0.053 C 
BRANCH  11  12
ATOM     12  C   UNL     1      29.455  28.284  21.697  1.00  0.00     0.041 C 
ATOM     13  O   UNL     1      29.757  28.652  22.863  1.00  0.00    -0.550 OA
ATOM     14  O   UNL     1      30.452  28.156  20.739  1.00  0.00    -0.550 OA
ENDBRANCH  11  12
ENDBRANCH  10  11
ENDBRANCH   9  10
ENDBRANCH   8   9
ENDBRANCH   7   8
ENDBRANCH   6   7
ENDBRANCH   5   6
ENDBRANCH   4   5
ENDBRANCH   3   4
ENDBRANCH   2   3
ENDBRANCH   1   2
BRANCH   1  15
ATOM     15  C   UNL     1      23.006  20.984  26.632  1.00  0.00     0.000 C 
BRANCH  15  16
ATOM     16  C   UNL     1      23.443  21.947  27.750  1.00  0.00     0.000 C 
BRANCH  16  17
ATOM     17  C   UNL     1      22.490  23.134  27.992  1.00  0.00     0.000 C 
BRANCH  17  18
ATOM     18  C   UNL     1      22.651  24.312  27.011  1.00  0.00    -0.000 C 
BRANCH  18  19
ATOM     19  C   UNL     1      24.052  24.458  26.388  1.00  0.00    -0.000 C 
BRANCH  19  20
ATOM     20  C   UNL     1      24.225  25.662  25.444  1.00  0.00    -0.000 C 
BRANCH  20  21
ATOM     21  C   UNL     1      22.909  26.091  24.771  1.00  0.00    -0.000 C 
BRANCH  21  22
ATOM     22  C   UNL     1      22.918  27.580  24.362  1.00  0.00    -0.000 C 
BRANCH  22  23
ATOM     23  C   UNL     1      22.496  27.827  22.903  1.00  0.00    -0.000 C 
BRANCH  23  24
ATOM     24  C   UNL     1      22.916  26.689  21.958  1.00  0.00    -0.000 C 
BRANCH  24  25
ATOM     25  C   UNL     1      23.021  27.147  20.495  1.00  0.00    -0.003 C 
ATOM     26  C   UNL     1      24.418  27.651  20.133  1.00  0.00     0.004 C 
ENDBRANCH  24  25
ENDBRANCH  23  24
ENDBRANCH  22  23
ENDBRANCH  21  22
ENDBRANCH  20  21
ENDBRANCH  19  20
ENDBRANCH  18  19
ENDBRANCH  17  18
ENDBRANCH  16  17
ENDBRANCH  15  16
ENDBRANCH   1  15
TORSDOF 22
ENDMDL
MODEL 9
REMARK VINA RESULT:    -3.477      3.344      6.563
REMARK INTER + INTRA:         -11.908
REMARK INTER:                  -7.798
REMARK INTRA:                  -4.111
REMARK UNBOUND:                -3.959
REMARK SMILES CCCCCCCCCCCCCCCCCCCCCCCC(=O)[O-]
REMARK SMILES IDX 13 1 14 2 15 3 16 4 17 5 18 6 19 7 20 8 21 9 22 10 23 11
REMARK SMILES IDX 24 12 25 13 26 14 12 15 11 16 10 17 9 18 8 19 7 20 6 21 5 22
REMARK SMILES IDX 4 23 3 24 2 25 1 26
REMARK H PARENT
REMARK Flexibility Score: inf
ROOT
ATOM      1  C   UNL     1      27.896  28.194  23.128  1.00  0.00     0.000 C 
ENDROOT
BRANCH   1   2
ATOM      2  C   UNL     1      26.744  27.177  23.093  1.00  0.00     0.000 C 
BRANCH   2   3
ATOM      3  C   UNL     1      27.202  25.779  22.651  1.00  0.00     0.000 C 
BRANCH   3   4
ATOM      4  C   UNL     1      26.000  24.844  22.454  1.00  0.00     0.000 C 
BRANCH   4   5
ATOM      5  C   UNL     1      25.984  24.169  21.071  1.00  0.00     0.000 C 
BRANCH   5   6
ATOM      6  C   UNL     1      24.651  23.499  20.689  1.00  0.00     0.000 C 
BRANCH   6   7
ATOM      7  C   UNL     1      24.809  22.419  19.608  1.00  0.00     0.000 C 
BRANCH   7   8
ATOM      8  C   UNL     1      24.197  22.880  18.278  1.00  0.00     0.000 C 
BRANCH   8   9
ATOM      9  C   UNL     1      25.069  23.912  17.543  1.00  0.00     0.000 C 
BRANCH   9  10
ATOM     10  C   UNL     1      26.564  23.553  17.438  1.00  0.00     0.006 C 
BRANCH  10  11
ATOM     11  C   UNL     1      27.511  24.759  17.583  1.00  0.00     0.053 C 
BRANCH  11  12
ATOM     12  C   UNL     1      27.586  25.589  16.336  1.00  0.00     0.041 C 
ATOM     13  O   UNL     1      27.871  26.814  16.403  1.00  0.00    -0.550 OA
ATOM     14  O   UNL     1      27.380  25.001  15.095  1.00  0.00    -0.550 OA
ENDBRANCH  11  12
ENDBRANCH  10  11
ENDBRANCH   9  10
ENDBRANCH   8   9
ENDBRANCH   7   8
ENDBRANCH   6   7
ENDBRANCH   5   6
ENDBRANCH   4   5
ENDBRANCH   3   4
ENDBRANCH   2   3
ENDBRANCH   1   2
BRANCH   1  15
ATOM     15  C   UNL     1      29.093  27.761  22.263  1.00  0.00     0.000 C 
BRANCH  15  16
ATOM     16  C   UNL     1      29.125  28.469  20.897  1.00  0.00     0.000 C 
BRANCH  16  17
ATOM     17  C   UNL     1      28.327  27.765  19.783  1.00  0.00     0.000 C 
BRANCH  17  18
ATOM     18  C   UNL     1      26.962  28.401  19.453  1.00  0.00    -0.000 C 
BRANCH  18  19
ATOM     19  C   UNL     1      25.757  27.445  19.536  1.00  0.00    -0.000 C 
BRANCH  19  20
ATOM     20  C   UNL     1      24.453  28.080  20.052  1.00  0.00    -0.000 C 
BRANCH  20  21
ATOM     21  C   UNL     1      23.583  27.097  20.854  1.00  0.00    -0.000 C 
BRANCH  21  22
ATOM     22  C   UNL     1      22.605  27.821  21.805  1.00  0.00    -0.000 C 
BRANCH  22  23
ATOM     23  C   UNL     1      22.310  27.048  23.103  1.00  0.00    -0.000 C 
BRANCH  23  24
ATOM     24  C   UNL     1      23.294  27.384  24.235  1.00  0.00    -0.000 C 
BRANCH  24  25
ATOM     25  C   UNL     1      23.332  26.299  25.323  1.00  0.00    -0.003 C 
ATOM     26  C   UNL     1      23.170  24.889  24.757  1.00  0.00     0.004 C 
ENDBRANCH  24  25
ENDBRANCH  23  24
ENDBRANCH  22  23
ENDBRANCH  21  22
ENDBRANCH  20  21
ENDBRANCH  19  20
ENDBRANCH  18  19
ENDBRANCH  17  18
ENDBRANCH  16  17
ENDBRANCH  15  16
ENDBRANCH   1  15
TORSDOF 22
ENDMDL
