MODEL 1
REMARK VINA RESULT:    -4.361      0.000      0.000
REMARK INTER + INTRA:          -8.489
REMARK INTER:                  -7.420
REMARK INTRA:                  -1.069
REMARK UNBOUND:                -1.069
REMARK SMILES CCCCCCCCCCCCCC(=O)[O-]
REMARK SMILES IDX 8 1 9 2 10 3 11 4 12 5 13 6 14 7 15 8 16 9 7 10 6 11 5 12
REMARK SMILES IDX 4 13 3 14 2 15 1 16
REMARK H PARENT
REMARK Flexibility Score: inf
ROOT
ATOM      1  C   UNL     1      15.065  -0.197  41.123  1.00  0.00     0.000 C 
ENDROOT
BRANCH   1   2
ATOM      2  C   UNL     1      15.411   1.207  40.598  1.00  0.00     0.000 C 
BRANCH   2   3
ATOM      3  C   UNL     1      16.911   1.537  40.713  1.00  0.00     0.000 C 
BRANCH   3   4
ATOM      4  C   UNL     1      17.240   2.823  41.493  1.00  0.00     0.000 C 
BRANCH   4   5
ATOM      5  C   UNL     1      16.875   4.101  40.725  1.00  0.00     0.006 C 
BRANCH   5   6
ATOM      6  C   UNL     1      17.106   5.346  41.588  1.00  0.00     0.053 C 
BRANCH   6   7
ATOM      7  C   UNL     1      16.201   6.457  41.159  1.00  0.00     0.041 C 
ATOM      8  O   UNL     1      15.169   6.727  41.829  1.00  0.00    -0.550 OA
ATOM      9  O   UNL     1      16.471   7.163  39.994  1.00  0.00    -0.550 OA
ENDBRANCH   6   7
ENDBRANCH   5   6
ENDBRANCH   4   5
ENDBRANCH   3   4
ENDBRANCH   2   3
ENDBRANCH   1   2
BRANCH   1  10
ATOM     10  C   UNL     1      14.226  -1.009  40.124  1.00  0.00     0.000 C 
BRANCH  10  11
ATOM     11  C   UNL     1      12.727  -0.674  40.198  1.00  0.00    -0.000 C 
BRANCH  11  12
ATOM     12  C   UNL     1      12.334  -0.233  41.616  1.00  0.00    -0.000 C 
BRANCH  12  13
ATOM     13  C   UNL     1      11.046   0.607  41.640  1.00  0.00    -0.000 C 
BRANCH  13  14
ATOM     14  C   UNL     1      11.221   1.979  40.972  1.00  0.00    -0.000 C 
BRANCH  14  15
ATOM     15  C   UNL     1      11.731   3.017  41.979  1.00  0.00    -0.003 C 
ATOM     16  C   UNL     1      12.894   3.819  41.403  1.00  0.00     0.004 C 
ENDBRANCH  14  15
ENDBRANCH  13  14
ENDBRANCH  12  13
ENDBRANCH  11  12
ENDBRANCH  10  11
ENDBRANCH   1  10
TORSDOF 12
ENDMDL
MODEL 2
REMARK VINA RESULT:    -4.313      5.614      7.188
REMARK INTER + INTRA:          -8.409
REMARK INTER:                  -6.459
REMARK INTRA:                  -1.949
REMARK UNBOUND:                -1.069
REMARK SMILES CCCCCCCCCCCCCC(=O)[O-]
REMARK SMILES IDX 8 1 9 2 10 3 11 4 12 5 13 6 14 7 15 8 16 9 7 10 6 11 5 12
REMARK SMILES IDX 4 13 3 14 2 15 1 16
REMARK H PARENT
REMARK Flexibility Score: inf
ROOT
ATOM      1  C   UNL     1       9.920   1.707  40.706  1.00  0.00     0.000 C 
ENDROOT
BRANCH   1   2
ATOM      2  C   UNL     1      11.317   1.097  40.490  1.00  0.00     0.000 C 
BRANCH   2   3
ATOM      3  C   UNL     1      11.746   0.163  41.637  1.00  0.00     0.000 C 
BRANCH   3   4
ATOM      4  C   UNL     1      13.066  -0.595  41.404  1.00  0.00     0.000 C 
BRANCH   4   5
ATOM      5  C   UNL     1      12.993  -1.582  40.231  1.00  0.00     0.006 C 
BRANCH   5   6
ATOM      6  C   UNL     1      14.001  -2.722  40.409  1.00  0.00     0.053 C 
BRANCH   6   7
ATOM      7  C   UNL     1      13.590  -3.916  39.607  1.00  0.00     0.041 C 
ATOM      8  O   UNL     1      14.463  -4.672  39.104  1.00  0.00    -0.550 OA
ATOM      9  O   UNL     1      12.244  -4.167  39.374  1.00  0.00    -0.550 OA
ENDBRANCH   6   7
ENDBRANCH   5   6
ENDBRANCH   4   5
ENDBRANCH   3   4
ENDBRANCH   2   3
ENDBRANCH   1   2
BRANCH   1  10
ATOM     10  C   UNL     1       9.037   1.614  39.451  1.00  0.00     0.000 C 
BRANCH  10  11
ATOM     11  C   UNL     1       9.526   0.546  38.459  1.00  0.00    -0.000 C 
BRANCH  11  12
ATOM     12  C   UNL     1       8.649  -0.712  38.533  1.00  0.00    -0.000 C 
BRANCH  12  13
ATOM     13  C   UNL     1       9.454  -1.979  38.865  1.00  0.00    -0.000 C 
BRANCH  13  14
ATOM     14  C   UNL     1       9.288  -2.421  40.326  1.00  0.00    -0.000 C 
BRANCH  14  15
ATOM     15  C   UNL     1       8.129  -1.674  40.996  1.00  0.00    -0.003 C 
ATOM     16  C   UNL     1       8.455  -1.337  42.448  1.00  0.00     0.004 C 
ENDBRANCH  14  15
ENDBRANCH  13  14
ENDBRANCH  12  13
ENDBRANCH  11  12
ENDBRANCH  10  11
ENDBRANCH   1  10
TORSDOF 12
ENDMDL
MODEL 3
REMARK VINA RESULT:    -4.279      2.516      5.410
REMARK INTER + INTRA:          -8.351
REMARK INTER:                  -7.176
REMARK INTRA:                  -1.175
REMARK UNBOUND:                -1.069
REMARK SMILES CCCCCCCCCCCCCC(=O)[O-]
REMARK SMILES IDX 8 1 9 2 10 3 11 4 12 5 13 6 14 7 15 8 16 9 7 10 6 11 5 12
REMARK SMILES IDX 4 13 3 14 2 15 1 16
REMARK H PARENT
REMARK Flexibility Score: inf
ROOT
ATOM      1  C   UNL     1      15.738   1.419  40.900  1.00  0.00     0.000 C 
ENDROOT
BRANCH   1   2
ATOM      2  C   UNL     1      15.371  -0.075  40.928  1.00  0.00     0.000 C 
BRANCH   2   3
ATOM      3  C   UNL     1      13.920  -0.343  40.486  1.00  0.00     0.000 C 
BRANCH   3   4
ATOM      4  C   UNL     1      12.921  -0.588  41.632  1.00  0.00     0.000 C 
BRANCH   4   5
ATOM      5  C   UNL     1      11.671   0.298  41.539  1.00  0.00     0.006 C 
BRANCH   5   6
ATOM      6  C   UNL     1      12.049   1.754  41.248  1.00  0.00     0.053 C 
BRANCH   6   7
ATOM      7  C   UNL     1      10.888   2.660  41.509  1.00  0.00     0.041 C 
ATOM      8  O   UNL     1      10.401   3.351  40.576  1.00  0.00    -0.550 OA
ATOM      9  O   UNL     1      10.374   2.777  42.795  1.00  0.00    -0.550 OA
ENDBRANCH   6   7
ENDBRANCH   5   6
ENDBRANCH   4   5
ENDBRANCH   3   4
ENDBRANCH   2   3
ENDBRANCH   1   2
BRANCH   1  10
ATOM     10  C   UNL     1      17.219   1.655  40.565  1.00  0.00     0.000 C 
BRANCH  10  11
ATOM     11  C   UNL     1      17.551   3.141  40.357  1.00  0.00    -0.000 C 
BRANCH  11  12
ATOM     12  C   UNL     1      17.692   3.864  41.704  1.00  0.00    -0.000 C 
BRANCH  12  13
ATOM     13  C   UNL     1      16.819   5.127  41.794  1.00  0.00    -0.000 C 
BRANCH  13  14
ATOM     14  C   UNL     1      15.684   5.138  40.758  1.00  0.00    -0.000 C 
BRANCH  14  15
ATOM     15  C   UNL     1      14.341   4.793  41.413  1.00  0.00    -0.003 C 
ATOM     16  C   UNL     1      13.194   5.549  40.750  1.00  0.00     0.004 C 
ENDBRANCH  14  15
ENDBRANCH  13  14
ENDBRANCH  12  13
ENDBRANCH  11  12
ENDBRANCH  10  11
ENDBRANCH   1  10
TORSDOF 12
ENDMDL
MODEL 4
REMARK VINA RESULT:    -4.269      1.379      2.159
REMARK INTER + INTRA:          -8.333
REMARK INTER:                  -7.481
REMARK INTRA:                  -0.852
REMARK UNBOUND:                -1.069
REMARK SMILES CCCCCCCCCCCCCC(=O)[O-]
REMARK SMILES IDX 8 1 9 2 10 3 11 4 12 5 13 6 14 7 15 8 16 9 7 10 6 11 5 12
REMARK SMILES IDX 4 13 3 14 2 15 1 16
REMARK H PARENT
REMARK Flexibility Score: inf
ROOT
ATOM      1  C   UNL     1      15.759   1.546  41.045  1.00  0.00     0.000 C 
ENDROOT
BRANCH   1   2
ATOM      2  C   UNL     1      17.193   1.944  40.652  1.00  0.00     0.000 C 
BRANCH   2   3
ATOM      3  C   UNL     1      17.382   3.469  40.540  1.00  0.00     0.000 C 
BRANCH   3   4
ATOM      4  C   UNL     1      16.095   4.300  40.695  1.00  0.00     0.000 C 
BRANCH   4   5
ATOM      5  C   UNL     1      16.304   5.586  41.507  1.00  0.00     0.006 C 
BRANCH   5   6
ATOM      6  C   UNL     1      16.165   6.826  40.618  1.00  0.00     0.053 C 
BRANCH   6   7
ATOM      7  C   UNL     1      17.346   7.728  40.786  1.00  0.00     0.041 C 
ATOM      8  O   UNL     1      18.064   7.645  41.818  1.00  0.00    -0.550 OA
ATOM      9  O   UNL     1      17.627   8.693  39.827  1.00  0.00    -0.550 OA
ENDBRANCH   6   7
ENDBRANCH   5   6
ENDBRANCH   4   5
ENDBRANCH   3   4
ENDBRANCH   2   3
ENDBRANCH   1   2
BRANCH   1  10
ATOM     10  C   UNL     1      15.268   0.297  40.296  1.00  0.00     0.000 C 
BRANCH  10  11
ATOM     11  C   UNL     1      14.817  -0.825  41.245  1.00  0.00    -0.000 C 
BRANCH  11  12
ATOM     12  C   UNL     1      13.673  -1.640  40.625  1.00  0.00    -0.000 C 
BRANCH  12  13
ATOM     13  C   UNL     1      12.401  -0.805  40.407  1.00  0.00    -0.000 C 
BRANCH  13  14
ATOM     14  C   UNL     1      11.898  -0.142  41.698  1.00  0.00    -0.000 C 
BRANCH  14  15
ATOM     15  C   UNL     1      11.776   1.377  41.522  1.00  0.00    -0.003 C 
ATOM     16  C   UNL     1      11.017   1.724  40.245  1.00  0.00     0.004 C 
ENDBRANCH  14  15
ENDBRANCH  13  14
ENDBRANCH  12  13
ENDBRANCH  11  12
ENDBRANCH  10  11
ENDBRANCH   1  10
TORSDOF 12
ENDMDL
MODEL 5
REMARK VINA RESULT:    -4.256      4.606      6.969
REMARK INTER + INTRA:          -8.311
REMARK INTER:                  -7.294
REMARK INTRA:                  -1.017
REMARK UNBOUND:                -1.069
REMARK SMILES CCCCCCCCCCCCCC(=O)[O-]
REMARK SMILES IDX 8 1 9 2 10 3 11 4 12 5 13 6 14 7 15 8 16 9 7 10 6 11 5 12
REMARK SMILES IDX 4 13 3 14 2 15 1 16
REMARK H PARENT
REMARK Flexibility Score: inf
ROOT
ATOM      1  C   UNL     1      16.329   6.693  41.774  1.00  0.00     0.000 C 
ENDROOT
BRANCH   1   2
ATOM      2  C   UNL     1      17.055   8.029  41.537  1.00  0.00     0.000 C 
BRANCH   2   3
ATOM      3  C   UNL     1      18.330   8.176  42.389  1.00  0.00     0.000 C 
BRANCH   3   4
ATOM      4  C   UNL     1      19.405   7.100  42.149  1.00  0.00     0.000 C 
BRANCH   4   5
ATOM      5  C   UNL     1      20.308   6.870  43.369  1.00  0.00     0.006 C 
BRANCH   5   6
ATOM      6  C   UNL     1      21.592   6.135  42.971  1.00  0.00     0.053 C 
BRANCH   6   7
ATOM      7  C   UNL     1      22.676   6.397  43.968  1.00  0.00     0.041 C 
ATOM      8  O   UNL     1      22.389   6.597  45.178  1.00  0.00    -0.550 OA
ATOM      9  O   UNL     1      24.000   6.467  43.553  1.00  0.00    -0.550 OA
ENDBRANCH   6   7
ENDBRANCH   5   6
ENDBRANCH   4   5
ENDBRANCH   3   4
ENDBRANCH   2   3
ENDBRANCH   1   2
BRANCH   1  10
ATOM     10  C   UNL     1      16.592   5.673  40.655  1.00  0.00     0.000 C 
BRANCH  10  11
ATOM     11  C   UNL     1      16.066   4.269  40.995  1.00  0.00    -0.000 C 
BRANCH  11  12
ATOM     12  C   UNL     1      17.184   3.391  41.573  1.00  0.00    -0.000 C 
BRANCH  12  13
ATOM     13  C   UNL     1      17.656   2.307  40.589  1.00  0.00    -0.000 C 
BRANCH  13  14
ATOM     14  C   UNL     1      19.156   2.407  40.272  1.00  0.00    -0.000 C 
BRANCH  14  15
ATOM     15  C   UNL     1      19.882   3.256  41.322  1.00  0.00    -0.003 C 
ATOM     16  C   UNL     1      21.264   2.687  41.633  1.00  0.00     0.004 C 
ENDBRANCH  14  15
ENDBRANCH  13  14
ENDBRANCH  12  13
ENDBRANCH  11  12
ENDBRANCH  10  11
ENDBRANCH   1  10
TORSDOF 12
ENDMDL
MODEL 6
REMARK VINA RESULT:    -4.253      2.247      4.455
REMARK INTER + INTRA:          -8.306
REMARK INTER:                  -7.544
REMARK INTRA:                  -0.762
REMARK UNBOUND:                -1.069
REMARK SMILES CCCCCCCCCCCCCC(=O)[O-]
REMARK SMILES IDX 8 1 9 2 10 3 11 4 12 5 13 6 14 7 15 8 16 9 7 10 6 11 5 12
REMARK SMILES IDX 4 13 3 14 2 15 1 16
REMARK H PARENT
REMARK Flexibility Score: inf
ROOT
ATOM      1  C   UNL     1      11.385   3.159  42.545  1.00  0.00     0.000 C 
ENDROOT
BRANCH   1   2
ATOM      2  C   UNL     1      12.080   4.037  41.490  1.00  0.00     0.000 C 
BRANCH   2   3
ATOM      3  C   UNL     1      13.421   4.615  41.982  1.00  0.00     0.000 C 
BRANCH   3   4
ATOM      4  C   UNL     1      14.578   4.535  40.970  1.00  0.00     0.000 C 
BRANCH   4   5
ATOM      5  C   UNL     1      15.925   4.192  41.622  1.00  0.00     0.006 C 
BRANCH   5   6
ATOM      6  C   UNL     1      17.028   4.057  40.567  1.00  0.00     0.053 C 
BRANCH   6   7
ATOM      7  C   UNL     1      17.545   2.654  40.526  1.00  0.00     0.041 C 
ATOM      8  O   UNL     1      16.801   1.694  40.859  1.00  0.00    -0.550 OA
ATOM      9  O   UNL     1      18.865   2.410  40.167  1.00  0.00    -0.550 OA
ENDBRANCH   6   7
ENDBRANCH   5   6
ENDBRANCH   4   5
ENDBRANCH   3   4
ENDBRANCH   2   3
ENDBRANCH   1   2
BRANCH   1  10
ATOM     10  C   UNL     1      10.785   1.878  41.941  1.00  0.00     0.000 C 
BRANCH  10  11
ATOM     11  C   UNL     1      11.671   1.270  40.842  1.00  0.00    -0.000 C 
BRANCH  11  12
ATOM     12  C   UNL     1      12.399   0.019  41.355  1.00  0.00    -0.000 C 
BRANCH  12  13
ATOM     13  C   UNL     1      13.820  -0.116  40.784  1.00  0.00    -0.000 C 
BRANCH  13  14
ATOM     14  C   UNL     1      13.956  -1.293  39.805  1.00  0.00    -0.000 C 
BRANCH  14  15
ATOM     15  C   UNL     1      14.076  -2.622  40.560  1.00  0.00    -0.003 C 
ATOM     16  C   UNL     1      13.808  -3.807  39.637  1.00  0.00     0.004 C 
ENDBRANCH  14  15
ENDBRANCH  13  14
ENDBRANCH  12  13
ENDBRANCH  11  12
ENDBRANCH  10  11
ENDBRANCH   1  10
TORSDOF 12
ENDMDL
MODEL 7
REMARK VINA RESULT:    -4.219      4.492      7.505
REMARK INTER + INTRA:          -8.248
REMARK INTER:                  -7.593
REMARK INTRA:                  -0.655
REMARK UNBOUND:                -1.069
REMARK SMILES CCCCCCCCCCCCCC(=O)[O-]
REMARK SMILES IDX 8 1 9 2 10 3 11 4 12 5 13 6 14 7 15 8 16 9 7 10 6 11 5 12
REMARK SMILES IDX 4 13 3 14 2 15 1 16
REMARK H PARENT
REMARK Flexibility Score: inf
ROOT
ATOM      1  C   UNL     1      13.807  -0.920  39.803  1.00  0.00     0.000 C 
ENDROOT
BRANCH   1   2
ATOM      2  C   UNL     1      12.529  -1.096  40.643  1.00  0.00     0.000 C 
BRANCH   2   3
ATOM      3  C   UNL     1      11.558   0.093  40.511  1.00  0.00     0.000 C 
BRANCH   3   4
ATOM      4  C   UNL     1      10.781   0.447  41.791  1.00  0.00     0.000 C 
BRANCH   4   5
ATOM      5  C   UNL     1       9.342   0.904  41.514  1.00  0.00     0.006 C 
BRANCH   5   6
ATOM      6  C   UNL     1       8.584  -0.138  40.685  1.00  0.00     0.053 C 
BRANCH   6   7
ATOM      7  C   UNL     1       8.320  -1.364  41.500  1.00  0.00     0.041 C 
ATOM      8  O   UNL     1       7.673  -1.282  42.577  1.00  0.00    -0.550 OA
ATOM      9  O   UNL     1       8.829  -2.592  41.094  1.00  0.00    -0.550 OA
ENDBRANCH   6   7
ENDBRANCH   5   6
ENDBRANCH   4   5
ENDBRANCH   3   4
ENDBRANCH   2   3
ENDBRANCH   1   2
BRANCH   1  10
ATOM     10  C   UNL     1      15.027  -0.543  40.659  1.00  0.00     0.000 C 
BRANCH  10  11
ATOM     11  C   UNL     1      15.116   0.968  40.930  1.00  0.00    -0.000 C 
BRANCH  11  12
ATOM     12  C   UNL     1      16.570   1.453  40.854  1.00  0.00    -0.000 C 
BRANCH  12  13
ATOM     13  C   UNL     1      16.682   2.937  40.466  1.00  0.00    -0.000 C 
BRANCH  13  14
ATOM     14  C   UNL     1      18.062   3.531  40.784  1.00  0.00    -0.000 C 
BRANCH  14  15
ATOM     15  C   UNL     1      19.179   2.545  40.422  1.00  0.00    -0.003 C 
ATOM     16  C   UNL     1      20.433   2.804  41.251  1.00  0.00     0.004 C 
ENDBRANCH  14  15
ENDBRANCH  13  14
ENDBRANCH  12  13
ENDBRANCH  11  12
ENDBRANCH  10  11
ENDBRANCH   1  10
TORSDOF 12
ENDMDL
MODEL 8
REMARK VINA RESULT:    -4.190      6.167      8.936
REMARK INTER + INTRA:          -8.199
REMARK INTER:                  -6.890
REMARK INTRA:                  -1.309
REMARK UNBOUND:                -1.069
REMARK SMILES CCCCCCCCCCCCCC(=O)[O-]
REMARK SMILES IDX 8 1 9 2 10 3 11 4 12 5 13 6 14 7 15 8 16 9 7 10 6 11 5 12
REMARK SMILES IDX 4 13 3 14 2 15 1 16
REMARK H PARENT
REMARK Flexibility Score: inf
ROOT
ATOM      1  C   UNL     1      10.377  -0.148  39.149  1.00  0.00     0.000 C 
ENDROOT
BRANCH   1   2
ATOM      2  C   UNL     1       9.004  -0.831  39.023  1.00  0.00     0.000 C 
BRANCH   2   3
ATOM      3  C   UNL     1       9.105  -2.366  38.935  1.00  0.00     0.000 C 
BRANCH   3   4
ATOM      4  C   UNL     1      10.402  -2.969  39.503  1.00  0.00     0.000 C 
BRANCH   4   5
ATOM      5  C   UNL     1      10.414  -4.504  39.475  1.00  0.00     0.006 C 
BRANCH   5   6
ATOM      6  C   UNL     1      11.319  -5.026  38.355  1.00  0.00     0.053 C 
BRANCH   6   7
ATOM      7  C   UNL     1      10.532  -5.847  37.384  1.00  0.00     0.041 C 
ATOM      8  O   UNL     1      10.288  -7.058  37.629  1.00  0.00    -0.550 OA
ATOM      9  O   UNL     1      10.108  -5.288  36.184  1.00  0.00    -0.550 OA
ENDBRANCH   6   7
ENDBRANCH   5   6
ENDBRANCH   4   5
ENDBRANCH   3   4
ENDBRANCH   2   3
ENDBRANCH   1   2
BRANCH   1  10
ATOM     10  C   UNL     1      10.306   1.174  39.931  1.00  0.00     0.000 C 
BRANCH  10  11
ATOM     11  C   UNL     1      11.324   1.237  41.081  1.00  0.00    -0.000 C 
BRANCH  11  12
ATOM     12  C   UNL     1      11.821  -0.168  41.451  1.00  0.00    -0.000 C 
BRANCH  12  13
ATOM     13  C   UNL     1      13.346  -0.312  41.316  1.00  0.00    -0.000 C 
BRANCH  13  14
ATOM     14  C   UNL     1      13.779  -0.730  39.903  1.00  0.00    -0.000 C 
BRANCH  14  15
ATOM     15  C   UNL     1      13.972  -2.248  39.816  1.00  0.00    -0.003 C 
ATOM     16  C   UNL     1      14.618  -2.796  41.085  1.00  0.00     0.004 C 
ENDBRANCH  14  15
ENDBRANCH  13  14
ENDBRANCH  12  13
ENDBRANCH  11  12
ENDBRANCH  10  11
ENDBRANCH   1  10
TORSDOF 12
ENDMDL
MODEL 9
REMARK VINA RESULT:    -4.163      3.755      6.927
REMARK INTER + INTRA:          -8.153
REMARK INTER:                  -7.402
REMARK INTRA:                  -0.751
REMARK UNBOUND:                -1.069
REMARK SMILES CCCCCCCCCCCCCC(=O)[O-]
REMARK SMILES IDX 8 1 9 2 10 3 11 4 12 5 13 6 14 7 15 8 16 9 7 10 6 11 5 12
REMARK SMILES IDX 4 13 3 14 2 15 1 16
REMARK H PARENT
REMARK Flexibility Score: inf
ROOT
ATOM      1  C   UNL     1      11.790   4.416  41.129  1.00  0.00     0.000 C 
ENDROOT
BRANCH   1   2
ATOM      2  C   UNL     1      11.336   2.948  41.042  1.00  0.00     0.000 C 
BRANCH   2   3
ATOM      3  C   UNL     1      12.456   1.953  41.399  1.00  0.00     0.000 C 
BRANCH   3   4
ATOM      4  C   UNL     1      12.035   0.472  41.416  1.00  0.00     0.000 C 
BRANCH   4   5
ATOM      5  C   UNL     1      13.229  -0.493  41.418  1.00  0.00     0.006 C 
BRANCH   5   6
ATOM      6  C   UNL     1      13.311  -1.268  40.099  1.00  0.00     0.053 C 
BRANCH   6   7
ATOM      7  C   UNL     1      14.033  -2.563  40.295  1.00  0.00     0.041 C 
ATOM      8  O   UNL     1      13.720  -3.573  39.611  1.00  0.00    -0.550 OA
ATOM      9  O   UNL     1      15.019  -2.669  41.268  1.00  0.00    -0.550 OA
ENDBRANCH   6   7
ENDBRANCH   5   6
ENDBRANCH   4   5
ENDBRANCH   3   4
ENDBRANCH   2   3
ENDBRANCH   1   2
BRANCH   1  10
ATOM     10  C   UNL     1      13.225   4.558  41.660  1.00  0.00     0.000 C 
BRANCH  10  11
ATOM     11  C   UNL     1      14.023   5.650  40.929  1.00  0.00    -0.000 C 
BRANCH  11  12
ATOM     12  C   UNL     1      15.517   5.300  40.886  1.00  0.00    -0.000 C 
BRANCH  12  13
ATOM     13  C   UNL     1      15.780   3.797  41.081  1.00  0.00    -0.000 C 
BRANCH  13  14
ATOM     14  C   UNL     1      16.991   3.299  40.277  1.00  0.00    -0.000 C 
BRANCH  14  15
ATOM     15  C   UNL     1      17.866   2.369  41.126  1.00  0.00    -0.003 C 
ATOM     16  C   UNL     1      19.310   2.860  41.172  1.00  0.00     0.004 C 
ENDBRANCH  14  15
ENDBRANCH  13  14
ENDBRANCH  12  13
ENDBRANCH  11  12
ENDBRANCH  10  11
ENDBRANCH   1  10
TORSDOF 12
ENDMDL
