MODEL 1
REMARK VINA RESULT:    -7.097      0.000      0.000
REMARK INTER + INTRA:          -8.330
REMARK INTER:                  -8.549
REMARK INTRA:                   0.219
REMARK UNBOUND:                 0.219
REMARK SMILES O=c1c(O)c(-c2ccc(O)c(O)c2)oc2cc(O)cc(O)c12
REMARK SMILES IDX 5 1 3 2 2 3 1 4 22 5 20 6 19 7 17 8 16 9 15 10 14 11 6 12
REMARK SMILES IDX 7 13 8 14 9 15 13 16 11 17 10 18 12 20 4 22 21 24 18 26
REMARK H PARENT 10 19 12 21 4 23 21 25 18 27
REMARK Flexibility Score: inf
ROOT
ATOM      1  C   UNL     1      86.065  98.591  86.822  1.00  0.00     0.180 A 
ATOM      2  C   UNL     1      86.898  98.438  87.944  1.00  0.00     0.208 A 
ATOM      3  C   UNL     1      88.227  98.026  87.754  1.00  0.00     0.238 A 
ATOM      4  O   UNL     1      88.982  97.943  88.757  1.00  0.00    -0.285 OA
ATOM      5  C   UNL     1      88.700  97.755  86.448  1.00  0.00     0.111 A 
ATOM      6  C   UNL     1      90.015  97.291  86.143  1.00  0.00     0.134 A 
ATOM      7  C   UNL     1      90.416  97.181  84.806  1.00  0.00     0.093 A 
ATOM      8  C   UNL     1      89.528  97.454  83.763  1.00  0.00     0.123 A 
ATOM      9  C   UNL     1      88.224  97.850  84.052  1.00  0.00     0.094 A 
ATOM     10  C   UNL     1      87.806  98.004  85.375  1.00  0.00     0.146 A 
ATOM     11  O   UNL     1      86.558  98.392  85.605  1.00  0.00    -0.452 OA
ENDROOT
BRANCH   1  12
ATOM     12  C   UNL     1      84.646  98.999  86.943  1.00  0.00     0.025 A 
ATOM     13  C   UNL     1      84.041  99.715  85.898  1.00  0.00     0.016 A 
ATOM     14  C   UNL     1      82.699 100.092  85.983  1.00  0.00     0.051 A 
ATOM     15  C   UNL     1      81.937  99.745  87.106  1.00  0.00     0.157 A 
ATOM     16  C   UNL     1      83.872  98.636  88.061  1.00  0.00     0.062 A 
ATOM     17  C   UNL     1      82.527  99.010  88.147  1.00  0.00     0.158 A 
BRANCH  15  18
ATOM     18  O   UNL     1      80.597 100.125  87.188  1.00  0.00    -0.504 OA
ATOM     19  H   UNL     1      80.327 101.053  87.490  1.00  0.00     0.293 HD
ENDBRANCH  15  18
BRANCH  17  20
ATOM     20  O   UNL     1      81.791  98.637  89.272  1.00  0.00    -0.504 OA
ATOM     21  H   UNL     1      82.229  98.463  90.168  1.00  0.00     0.293 HD
ENDBRANCH  17  20
ENDBRANCH   1  12
BRANCH   2  22
ATOM     22  O   UNL     1      86.416  98.733  89.222  1.00  0.00    -0.502 OA
ATOM     23  H   UNL     1      85.749  99.475  89.395  1.00  0.00     0.293 HD
ENDBRANCH   2  22
BRANCH   6  24
ATOM     24  O   UNL     1      90.950  96.903  87.109  1.00  0.00    -0.507 OA
ATOM     25  H   UNL     1      90.968  96.001  87.560  1.00  0.00     0.293 HD
ENDBRANCH   6  24
BRANCH   8  26
ATOM     26  O   UNL     1      89.930  97.327  82.436  1.00  0.00    -0.508 OA
ATOM     27  H   UNL     1      89.557  97.927  81.709  1.00  0.00     0.293 HD
ENDBRANCH   8  26
TORSDOF 6
ENDMDL
MODEL 2
REMARK VINA RESULT:    -7.053      2.926      6.783
REMARK INTER + INTRA:          -8.277
REMARK INTER:                  -8.648
REMARK INTRA:                   0.370
REMARK UNBOUND:                 0.219
REMARK SMILES O=c1c(O)c(-c2ccc(O)c(O)c2)oc2cc(O)cc(O)c12
REMARK SMILES IDX 5 1 3 2 2 3 1 4 22 5 20 6 19 7 17 8 16 9 15 10 14 11 6 12
REMARK SMILES IDX 7 13 8 14 9 15 13 16 11 17 10 18 12 20 4 22 21 24 18 26
REMARK H PARENT 10 19 12 21 4 23 21 25 18 27
REMARK Flexibility Score: inf
ROOT
ATOM      1  C   UNL     1      87.049  97.946  89.464  1.00  0.00     0.180 A 
ATOM      2  C   UNL     1      87.813  98.493  88.418  1.00  0.00     0.208 A 
ATOM      3  C   UNL     1      87.153  99.100  87.338  1.00  0.00     0.238 A 
ATOM      4  O   UNL     1      87.843  99.635  86.432  1.00  0.00    -0.285 OA
ATOM      5  C   UNL     1      85.738  99.137  87.307  1.00  0.00     0.111 A 
ATOM      6  C   UNL     1      84.964  99.689  86.243  1.00  0.00     0.134 A 
ATOM      7  C   UNL     1      83.575  99.789  86.379  1.00  0.00     0.093 A 
ATOM      8  C   UNL     1      82.924  99.296  87.514  1.00  0.00     0.123 A 
ATOM      9  C   UNL     1      83.666  98.702  88.531  1.00  0.00     0.094 A 
ATOM     10  C   UNL     1      85.057  98.621  88.441  1.00  0.00     0.146 A 
ATOM     11  O   UNL     1      85.726  98.055  89.438  1.00  0.00    -0.452 OA
ENDROOT
BRANCH   1  12
ATOM     12  C   UNL     1      87.673  97.269  90.624  1.00  0.00     0.025 A 
ATOM     13  C   UNL     1      86.935  96.318  91.346  1.00  0.00     0.016 A 
ATOM     14  C   UNL     1      87.510  95.652  92.432  1.00  0.00     0.051 A 
ATOM     15  C   UNL     1      88.835  95.915  92.801  1.00  0.00     0.157 A 
ATOM     16  C   UNL     1      89.009  97.516  90.986  1.00  0.00     0.062 A 
ATOM     17  C   UNL     1      89.588  96.849  92.071  1.00  0.00     0.158 A 
BRANCH  15  18
ATOM     18  O   UNL     1      89.405  95.250  93.887  1.00  0.00    -0.504 OA
ATOM     19  H   UNL     1      90.409  95.204  94.013  1.00  0.00     0.293 HD
ENDBRANCH  15  18
BRANCH  17  20
ATOM     20  O   UNL     1      90.914  97.123  92.405  1.00  0.00    -0.504 OA
ATOM     21  H   UNL     1      91.161  97.719  93.186  1.00  0.00     0.293 HD
ENDBRANCH  17  20
ENDBRANCH   1  12
BRANCH   2  22
ATOM     22  O   UNL     1      89.209  98.466  88.478  1.00  0.00    -0.502 OA
ATOM     23  H   UNL     1      89.790  98.404  87.650  1.00  0.00     0.293 HD
ENDBRANCH   2  22
BRANCH   6  24
ATOM     24  O   UNL     1      85.506 100.125  85.029  1.00  0.00    -0.507 OA
ATOM     25  H   UNL     1      84.999 100.174  84.159  1.00  0.00     0.293 HD
ENDBRANCH   6  24
BRANCH   8  26
ATOM     26  O   UNL     1      81.540  99.386  87.634  1.00  0.00    -0.508 OA
ATOM     27  H   UNL     1      81.021  98.773  88.252  1.00  0.00     0.293 HD
ENDBRANCH   8  26
TORSDOF 6
ENDMDL
MODEL 3
REMARK VINA RESULT:    -6.911      9.693     11.528
REMARK INTER + INTRA:          -8.106
REMARK INTER:                  -8.197
REMARK INTRA:                   0.091
REMARK UNBOUND:                 0.219
REMARK SMILES O=c1c(O)c(-c2ccc(O)c(O)c2)oc2cc(O)cc(O)c12
REMARK SMILES IDX 5 1 3 2 2 3 1 4 22 5 20 6 19 7 17 8 16 9 15 10 14 11 6 12
REMARK SMILES IDX 7 13 8 14 9 15 13 16 11 17 10 18 12 20 4 22 21 24 18 26
REMARK H PARENT 10 19 12 21 4 23 21 25 18 27
REMARK Flexibility Score: inf
ROOT
ATOM      1  C   UNL     1      82.510  90.280  89.732  1.00  0.00     0.180 A 
ATOM      2  C   UNL     1      82.157  91.040  88.603  1.00  0.00     0.208 A 
ATOM      3  C   UNL     1      81.425  90.430  87.573  1.00  0.00     0.238 A 
ATOM      4  O   UNL     1      81.066  91.130  86.590  1.00  0.00    -0.285 OA
ATOM      5  C   UNL     1      81.069  89.064  87.675  1.00  0.00     0.111 A 
ATOM      6  C   UNL     1      80.364  88.332  86.673  1.00  0.00     0.134 A 
ATOM      7  C   UNL     1      79.952  87.021  86.936  1.00  0.00     0.093 A 
ATOM      8  C   UNL     1      80.276  86.392  88.141  1.00  0.00     0.123 A 
ATOM      9  C   UNL     1      81.016  87.078  89.101  1.00  0.00     0.094 A 
ATOM     10  C   UNL     1      81.410  88.400  88.882  1.00  0.00     0.146 A 
ATOM     11  O   UNL     1      82.105  89.019  89.828  1.00  0.00    -0.452 OA
ENDROOT
BRANCH   1  12
ATOM     12  C   UNL     1      83.302  90.847  90.848  1.00  0.00     0.025 A 
ATOM     13  C   UNL     1      82.939  92.089  91.392  1.00  0.00     0.016 A 
ATOM     14  C   UNL     1      83.659  92.632  92.458  1.00  0.00     0.051 A 
ATOM     15  C   UNL     1      84.744  91.936  93.006  1.00  0.00     0.157 A 
ATOM     16  C   UNL     1      84.380  90.142  91.413  1.00  0.00     0.062 A 
ATOM     17  C   UNL     1      85.102  90.683  92.482  1.00  0.00     0.158 A 
BRANCH  15  18
ATOM     18  O   UNL     1      85.463  92.483  94.068  1.00  0.00    -0.504 OA
ATOM     19  H   UNL     1      86.475  92.458  94.092  1.00  0.00     0.293 HD
ENDBRANCH  15  18
BRANCH  17  20
ATOM     20  O   UNL     1      86.169  89.958  93.015  1.00  0.00    -0.504 OA
ATOM     21  H   UNL     1      87.119  90.076  92.684  1.00  0.00     0.293 HD
ENDBRANCH  17  20
ENDBRANCH   1  12
BRANCH   2  22
ATOM     22  O   UNL     1      82.499  92.394  88.533  1.00  0.00    -0.502 OA
ATOM     23  H   UNL     1      81.906  93.126  88.906  1.00  0.00     0.293 HD
ENDBRANCH   2  22
BRANCH   6  24
ATOM     24  O   UNL     1      80.070  88.835  85.401  1.00  0.00    -0.507 OA
ATOM     25  H   UNL     1      80.714  89.359  84.828  1.00  0.00     0.293 HD
ENDBRANCH   6  24
BRANCH   8  26
ATOM     26  O   UNL     1      79.875  85.081  88.389  1.00  0.00    -0.508 OA
ATOM     27  H   UNL     1      80.379  84.291  88.005  1.00  0.00     0.293 HD
ENDBRANCH   8  26
TORSDOF 6
ENDMDL
MODEL 4
REMARK VINA RESULT:    -6.890      3.445      6.609
REMARK INTER + INTRA:          -8.081
REMARK INTER:                  -7.790
REMARK INTRA:                  -0.291
REMARK UNBOUND:                 0.219
REMARK SMILES O=c1c(O)c(-c2ccc(O)c(O)c2)oc2cc(O)cc(O)c12
REMARK SMILES IDX 5 1 3 2 2 3 1 4 22 5 20 6 19 7 17 8 16 9 15 10 14 11 6 12
REMARK SMILES IDX 7 13 8 14 9 15 13 16 11 17 10 18 12 20 4 22 21 24 18 26
REMARK H PARENT 10 19 12 21 4 23 21 25 18 27
REMARK Flexibility Score: inf
ROOT
ATOM      1  C   UNL     1      86.045  96.919  89.424  1.00  0.00     0.180 A 
ATOM      2  C   UNL     1      87.025  97.429  88.556  1.00  0.00     0.208 A 
ATOM      3  C   UNL     1      86.640  98.323  87.544  1.00  0.00     0.238 A 
ATOM      4  O   UNL     1      87.529  98.819  86.805  1.00  0.00    -0.285 OA
ATOM      5  C   UNL     1      85.277  98.681  87.402  1.00  0.00     0.111 A 
ATOM      6  C   UNL     1      84.768  99.545  86.387  1.00  0.00     0.134 A 
ATOM      7  C   UNL     1      83.424  99.934  86.421  1.00  0.00     0.093 A 
ATOM      8  C   UNL     1      82.554  99.436  87.395  1.00  0.00     0.123 A 
ATOM      9  C   UNL     1      83.029  98.545  88.354  1.00  0.00     0.094 A 
ATOM     10  C   UNL     1      84.374  98.168  88.368  1.00  0.00     0.146 A 
ATOM     11  O   UNL     1      84.786  97.324  89.306  1.00  0.00    -0.452 OA
ENDROOT
BRANCH   1  12
ATOM     12  C   UNL     1      86.370  95.953  90.500  1.00  0.00     0.025 A 
ATOM     13  C   UNL     1      86.159  94.582  90.284  1.00  0.00     0.016 A 
ATOM     14  C   UNL     1      86.478  93.652  91.276  1.00  0.00     0.051 A 
ATOM     15  C   UNL     1      87.027  94.077  92.493  1.00  0.00     0.157 A 
ATOM     16  C   UNL     1      86.940  96.374  91.715  1.00  0.00     0.062 A 
ATOM     17  C   UNL     1      87.262  95.444  92.710  1.00  0.00     0.158 A 
BRANCH  15  18
ATOM     18  O   UNL     1      87.342  93.146  93.482  1.00  0.00    -0.504 OA
ATOM     19  H   UNL     1      86.796  92.302  93.609  1.00  0.00     0.293 HD
ENDBRANCH  15  18
BRANCH  17  20
ATOM     20  O   UNL     1      87.821  95.897  93.905  1.00  0.00    -0.504 OA
ATOM     21  H   UNL     1      87.434  95.651  94.808  1.00  0.00     0.293 HD
ENDBRANCH  17  20
ENDBRANCH   1  12
BRANCH   2  22
ATOM     22  O   UNL     1      88.367  97.080  88.728  1.00  0.00    -0.502 OA
ATOM     23  H   UNL     1      88.661  96.137  88.954  1.00  0.00     0.293 HD
ENDBRANCH   2  22
BRANCH   6  24
ATOM     24  O   UNL     1      85.530 100.025  85.316  1.00  0.00    -0.507 OA
ATOM     25  H   UNL     1      85.559  99.606  84.399  1.00  0.00     0.293 HD
ENDBRANCH   6  24
BRANCH   8  26
ATOM     26  O   UNL     1      81.215  99.816  87.412  1.00  0.00    -0.508 OA
ATOM     27  H   UNL     1      80.558  99.413  88.071  1.00  0.00     0.293 HD
ENDBRANCH   8  26
TORSDOF 6
ENDMDL
MODEL 5
REMARK VINA RESULT:    -6.849      3.167      7.061
REMARK INTER + INTRA:          -8.031
REMARK INTER:                  -7.927
REMARK INTRA:                  -0.104
REMARK UNBOUND:                 0.219
REMARK SMILES O=c1c(O)c(-c2ccc(O)c(O)c2)oc2cc(O)cc(O)c12
REMARK SMILES IDX 5 1 3 2 2 3 1 4 22 5 20 6 19 7 17 8 16 9 15 10 14 11 6 12
REMARK SMILES IDX 7 13 8 14 9 15 13 16 11 17 10 18 12 20 4 22 21 24 18 26
REMARK H PARENT 10 19 12 21 4 23 21 25 18 27
REMARK Flexibility Score: inf
ROOT
ATOM      1  C   UNL     1      87.676  97.878  89.723  1.00  0.00     0.180 A 
ATOM      2  C   UNL     1      88.204  98.073  88.435  1.00  0.00     0.208 A 
ATOM      3  C   UNL     1      87.372  98.592  87.430  1.00  0.00     0.238 A 
ATOM      4  O   UNL     1      87.865  98.816  86.294  1.00  0.00    -0.285 OA
ATOM      5  C   UNL     1      86.020  98.893  87.720  1.00  0.00     0.111 A 
ATOM      6  C   UNL     1      85.076  99.384  86.769  1.00  0.00     0.134 A 
ATOM      7  C   UNL     1      83.801  99.770  87.197  1.00  0.00     0.093 A 
ATOM      8  C   UNL     1      83.412  99.622  88.531  1.00  0.00     0.123 A 
ATOM      9  C   UNL     1      84.307  99.087  89.455  1.00  0.00     0.094 A 
ATOM     10  C   UNL     1      85.599  98.727  89.065  1.00  0.00     0.146 A 
ATOM     11  O   UNL     1      86.422  98.231  89.981  1.00  0.00    -0.452 OA
ENDROOT
BRANCH   1  12
ATOM     12  C   UNL     1      88.483  97.311  90.829  1.00  0.00     0.025 A 
ATOM     13  C   UNL     1      89.626  97.997  91.271  1.00  0.00     0.016 A 
ATOM     14  C   UNL     1      90.391  97.492  92.325  1.00  0.00     0.051 A 
ATOM     15  C   UNL     1      90.016  96.302  92.963  1.00  0.00     0.157 A 
ATOM     16  C   UNL     1      88.099  96.128  91.485  1.00  0.00     0.062 A 
ATOM     17  C   UNL     1      88.862  95.620  92.542  1.00  0.00     0.158 A 
BRANCH  15  18
ATOM     18  O   UNL     1      90.783  95.799  94.014  1.00  0.00    -0.504 OA
ATOM     19  H   UNL     1      90.944  96.336  94.857  1.00  0.00     0.293 HD
ENDBRANCH  15  18
BRANCH  17  20
ATOM     20  O   UNL     1      88.455  94.441  93.166  1.00  0.00    -0.504 OA
ATOM     21  H   UNL     1      88.163  93.627  92.641  1.00  0.00     0.293 HD
ENDBRANCH  17  20
ENDBRANCH   1  12
BRANCH   2  22
ATOM     22  O   UNL     1      89.547  97.791  88.176  1.00  0.00    -0.502 OA
ATOM     23  H   UNL     1      90.285  98.469  88.323  1.00  0.00     0.293 HD
ENDBRANCH   2  22
BRANCH   6  24
ATOM     24  O   UNL     1      85.332  99.485  85.397  1.00  0.00    -0.507 OA
ATOM     25  H   UNL     1      85.643 100.324  84.932  1.00  0.00     0.293 HD
ENDBRANCH   6  24
BRANCH   8  26
ATOM     26  O   UNL     1      82.136  99.994  88.945  1.00  0.00    -0.508 OA
ATOM     27  H   UNL     1      81.325  99.421  88.745  1.00  0.00     0.293 HD
ENDBRANCH   8  26
TORSDOF 6
ENDMDL
MODEL 6
REMARK VINA RESULT:    -6.710      1.585      3.422
REMARK INTER + INTRA:          -7.864
REMARK INTER:                  -8.173
REMARK INTRA:                   0.309
REMARK UNBOUND:                 0.219
REMARK SMILES O=c1c(O)c(-c2ccc(O)c(O)c2)oc2cc(O)cc(O)c12
REMARK SMILES IDX 5 1 3 2 2 3 1 4 22 5 20 6 19 7 17 8 16 9 15 10 14 11 6 12
REMARK SMILES IDX 7 13 8 14 9 15 13 16 11 17 10 18 12 20 4 22 21 24 18 26
REMARK H PARENT 10 19 12 21 4 23 21 25 18 27
REMARK Flexibility Score: inf
ROOT
ATOM      1  C   UNL     1      86.238  98.413  87.556  1.00  0.00     0.180 A 
ATOM      2  C   UNL     1      86.999  98.111  86.413  1.00  0.00     0.208 A 
ATOM      3  C   UNL     1      88.341  97.729  86.570  1.00  0.00     0.238 A 
ATOM      4  O   UNL     1      89.001  97.407  85.547  1.00  0.00    -0.285 OA
ATOM      5  C   UNL     1      88.910  97.670  87.864  1.00  0.00     0.111 A 
ATOM      6  C   UNL     1      90.270  97.336  88.137  1.00  0.00     0.134 A 
ATOM      7  C   UNL     1      90.691  97.182  89.464  1.00  0.00     0.093 A 
ATOM      8  C   UNL     1      89.817  97.414  90.528  1.00  0.00     0.123 A 
ATOM      9  C   UNL     1      88.503  97.799  90.272  1.00  0.00     0.094 A 
ATOM     10  C   UNL     1      88.044  97.926  88.959  1.00  0.00     0.146 A 
ATOM     11  O   UNL     1      86.782  98.286  88.761  1.00  0.00    -0.452 OA
ENDROOT
BRANCH   1  12
ATOM     12  C   UNL     1      84.825  98.847  87.470  1.00  0.00     0.025 A 
ATOM     13  C   UNL     1      84.384  99.542  86.333  1.00  0.00     0.016 A 
ATOM     14  C   UNL     1      83.050  99.944  86.221  1.00  0.00     0.051 A 
ATOM     15  C   UNL     1      82.134  99.642  87.237  1.00  0.00     0.157 A 
ATOM     16  C   UNL     1      83.898  98.528  88.478  1.00  0.00     0.062 A 
ATOM     17  C   UNL     1      82.561  98.927  88.368  1.00  0.00     0.158 A 
BRANCH  15  18
ATOM     18  O   UNL     1      80.804 100.046  87.124  1.00  0.00    -0.504 OA
ATOM     19  H   UNL     1      80.117  99.479  86.641  1.00  0.00     0.293 HD
ENDBRANCH  15  18
BRANCH  17  20
ATOM     20  O   UNL     1      81.670  98.599  89.390  1.00  0.00    -0.504 OA
ATOM     21  H   UNL     1      81.897  97.918  90.105  1.00  0.00     0.293 HD
ENDBRANCH  17  20
ENDBRANCH   1  12
BRANCH   2  22
ATOM     22  O   UNL     1      86.411  98.153  85.146  1.00  0.00    -0.502 OA
ATOM     23  H   UNL     1      85.495  97.764  84.957  1.00  0.00     0.293 HD
ENDBRANCH   2  22
BRANCH   6  24
ATOM     24  O   UNL     1      91.247  97.173  87.150  1.00  0.00    -0.507 OA
ATOM     25  H   UNL     1      92.128  97.662  87.127  1.00  0.00     0.293 HD
ENDBRANCH   6  24
BRANCH   8  26
ATOM     26  O   UNL     1      90.248  97.273  91.845  1.00  0.00    -0.508 OA
ATOM     27  H   UNL     1      91.057  96.712  92.081  1.00  0.00     0.293 HD
ENDBRANCH   8  26
TORSDOF 6
ENDMDL
MODEL 7
REMARK VINA RESULT:    -6.656      2.942      4.895
REMARK INTER + INTRA:          -7.799
REMARK INTER:                  -8.044
REMARK INTRA:                   0.245
REMARK UNBOUND:                 0.219
REMARK SMILES O=c1c(O)c(-c2ccc(O)c(O)c2)oc2cc(O)cc(O)c12
REMARK SMILES IDX 5 1 3 2 2 3 1 4 22 5 20 6 19 7 17 8 16 9 15 10 14 11 6 12
REMARK SMILES IDX 7 13 8 14 9 15 13 16 11 17 10 18 12 20 4 22 21 24 18 26
REMARK H PARENT 10 19 12 21 4 23 21 25 18 27
REMARK Flexibility Score: inf
ROOT
ATOM      1  C   UNL     1      85.990  98.183  89.344  1.00  0.00     0.180 A 
ATOM      2  C   UNL     1      87.217  98.560  88.773  1.00  0.00     0.208 A 
ATOM      3  C   UNL     1      88.409  98.079  89.340  1.00  0.00     0.238 A 
ATOM      4  O   UNL     1      89.501  98.376  88.792  1.00  0.00    -0.285 OA
ATOM      5  C   UNL     1      88.358  97.244  90.482  1.00  0.00     0.111 A 
ATOM      6  C   UNL     1      89.503  96.733  91.164  1.00  0.00     0.134 A 
ATOM      7  C   UNL     1      89.333  95.810  92.203  1.00  0.00     0.093 A 
ATOM      8  C   UNL     1      88.058  95.430  92.628  1.00  0.00     0.123 A 
ATOM      9  C   UNL     1      86.934  95.969  92.007  1.00  0.00     0.094 A 
ATOM     10  C   UNL     1      87.071  96.864  90.944  1.00  0.00     0.146 A 
ATOM     11  O   UNL     1      85.973  97.346  90.375  1.00  0.00    -0.452 OA
ENDROOT
BRANCH   1  12
ATOM     12  C   UNL     1      84.693  98.669  88.817  1.00  0.00     0.025 A 
ATOM     13  C   UNL     1      83.643  98.939  89.709  1.00  0.00     0.016 A 
ATOM     14  C   UNL     1      82.418  99.417  89.236  1.00  0.00     0.051 A 
ATOM     15  C   UNL     1      82.231  99.647  87.867  1.00  0.00     0.157 A 
ATOM     16  C   UNL     1      84.508  98.920  87.446  1.00  0.00     0.062 A 
ATOM     17  C   UNL     1      83.283  99.401  86.970  1.00  0.00     0.158 A 
BRANCH  15  18
ATOM     18  O   UNL     1      81.006 100.122  87.398  1.00  0.00    -0.504 OA
ATOM     19  H   UNL     1      80.795 101.112  87.376  1.00  0.00     0.293 HD
ENDBRANCH  15  18
BRANCH  17  20
ATOM     20  O   UNL     1      83.132  99.634  85.603  1.00  0.00    -0.504 OA
ATOM     21  H   UNL     1      83.065  98.878  84.932  1.00  0.00     0.293 HD
ENDBRANCH  17  20
ENDBRANCH   1  12
BRANCH   2  22
ATOM     22  O   UNL     1      87.244  99.367  87.633  1.00  0.00    -0.502 OA
ATOM     23  H   UNL     1      86.410  99.584  87.099  1.00  0.00     0.293 HD
ENDBRANCH   2  22
BRANCH   6  24
ATOM     24  O   UNL     1      90.817  97.119  90.880  1.00  0.00    -0.507 OA
ATOM     25  H   UNL     1      91.577  97.098  91.542  1.00  0.00     0.293 HD
ENDBRANCH   6  24
BRANCH   8  26
ATOM     26  O   UNL     1      87.898  94.523  93.672  1.00  0.00    -0.508 OA
ATOM     27  H   UNL     1      88.676  94.253  94.263  1.00  0.00     0.293 HD
ENDBRANCH   8  26
TORSDOF 6
ENDMDL
MODEL 8
REMARK VINA RESULT:    -6.287     11.072     12.616
REMARK INTER + INTRA:          -7.355
REMARK INTER:                  -7.075
REMARK INTRA:                  -0.280
REMARK UNBOUND:                 0.219
REMARK SMILES O=c1c(O)c(-c2ccc(O)c(O)c2)oc2cc(O)cc(O)c12
REMARK SMILES IDX 5 1 3 2 2 3 1 4 22 5 20 6 19 7 17 8 16 9 15 10 14 11 6 12
REMARK SMILES IDX 7 13 8 14 9 15 13 16 11 17 10 18 12 20 4 22 21 24 18 26
REMARK H PARENT 10 19 12 21 4 23 21 25 18 27
REMARK Flexibility Score: inf
ROOT
ATOM      1  C   UNL     1      96.881  94.182  89.934  1.00  0.00     0.180 A 
ATOM      2  C   UNL     1      97.478  93.898  88.694  1.00  0.00     0.208 A 
ATOM      3  C   UNL     1      97.704  94.948  87.790  1.00  0.00     0.238 A 
ATOM      4  O   UNL     1      98.288  94.696  86.705  1.00  0.00    -0.285 OA
ATOM      5  C   UNL     1      97.314  96.266  88.130  1.00  0.00     0.111 A 
ATOM      6  C   UNL     1      97.456  97.399  87.275  1.00  0.00     0.134 A 
ATOM      7  C   UNL     1      97.156  98.676  87.764  1.00  0.00     0.093 A 
ATOM      8  C   UNL     1      96.656  98.853  89.057  1.00  0.00     0.123 A 
ATOM      9  C   UNL     1      96.457  97.746  89.878  1.00  0.00     0.094 A 
ATOM     10  C   UNL     1      96.782  96.463  89.431  1.00  0.00     0.146 A 
ATOM     11  O   UNL     1      96.586  95.437  90.250  1.00  0.00    -0.452 OA
ENDROOT
BRANCH   1  12
ATOM     12  C   UNL     1      96.588  93.124  90.929  1.00  0.00     0.025 A 
ATOM     13  C   UNL     1      97.364  93.040  92.096  1.00  0.00     0.016 A 
ATOM     14  C   UNL     1      97.093  92.063  93.057  1.00  0.00     0.051 A 
ATOM     15  C   UNL     1      96.033  91.166  92.873  1.00  0.00     0.157 A 
ATOM     16  C   UNL     1      95.513  92.234  90.757  1.00  0.00     0.062 A 
ATOM     17  C   UNL     1      95.237  91.256  91.719  1.00  0.00     0.158 A 
BRANCH  15  18
ATOM     18  O   UNL     1      95.766  90.190  93.834  1.00  0.00    -0.504 OA
ATOM     19  H   UNL     1      94.883  90.159  94.327  1.00  0.00     0.293 HD
ENDBRANCH  15  18
BRANCH  17  20
ATOM     20  O   UNL     1      94.166  90.386  91.514  1.00  0.00    -0.504 OA
ATOM     21  H   UNL     1      93.203  90.696  91.566  1.00  0.00     0.293 HD
ENDBRANCH  17  20
ENDBRANCH   1  12
BRANCH   2  22
ATOM     22  O   UNL     1      97.876  92.593  88.388  1.00  0.00    -0.502 OA
ATOM     23  H   UNL     1      98.729  92.389  87.880  1.00  0.00     0.293 HD
ENDBRANCH   2  22
BRANCH   6  24
ATOM     24  O   UNL     1      97.860  97.322  85.937  1.00  0.00    -0.507 OA
ATOM     25  H   UNL     1      97.799  98.080  85.275  1.00  0.00     0.293 HD
ENDBRANCH   6  24
BRANCH   8  26
ATOM     26  O   UNL     1      96.345 100.125  89.531  1.00  0.00    -0.508 OA
ATOM     27  H   UNL     1      96.830 100.528  90.324  1.00  0.00     0.293 HD
ENDBRANCH   8  26
TORSDOF 6
ENDMDL
MODEL 9
REMARK VINA RESULT:    -6.253     10.042     12.078
REMARK INTER + INTRA:          -7.313
REMARK INTER:                  -7.038
REMARK INTRA:                  -0.275
REMARK UNBOUND:                 0.219
REMARK SMILES O=c1c(O)c(-c2ccc(O)c(O)c2)oc2cc(O)cc(O)c12
REMARK SMILES IDX 5 1 3 2 2 3 1 4 22 5 20 6 19 7 17 8 16 9 15 10 14 11 6 12
REMARK SMILES IDX 7 13 8 14 9 15 13 16 11 17 10 18 12 20 4 22 21 24 18 26
REMARK H PARENT 10 19 12 21 4 23 21 25 18 27
REMARK Flexibility Score: inf
ROOT
ATOM      1  C   UNL     1      95.886  95.797  90.439  1.00  0.00     0.180 A 
ATOM      2  C   UNL     1      96.511  94.547  90.287  1.00  0.00     0.208 A 
ATOM      3  C   UNL     1      96.243  93.533  91.221  1.00  0.00     0.238 A 
ATOM      4  O   UNL     1      96.762  92.400  91.048  1.00  0.00    -0.285 OA
ATOM      5  C   UNL     1      95.370  93.787  92.305  1.00  0.00     0.111 A 
ATOM      6  C   UNL     1      95.060  92.848  93.334  1.00  0.00     0.134 A 
ATOM      7  C   UNL     1      94.082  93.162  94.285  1.00  0.00     0.093 A 
ATOM      8  C   UNL     1      93.450  94.409  94.284  1.00  0.00     0.123 A 
ATOM      9  C   UNL     1      93.790  95.354  93.320  1.00  0.00     0.094 A 
ATOM     10  C   UNL     1      94.735  95.056  92.335  1.00  0.00     0.146 A 
ATOM     11  O   UNL     1      95.022  95.983  91.430  1.00  0.00    -0.452 OA
ENDROOT
BRANCH   1  12
ATOM     12  C   UNL     1      96.137  96.922  89.509  1.00  0.00     0.025 A 
ATOM     13  C   UNL     1      95.500  96.940  88.259  1.00  0.00     0.016 A 
ATOM     14  C   UNL     1      95.706  98.001  87.374  1.00  0.00     0.051 A 
ATOM     15  C   UNL     1      96.540  99.068  87.733  1.00  0.00     0.157 A 
ATOM     16  C   UNL     1      96.958  98.005  89.874  1.00  0.00     0.062 A 
ATOM     17  C   UNL     1      97.164  99.070  88.991  1.00  0.00     0.158 A 
BRANCH  15  18
ATOM     18  O   UNL     1      96.745 100.125  86.847  1.00  0.00    -0.504 OA
ATOM     19  H   UNL     1      96.045 100.843  86.706  1.00  0.00     0.293 HD
ENDBRANCH  15  18
BRANCH  17  20
ATOM     20  O   UNL     1      97.989 100.125  89.383  1.00  0.00    -0.504 OA
ATOM     21  H   UNL     1      98.789 100.416  88.835  1.00  0.00     0.293 HD
ENDBRANCH  17  20
ENDBRANCH   1  12
BRANCH   2  22
ATOM     22  O   UNL     1      97.352  94.310  89.196  1.00  0.00    -0.502 OA
ATOM     23  H   UNL     1      97.595  93.376  88.888  1.00  0.00     0.293 HD
ENDBRANCH   2  22
BRANCH   6  24
ATOM     24  O   UNL     1      95.698  91.612  93.480  1.00  0.00    -0.507 OA
ATOM     25  H   UNL     1      95.332  90.734  93.145  1.00  0.00     0.293 HD
ENDBRANCH   6  24
BRANCH   8  26
ATOM     26  O   UNL     1      92.490  94.719  95.243  1.00  0.00    -0.508 OA
ATOM     27  H   UNL     1      92.740  95.163  96.119  1.00  0.00     0.293 HD
ENDBRANCH   8  26
TORSDOF 6
ENDMDL
