MODEL 1
REMARK VINA RESULT:    -5.062      0.000      0.000
REMARK INTER + INTRA:         -15.248
REMARK INTER:                 -11.571
REMARK INTRA:                  -3.677
REMARK UNBOUND:                -3.677
REMARK SMILES CCCCCCCCCCCCCCCCCCCCCCCC(=O)[O-]
REMARK SMILES IDX 13 1 14 2 15 3 16 4 17 5 18 6 19 7 20 8 21 9 22 10 23 11
REMARK SMILES IDX 24 12 25 13 26 14 12 15 11 16 10 17 9 18 8 19 7 20 6 21 5 22
REMARK SMILES IDX 4 23 3 24 2 25 1 26
REMARK H PARENT
REMARK Flexibility Score: inf
ROOT
ATOM      1  C   UNL     1      14.338 -30.821  23.881  1.00  0.00     0.000 C 
ENDROOT
BRANCH   1   2
ATOM      2  C   UNL     1      15.054 -29.740  23.054  1.00  0.00     0.000 C 
BRANCH   2   3
ATOM      3  C   UNL     1      16.576 -29.949  22.991  1.00  0.00     0.000 C 
BRANCH   3   4
ATOM      4  C   UNL     1      17.162 -29.618  21.608  1.00  0.00     0.000 C 
BRANCH   4   5
ATOM      5  C   UNL     1      17.838 -30.829  20.940  1.00  0.00     0.000 C 
BRANCH   5   6
ATOM      6  C   UNL     1      18.802 -31.624  21.840  1.00  0.00     0.000 C 
BRANCH   6   7
ATOM      7  C   UNL     1      20.213 -31.753  21.240  1.00  0.00     0.000 C 
BRANCH   7   8
ATOM      8  C   UNL     1      21.165 -30.649  21.730  1.00  0.00     0.000 C 
BRANCH   8   9
ATOM      9  C   UNL     1      21.177 -29.423  20.799  1.00  0.00     0.000 C 
BRANCH   9  10
ATOM     10  C   UNL     1      20.656 -28.148  21.488  1.00  0.00     0.006 C 
BRANCH  10  11
ATOM     11  C   UNL     1      19.949 -27.165  20.542  1.00  0.00     0.053 C 
BRANCH  11  12
ATOM     12  C   UNL     1      20.533 -25.789  20.621  1.00  0.00     0.041 C 
ATOM     13  O   UNL     1      20.069 -24.949  21.436  1.00  0.00    -0.550 OA
ATOM     14  O   UNL     1      21.613 -25.443  19.817  1.00  0.00    -0.550 OA
ENDBRANCH  11  12
ENDBRANCH  10  11
ENDBRANCH   9  10
ENDBRANCH   8   9
ENDBRANCH   7   8
ENDBRANCH   6   7
ENDBRANCH   5   6
ENDBRANCH   4   5
ENDBRANCH   3   4
ENDBRANCH   2   3
ENDBRANCH   1   2
BRANCH   1  15
ATOM     15  C   UNL     1      13.453 -31.701  22.984  1.00  0.00     0.000 C 
BRANCH  15  16
ATOM     16  C   UNL     1      13.502 -31.286  21.505  1.00  0.00     0.000 C 
BRANCH  16  17
ATOM     17  C   UNL     1      13.806 -32.468  20.568  1.00  0.00     0.000 C 
BRANCH  17  18
ATOM     18  C   UNL     1      15.053 -33.263  20.997  1.00  0.00    -0.000 C 
BRANCH  18  19
ATOM     19  C   UNL     1      15.168 -34.681  20.403  1.00  0.00    -0.000 C 
BRANCH  19  20
ATOM     20  C   UNL     1      16.417 -34.938  19.539  1.00  0.00    -0.000 C 
BRANCH  20  21
ATOM     21  C   UNL     1      16.928 -36.386  19.642  1.00  0.00    -0.000 C 
BRANCH  21  22
ATOM     22  C   UNL     1      17.802 -36.629  20.886  1.00  0.00    -0.000 C 
BRANCH  22  23
ATOM     23  C   UNL     1      18.555 -35.394  21.415  1.00  0.00    -0.000 C 
BRANCH  23  24
ATOM     24  C   UNL     1      18.553 -35.302  22.950  1.00  0.00    -0.000 C 
BRANCH  24  25
ATOM     25  C   UNL     1      17.140 -35.119  23.527  1.00  0.00    -0.003 C 
ATOM     26  C   UNL     1      16.910 -33.724  24.108  1.00  0.00     0.004 C 
ENDBRANCH  24  25
ENDBRANCH  23  24
ENDBRANCH  22  23
ENDBRANCH  21  22
ENDBRANCH  20  21
ENDBRANCH  19  20
ENDBRANCH  18  19
ENDBRANCH  17  18
ENDBRANCH  16  17
ENDBRANCH  15  16
ENDBRANCH   1  15
TORSDOF 22
ENDMDL
MODEL 2
REMARK VINA RESULT:    -4.963      1.615      4.771
REMARK INTER + INTRA:         -15.022
REMARK INTER:                 -11.919
REMARK INTRA:                  -3.103
REMARK UNBOUND:                -3.677
REMARK SMILES CCCCCCCCCCCCCCCCCCCCCCCC(=O)[O-]
REMARK SMILES IDX 13 1 14 2 15 3 16 4 17 5 18 6 19 7 20 8 21 9 22 10 23 11
REMARK SMILES IDX 24 12 25 13 26 14 12 15 11 16 10 17 9 18 8 19 7 20 6 21 5 22
REMARK SMILES IDX 4 23 3 24 2 25 1 26
REMARK H PARENT
REMARK Flexibility Score: inf
ROOT
ATOM      1  C   UNL     1      17.771 -34.375  19.279  1.00  0.00     0.000 C 
ENDROOT
BRANCH   1   2
ATOM      2  C   UNL     1      18.665 -33.839  20.409  1.00  0.00     0.000 C 
BRANCH   2   3
ATOM      3  C   UNL     1      18.617 -32.307  20.532  1.00  0.00     0.000 C 
BRANCH   3   4
ATOM      4  C   UNL     1      19.653 -31.759  21.527  1.00  0.00     0.000 C 
BRANCH   4   5
ATOM      5  C   UNL     1      20.683 -30.825  20.866  1.00  0.00     0.000 C 
BRANCH   5   6
ATOM      6  C   UNL     1      21.121 -29.621  21.720  1.00  0.00     0.000 C 
BRANCH   6   7
ATOM      7  C   UNL     1      19.969 -28.643  22.013  1.00  0.00     0.000 C 
BRANCH   7   8
ATOM      8  C   UNL     1      19.435 -27.965  20.741  1.00  0.00     0.000 C 
BRANCH   8   9
ATOM      9  C   UNL     1      20.414 -26.920  20.174  1.00  0.00     0.000 C 
BRANCH   9  10
ATOM     10  C   UNL     1      20.955 -25.964  21.254  1.00  0.00     0.006 C 
BRANCH  10  11
ATOM     11  C   UNL     1      22.482 -26.005  21.422  1.00  0.00     0.053 C 
BRANCH  11  12
ATOM     12  C   UNL     1      23.193 -26.005  20.105  1.00  0.00     0.041 C 
ATOM     13  O   UNL     1      23.746 -27.055  19.683  1.00  0.00    -0.550 OA
ATOM     14  O   UNL     1      23.218 -24.854  19.326  1.00  0.00    -0.550 OA
ENDBRANCH  11  12
ENDBRANCH  10  11
ENDBRANCH   9  10
ENDBRANCH   8   9
ENDBRANCH   7   8
ENDBRANCH   6   7
ENDBRANCH   5   6
ENDBRANCH   4   5
ENDBRANCH   3   4
ENDBRANCH   2   3
ENDBRANCH   1   2
BRANCH   1  15
ATOM     15  C   UNL     1      16.774 -35.415  19.814  1.00  0.00     0.000 C 
BRANCH  15  16
ATOM     16  C   UNL     1      15.402 -34.810  20.151  1.00  0.00     0.000 C 
BRANCH  16  17
ATOM     17  C   UNL     1      15.285 -34.391  21.627  1.00  0.00     0.000 C 
BRANCH  17  18
ATOM     18  C   UNL     1      14.796 -32.942  21.798  1.00  0.00    -0.000 C 
BRANCH  18  19
ATOM     19  C   UNL     1      13.779 -32.459  20.744  1.00  0.00    -0.000 C 
BRANCH  19  20
ATOM     20  C   UNL     1      12.948 -31.226  21.141  1.00  0.00    -0.000 C 
BRANCH  20  21
ATOM     21  C   UNL     1      12.943 -30.971  22.659  1.00  0.00    -0.000 C 
BRANCH  21  22
ATOM     22  C   UNL     1      12.981 -29.475  23.018  1.00  0.00    -0.000 C 
BRANCH  22  23
ATOM     23  C   UNL     1      14.370 -28.920  23.387  1.00  0.00    -0.000 C 
BRANCH  23  24
ATOM     24  C   UNL     1      15.270 -28.689  22.162  1.00  0.00    -0.000 C 
BRANCH  24  25
ATOM     25  C   UNL     1      16.429 -29.695  22.085  1.00  0.00    -0.003 C 
ATOM     26  C   UNL     1      16.732 -30.357  23.430  1.00  0.00     0.004 C 
ENDBRANCH  24  25
ENDBRANCH  23  24
ENDBRANCH  22  23
ENDBRANCH  21  22
ENDBRANCH  20  21
ENDBRANCH  19  20
ENDBRANCH  18  19
ENDBRANCH  17  18
ENDBRANCH  16  17
ENDBRANCH  15  16
ENDBRANCH   1  15
TORSDOF 22
ENDMDL
MODEL 3
REMARK VINA RESULT:    -4.864      1.257      2.655
REMARK INTER + INTRA:         -14.797
REMARK INTER:                 -11.053
REMARK INTRA:                  -3.744
REMARK UNBOUND:                -3.677
REMARK SMILES CCCCCCCCCCCCCCCCCCCCCCCC(=O)[O-]
REMARK SMILES IDX 13 1 14 2 15 3 16 4 17 5 18 6 19 7 20 8 21 9 22 10 23 11
REMARK SMILES IDX 24 12 25 13 26 14 12 15 11 16 10 17 9 18 8 19 7 20 6 21 5 22
REMARK SMILES IDX 4 23 3 24 2 25 1 26
REMARK H PARENT
REMARK Flexibility Score: inf
ROOT
ATOM      1  C   UNL     1      13.347 -31.449  21.237  1.00  0.00     0.000 C 
ENDROOT
BRANCH   1   2
ATOM      2  C   UNL     1      12.912 -30.976  22.634  1.00  0.00     0.000 C 
BRANCH   2   3
ATOM      3  C   UNL     1      14.086 -30.454  23.478  1.00  0.00     0.000 C 
BRANCH   3   4
ATOM      4  C   UNL     1      14.569 -29.065  23.027  1.00  0.00     0.000 C 
BRANCH   4   5
ATOM      5  C   UNL     1      16.043 -29.061  22.582  1.00  0.00     0.000 C 
BRANCH   5   6
ATOM      6  C   UNL     1      16.772 -30.411  22.708  1.00  0.00     0.000 C 
BRANCH   6   7
ATOM      7  C   UNL     1      17.410 -30.874  21.386  1.00  0.00     0.000 C 
BRANCH   7   8
ATOM      8  C   UNL     1      18.340 -32.084  21.573  1.00  0.00     0.000 C 
BRANCH   8   9
ATOM      9  C   UNL     1      19.712 -31.883  20.904  1.00  0.00     0.000 C 
BRANCH   9  10
ATOM     10  C   UNL     1      20.608 -30.892  21.671  1.00  0.00     0.006 C 
BRANCH  10  11
ATOM     11  C   UNL     1      21.034 -29.664  20.851  1.00  0.00     0.053 C 
BRANCH  11  12
ATOM     12  C   UNL     1      20.718 -28.380  21.554  1.00  0.00     0.041 C 
ATOM     13  O   UNL     1      21.639 -27.569  21.837  1.00  0.00    -0.550 OA
ATOM     14  O   UNL     1      19.401 -28.064  21.868  1.00  0.00    -0.550 OA
ENDBRANCH  11  12
ENDBRANCH  10  11
ENDBRANCH   9  10
ENDBRANCH   8   9
ENDBRANCH   7   8
ENDBRANCH   6   7
ENDBRANCH   5   6
ENDBRANCH   4   5
ENDBRANCH   3   4
ENDBRANCH   2   3
ENDBRANCH   1   2
BRANCH   1  15
ATOM     15  C   UNL     1      14.251 -32.688  21.334  1.00  0.00     0.000 C 
BRANCH  15  16
ATOM     16  C   UNL     1      14.322 -33.480  20.018  1.00  0.00     0.000 C 
BRANCH  16  17
ATOM     17  C   UNL     1      15.368 -34.607  20.061  1.00  0.00     0.000 C 
BRANCH  17  18
ATOM     18  C   UNL     1      16.584 -34.326  19.161  1.00  0.00    -0.000 C 
BRANCH  18  19
ATOM     19  C   UNL     1      17.819 -35.211  19.424  1.00  0.00    -0.000 C 
BRANCH  19  20
ATOM     20  C   UNL     1      17.518 -36.640  19.912  1.00  0.00    -0.000 C 
BRANCH  20  21
ATOM     21  C   UNL     1      18.151 -36.951  21.279  1.00  0.00    -0.000 C 
BRANCH  21  22
ATOM     22  C   UNL     1      18.414 -35.689  22.122  1.00  0.00    -0.000 C 
BRANCH  22  23
ATOM     23  C   UNL     1      17.605 -35.588  23.429  1.00  0.00    -0.000 C 
BRANCH  23  24
ATOM     24  C   UNL     1      16.631 -34.398  23.441  1.00  0.00    -0.000 C 
BRANCH  24  25
ATOM     25  C   UNL     1      16.312 -33.913  24.864  1.00  0.00    -0.003 C 
ATOM     26  C   UNL     1      17.554 -33.453  25.628  1.00  0.00     0.004 C 
ENDBRANCH  24  25
ENDBRANCH  23  24
ENDBRANCH  22  23
ENDBRANCH  21  22
ENDBRANCH  20  21
ENDBRANCH  19  20
ENDBRANCH  18  19
ENDBRANCH  17  18
ENDBRANCH  16  17
ENDBRANCH  15  16
ENDBRANCH   1  15
TORSDOF 22
ENDMDL
MODEL 4
REMARK VINA RESULT:    -4.849      2.884      4.621
REMARK INTER + INTRA:         -14.762
REMARK INTER:                 -10.784
REMARK INTRA:                  -3.978
REMARK UNBOUND:                -3.677
REMARK SMILES CCCCCCCCCCCCCCCCCCCCCCCC(=O)[O-]
REMARK SMILES IDX 13 1 14 2 15 3 16 4 17 5 18 6 19 7 20 8 21 9 22 10 23 11
REMARK SMILES IDX 24 12 25 13 26 14 12 15 11 16 10 17 9 18 8 19 7 20 6 21 5 22
REMARK SMILES IDX 4 23 3 24 2 25 1 26
REMARK H PARENT
REMARK Flexibility Score: inf
ROOT
ATOM      1  C   UNL     1      13.848 -32.543  20.328  1.00  0.00     0.000 C 
ENDROOT
BRANCH   1   2
ATOM      2  C   UNL     1      13.496 -31.439  21.338  1.00  0.00     0.000 C 
BRANCH   2   3
ATOM      3  C   UNL     1      13.868 -31.814  22.783  1.00  0.00     0.000 C 
BRANCH   3   4
ATOM      4  C   UNL     1      13.601 -30.673  23.778  1.00  0.00     0.000 C 
BRANCH   4   5
ATOM      5  C   UNL     1      13.471 -29.300  23.094  1.00  0.00     0.000 C 
BRANCH   5   6
ATOM      6  C   UNL     1      14.723 -28.406  23.173  1.00  0.00     0.000 C 
BRANCH   6   7
ATOM      7  C   UNL     1      15.679 -28.607  21.984  1.00  0.00     0.000 C 
BRANCH   7   8
ATOM      8  C   UNL     1      17.036 -29.189  22.411  1.00  0.00     0.000 C 
BRANCH   8   9
ATOM      9  C   UNL     1      17.373 -30.501  21.679  1.00  0.00     0.000 C 
BRANCH   9  10
ATOM     10  C   UNL     1      17.479 -31.705  22.634  1.00  0.00     0.006 C 
BRANCH  10  11
ATOM     11  C   UNL     1      17.271 -31.353  24.116  1.00  0.00     0.053 C 
BRANCH  11  12
ATOM     12  C   UNL     1      18.532 -31.496  24.910  1.00  0.00     0.041 C 
ATOM     13  O   UNL     1      18.509 -32.047  26.042  1.00  0.00    -0.550 OA
ATOM     14  O   UNL     1      19.740 -31.051  24.386  1.00  0.00    -0.550 OA
ENDBRANCH  11  12
ENDBRANCH  10  11
ENDBRANCH   9  10
ENDBRANCH   8   9
ENDBRANCH   7   8
ENDBRANCH   6   7
ENDBRANCH   5   6
ENDBRANCH   4   5
ENDBRANCH   3   4
ENDBRANCH   2   3
ENDBRANCH   1   2
BRANCH   1  15
ATOM     15  C   UNL     1      14.768 -33.597  20.963  1.00  0.00     0.000 C 
BRANCH  15  16
ATOM     16  C   UNL     1      15.474 -34.480  19.922  1.00  0.00     0.000 C 
BRANCH  16  17
ATOM     17  C   UNL     1      16.869 -33.953  19.545  1.00  0.00     0.000 C 
BRANCH  17  18
ATOM     18  C   UNL     1      17.926 -35.069  19.463  1.00  0.00    -0.000 C 
BRANCH  18  19
ATOM     19  C   UNL     1      17.434 -36.475  19.866  1.00  0.00    -0.000 C 
BRANCH  19  20
ATOM     20  C   UNL     1      18.021 -37.030  21.177  1.00  0.00    -0.000 C 
BRANCH  20  21
ATOM     21  C   UNL     1      18.523 -35.926  22.123  1.00  0.00    -0.000 C 
BRANCH  21  22
ATOM     22  C   UNL     1      17.403 -35.318  22.987  1.00  0.00    -0.000 C 
BRANCH  22  23
ATOM     23  C   UNL     1      17.625 -35.397  24.509  1.00  0.00    -0.000 C 
BRANCH  23  24
ATOM     24  C   UNL     1      19.113 -35.370  24.900  1.00  0.00    -0.000 C 
BRANCH  24  25
ATOM     25  C   UNL     1      19.517 -36.575  25.763  1.00  0.00    -0.003 C 
ATOM     26  C   UNL     1      18.345 -37.509  26.066  1.00  0.00     0.004 C 
ENDBRANCH  24  25
ENDBRANCH  23  24
ENDBRANCH  22  23
ENDBRANCH  21  22
ENDBRANCH  20  21
ENDBRANCH  19  20
ENDBRANCH  18  19
ENDBRANCH  17  18
ENDBRANCH  16  17
ENDBRANCH  15  16
ENDBRANCH   1  15
TORSDOF 22
ENDMDL
MODEL 5
REMARK VINA RESULT:    -4.828      1.940      4.021
REMARK INTER + INTRA:         -14.713
REMARK INTER:                 -10.356
REMARK INTRA:                  -4.357
REMARK UNBOUND:                -3.677
REMARK SMILES CCCCCCCCCCCCCCCCCCCCCCCC(=O)[O-]
REMARK SMILES IDX 13 1 14 2 15 3 16 4 17 5 18 6 19 7 20 8 21 9 22 10 23 11
REMARK SMILES IDX 24 12 25 13 26 14 12 15 11 16 10 17 9 18 8 19 7 20 6 21 5 22
REMARK SMILES IDX 4 23 3 24 2 25 1 26
REMARK H PARENT
REMARK Flexibility Score: inf
ROOT
ATOM      1  C   UNL     1      13.262 -31.017  21.274  1.00  0.00     0.000 C 
ENDROOT
BRANCH   1   2
ATOM      2  C   UNL     1      13.499 -32.157  20.270  1.00  0.00     0.000 C 
BRANCH   2   3
ATOM      3  C   UNL     1      14.429 -33.251  20.820  1.00  0.00     0.000 C 
BRANCH   3   4
ATOM      4  C   UNL     1      14.980 -34.170  19.717  1.00  0.00     0.000 C 
BRANCH   4   5
ATOM      5  C   UNL     1      15.855 -35.310  20.269  1.00  0.00     0.000 C 
BRANCH   5   6
ATOM      6  C   UNL     1      17.298 -35.350  19.733  1.00  0.00     0.000 C 
BRANCH   6   7
ATOM      7  C   UNL     1      17.794 -33.977  19.244  1.00  0.00     0.000 C 
BRANCH   7   8
ATOM      8  C   UNL     1      18.540 -33.197  20.339  1.00  0.00     0.000 C 
BRANCH   8   9
ATOM      9  C   UNL     1      17.677 -32.086  20.964  1.00  0.00     0.000 C 
BRANCH   9  10
ATOM     10  C   UNL     1      18.457 -30.773  21.170  1.00  0.00     0.006 C 
BRANCH  10  11
ATOM     11  C   UNL     1      18.776 -30.455  22.639  1.00  0.00     0.053 C 
BRANCH  11  12
ATOM     12  C   UNL     1      19.850 -29.420  22.770  1.00  0.00     0.041 C 
ATOM     13  O   UNL     1      19.901 -28.454  21.964  1.00  0.00    -0.550 OA
ATOM     14  O   UNL     1      20.776 -29.504  23.803  1.00  0.00    -0.550 OA
ENDBRANCH  11  12
ENDBRANCH  10  11
ENDBRANCH   9  10
ENDBRANCH   8   9
ENDBRANCH   7   8
ENDBRANCH   6   7
ENDBRANCH   5   6
ENDBRANCH   4   5
ENDBRANCH   3   4
ENDBRANCH   2   3
ENDBRANCH   1   2
BRANCH   1  15
ATOM     15  C   UNL     1      14.580 -30.302  21.614  1.00  0.00     0.000 C 
BRANCH  15  16
ATOM     16  C   UNL     1      14.920 -30.357  23.112  1.00  0.00     0.000 C 
BRANCH  16  17
ATOM     17  C   UNL     1      13.871 -31.131  23.929  1.00  0.00     0.000 C 
BRANCH  17  18
ATOM     18  C   UNL     1      14.343 -32.542  24.321  1.00  0.00    -0.000 C 
BRANCH  18  19
ATOM     19  C   UNL     1      15.859 -32.792  24.188  1.00  0.00    -0.000 C 
BRANCH  19  20
ATOM     20  C   UNL     1      16.267 -34.242  23.872  1.00  0.00    -0.000 C 
BRANCH  20  21
ATOM     21  C   UNL     1      17.771 -34.497  24.066  1.00  0.00    -0.000 C 
BRANCH  21  22
ATOM     22  C   UNL     1      18.304 -35.650  23.195  1.00  0.00    -0.000 C 
BRANCH  22  23
ATOM     23  C   UNL     1      19.798 -35.976  23.373  1.00  0.00    -0.000 C 
BRANCH  23  24
ATOM     24  C   UNL     1      20.712 -35.104  22.495  1.00  0.00    -0.000 C 
BRANCH  24  25
ATOM     25  C   UNL     1      21.326 -33.928  23.271  1.00  0.00    -0.003 C 
ATOM     26  C   UNL     1      21.687 -32.746  22.371  1.00  0.00     0.004 C 
ENDBRANCH  24  25
ENDBRANCH  23  24
ENDBRANCH  22  23
ENDBRANCH  21  22
ENDBRANCH  20  21
ENDBRANCH  19  20
ENDBRANCH  18  19
ENDBRANCH  17  18
ENDBRANCH  16  17
ENDBRANCH  15  16
ENDBRANCH   1  15
TORSDOF 22
ENDMDL
MODEL 6
REMARK VINA RESULT:    -4.822      2.505      3.559
REMARK INTER + INTRA:         -14.700
REMARK INTER:                 -10.512
REMARK INTRA:                  -4.189
REMARK UNBOUND:                -3.677
REMARK SMILES CCCCCCCCCCCCCCCCCCCCCCCC(=O)[O-]
REMARK SMILES IDX 13 1 14 2 15 3 16 4 17 5 18 6 19 7 20 8 21 9 22 10 23 11
REMARK SMILES IDX 24 12 25 13 26 14 12 15 11 16 10 17 9 18 8 19 7 20 6 21 5 22
REMARK SMILES IDX 4 23 3 24 2 25 1 26
REMARK H PARENT
REMARK Flexibility Score: inf
ROOT
ATOM      1  C   UNL     1      13.010 -31.056  21.524  1.00  0.00     0.000 C 
ENDROOT
BRANCH   1   2
ATOM      2  C   UNL     1      13.145 -31.406  23.015  1.00  0.00     0.000 C 
BRANCH   2   3
ATOM      3  C   UNL     1      13.896 -30.328  23.814  1.00  0.00     0.000 C 
BRANCH   3   4
ATOM      4  C   UNL     1      15.422 -30.506  23.760  1.00  0.00     0.000 C 
BRANCH   4   5
ATOM      5  C   UNL     1      16.137 -29.334  23.063  1.00  0.00     0.000 C 
BRANCH   5   6
ATOM      6  C   UNL     1      16.590 -29.607  21.617  1.00  0.00     0.000 C 
BRANCH   6   7
ATOM      7  C   UNL     1      17.983 -30.256  21.538  1.00  0.00     0.000 C 
BRANCH   7   8
ATOM      8  C   UNL     1      17.929 -31.706  21.029  1.00  0.00     0.000 C 
BRANCH   8   9
ATOM      9  C   UNL     1      19.329 -32.320  20.842  1.00  0.00     0.000 C 
BRANCH   9  10
ATOM     10  C   UNL     1      20.459 -31.292  21.037  1.00  0.00     0.006 C 
BRANCH  10  11
ATOM     11  C   UNL     1      21.528 -31.717  22.056  1.00  0.00     0.053 C 
BRANCH  11  12
ATOM     12  C   UNL     1      20.933 -32.059  23.387  1.00  0.00     0.041 C 
ATOM     13  O   UNL     1      20.338 -31.177  24.060  1.00  0.00    -0.550 OA
ATOM     14  O   UNL     1      21.006 -33.361  23.869  1.00  0.00    -0.550 OA
ENDBRANCH  11  12
ENDBRANCH  10  11
ENDBRANCH   9  10
ENDBRANCH   8   9
ENDBRANCH   7   8
ENDBRANCH   6   7
ENDBRANCH   5   6
ENDBRANCH   4   5
ENDBRANCH   3   4
ENDBRANCH   2   3
ENDBRANCH   1   2
BRANCH   1  15
ATOM     15  C   UNL     1      13.610 -32.163  20.643  1.00  0.00     0.000 C 
BRANCH  15  16
ATOM     16  C   UNL     1      14.723 -32.952  21.352  1.00  0.00     0.000 C 
BRANCH  16  17
ATOM     17  C   UNL     1      14.982 -34.323  20.704  1.00  0.00     0.000 C 
BRANCH  17  18
ATOM     18  C   UNL     1      15.831 -34.227  19.424  1.00  0.00    -0.000 C 
BRANCH  18  19
ATOM     19  C   UNL     1      17.169 -34.992  19.459  1.00  0.00    -0.000 C 
BRANCH  19  20
ATOM     20  C   UNL     1      17.058 -36.510  19.688  1.00  0.00    -0.000 C 
BRANCH  20  21
ATOM     21  C   UNL     1      17.750 -36.972  20.982  1.00  0.00    -0.000 C 
BRANCH  21  22
ATOM     22  C   UNL     1      18.681 -35.902  21.582  1.00  0.00    -0.000 C 
BRANCH  22  23
ATOM     23  C   UNL     1      18.556 -35.696  23.103  1.00  0.00    -0.000 C 
BRANCH  23  24
ATOM     24  C   UNL     1      17.179 -35.155  23.525  1.00  0.00    -0.000 C 
BRANCH  24  25
ATOM     25  C   UNL     1      17.237 -33.687  23.975  1.00  0.00    -0.003 C 
ATOM     26  C   UNL     1      17.793 -33.520  25.390  1.00  0.00     0.004 C 
ENDBRANCH  24  25
ENDBRANCH  23  24
ENDBRANCH  22  23
ENDBRANCH  21  22
ENDBRANCH  20  21
ENDBRANCH  19  20
ENDBRANCH  18  19
ENDBRANCH  17  18
ENDBRANCH  16  17
ENDBRANCH  15  16
ENDBRANCH   1  15
TORSDOF 22
ENDMDL
MODEL 7
REMARK VINA RESULT:    -4.812      1.413      3.395
REMARK INTER + INTRA:         -14.678
REMARK INTER:                 -11.826
REMARK INTRA:                  -2.852
REMARK UNBOUND:                -3.677
REMARK SMILES CCCCCCCCCCCCCCCCCCCCCCCC(=O)[O-]
REMARK SMILES IDX 13 1 14 2 15 3 16 4 17 5 18 6 19 7 20 8 21 9 22 10 23 11
REMARK SMILES IDX 24 12 25 13 26 14 12 15 11 16 10 17 9 18 8 19 7 20 6 21 5 22
REMARK SMILES IDX 4 23 3 24 2 25 1 26
REMARK H PARENT
REMARK Flexibility Score: inf
ROOT
ATOM      1  C   UNL     1      15.877 -28.461  22.203  1.00  0.00     0.000 C 
ENDROOT
BRANCH   1   2
ATOM      2  C   UNL     1      17.035 -29.421  22.522  1.00  0.00     0.000 C 
BRANCH   2   3
ATOM      3  C   UNL     1      17.815 -29.850  21.268  1.00  0.00     0.000 C 
BRANCH   3   4
ATOM      4  C   UNL     1      17.908 -31.378  21.121  1.00  0.00     0.000 C 
BRANCH   4   5
ATOM      5  C   UNL     1      19.336 -31.913  21.330  1.00  0.00     0.000 C 
BRANCH   5   6
ATOM      6  C   UNL     1      20.465 -30.954  20.909  1.00  0.00     0.000 C 
BRANCH   6   7
ATOM      7  C   UNL     1      21.336 -30.497  22.093  1.00  0.00     0.000 C 
BRANCH   7   8
ATOM      8  C   UNL     1      21.250 -28.981  22.335  1.00  0.00     0.000 C 
BRANCH   8   9
ATOM      9  C   UNL     1      21.309 -28.169  21.028  1.00  0.00     0.000 C 
BRANCH   9  10
ATOM     10  C   UNL     1      20.264 -27.038  20.983  1.00  0.00     0.006 C 
BRANCH  10  11
ATOM     11  C   UNL     1      20.662 -25.849  20.094  1.00  0.00     0.053 C 
BRANCH  11  12
ATOM     12  C   UNL     1      21.987 -25.272  20.486  1.00  0.00     0.041 C 
ATOM     13  O   UNL     1      22.820 -24.940  19.602  1.00  0.00    -0.550 OA
ATOM     14  O   UNL     1      22.290 -25.071  21.828  1.00  0.00    -0.550 OA
ENDBRANCH  11  12
ENDBRANCH  10  11
ENDBRANCH   9  10
ENDBRANCH   8   9
ENDBRANCH   7   8
ENDBRANCH   6   7
ENDBRANCH   5   6
ENDBRANCH   4   5
ENDBRANCH   3   4
ENDBRANCH   2   3
ENDBRANCH   1   2
BRANCH   1  15
ATOM     15  C   UNL     1      15.336 -27.808  23.486  1.00  0.00     0.000 C 
BRANCH  15  16
ATOM     16  C   UNL     1      13.810 -27.932  23.620  1.00  0.00     0.000 C 
BRANCH  16  17
ATOM     17  C   UNL     1      13.333 -29.394  23.633  1.00  0.00     0.000 C 
BRANCH  17  18
ATOM     18  C   UNL     1      12.092 -29.624  22.750  1.00  0.00    -0.000 C 
BRANCH  18  19
ATOM     19  C   UNL     1      12.175 -30.834  21.797  1.00  0.00    -0.000 C 
BRANCH  19  20
ATOM     20  C   UNL     1      13.581 -31.161  21.263  1.00  0.00    -0.000 C 
BRANCH  20  21
ATOM     21  C   UNL     1      14.308 -32.225  22.103  1.00  0.00    -0.000 C 
BRANCH  21  22
ATOM     22  C   UNL     1      14.912 -33.356  21.250  1.00  0.00    -0.000 C 
BRANCH  22  23
ATOM     23  C   UNL     1      15.717 -34.412  22.029  1.00  0.00    -0.000 C 
BRANCH  23  24
ATOM     24  C   UNL     1      16.818 -35.074  21.183  1.00  0.00    -0.000 C 
BRANCH  24  25
ATOM     25  C   UNL     1      16.549 -34.957  19.674  1.00  0.00    -0.003 C 
ATOM     26  C   UNL     1      17.696 -34.289  18.915  1.00  0.00     0.004 C 
ENDBRANCH  24  25
ENDBRANCH  23  24
ENDBRANCH  22  23
ENDBRANCH  21  22
ENDBRANCH  20  21
ENDBRANCH  19  20
ENDBRANCH  18  19
ENDBRANCH  17  18
ENDBRANCH  16  17
ENDBRANCH  15  16
ENDBRANCH   1  15
TORSDOF 22
ENDMDL
MODEL 8
REMARK VINA RESULT:    -4.776      1.744      4.550
REMARK INTER + INTRA:         -14.596
REMARK INTER:                 -10.717
REMARK INTRA:                  -3.879
REMARK UNBOUND:                -3.677
REMARK SMILES CCCCCCCCCCCCCCCCCCCCCCCC(=O)[O-]
REMARK SMILES IDX 13 1 14 2 15 3 16 4 17 5 18 6 19 7 20 8 21 9 22 10 23 11
REMARK SMILES IDX 24 12 25 13 26 14 12 15 11 16 10 17 9 18 8 19 7 20 6 21 5 22
REMARK SMILES IDX 4 23 3 24 2 25 1 26
REMARK H PARENT
REMARK Flexibility Score: inf
ROOT
ATOM      1  C   UNL     1      14.978 -34.252  20.575  1.00  0.00     0.000 C 
ENDROOT
BRANCH   1   2
ATOM      2  C   UNL     1      14.827 -32.798  21.051  1.00  0.00     0.000 C 
BRANCH   2   3
ATOM      3  C   UNL     1      13.507 -32.156  20.593  1.00  0.00     0.000 C 
BRANCH   3   4
ATOM      4  C   UNL     1      13.055 -31.010  21.513  1.00  0.00     0.000 C 
BRANCH   4   5
ATOM      5  C   UNL     1      13.077 -31.395  23.003  1.00  0.00     0.000 C 
BRANCH   5   6
ATOM      6  C   UNL     1      13.864 -30.439  23.918  1.00  0.00     0.000 C 
BRANCH   6   7
ATOM      7  C   UNL     1      13.721 -28.963  23.507  1.00  0.00     0.000 C 
BRANCH   7   8
ATOM      8  C   UNL     1      15.061 -28.336  23.086  1.00  0.00     0.000 C 
BRANCH   8   9
ATOM      9  C   UNL     1      16.204 -29.366  23.037  1.00  0.00     0.000 C 
BRANCH   9  10
ATOM     10  C   UNL     1      16.656 -29.684  21.599  1.00  0.00     0.006 C 
BRANCH  10  11
ATOM     11  C   UNL     1      18.120 -30.140  21.486  1.00  0.00     0.053 C 
BRANCH  11  12
ATOM     12  C   UNL     1      19.064 -28.981  21.399  1.00  0.00     0.041 C 
ATOM     13  O   UNL     1      18.905 -28.099  20.514  1.00  0.00    -0.550 OA
ATOM     14  O   UNL     1      20.101 -28.857  22.316  1.00  0.00    -0.550 OA
ENDBRANCH  11  12
ENDBRANCH  10  11
ENDBRANCH   9  10
ENDBRANCH   8   9
ENDBRANCH   7   8
ENDBRANCH   6   7
ENDBRANCH   5   6
ENDBRANCH   4   5
ENDBRANCH   3   4
ENDBRANCH   2   3
ENDBRANCH   1   2
BRANCH   1  15
ATOM     15  C   UNL     1      15.941 -34.342  19.380  1.00  0.00     0.000 C 
BRANCH  15  16
ATOM     16  C   UNL     1      17.383 -33.956  19.745  1.00  0.00     0.000 C 
BRANCH  16  17
ATOM     17  C   UNL     1      18.373 -35.118  19.558  1.00  0.00     0.000 C 
BRANCH  17  18
ATOM     18  C   UNL     1      17.734 -36.494  19.817  1.00  0.00    -0.000 C 
BRANCH  18  19
ATOM     19  C   UNL     1      18.028 -37.108  21.201  1.00  0.00    -0.000 C 
BRANCH  19  20
ATOM     20  C   UNL     1      19.028 -36.328  22.073  1.00  0.00    -0.000 C 
BRANCH  20  21
ATOM     21  C   UNL     1      18.411 -35.830  23.391  1.00  0.00    -0.000 C 
BRANCH  21  22
ATOM     22  C   UNL     1      17.089 -35.067  23.187  1.00  0.00    -0.000 C 
BRANCH  22  23
ATOM     23  C   UNL     1      16.590 -34.271  24.407  1.00  0.00    -0.000 C 
BRANCH  23  24
ATOM     24  C   UNL     1      16.793 -32.754  24.258  1.00  0.00    -0.000 C 
BRANCH  24  25
ATOM     25  C   UNL     1      17.937 -32.224  25.136  1.00  0.00    -0.003 C 
ATOM     26  C   UNL     1      19.233 -32.002  24.355  1.00  0.00     0.004 C 
ENDBRANCH  24  25
ENDBRANCH  23  24
ENDBRANCH  22  23
ENDBRANCH  21  22
ENDBRANCH  20  21
ENDBRANCH  19  20
ENDBRANCH  18  19
ENDBRANCH  17  18
ENDBRANCH  16  17
ENDBRANCH  15  16
ENDBRANCH   1  15
TORSDOF 22
ENDMDL
MODEL 9
REMARK VINA RESULT:    -4.754      1.634      2.471
REMARK INTER + INTRA:         -14.545
REMARK INTER:                 -11.214
REMARK INTRA:                  -3.332
REMARK UNBOUND:                -3.677
REMARK SMILES CCCCCCCCCCCCCCCCCCCCCCCC(=O)[O-]
REMARK SMILES IDX 13 1 14 2 15 3 16 4 17 5 18 6 19 7 20 8 21 9 22 10 23 11
REMARK SMILES IDX 24 12 25 13 26 14 12 15 11 16 10 17 9 18 8 19 7 20 6 21 5 22
REMARK SMILES IDX 4 23 3 24 2 25 1 26
REMARK H PARENT
REMARK Flexibility Score: inf
ROOT
ATOM      1  C   UNL     1      15.928 -29.391  23.141  1.00  0.00     0.000 C 
ENDROOT
BRANCH   1   2
ATOM      2  C   UNL     1      16.919 -28.590  22.281  1.00  0.00     0.000 C 
BRANCH   2   3
ATOM      3  C   UNL     1      17.640 -29.460  21.237  1.00  0.00     0.000 C 
BRANCH   3   4
ATOM      4  C   UNL     1      17.434 -30.965  21.476  1.00  0.00     0.000 C 
BRANCH   4   5
ATOM      5  C   UNL     1      18.551 -31.826  20.860  1.00  0.00     0.000 C 
BRANCH   5   6
ATOM      6  C   UNL     1      19.876 -31.844  21.644  1.00  0.00     0.000 C 
BRANCH   6   7
ATOM      7  C   UNL     1      20.973 -30.986  20.988  1.00  0.00     0.000 C 
BRANCH   7   8
ATOM      8  C   UNL     1      21.208 -29.661  21.732  1.00  0.00     0.000 C 
BRANCH   8   9
ATOM      9  C   UNL     1      21.175 -28.442  20.793  1.00  0.00     0.000 C 
BRANCH   9  10
ATOM     10  C   UNL     1      22.035 -27.272  21.307  1.00  0.00     0.006 C 
BRANCH  10  11
ATOM     11  C   UNL     1      21.767 -25.935  20.598  1.00  0.00     0.053 C 
BRANCH  11  12
ATOM     12  C   UNL     1      22.982 -25.419  19.892  1.00  0.00     0.041 C 
ATOM     13  O   UNL     1      23.496 -24.321  20.233  1.00  0.00    -0.550 OA
ATOM     14  O   UNL     1      23.567 -26.167  18.877  1.00  0.00    -0.550 OA
ENDBRANCH  11  12
ENDBRANCH  10  11
ENDBRANCH   9  10
ENDBRANCH   8   9
ENDBRANCH   7   8
ENDBRANCH   6   7
ENDBRANCH   5   6
ENDBRANCH   4   5
ENDBRANCH   3   4
ENDBRANCH   2   3
ENDBRANCH   1   2
BRANCH   1  15
ATOM     15  C   UNL     1      14.477 -29.052  22.765  1.00  0.00     0.000 C 
BRANCH  15  16
ATOM     16  C   UNL     1      13.447 -29.801  23.626  1.00  0.00     0.000 C 
BRANCH  16  17
ATOM     17  C   UNL     1      12.873 -31.040  22.919  1.00  0.00     0.000 C 
BRANCH  17  18
ATOM     18  C   UNL     1      13.225 -31.089  21.421  1.00  0.00    -0.000 C 
BRANCH  18  19
ATOM     19  C   UNL     1      13.998 -32.344  20.965  1.00  0.00    -0.000 C 
BRANCH  19  20
ATOM     20  C   UNL     1      14.621 -33.184  22.094  1.00  0.00    -0.000 C 
BRANCH  20  21
ATOM     21  C   UNL     1      15.494 -34.338  21.570  1.00  0.00    -0.000 C 
BRANCH  21  22
ATOM     22  C   UNL     1      16.720 -34.618  22.459  1.00  0.00    -0.000 C 
BRANCH  22  23
ATOM     23  C   UNL     1      16.793 -33.797  23.760  1.00  0.00    -0.000 C 
BRANCH  23  24
ATOM     24  C   UNL     1      18.123 -33.978  24.510  1.00  0.00    -0.000 C 
BRANCH  24  25
ATOM     25  C   UNL     1      18.340 -32.908  25.591  1.00  0.00    -0.003 C 
ATOM     26  C   UNL     1      18.261 -31.483  25.042  1.00  0.00     0.004 C 
ENDBRANCH  24  25
ENDBRANCH  23  24
ENDBRANCH  22  23
ENDBRANCH  21  22
ENDBRANCH  20  21
ENDBRANCH  19  20
ENDBRANCH  18  19
ENDBRANCH  17  18
ENDBRANCH  16  17
ENDBRANCH  15  16
ENDBRANCH   1  15
TORSDOF 22
ENDMDL
