MODEL 1
REMARK VINA RESULT:    -4.877      0.000      0.000
REMARK INTER + INTRA:          -6.183
REMARK INTER:                  -5.875
REMARK INTRA:                  -0.308
REMARK UNBOUND:                -0.308
REMARK SMILES O=c1c(O)c(-c2ccc(O)c(O)c2)oc2cc(O)cc(O)c12
REMARK SMILES IDX 5 1 3 2 2 3 1 4 22 5 20 6 19 7 17 8 16 9 15 10 14 11 6 12
REMARK SMILES IDX 7 13 8 14 9 15 13 16 11 17 10 18 12 20 4 22 21 24 18 26
REMARK H PARENT 10 19 12 21 4 23 21 25 18 27
REMARK Flexibility Score: inf
ROOT
ATOM      1  C   UNL     1     -99.684  42.294   9.069  1.00  0.00     0.180 A 
ATOM      2  C   UNL     1    -100.183  41.014   9.371  1.00  0.00     0.208 A 
ATOM      3  C   UNL     1    -100.033  40.516  10.675  1.00  0.00     0.238 A 
ATOM      4  O   UNL     1    -100.529  39.394  10.954  1.00  0.00    -0.285 OA
ATOM      5  C   UNL     1     -99.374  41.296  11.656  1.00  0.00     0.111 A 
ATOM      6  C   UNL     1     -99.132  40.873  12.998  1.00  0.00     0.134 A 
ATOM      7  C   UNL     1     -98.587  41.777  13.919  1.00  0.00     0.093 A 
ATOM      8  C   UNL     1     -98.216  43.067  13.529  1.00  0.00     0.123 A 
ATOM      9  C   UNL     1     -98.393  43.467  12.207  1.00  0.00     0.094 A 
ATOM     10  C   UNL     1     -98.967  42.600  11.274  1.00  0.00     0.146 A 
ATOM     11  O   UNL     1     -99.129  43.027  10.028  1.00  0.00    -0.452 OA
ENDROOT
BRANCH   1  12
ATOM     12  C   UNL     1     -99.781  42.877   7.712  1.00  0.00     0.025 A 
ATOM     13  C   UNL     1     -98.839  42.518   6.735  1.00  0.00     0.016 A 
ATOM     14  C   UNL     1     -98.924  43.039   5.442  1.00  0.00     0.051 A 
ATOM     15  C   UNL     1     -99.962  43.917   5.103  1.00  0.00     0.157 A 
ATOM     16  C   UNL     1    -100.832  43.743   7.360  1.00  0.00     0.062 A 
ATOM     17  C   UNL     1    -100.920  44.267   6.062  1.00  0.00     0.158 A 
BRANCH  15  18
ATOM     18  O   UNL     1    -100.050  44.443   3.815  1.00  0.00    -0.504 OA
ATOM     19  H   UNL     1    -100.590  45.278   3.619  1.00  0.00     0.293 HD
ENDBRANCH  15  18
BRANCH  17  20
ATOM     20  O   UNL     1    -101.959  45.129   5.717  1.00  0.00    -0.504 OA
ATOM     21  H   UNL     1    -102.902  44.789   5.567  1.00  0.00     0.293 HD
ENDBRANCH  17  20
ENDBRANCH   1  12
BRANCH   2  22
ATOM     22  O   UNL     1    -100.849  40.271   8.394  1.00  0.00    -0.502 OA
ATOM     23  H   UNL     1    -100.395  39.535   7.866  1.00  0.00     0.293 HD
ENDBRANCH   2  22
BRANCH   6  24
ATOM     24  O   UNL     1     -99.380  39.580  13.466  1.00  0.00    -0.507 OA
ATOM     25  H   UNL     1     -98.670  38.931  13.767  1.00  0.00     0.293 HD
ENDBRANCH   6  24
BRANCH   8  26
ATOM     26  O   UNL     1     -97.660  43.954  14.448  1.00  0.00    -0.508 OA
ATOM     27  H   UNL     1     -96.728  43.816  14.821  1.00  0.00     0.293 HD
ENDBRANCH   8  26
TORSDOF 6
ENDMDL
MODEL 2
REMARK VINA RESULT:    -4.828      1.556      7.002
REMARK INTER + INTRA:          -6.124
REMARK INTER:                  -5.804
REMARK INTRA:                  -0.320
REMARK UNBOUND:                -0.308
REMARK SMILES O=c1c(O)c(-c2ccc(O)c(O)c2)oc2cc(O)cc(O)c12
REMARK SMILES IDX 5 1 3 2 2 3 1 4 22 5 20 6 19 7 17 8 16 9 15 10 14 11 6 12
REMARK SMILES IDX 7 13 8 14 9 15 13 16 11 17 10 18 12 20 4 22 21 24 18 26
REMARK H PARENT 10 19 12 21 4 23 21 25 18 27
REMARK Flexibility Score: inf
ROOT
ATOM      1  C   UNL     1     -99.945  42.778   9.172  1.00  0.00     0.180 A 
ATOM      2  C   UNL     1    -101.347  42.857   9.103  1.00  0.00     0.208 A 
ATOM      3  C   UNL     1    -101.953  43.137   7.868  1.00  0.00     0.238 A 
ATOM      4  O   UNL     1    -103.210  43.152   7.801  1.00  0.00    -0.285 OA
ATOM      5  C   UNL     1    -101.150  43.348   6.721  1.00  0.00     0.111 A 
ATOM      6  C   UNL     1    -101.656  43.677   5.427  1.00  0.00     0.134 A 
ATOM      7  C   UNL     1    -100.778  43.736   4.337  1.00  0.00     0.093 A 
ATOM      8  C   UNL     1     -99.405  43.541   4.507  1.00  0.00     0.123 A 
ATOM      9  C   UNL     1     -98.895  43.279   5.776  1.00  0.00     0.094 A 
ATOM     10  C   UNL     1     -99.750  43.179   6.877  1.00  0.00     0.146 A 
ATOM     11  O   UNL     1     -99.223  42.917   8.066  1.00  0.00    -0.452 OA
ENDROOT
BRANCH   1  12
ATOM     12  C   UNL     1     -99.233  42.513  10.443  1.00  0.00     0.025 A 
ATOM     13  C   UNL     1     -98.939  43.579  11.307  1.00  0.00     0.016 A 
ATOM     14  C   UNL     1     -98.287  43.349  12.521  1.00  0.00     0.051 A 
ATOM     15  C   UNL     1     -97.931  42.046  12.894  1.00  0.00     0.157 A 
ATOM     16  C   UNL     1     -98.892  41.204  10.832  1.00  0.00     0.062 A 
ATOM     17  C   UNL     1     -98.238  40.971  12.051  1.00  0.00     0.158 A 
BRANCH  15  18
ATOM     18  O   UNL     1     -97.278  41.811  14.103  1.00  0.00    -0.504 OA
ATOM     19  H   UNL     1     -97.337  42.467  14.874  1.00  0.00     0.293 HD
ENDBRANCH  15  18
BRANCH  17  20
ATOM     20  O   UNL     1     -97.896  39.675  12.432  1.00  0.00    -0.504 OA
ATOM     21  H   UNL     1     -98.385  39.197  13.181  1.00  0.00     0.293 HD
ENDBRANCH  17  20
ENDBRANCH   1  12
BRANCH   2  22
ATOM     22  O   UNL     1    -102.122  42.624  10.243  1.00  0.00    -0.502 OA
ATOM     23  H   UNL     1    -102.084  43.222  11.059  1.00  0.00     0.293 HD
ENDBRANCH   2  22
BRANCH   6  24
ATOM     24  O   UNL     1    -102.996  43.979   5.167  1.00  0.00    -0.507 OA
ATOM     25  H   UNL     1    -103.327  44.463   4.346  1.00  0.00     0.293 HD
ENDBRANCH   6  24
BRANCH   8  26
ATOM     26  O   UNL     1     -98.537  43.617   3.420  1.00  0.00    -0.508 OA
ATOM     27  H   UNL     1     -98.556  42.928   2.677  1.00  0.00     0.293 HD
ENDBRANCH   8  26
TORSDOF 6
ENDMDL
MODEL 3
REMARK VINA RESULT:    -4.692      3.721      6.469
REMARK INTER + INTRA:          -5.960
REMARK INTER:                  -5.713
REMARK INTRA:                  -0.247
REMARK UNBOUND:                -0.308
REMARK SMILES O=c1c(O)c(-c2ccc(O)c(O)c2)oc2cc(O)cc(O)c12
REMARK SMILES IDX 5 1 3 2 2 3 1 4 22 5 20 6 19 7 17 8 16 9 15 10 14 11 6 12
REMARK SMILES IDX 7 13 8 14 9 15 13 16 11 17 10 18 12 20 4 22 21 24 18 26
REMARK H PARENT 10 19 12 21 4 23 21 25 18 27
REMARK Flexibility Score: inf
ROOT
ATOM      1  C   UNL     1     -99.441  43.670   3.128  1.00  0.00     0.180 A 
ATOM      2  C   UNL     1     -99.827  42.332   2.937  1.00  0.00     0.208 A 
ATOM      3  C   UNL     1    -100.203  41.565   4.052  1.00  0.00     0.238 A 
ATOM      4  O   UNL     1    -100.599  40.385   3.868  1.00  0.00    -0.285 OA
ATOM      5  C   UNL     1    -100.174  42.142   5.345  1.00  0.00     0.111 A 
ATOM      6  C   UNL     1    -100.496  41.446   6.549  1.00  0.00     0.134 A 
ATOM      7  C   UNL     1    -100.560  42.150   7.758  1.00  0.00     0.093 A 
ATOM      8  C   UNL     1    -100.250  43.511   7.814  1.00  0.00     0.123 A 
ATOM      9  C   UNL     1     -99.876  44.185   6.655  1.00  0.00     0.094 A 
ATOM     10  C   UNL     1     -99.838  43.517   5.428  1.00  0.00     0.146 A 
ATOM     11  O   UNL     1     -99.488  44.201   4.345  1.00  0.00    -0.452 OA
ENDROOT
BRANCH   1  12
ATOM     12  C   UNL     1     -99.008  44.534   2.006  1.00  0.00     0.025 A 
ATOM     13  C   UNL     1     -99.812  45.616   1.616  1.00  0.00     0.016 A 
ATOM     14  C   UNL     1     -99.412  46.457   0.575  1.00  0.00     0.051 A 
ATOM     15  C   UNL     1     -98.195  46.235  -0.083  1.00  0.00     0.157 A 
ATOM     16  C   UNL     1     -97.777  44.327   1.356  1.00  0.00     0.062 A 
ATOM     17  C   UNL     1     -97.374  45.171   0.311  1.00  0.00     0.158 A 
BRANCH  15  18
ATOM     18  O   UNL     1     -97.792  47.069  -1.125  1.00  0.00    -0.504 OA
ATOM     19  H   UNL     1     -96.862  47.472  -1.152  1.00  0.00     0.293 HD
ENDBRANCH  15  18
BRANCH  17  20
ATOM     20  O   UNL     1     -96.157  44.962  -0.336  1.00  0.00    -0.504 OA
ATOM     21  H   UNL     1     -95.295  45.365   0.014  1.00  0.00     0.293 HD
ENDBRANCH  17  20
ENDBRANCH   1  12
BRANCH   2  22
ATOM     22  O   UNL     1     -99.868  41.790   1.650  1.00  0.00    -0.502 OA
ATOM     23  H   UNL     1     -99.142  41.182   1.291  1.00  0.00     0.293 HD
ENDBRANCH   2  22
BRANCH   6  24
ATOM     24  O   UNL     1    -100.733  40.069   6.615  1.00  0.00    -0.507 OA
ATOM     25  H   UNL     1    -100.334  39.450   7.304  1.00  0.00     0.293 HD
ENDBRANCH   6  24
BRANCH   8  26
ATOM     26  O   UNL     1    -100.300  44.201   9.024  1.00  0.00    -0.508 OA
ATOM     27  H   UNL     1     -99.800  43.873   9.842  1.00  0.00     0.293 HD
ENDBRANCH   8  26
TORSDOF 6
ENDMDL
MODEL 4
REMARK VINA RESULT:    -4.618      3.347      8.303
REMARK INTER + INTRA:          -5.871
REMARK INTER:                  -5.631
REMARK INTRA:                  -0.239
REMARK UNBOUND:                -0.308
REMARK SMILES O=c1c(O)c(-c2ccc(O)c(O)c2)oc2cc(O)cc(O)c12
REMARK SMILES IDX 5 1 3 2 2 3 1 4 22 5 20 6 19 7 17 8 16 9 15 10 14 11 6 12
REMARK SMILES IDX 7 13 8 14 9 15 13 16 11 17 10 18 12 20 4 22 21 24 18 26
REMARK H PARENT 10 19 12 21 4 23 21 25 18 27
REMARK Flexibility Score: inf
ROOT
ATOM      1  C   UNL     1     -99.809  42.995   4.849  1.00  0.00     0.180 A 
ATOM      2  C   UNL     1     -99.833  41.742   4.211  1.00  0.00     0.208 A 
ATOM      3  C   UNL     1     -99.574  41.675   2.833  1.00  0.00     0.238 A 
ATOM      4  O   UNL     1     -99.544  40.546   2.278  1.00  0.00    -0.285 OA
ATOM      5  C   UNL     1     -99.308  42.862   2.107  1.00  0.00     0.111 A 
ATOM      6  C   UNL     1     -99.071  42.915   0.701  1.00  0.00     0.134 A 
ATOM      7  C   UNL     1     -98.690  44.127   0.110  1.00  0.00     0.093 A 
ATOM      8  C   UNL     1     -98.601  45.299   0.865  1.00  0.00     0.123 A 
ATOM      9  C   UNL     1     -98.888  45.268   2.227  1.00  0.00     0.094 A 
ATOM     10  C   UNL     1     -99.236  44.068   2.851  1.00  0.00     0.146 A 
ATOM     11  O   UNL     1     -99.492  44.082   4.154  1.00  0.00    -0.452 OA
ENDROOT
BRANCH   1  12
ATOM     12  C   UNL     1    -100.096  43.149   6.293  1.00  0.00     0.025 A 
ATOM     13  C   UNL     1     -99.073  43.557   7.163  1.00  0.00     0.016 A 
ATOM     14  C   UNL     1     -99.328  43.731   8.525  1.00  0.00     0.051 A 
ATOM     15  C   UNL     1    -100.614  43.511   9.036  1.00  0.00     0.157 A 
ATOM     16  C   UNL     1    -101.391  42.951   6.807  1.00  0.00     0.062 A 
ATOM     17  C   UNL     1    -101.649  43.125   8.175  1.00  0.00     0.158 A 
BRANCH  15  18
ATOM     18  O   UNL     1    -100.873  43.680  10.395  1.00  0.00    -0.504 OA
ATOM     19  H   UNL     1    -101.620  44.284  10.721  1.00  0.00     0.293 HD
ENDBRANCH  15  18
BRANCH  17  20
ATOM     20  O   UNL     1    -102.930  42.922   8.684  1.00  0.00    -0.504 OA
ATOM     21  H   UNL     1    -103.725  42.771   8.073  1.00  0.00     0.293 HD
ENDBRANCH  17  20
ENDBRANCH   1  12
BRANCH   2  22
ATOM     22  O   UNL     1    -100.077  40.582   4.950  1.00  0.00    -0.502 OA
ATOM     23  H   UNL     1    -100.181  39.672   4.517  1.00  0.00     0.293 HD
ENDBRANCH   2  22
BRANCH   6  24
ATOM     24  O   UNL     1     -99.222  41.823  -0.158  1.00  0.00    -0.507 OA
ATOM     25  H   UNL     1     -98.944  40.878   0.059  1.00  0.00     0.293 HD
ENDBRANCH   6  24
BRANCH   8  26
ATOM     26  O   UNL     1     -98.236  46.503   0.267  1.00  0.00    -0.508 OA
ATOM     27  H   UNL     1     -97.840  46.533  -0.666  1.00  0.00     0.293 HD
ENDBRANCH   8  26
TORSDOF 6
ENDMDL
MODEL 5
REMARK VINA RESULT:    -4.568      1.727      6.763
REMARK INTER + INTRA:          -5.811
REMARK INTER:                  -5.485
REMARK INTRA:                  -0.325
REMARK UNBOUND:                -0.308
REMARK SMILES O=c1c(O)c(-c2ccc(O)c(O)c2)oc2cc(O)cc(O)c12
REMARK SMILES IDX 5 1 3 2 2 3 1 4 22 5 20 6 19 7 17 8 16 9 15 10 14 11 6 12
REMARK SMILES IDX 7 13 8 14 9 15 13 16 11 17 10 18 12 20 4 22 21 24 18 26
REMARK H PARENT 10 19 12 21 4 23 21 25 18 27
REMARK Flexibility Score: inf
ROOT
ATOM      1  C   UNL     1     -99.606  42.437  10.353  1.00  0.00     0.180 A 
ATOM      2  C   UNL     1    -101.008  42.333  10.354  1.00  0.00     0.208 A 
ATOM      3  C   UNL     1    -101.698  42.440   9.136  1.00  0.00     0.238 A 
ATOM      4  O   UNL     1    -102.948  42.292   9.135  1.00  0.00    -0.285 OA
ATOM      5  C   UNL     1    -100.981  42.664   7.936  1.00  0.00     0.111 A 
ATOM      6  C   UNL     1    -101.582  42.828   6.651  1.00  0.00     0.134 A 
ATOM      7  C   UNL     1    -100.768  42.914   5.514  1.00  0.00     0.093 A 
ATOM      8  C   UNL     1     -99.375  42.907   5.624  1.00  0.00     0.123 A 
ATOM      9  C   UNL     1     -98.780  42.808   6.879  1.00  0.00     0.094 A 
ATOM     10  C   UNL     1     -99.565  42.685   8.028  1.00  0.00     0.146 A 
ATOM     11  O   UNL     1     -98.957  42.581   9.203  1.00  0.00    -0.452 OA
ENDROOT
BRANCH   1  12
ATOM     12  C   UNL     1     -98.809  42.360  11.599  1.00  0.00     0.025 A 
ATOM     13  C   UNL     1     -98.358  41.112  12.055  1.00  0.00     0.016 A 
ATOM     14  C   UNL     1     -97.587  41.018  13.216  1.00  0.00     0.051 A 
ATOM     15  C   UNL     1     -97.244  42.173  13.931  1.00  0.00     0.157 A 
ATOM     16  C   UNL     1     -98.445  43.519  12.308  1.00  0.00     0.062 A 
ATOM     17  C   UNL     1     -97.670  43.426  13.474  1.00  0.00     0.158 A 
BRANCH  15  18
ATOM     18  O   UNL     1     -96.477  42.085  15.092  1.00  0.00    -0.504 OA
ATOM     19  H   UNL     1     -96.128  41.196  15.429  1.00  0.00     0.293 HD
ENDBRANCH  15  18
BRANCH  17  20
ATOM     20  O   UNL     1     -97.316  44.575  14.179  1.00  0.00    -0.504 OA
ATOM     21  H   UNL     1     -97.150  45.457  13.706  1.00  0.00     0.293 HD
ENDBRANCH  17  20
ENDBRANCH   1  12
BRANCH   2  22
ATOM     22  O   UNL     1    -101.694  42.090  11.546  1.00  0.00    -0.502 OA
ATOM     23  H   UNL     1    -101.371  41.421  12.234  1.00  0.00     0.293 HD
ENDBRANCH   2  22
BRANCH   6  24
ATOM     24  O   UNL     1    -102.960  42.938   6.443  1.00  0.00    -0.507 OA
ATOM     25  H   UNL     1    -103.626  43.225   7.143  1.00  0.00     0.293 HD
ENDBRANCH   6  24
BRANCH   8  26
ATOM     26  O   UNL     1     -98.574  43.010   4.489  1.00  0.00    -0.508 OA
ATOM     27  H   UNL     1     -98.089  43.869   4.258  1.00  0.00     0.293 HD
ENDBRANCH   8  26
TORSDOF 6
ENDMDL
MODEL 6
REMARK VINA RESULT:    -4.558      3.685      9.470
REMARK INTER + INTRA:          -5.798
REMARK INTER:                  -5.465
REMARK INTRA:                  -0.333
REMARK UNBOUND:                -0.308
REMARK SMILES O=c1c(O)c(-c2ccc(O)c(O)c2)oc2cc(O)cc(O)c12
REMARK SMILES IDX 5 1 3 2 2 3 1 4 22 5 20 6 19 7 17 8 16 9 15 10 14 11 6 12
REMARK SMILES IDX 7 13 8 14 9 15 13 16 11 17 10 18 12 20 4 22 21 24 18 26
REMARK H PARENT 10 19 12 21 4 23 21 25 18 27
REMARK Flexibility Score: inf
ROOT
ATOM      1  C   UNL     1     -99.939  44.099   3.573  1.00  0.00     0.180 A 
ATOM      2  C   UNL     1    -101.080  44.679   2.992  1.00  0.00     0.208 A 
ATOM      3  C   UNL     1    -100.967  45.291   1.733  1.00  0.00     0.238 A 
ATOM      4  O   UNL     1    -102.003  45.760   1.194  1.00  0.00    -0.285 OA
ATOM      5  C   UNL     1     -99.712  45.328   1.078  1.00  0.00     0.111 A 
ATOM      6  C   UNL     1     -99.474  45.956  -0.181  1.00  0.00     0.134 A 
ATOM      7  C   UNL     1     -98.223  45.819  -0.796  1.00  0.00     0.093 A 
ATOM      8  C   UNL     1     -97.183  45.131  -0.166  1.00  0.00     0.123 A 
ATOM      9  C   UNL     1     -97.388  44.566   1.090  1.00  0.00     0.094 A 
ATOM     10  C   UNL     1     -98.635  44.656   1.712  1.00  0.00     0.146 A 
ATOM     11  O   UNL     1     -98.791  44.093   2.905  1.00  0.00    -0.452 OA
ENDROOT
BRANCH   1  12
ATOM     12  C   UNL     1     -99.973  43.459   4.907  1.00  0.00     0.025 A 
ATOM     13  C   UNL     1    -100.159  42.071   5.004  1.00  0.00     0.016 A 
ATOM     14  C   UNL     1    -100.173  41.443   6.252  1.00  0.00     0.051 A 
ATOM     15  C   UNL     1     -99.987  42.193   7.421  1.00  0.00     0.157 A 
ATOM     16  C   UNL     1     -99.767  44.204   6.083  1.00  0.00     0.062 A 
ATOM     17  C   UNL     1     -99.779  43.575   7.336  1.00  0.00     0.158 A 
BRANCH  15  18
ATOM     18  O   UNL     1    -100.003  41.571   8.669  1.00  0.00    -0.504 OA
ATOM     19  H   UNL     1    -100.396  42.029   9.484  1.00  0.00     0.293 HD
ENDBRANCH  15  18
BRANCH  17  20
ATOM     20  O   UNL     1     -99.580  44.315   8.500  1.00  0.00    -0.504 OA
ATOM     21  H   UNL     1     -98.770  44.166   9.091  1.00  0.00     0.293 HD
ENDBRANCH  17  20
ENDBRANCH   1  12
BRANCH   2  22
ATOM     22  O   UNL     1    -102.313  44.612   3.645  1.00  0.00    -0.502 OA
ATOM     23  H   UNL     1    -102.422  44.839   4.626  1.00  0.00     0.293 HD
ENDBRANCH   2  22
BRANCH   6  24
ATOM     24  O   UNL     1    -100.416  46.742  -0.852  1.00  0.00    -0.507 OA
ATOM     25  H   UNL     1    -100.489  47.745  -0.771  1.00  0.00     0.293 HD
ENDBRANCH   6  24
BRANCH   8  26
ATOM     26  O   UNL     1     -95.937  45.013  -0.777  1.00  0.00    -0.508 OA
ATOM     27  H   UNL     1     -95.813  45.188  -1.768  1.00  0.00     0.293 HD
ENDBRANCH   8  26
TORSDOF 6
ENDMDL
MODEL 7
REMARK VINA RESULT:    -4.516      9.572     12.027
REMARK INTER + INTRA:          -5.748
REMARK INTER:                  -5.611
REMARK INTRA:                  -0.136
REMARK UNBOUND:                -0.308
REMARK SMILES O=c1c(O)c(-c2ccc(O)c(O)c2)oc2cc(O)cc(O)c12
REMARK SMILES IDX 5 1 3 2 2 3 1 4 22 5 20 6 19 7 17 8 16 9 15 10 14 11 6 12
REMARK SMILES IDX 7 13 8 14 9 15 13 16 11 17 10 18 12 20 4 22 21 24 18 26
REMARK H PARENT 10 19 12 21 4 23 21 25 18 27
REMARK Flexibility Score: inf
ROOT
ATOM      1  C   UNL     1    -100.256  50.616  14.969  1.00  0.00     0.180 A 
ATOM      2  C   UNL     1    -101.590  50.226  14.751  1.00  0.00     0.208 A 
ATOM      3  C   UNL     1    -102.321  50.846  13.725  1.00  0.00     0.238 A 
ATOM      4  O   UNL     1    -103.495  50.454  13.499  1.00  0.00    -0.285 OA
ATOM      5  C   UNL     1    -101.716  51.857  12.940  1.00  0.00     0.111 A 
ATOM      6  C   UNL     1    -102.376  52.579  11.901  1.00  0.00     0.134 A 
ATOM      7  C   UNL     1    -101.642  53.467  11.103  1.00  0.00     0.093 A 
ATOM      8  C   UNL     1    -100.288  53.705  11.350  1.00  0.00     0.123 A 
ATOM      9  C   UNL     1     -99.650  53.049  12.400  1.00  0.00     0.094 A 
ATOM     10  C   UNL     1    -100.347  52.132  13.190  1.00  0.00     0.146 A 
ATOM     11  O   UNL     1     -99.697  51.521  14.174  1.00  0.00    -0.452 OA
ENDROOT
BRANCH   1  12
ATOM     12  C   UNL     1     -99.429  50.027  16.047  1.00  0.00     0.025 A 
ATOM     13  C   UNL     1     -99.102  48.663  16.002  1.00  0.00     0.016 A 
ATOM     14  C   UNL     1     -98.305  48.091  16.996  1.00  0.00     0.051 A 
ATOM     15  C   UNL     1     -97.812  48.880  18.044  1.00  0.00     0.157 A 
ATOM     16  C   UNL     1     -98.914  50.819  17.090  1.00  0.00     0.062 A 
ATOM     17  C   UNL     1     -98.113  50.246  18.089  1.00  0.00     0.158 A 
BRANCH  15  18
ATOM     18  O   UNL     1     -97.018  48.314  19.041  1.00  0.00    -0.504 OA
ATOM     19  H   UNL     1     -97.413  47.706  19.750  1.00  0.00     0.293 HD
ENDBRANCH  15  18
BRANCH  17  20
ATOM     20  O   UNL     1     -97.608  51.031  19.125  1.00  0.00    -0.504 OA
ATOM     21  H   UNL     1     -97.942  51.974  19.286  1.00  0.00     0.293 HD
ENDBRANCH  17  20
ENDBRANCH   1  12
BRANCH   2  22
ATOM     22  O   UNL     1    -102.160  49.211  15.523  1.00  0.00    -0.502 OA
ATOM     23  H   UNL     1    -101.712  48.840  16.352  1.00  0.00     0.293 HD
ENDBRANCH   2  22
BRANCH   6  24
ATOM     24  O   UNL     1    -103.744  52.483  11.632  1.00  0.00    -0.507 OA
ATOM     25  H   UNL     1    -104.172  52.702  10.745  1.00  0.00     0.293 HD
ENDBRANCH   6  24
BRANCH   8  26
ATOM     26  O   UNL     1     -99.569  54.601  10.562  1.00  0.00    -0.508 OA
ATOM     27  H   UNL     1     -98.669  54.356  10.167  1.00  0.00     0.293 HD
ENDBRANCH   8  26
TORSDOF 6
ENDMDL
MODEL 8
REMARK VINA RESULT:    -4.512      1.470      2.648
REMARK INTER + INTRA:          -5.743
REMARK INTER:                  -5.831
REMARK INTRA:                   0.088
REMARK UNBOUND:                -0.308
REMARK SMILES O=c1c(O)c(-c2ccc(O)c(O)c2)oc2cc(O)cc(O)c12
REMARK SMILES IDX 5 1 3 2 2 3 1 4 22 5 20 6 19 7 17 8 16 9 15 10 14 11 6 12
REMARK SMILES IDX 7 13 8 14 9 15 13 16 11 17 10 18 12 20 4 22 21 24 18 26
REMARK H PARENT 10 19 12 21 4 23 21 25 18 27
REMARK Flexibility Score: inf
ROOT
ATOM      1  C   UNL     1     -99.657  42.778   9.409  1.00  0.00     0.180 A 
ATOM      2  C   UNL     1     -99.994  43.653  10.457  1.00  0.00     0.208 A 
ATOM      3  C   UNL     1     -99.920  43.189  11.780  1.00  0.00     0.238 A 
ATOM      4  O   UNL     1    -100.170  43.992  12.716  1.00  0.00    -0.285 OA
ATOM      5  C   UNL     1     -99.524  41.854  12.038  1.00  0.00     0.111 A 
ATOM      6  C   UNL     1     -99.452  41.268  13.338  1.00  0.00     0.134 A 
ATOM      7  C   UNL     1     -98.923  39.980  13.486  1.00  0.00     0.093 A 
ATOM      8  C   UNL     1     -98.524  39.234  12.374  1.00  0.00     0.123 A 
ATOM      9  C   UNL     1     -98.646  39.775  11.097  1.00  0.00     0.094 A 
ATOM     10  C   UNL     1     -99.137  41.071  10.921  1.00  0.00     0.146 A 
ATOM     11  O   UNL     1     -99.227  41.552   9.687  1.00  0.00    -0.452 OA
ENDROOT
BRANCH   1  12
ATOM     12  C   UNL     1     -99.735  43.184   7.987  1.00  0.00     0.025 A 
ATOM     13  C   UNL     1     -98.743  42.758   7.090  1.00  0.00     0.016 A 
ATOM     14  C   UNL     1     -98.809  43.111   5.740  1.00  0.00     0.051 A 
ATOM     15  C   UNL     1     -99.875  43.886   5.265  1.00  0.00     0.157 A 
ATOM     16  C   UNL     1    -100.815  43.945   7.501  1.00  0.00     0.062 A 
ATOM     17  C   UNL     1    -100.882  44.300   6.146  1.00  0.00     0.158 A 
BRANCH  15  18
ATOM     18  O   UNL     1     -99.944  44.245   3.919  1.00  0.00    -0.504 OA
ATOM     19  H   UNL     1    -100.651  43.858   3.304  1.00  0.00     0.293 HD
ENDBRANCH  15  18
BRANCH  17  20
ATOM     20  O   UNL     1    -101.949  45.058   5.667  1.00  0.00    -0.504 OA
ATOM     21  H   UNL     1    -102.645  44.661   5.047  1.00  0.00     0.293 HD
ENDBRANCH  17  20
ENDBRANCH   1  12
BRANCH   2  22
ATOM     22  O   UNL     1    -100.362  44.972  10.180  1.00  0.00    -0.502 OA
ATOM     23  H   UNL     1    -101.151  45.422  10.627  1.00  0.00     0.293 HD
ENDBRANCH   2  22
BRANCH   6  24
ATOM     24  O   UNL     1     -99.909  41.893  14.502  1.00  0.00    -0.507 OA
ATOM     25  H   UNL     1    -100.646  42.580  14.535  1.00  0.00     0.293 HD
ENDBRANCH   6  24
BRANCH   8  26
ATOM     26  O   UNL     1     -98.014  37.946  12.529  1.00  0.00    -0.508 OA
ATOM     27  H   UNL     1     -97.225  37.620  11.983  1.00  0.00     0.293 HD
ENDBRANCH   8  26
TORSDOF 6
ENDMDL
MODEL 9
REMARK VINA RESULT:    -4.467      2.078      2.887
REMARK INTER + INTRA:          -5.688
REMARK INTER:                  -5.387
REMARK INTRA:                  -0.301
REMARK UNBOUND:                -0.308
REMARK SMILES O=c1c(O)c(-c2ccc(O)c(O)c2)oc2cc(O)cc(O)c12
REMARK SMILES IDX 5 1 3 2 2 3 1 4 22 5 20 6 19 7 17 8 16 9 15 10 14 11 6 12
REMARK SMILES IDX 7 13 8 14 9 15 13 16 11 17 10 18 12 20 4 22 21 24 18 26
REMARK H PARENT 10 19 12 21 4 23 21 25 18 27
REMARK Flexibility Score: inf
ROOT
ATOM      1  C   UNL     1     -99.617  42.741  11.097  1.00  0.00     0.180 A 
ATOM      2  C   UNL     1    -100.793  42.854  11.859  1.00  0.00     0.208 A 
ATOM      3  C   UNL     1    -100.724  42.667  13.249  1.00  0.00     0.238 A 
ATOM      4  O   UNL     1    -101.769  42.824  13.932  1.00  0.00    -0.285 OA
ATOM      5  C   UNL     1     -99.484  42.354  13.857  1.00  0.00     0.111 A 
ATOM      6  C   UNL     1     -99.305  42.105  15.251  1.00  0.00     0.134 A 
ATOM      7  C   UNL     1     -98.013  41.933  15.762  1.00  0.00     0.093 A 
ATOM      8  C   UNL     1     -96.899  41.938  14.918  1.00  0.00     0.123 A 
ATOM      9  C   UNL     1     -97.069  42.120  13.549  1.00  0.00     0.094 A 
ATOM     10  C   UNL     1     -98.343  42.330  13.014  1.00  0.00     0.146 A 
ATOM     11  O   UNL     1     -98.459  42.511  11.704  1.00  0.00    -0.452 OA
ENDROOT
BRANCH   1  12
ATOM     12  C   UNL     1     -99.614  42.899   9.624  1.00  0.00     0.025 A 
ATOM     13  C   UNL     1     -99.118  44.083   9.057  1.00  0.00     0.016 A 
ATOM     14  C   UNL     1     -99.085  44.245   7.670  1.00  0.00     0.051 A 
ATOM     15  C   UNL     1     -99.536  43.219   6.829  1.00  0.00     0.157 A 
ATOM     16  C   UNL     1    -100.047  41.864   8.776  1.00  0.00     0.062 A 
ATOM     17  C   UNL     1    -100.014  42.025   7.382  1.00  0.00     0.158 A 
BRANCH  15  18
ATOM     18  O   UNL     1     -99.509  43.377   5.444  1.00  0.00    -0.504 OA
ATOM     19  H   UNL     1     -99.014  44.147   5.009  1.00  0.00     0.293 HD
ENDBRANCH  15  18
BRANCH  17  20
ATOM     20  O   UNL     1    -100.449  41.001   6.543  1.00  0.00    -0.504 OA
ATOM     21  H   UNL     1     -99.996  40.816   5.655  1.00  0.00     0.293 HD
ENDBRANCH  17  20
ENDBRANCH   1  12
BRANCH   2  22
ATOM     22  O   UNL     1    -102.002  43.185  11.241  1.00  0.00    -0.502 OA
ATOM     23  H   UNL     1    -102.243  42.867  10.311  1.00  0.00     0.293 HD
ENDBRANCH   2  22
BRANCH   6  24
ATOM     24  O   UNL     1    -100.358  41.990  16.164  1.00  0.00    -0.507 OA
ATOM     25  H   UNL     1    -100.309  41.488  17.037  1.00  0.00     0.293 HD
ENDBRANCH   6  24
BRANCH   8  26
ATOM     26  O   UNL     1     -95.618  41.750  15.433  1.00  0.00    -0.508 OA
ATOM     27  H   UNL     1     -94.922  41.205  14.937  1.00  0.00     0.293 HD
ENDBRANCH   8  26
TORSDOF 6
ENDMDL
