MODEL 1
REMARK VINA RESULT:    -1.962      0.000      0.000
REMARK INTER + INTRA:          -3.884
REMARK INTER:                  -5.172
REMARK INTRA:                   1.288
REMARK UNBOUND:                 1.288
REMARK SMILES CCCCCCCCCCCCCCCCCCCCCCCCCCCCCC(=O)[O-]
REMARK SMILES IDX 16 1 17 2 18 3 19 4 20 5 21 6 22 7 23 8 24 9 25 10 26 11
REMARK SMILES IDX 27 12 28 13 29 14 30 15 31 16 32 17 15 18 14 19 13 20 12 21
REMARK SMILES IDX 11 22 10 23 9 24 8 25 7 26 6 27 5 28 4 29 3 30 2 31 1 32
REMARK H PARENT
REMARK Flexibility Score: inf
ROOT
ATOM      1  C   UNL     1      30.659  48.652   6.896  1.00  0.00     0.000 C 
ENDROOT
BRANCH   1   2
ATOM      2  C   UNL     1      29.476  49.567   7.250  1.00  0.00     0.000 C 
BRANCH   2   3
ATOM      3  C   UNL     1      29.810  51.041   6.980  1.00  0.00     0.000 C 
BRANCH   3   4
ATOM      4  C   UNL     1      31.263  51.391   7.353  1.00  0.00     0.000 C 
BRANCH   4   5
ATOM      5  C   UNL     1      31.464  51.801   8.828  1.00  0.00     0.000 C 
BRANCH   5   6
ATOM      6  C   UNL     1      30.229  51.631   9.736  1.00  0.00     0.000 C 
BRANCH   6   7
ATOM      7  C   UNL     1      28.870  51.850   9.044  1.00  0.00     0.000 C 
BRANCH   7   8
ATOM      8  C   UNL     1      28.074  53.066   9.551  1.00  0.00     0.000 C 
BRANCH   8   9
ATOM      9  C   UNL     1      27.509  53.927   8.406  1.00  0.00     0.000 C 
BRANCH   9  10
ATOM     10  C   UNL     1      26.242  54.700   8.827  1.00  0.00     0.000 C 
BRANCH  10  11
ATOM     11  C   UNL     1      24.935  54.105   8.264  1.00  0.00     0.000 C 
BRANCH  11  12
ATOM     12  C   UNL     1      24.878  52.567   8.258  1.00  0.00     0.000 C 
BRANCH  12  13
ATOM     13  C   UNL     1      25.209  51.968   6.882  1.00  0.00     0.006 C 
BRANCH  13  14
ATOM     14  C   UNL     1      26.237  50.839   7.009  1.00  0.00     0.053 C 
BRANCH  14  15
ATOM     15  C   UNL     1      25.607  49.617   7.598  1.00  0.00     0.041 C 
ATOM     16  O   UNL     1      24.879  48.872   6.890  1.00  0.00    -0.550 OA
ATOM     17  O   UNL     1      25.840  49.287   8.927  1.00  0.00    -0.550 OA
ENDBRANCH  14  15
ENDBRANCH  13  14
ENDBRANCH  12  13
ENDBRANCH  11  12
ENDBRANCH  10  11
ENDBRANCH   9  10
ENDBRANCH   8   9
ENDBRANCH   7   8
ENDBRANCH   6   7
ENDBRANCH   5   6
ENDBRANCH   4   5
ENDBRANCH   3   4
ENDBRANCH   2   3
ENDBRANCH   1   2
BRANCH   1  18
ATOM     18  C   UNL     1      31.243  47.967   8.146  1.00  0.00     0.000 C 
BRANCH  18  19
ATOM     19  C   UNL     1      30.164  47.626   9.191  1.00  0.00     0.000 C 
BRANCH  19  20
ATOM     20  C   UNL     1      29.167  46.581   8.659  1.00  0.00     0.000 C 
BRANCH  20  21
ATOM     21  C   UNL     1      28.283  47.131   7.521  1.00  0.00     0.000 C 
BRANCH  21  22
ATOM     22  C   UNL     1      27.137  46.192   7.081  1.00  0.00     0.000 C 
BRANCH  22  23
ATOM     23  C   UNL     1      27.191  44.764   7.667  1.00  0.00     0.000 C 
BRANCH  23  24
ATOM     24  C   UNL     1      25.869  44.294   8.320  1.00  0.00    -0.000 C 
BRANCH  24  25
ATOM     25  C   UNL     1      25.170  43.161   7.552  1.00  0.00    -0.000 C 
BRANCH  25  26
ATOM     26  C   UNL     1      26.164  42.208   6.876  1.00  0.00    -0.000 C 
BRANCH  26  27
ATOM     27  C   UNL     1      27.070  41.478   7.882  1.00  0.00    -0.000 C 
BRANCH  27  28
ATOM     28  C   UNL     1      26.372  40.312   8.613  1.00  0.00    -0.000 C 
BRANCH  28  29
ATOM     29  C   UNL     1      26.445  39.002   7.807  1.00  0.00    -0.000 C 
BRANCH  29  30
ATOM     30  C   UNL     1      25.749  37.822   8.511  1.00  0.00    -0.000 C 
BRANCH  30  31
ATOM     31  C   UNL     1      26.376  36.443   8.240  1.00  0.00    -0.003 C 
ATOM     32  C   UNL     1      27.522  36.496   7.229  1.00  0.00     0.004 C 
ENDBRANCH  30  31
ENDBRANCH  29  30
ENDBRANCH  28  29
ENDBRANCH  27  28
ENDBRANCH  26  27
ENDBRANCH  25  26
ENDBRANCH  24  25
ENDBRANCH  23  24
ENDBRANCH  22  23
ENDBRANCH  21  22
ENDBRANCH  20  21
ENDBRANCH  19  20
ENDBRANCH  18  19
ENDBRANCH   1  18
TORSDOF 28
ENDMDL
MODEL 2
REMARK VINA RESULT:    -1.178     19.559     21.227
REMARK INTER + INTRA:          -1.819
REMARK INTER:                  -0.534
REMARK INTRA:                  -1.285
REMARK UNBOUND:                 1.288
REMARK SMILES CCCCCCCCCCCCCCCCCCCCCCCCCCCCCC(=O)[O-]
REMARK SMILES IDX 16 1 17 2 18 3 19 4 20 5 21 6 22 7 23 8 24 9 25 10 26 11
REMARK SMILES IDX 27 12 28 13 29 14 30 15 31 16 32 17 15 18 14 19 13 20 12 21
REMARK SMILES IDX 11 22 10 23 9 24 8 25 7 26 6 27 5 28 4 29 3 30 2 31 1 32
REMARK H PARENT
REMARK Flexibility Score: inf
ROOT
ATOM      1  C   UNL     1      35.083  42.454  24.139  1.00  0.00     0.000 C 
ENDROOT
BRANCH   1   2
ATOM      2  C   UNL     1      34.932  42.239  25.654  1.00  0.00     0.000 C 
BRANCH   2   3
ATOM      3  C   UNL     1      35.926  43.106  26.441  1.00  0.00     0.000 C 
BRANCH   3   4
ATOM      4  C   UNL     1      35.697  44.613  26.216  1.00  0.00     0.000 C 
BRANCH   4   5
ATOM      5  C   UNL     1      36.622  45.531  27.043  1.00  0.00     0.000 C 
BRANCH   5   6
ATOM      6  C   UNL     1      36.450  47.043  26.792  1.00  0.00     0.000 C 
BRANCH   6   7
ATOM      7  C   UNL     1      35.013  47.576  26.950  1.00  0.00     0.000 C 
BRANCH   7   8
ATOM      8  C   UNL     1      34.326  47.987  25.636  1.00  0.00     0.000 C 
BRANCH   8   9
ATOM      9  C   UNL     1      32.836  48.325  25.824  1.00  0.00     0.000 C 
BRANCH   9  10
ATOM     10  C   UNL     1      32.623  49.493  26.811  1.00  0.00     0.000 C 
BRANCH  10  11
ATOM     11  C   UNL     1      32.051  50.765  26.154  1.00  0.00     0.000 C 
BRANCH  11  12
ATOM     12  C   UNL     1      31.485  50.560  24.737  1.00  0.00     0.000 C 
BRANCH  12  13
ATOM     13  C   UNL     1      31.009  51.873  24.094  1.00  0.00     0.006 C 
BRANCH  13  14
ATOM     14  C   UNL     1      31.405  53.079  24.952  1.00  0.00     0.053 C 
BRANCH  14  15
ATOM     15  C   UNL     1      30.193  53.858  25.356  1.00  0.00     0.041 C 
ATOM     16  O   UNL     1      30.170  55.110  25.228  1.00  0.00    -0.550 OA
ATOM     17  O   UNL     1      29.078  53.198  25.857  1.00  0.00    -0.550 OA
ENDBRANCH  14  15
ENDBRANCH  13  14
ENDBRANCH  12  13
ENDBRANCH  11  12
ENDBRANCH  10  11
ENDBRANCH   9  10
ENDBRANCH   8   9
ENDBRANCH   7   8
ENDBRANCH   6   7
ENDBRANCH   5   6
ENDBRANCH   4   5
ENDBRANCH   3   4
ENDBRANCH   2   3
ENDBRANCH   1   2
BRANCH   1  18
ATOM     18  C   UNL     1      35.657  41.206  23.441  1.00  0.00     0.000 C 
BRANCH  18  19
ATOM     19  C   UNL     1      37.130  41.386  23.028  1.00  0.00     0.000 C 
BRANCH  19  20
ATOM     20  C   UNL     1      38.085  41.148  24.211  1.00  0.00     0.000 C 
BRANCH  20  21
ATOM     21  C   UNL     1      37.402  40.426  25.389  1.00  0.00     0.000 C 
BRANCH  21  22
ATOM     22  C   UNL     1      37.700  38.912  25.479  1.00  0.00     0.000 C 
BRANCH  22  23
ATOM     23  C   UNL     1      38.657  38.492  26.616  1.00  0.00     0.000 C 
BRANCH  23  24
ATOM     24  C   UNL     1      39.987  39.281  26.651  1.00  0.00    -0.000 C 
BRANCH  24  25
ATOM     25  C   UNL     1      41.188  38.446  27.124  1.00  0.00    -0.000 C 
BRANCH  25  26
ATOM     26  C   UNL     1      42.528  39.156  26.888  1.00  0.00    -0.000 C 
BRANCH  26  27
ATOM     27  C   UNL     1      43.317  38.567  25.707  1.00  0.00    -0.000 C 
BRANCH  27  28
ATOM     28  C   UNL     1      44.538  37.726  26.135  1.00  0.00    -0.000 C 
BRANCH  28  29
ATOM     29  C   UNL     1      44.597  36.379  25.391  1.00  0.00    -0.000 C 
BRANCH  29  30
ATOM     30  C   UNL     1      44.618  35.168  26.342  1.00  0.00    -0.000 C 
BRANCH  30  31
ATOM     31  C   UNL     1      43.283  34.875  27.051  1.00  0.00    -0.003 C 
ATOM     32  C   UNL     1      42.070  35.057  26.138  1.00  0.00     0.004 C 
ENDBRANCH  30  31
ENDBRANCH  29  30
ENDBRANCH  28  29
ENDBRANCH  27  28
ENDBRANCH  26  27
ENDBRANCH  25  26
ENDBRANCH  24  25
ENDBRANCH  23  24
ENDBRANCH  22  23
ENDBRANCH  21  22
ENDBRANCH  20  21
ENDBRANCH  19  20
ENDBRANCH  18  19
ENDBRANCH   1  18
TORSDOF 28
ENDMDL
MODEL 3
REMARK VINA RESULT:    -0.334     18.202     22.189
REMARK INTER + INTRA:           0.408
REMARK INTER:                   0.364
REMARK INTRA:                   0.044
REMARK UNBOUND:                 1.288
REMARK SMILES CCCCCCCCCCCCCCCCCCCCCCCCCCCCCC(=O)[O-]
REMARK SMILES IDX 16 1 17 2 18 3 19 4 20 5 21 6 22 7 23 8 24 9 25 10 26 11
REMARK SMILES IDX 27 12 28 13 29 14 30 15 31 16 32 17 15 18 14 19 13 20 12 21
REMARK SMILES IDX 11 22 10 23 9 24 8 25 7 26 6 27 5 28 4 29 3 30 2 31 1 32
REMARK H PARENT
REMARK Flexibility Score: inf
ROOT
ATOM      1  C   UNL     1      35.246  47.881  25.562  1.00  0.00     0.000 C 
ENDROOT
BRANCH   1   2
ATOM      2  C   UNL     1      36.648  47.252  25.536  1.00  0.00     0.000 C 
BRANCH   2   3
ATOM      3  C   UNL     1      36.863  46.321  26.738  1.00  0.00     0.000 C 
BRANCH   3   4
ATOM      4  C   UNL     1      35.630  45.445  27.030  1.00  0.00     0.000 C 
BRANCH   4   5
ATOM      5  C   UNL     1      34.550  45.472  25.927  1.00  0.00     0.000 C 
BRANCH   5   6
ATOM      6  C   UNL     1      33.928  44.104  25.577  1.00  0.00     0.000 C 
BRANCH   6   7
ATOM      7  C   UNL     1      34.897  43.081  24.955  1.00  0.00     0.000 C 
BRANCH   7   8
ATOM      8  C   UNL     1      35.415  42.006  25.927  1.00  0.00     0.000 C 
BRANCH   8   9
ATOM      9  C   UNL     1      36.660  41.273  25.395  1.00  0.00     0.000 C 
BRANCH   9  10
ATOM     10  C   UNL     1      37.858  41.380  26.361  1.00  0.00     0.000 C 
BRANCH  10  11
ATOM     11  C   UNL     1      39.088  40.562  25.920  1.00  0.00     0.000 C 
BRANCH  11  12
ATOM     12  C   UNL     1      39.421  39.361  26.822  1.00  0.00     0.000 C 
BRANCH  12  13
ATOM     13  C   UNL     1      38.193  38.486  27.120  1.00  0.00     0.006 C 
BRANCH  13  14
ATOM     14  C   UNL     1      37.769  37.695  25.879  1.00  0.00     0.053 C 
BRANCH  14  15
ATOM     15  C   UNL     1      37.872  36.224  26.132  1.00  0.00     0.041 C 
ATOM     16  O   UNL     1      38.992  35.693  26.357  1.00  0.00    -0.550 OA
ATOM     17  O   UNL     1      36.726  35.438  26.139  1.00  0.00    -0.550 OA
ENDBRANCH  14  15
ENDBRANCH  13  14
ENDBRANCH  12  13
ENDBRANCH  11  12
ENDBRANCH  10  11
ENDBRANCH   9  10
ENDBRANCH   8   9
ENDBRANCH   7   8
ENDBRANCH   6   7
ENDBRANCH   5   6
ENDBRANCH   4   5
ENDBRANCH   3   4
ENDBRANCH   2   3
ENDBRANCH   1   2
BRANCH   1  18
ATOM     18  C   UNL     1      35.175  49.076  26.531  1.00  0.00     0.000 C 
BRANCH  18  19
ATOM     19  C   UNL     1      33.796  49.762  26.524  1.00  0.00     0.000 C 
BRANCH  19  20
ATOM     20  C   UNL     1      32.781  48.989  25.662  1.00  0.00     0.000 C 
BRANCH  20  21
ATOM     21  C   UNL     1      31.411  49.691  25.585  1.00  0.00     0.000 C 
BRANCH  21  22
ATOM     22  C   UNL     1      30.838  50.142  26.948  1.00  0.00     0.000 C 
BRANCH  22  23
ATOM     23  C   UNL     1      30.676  51.668  27.125  1.00  0.00     0.000 C 
BRANCH  23  24
ATOM     24  C   UNL     1      31.883  52.498  26.625  1.00  0.00    -0.000 C 
BRANCH  24  25
ATOM     25  C   UNL     1      31.880  53.952  27.123  1.00  0.00    -0.000 C 
BRANCH  25  26
ATOM     26  C   UNL     1      30.704  54.763  26.561  1.00  0.00    -0.000 C 
BRANCH  26  27
ATOM     27  C   UNL     1      29.820  53.949  25.602  1.00  0.00    -0.000 C 
BRANCH  27  28
ATOM     28  C   UNL     1      30.064  54.270  24.112  1.00  0.00    -0.000 C 
BRANCH  28  29
ATOM     29  C   UNL     1      31.559  54.214  23.749  1.00  0.00    -0.000 C 
BRANCH  29  30
ATOM     30  C   UNL     1      31.961  52.900  23.054  1.00  0.00    -0.000 C 
BRANCH  30  31
ATOM     31  C   UNL     1      30.794  52.108  22.437  1.00  0.00    -0.003 C 
ATOM     32  C   UNL     1      30.507  50.797  23.169  1.00  0.00     0.004 C 
ENDBRANCH  30  31
ENDBRANCH  29  30
ENDBRANCH  28  29
ENDBRANCH  27  28
ENDBRANCH  26  27
ENDBRANCH  25  26
ENDBRANCH  24  25
ENDBRANCH  23  24
ENDBRANCH  22  23
ENDBRANCH  21  22
ENDBRANCH  20  21
ENDBRANCH  19  20
ENDBRANCH  18  19
ENDBRANCH   1  18
TORSDOF 28
ENDMDL
MODEL 4
REMARK VINA RESULT:     0.065     17.810     19.337
REMARK INTER + INTRA:           1.459
REMARK INTER:                   1.379
REMARK INTRA:                   0.080
REMARK UNBOUND:                 1.288
REMARK SMILES CCCCCCCCCCCCCCCCCCCCCCCCCCCCCC(=O)[O-]
REMARK SMILES IDX 16 1 17 2 18 3 19 4 20 5 21 6 22 7 23 8 24 9 25 10 26 11
REMARK SMILES IDX 27 12 28 13 29 14 30 15 31 16 32 17 15 18 14 19 13 20 12 21
REMARK SMILES IDX 11 22 10 23 9 24 8 25 7 26 6 27 5 28 4 29 3 30 2 31 1 32
REMARK H PARENT
REMARK Flexibility Score: inf
ROOT
ATOM      1  C   UNL     1      34.496  48.451  25.142  1.00  0.00     0.000 C 
ENDROOT
BRANCH   1   2
ATOM      2  C   UNL     1      34.693  49.952  25.410  1.00  0.00     0.000 C 
BRANCH   2   3
ATOM      3  C   UNL     1      34.146  50.349  26.788  1.00  0.00     0.000 C 
BRANCH   3   4
ATOM      4  C   UNL     1      33.660  51.810  26.829  1.00  0.00     0.000 C 
BRANCH   4   5
ATOM      5  C   UNL     1      32.154  51.976  27.125  1.00  0.00     0.000 C 
BRANCH   5   6
ATOM      6  C   UNL     1      31.297  50.708  26.924  1.00  0.00     0.000 C 
BRANCH   6   7
ATOM      7  C   UNL     1      29.869  50.958  26.403  1.00  0.00     0.000 C 
BRANCH   7   8
ATOM      8  C   UNL     1      29.166  52.189  27.004  1.00  0.00     0.000 C 
BRANCH   8   9
ATOM      9  C   UNL     1      28.395  53.006  25.951  1.00  0.00     0.000 C 
BRANCH   9  10
ATOM     10  C   UNL     1      29.284  54.070  25.273  1.00  0.00     0.000 C 
BRANCH  10  11
ATOM     11  C   UNL     1      30.235  54.797  26.245  1.00  0.00     0.000 C 
BRANCH  11  12
ATOM     12  C   UNL     1      31.626  55.117  25.668  1.00  0.00     0.000 C 
BRANCH  12  13
ATOM     13  C   UNL     1      31.875  54.437  24.312  1.00  0.00     0.006 C 
BRANCH  13  14
ATOM     14  C   UNL     1      31.059  53.147  24.187  1.00  0.00     0.053 C 
BRANCH  14  15
ATOM     15  C   UNL     1      31.117  52.621  22.787  1.00  0.00     0.041 C 
ATOM     16  O   UNL     1      31.239  53.412  21.815  1.00  0.00    -0.550 OA
ATOM     17  O   UNL     1      31.055  51.253  22.556  1.00  0.00    -0.550 OA
ENDBRANCH  14  15
ENDBRANCH  13  14
ENDBRANCH  12  13
ENDBRANCH  11  12
ENDBRANCH  10  11
ENDBRANCH   9  10
ENDBRANCH   8   9
ENDBRANCH   7   8
ENDBRANCH   6   7
ENDBRANCH   5   6
ENDBRANCH   4   5
ENDBRANCH   3   4
ENDBRANCH   2   3
ENDBRANCH   1   2
BRANCH   1  18
ATOM     18  C   UNL     1      35.808  47.664  25.324  1.00  0.00     0.000 C 
BRANCH  18  19
ATOM     19  C   UNL     1      36.119  47.367  26.803  1.00  0.00     0.000 C 
BRANCH  19  20
ATOM     20  C   UNL     1      35.975  45.869  27.125  1.00  0.00     0.000 C 
BRANCH  20  21
ATOM     21  C   UNL     1      34.524  45.368  26.977  1.00  0.00     0.000 C 
BRANCH  21  22
ATOM     22  C   UNL     1      34.388  43.850  26.720  1.00  0.00     0.000 C 
BRANCH  22  23
ATOM     23  C   UNL     1      35.676  43.025  26.931  1.00  0.00     0.000 C 
BRANCH  23  24
ATOM     24  C   UNL     1      36.388  42.612  25.621  1.00  0.00    -0.000 C 
BRANCH  24  25
ATOM     25  C   UNL     1      37.845  42.166  25.824  1.00  0.00    -0.000 C 
BRANCH  25  26
ATOM     26  C   UNL     1      38.272  41.081  24.826  1.00  0.00    -0.000 C 
BRANCH  26  27
ATOM     27  C   UNL     1      37.524  39.753  25.030  1.00  0.00    -0.000 C 
BRANCH  27  28
ATOM     28  C   UNL     1      37.708  39.147  26.437  1.00  0.00    -0.000 C 
BRANCH  28  29
ATOM     29  C   UNL     1      37.131  37.722  26.530  1.00  0.00    -0.000 C 
BRANCH  29  30
ATOM     30  C   UNL     1      38.212  36.628  26.444  1.00  0.00    -0.000 C 
BRANCH  30  31
ATOM     31  C   UNL     1      37.712  35.199  26.721  1.00  0.00    -0.003 C 
ATOM     32  C   UNL     1      36.204  35.130  26.966  1.00  0.00     0.004 C 
ENDBRANCH  30  31
ENDBRANCH  29  30
ENDBRANCH  28  29
ENDBRANCH  27  28
ENDBRANCH  26  27
ENDBRANCH  25  26
ENDBRANCH  24  25
ENDBRANCH  23  24
ENDBRANCH  22  23
ENDBRANCH  21  22
ENDBRANCH  20  21
ENDBRANCH  19  20
ENDBRANCH  18  19
ENDBRANCH   1  18
TORSDOF 28
ENDMDL
