MODEL 1
REMARK VINA RESULT:    -5.379      0.000      0.000
REMARK INTER + INTRA:          -5.693
REMARK INTER:                  -5.693
REMARK INTRA:                   0.000
REMARK UNBOUND:                 0.000
REMARK SMILES O=c1ccc2cc(O)c(O)cc2o1
REMARK SMILES IDX 4 1 3 2 2 3 1 4 13 5 12 6 11 7 9 8 7 9 6 10 5 11 8 12 10 14
REMARK H PARENT 8 13 10 15
REMARK Flexibility Score: inf
ROOT
ATOM      1  C   UNL     1      10.210  -7.332  -9.506  1.00  0.00     0.019 A 
ATOM      2  C   UNL     1       9.421  -8.049 -10.406  1.00  0.00     0.094 A 
ATOM      3  C   UNL     1       8.040  -8.117 -10.192  1.00  0.00     0.336 A 
ATOM      4  O   UNL     1       7.311  -8.759 -10.992  1.00  0.00    -0.246 OA
ATOM      5  O   UNL     1       7.490  -7.504  -9.147  1.00  0.00    -0.423 OA
ATOM      6  C   UNL     1       8.206  -6.810  -8.265  1.00  0.00     0.142 A 
ATOM      7  C   UNL     1       7.573  -6.188  -7.185  1.00  0.00     0.098 A 
ATOM      8  C   UNL     1       8.321  -5.454  -6.253  1.00  0.00     0.161 A 
ATOM      9  C   UNL     1       9.716  -5.344  -6.404  1.00  0.00     0.158 A 
ATOM     10  C   UNL     1      10.353  -5.967  -7.485  1.00  0.00     0.062 A 
ATOM     11  C   UNL     1       9.605  -6.699  -8.416  1.00  0.00     0.022 A 
ENDROOT
BRANCH   9  12
ATOM     12  O   UNL     1      10.484  -4.621  -5.492  1.00  0.00    -0.504 OA
ATOM     13  H   UNL     1      11.470  -4.445  -5.637  1.00  0.00     0.293 HD
ENDBRANCH   9  12
BRANCH   8  14
ATOM     14  O   UNL     1       7.686  -4.836  -5.177  1.00  0.00    -0.504 OA
ATOM     15  H   UNL     1       6.791  -4.373  -5.284  1.00  0.00     0.293 HD
ENDBRANCH   8  14
TORSDOF 2
ENDMDL
MODEL 2
REMARK VINA RESULT:    -5.354      1.655      2.314
REMARK INTER + INTRA:          -5.667
REMARK INTER:                  -5.667
REMARK INTRA:                   0.000
REMARK UNBOUND:                 0.000
REMARK SMILES O=c1ccc2cc(O)c(O)cc2o1
REMARK SMILES IDX 4 1 3 2 2 3 1 4 13 5 12 6 11 7 9 8 7 9 6 10 5 11 8 12 10 14
REMARK H PARENT 8 13 10 15
REMARK Flexibility Score: inf
ROOT
ATOM      1  C   UNL     1       7.878  -8.777  -8.088  1.00  0.00     0.019 A 
ATOM      2  C   UNL     1       8.046  -8.514  -9.447  1.00  0.00     0.094 A 
ATOM      3  C   UNL     1       8.203  -7.187  -9.867  1.00  0.00     0.336 A 
ATOM      4  O   UNL     1       8.356  -6.929 -11.089  1.00  0.00    -0.246 OA
ATOM      5  O   UNL     1       8.194  -6.196  -8.980  1.00  0.00    -0.423 OA
ATOM      6  C   UNL     1       8.036  -6.403  -7.674  1.00  0.00     0.142 A 
ATOM      7  C   UNL     1       8.032  -5.322  -6.790  1.00  0.00     0.098 A 
ATOM      8  C   UNL     1       7.868  -5.534  -5.413  1.00  0.00     0.161 A 
ATOM      9  C   UNL     1       7.704  -6.842  -4.919  1.00  0.00     0.158 A 
ATOM     10  C   UNL     1       7.706  -7.928  -5.804  1.00  0.00     0.062 A 
ATOM     11  C   UNL     1       7.872  -7.715  -7.178  1.00  0.00     0.022 A 
ENDROOT
BRANCH   9  12
ATOM     12  O   UNL     1       7.538  -7.080  -3.555  1.00  0.00    -0.504 OA
ATOM     13  H   UNL     1       6.778  -7.643  -3.195  1.00  0.00     0.293 HD
ENDBRANCH   9  12
BRANCH   8  14
ATOM     14  O   UNL     1       7.866  -4.452  -4.534  1.00  0.00    -0.504 OA
ATOM     15  H   UNL     1       7.953  -3.498  -4.865  1.00  0.00     0.293 HD
ENDBRANCH   8  14
TORSDOF 2
ENDMDL
MODEL 3
REMARK VINA RESULT:    -5.320      1.563      2.032
REMARK INTER + INTRA:          -5.631
REMARK INTER:                  -5.631
REMARK INTRA:                   0.000
REMARK UNBOUND:                 0.000
REMARK SMILES O=c1ccc2cc(O)c(O)cc2o1
REMARK SMILES IDX 4 1 3 2 2 3 1 4 13 5 12 6 11 7 9 8 7 9 6 10 5 11 8 12 10 14
REMARK H PARENT 8 13 10 15
REMARK Flexibility Score: inf
ROOT
ATOM      1  C   UNL     1       8.269  -5.811  -8.951  1.00  0.00     0.019 A 
ATOM      2  C   UNL     1       8.247  -6.826  -9.907  1.00  0.00     0.094 A 
ATOM      3  C   UNL     1       8.041  -8.146  -9.491  1.00  0.00     0.336 A 
ATOM      4  O   UNL     1       8.018  -9.076 -10.339  1.00  0.00    -0.246 OA
ATOM      5  O   UNL     1       7.866  -8.426  -8.202  1.00  0.00    -0.423 OA
ATOM      6  C   UNL     1       7.879  -7.489  -7.257  1.00  0.00     0.142 A 
ATOM      7  C   UNL     1       7.691  -7.842  -5.918  1.00  0.00     0.098 A 
ATOM      8  C   UNL     1       7.703  -6.858  -4.918  1.00  0.00     0.161 A 
ATOM      9  C   UNL     1       7.906  -5.509  -5.263  1.00  0.00     0.158 A 
ATOM     10  C   UNL     1       8.096  -5.152  -6.604  1.00  0.00     0.062 A 
ATOM     11  C   UNL     1       8.083  -6.135  -7.603  1.00  0.00     0.022 A 
ENDROOT
BRANCH   9  12
ATOM     12  O   UNL     1       7.922  -4.512  -4.289  1.00  0.00    -0.504 OA
ATOM     13  H   UNL     1       8.645  -3.805  -4.254  1.00  0.00     0.293 HD
ENDBRANCH   9  12
BRANCH   8  14
ATOM     14  O   UNL     1       7.515  -7.216  -3.584  1.00  0.00    -0.504 OA
ATOM     15  H   UNL     1       7.067  -6.589  -2.925  1.00  0.00     0.293 HD
ENDBRANCH   8  14
TORSDOF 2
ENDMDL
MODEL 4
REMARK VINA RESULT:    -5.219      1.185      2.280
REMARK INTER + INTRA:          -5.524
REMARK INTER:                  -5.524
REMARK INTRA:                   0.000
REMARK UNBOUND:                 0.000
REMARK SMILES O=c1ccc2cc(O)c(O)cc2o1
REMARK SMILES IDX 4 1 3 2 2 3 1 4 13 5 12 6 11 7 9 8 7 9 6 10 5 11 8 12 10 14
REMARK H PARENT 8 13 10 15
REMARK Flexibility Score: inf
ROOT
ATOM      1  C   UNL     1       7.526  -7.604  -9.229  1.00  0.00     0.019 A 
ATOM      2  C   UNL     1       8.225  -8.193 -10.283  1.00  0.00     0.094 A 
ATOM      3  C   UNL     1       9.610  -8.008 -10.366  1.00  0.00     0.336 A 
ATOM      4  O   UNL     1      10.258  -8.531 -11.309  1.00  0.00    -0.246 OA
ATOM      5  O   UNL     1      10.248  -7.283  -9.451  1.00  0.00    -0.423 OA
ATOM      6  C   UNL     1       9.620  -6.704  -8.430  1.00  0.00     0.142 A 
ATOM      7  C   UNL     1      10.343  -5.953  -7.500  1.00  0.00     0.098 A 
ATOM      8  C   UNL     1       9.688  -5.341  -6.421  1.00  0.00     0.161 A 
ATOM      9  C   UNL     1       8.295  -5.483  -6.274  1.00  0.00     0.158 A 
ATOM     10  C   UNL     1       7.568  -6.235  -7.205  1.00  0.00     0.062 A 
ATOM     11  C   UNL     1       8.224  -6.847  -8.282  1.00  0.00     0.022 A 
ENDROOT
BRANCH   9  12
ATOM     12  O   UNL     1       7.619  -4.885  -5.211  1.00  0.00    -0.504 OA
ATOM     13  H   UNL     1       8.005  -4.856  -4.276  1.00  0.00     0.293 HD
ENDBRANCH   9  12
BRANCH   8  14
ATOM     14  O   UNL     1      10.413  -4.592  -5.495  1.00  0.00    -0.504 OA
ATOM     15  H   UNL     1      11.123  -5.016  -4.909  1.00  0.00     0.293 HD
ENDBRANCH   8  14
TORSDOF 2
ENDMDL
MODEL 5
REMARK VINA RESULT:    -5.064      2.126      3.007
REMARK INTER + INTRA:          -5.360
REMARK INTER:                  -5.360
REMARK INTRA:                   0.000
REMARK UNBOUND:                 0.000
REMARK SMILES O=c1ccc2cc(O)c(O)cc2o1
REMARK SMILES IDX 4 1 3 2 2 3 1 4 13 5 12 6 11 7 9 8 7 9 6 10 5 11 8 12 10 14
REMARK H PARENT 8 13 10 15
REMARK Flexibility Score: inf
ROOT
ATOM      1  C   UNL     1       8.234  -6.917 -11.558  1.00  0.00     0.019 A 
ATOM      2  C   UNL     1       8.987  -7.672 -12.458  1.00  0.00     0.094 A 
ATOM      3  C   UNL     1      10.301  -8.016 -12.120  1.00  0.00     0.336 A 
ATOM      4  O   UNL     1      10.997  -8.696 -12.918  1.00  0.00    -0.246 OA
ATOM      5  O   UNL     1      10.821  -7.629 -10.958  1.00  0.00    -0.423 OA
ATOM      6  C   UNL     1      10.137  -6.909 -10.072  1.00  0.00     0.142 A 
ATOM      7  C   UNL     1      10.736  -6.530  -8.867  1.00  0.00     0.098 A 
ATOM      8  C   UNL     1      10.021  -5.772  -7.928  1.00  0.00     0.161 A 
ATOM      9  C   UNL     1       8.694  -5.388  -8.201  1.00  0.00     0.158 A 
ATOM     10  C   UNL     1       8.092  -5.765  -9.408  1.00  0.00     0.062 A 
ATOM     11  C   UNL     1       8.807  -6.524 -10.344  1.00  0.00     0.022 A 
ENDROOT
BRANCH   9  12
ATOM     12  O   UNL     1       7.961  -4.634  -7.286  1.00  0.00    -0.504 OA
ATOM     13  H   UNL     1       8.284  -4.472  -6.340  1.00  0.00     0.293 HD
ENDBRANCH   9  12
BRANCH   8  14
ATOM     14  O   UNL     1      10.622  -5.396  -6.728  1.00  0.00    -0.504 OA
ATOM     15  H   UNL     1      10.782  -4.423  -6.496  1.00  0.00     0.293 HD
ENDBRANCH   8  14
TORSDOF 2
ENDMDL
MODEL 6
REMARK VINA RESULT:    -5.011      2.042      5.158
REMARK INTER + INTRA:          -5.304
REMARK INTER:                  -5.304
REMARK INTRA:                   0.000
REMARK UNBOUND:                 0.000
REMARK SMILES O=c1ccc2cc(O)c(O)cc2o1
REMARK SMILES IDX 4 1 3 2 2 3 1 4 13 5 12 6 11 7 9 8 7 9 6 10 5 11 8 12 10 14
REMARK H PARENT 8 13 10 15
REMARK Flexibility Score: inf
ROOT
ATOM      1  C   UNL     1       8.611  -8.344  -8.474  1.00  0.00     0.019 A 
ATOM      2  C   UNL     1       9.220  -7.608  -7.457  1.00  0.00     0.094 A 
ATOM      3  C   UNL     1       9.573  -6.276  -7.701  1.00  0.00     0.336 A 
ATOM      4  O   UNL     1      10.122  -5.596  -6.797  1.00  0.00    -0.246 OA
ATOM      5  O   UNL     1       9.330  -5.723  -8.886  1.00  0.00    -0.423 OA
ATOM      6  C   UNL     1       8.753  -6.388  -9.884  1.00  0.00     0.142 A 
ATOM      7  C   UNL     1       8.525  -5.754 -11.108  1.00  0.00     0.098 A 
ATOM      8  C   UNL     1       7.915  -6.450 -12.163  1.00  0.00     0.161 A 
ATOM      9  C   UNL     1       7.533  -7.794 -11.989  1.00  0.00     0.158 A 
ATOM     10  C   UNL     1       7.762  -8.432 -10.763  1.00  0.00     0.062 A 
ATOM     11  C   UNL     1       8.369  -7.736  -9.710  1.00  0.00     0.022 A 
ENDROOT
BRANCH   9  12
ATOM     12  O   UNL     1       6.926  -8.508 -13.021  1.00  0.00    -0.504 OA
ATOM     13  H   UNL     1       5.935  -8.713 -13.024  1.00  0.00     0.293 HD
ENDBRANCH   9  12
BRANCH   8  14
ATOM     14  O   UNL     1       7.689  -5.814 -13.382  1.00  0.00    -0.504 OA
ATOM     15  H   UNL     1       7.139  -6.249 -14.114  1.00  0.00     0.293 HD
ENDBRANCH   8  14
TORSDOF 2
ENDMDL
MODEL 7
REMARK VINA RESULT:    -5.003      1.896      2.366
REMARK INTER + INTRA:          -5.296
REMARK INTER:                  -5.296
REMARK INTRA:                   0.000
REMARK UNBOUND:                 0.000
REMARK SMILES O=c1ccc2cc(O)c(O)cc2o1
REMARK SMILES IDX 4 1 3 2 2 3 1 4 13 5 12 6 11 7 9 8 7 9 6 10 5 11 8 12 10 14
REMARK H PARENT 8 13 10 15
REMARK Flexibility Score: inf
ROOT
ATOM      1  C   UNL     1      10.745  -7.195  -8.317  1.00  0.00     0.019 A 
ATOM      2  C   UNL     1      11.203  -7.542  -9.588  1.00  0.00     0.094 A 
ATOM      3  C   UNL     1      10.477  -7.121 -10.708  1.00  0.00     0.336 A 
ATOM      4  O   UNL     1      10.873  -7.424 -11.864  1.00  0.00    -0.246 OA
ATOM      5  O   UNL     1       9.368  -6.400 -10.560  1.00  0.00    -0.423 OA
ATOM      6  C   UNL     1       8.896  -6.048  -9.366  1.00  0.00     0.142 A 
ATOM      7  C   UNL     1       7.726  -5.291  -9.272  1.00  0.00     0.098 A 
ATOM      8  C   UNL     1       7.224  -4.916  -8.017  1.00  0.00     0.161 A 
ATOM      9  C   UNL     1       7.902  -5.305  -6.846  1.00  0.00     0.158 A 
ATOM     10  C   UNL     1       9.075  -6.064  -6.937  1.00  0.00     0.062 A 
ATOM     11  C   UNL     1       9.576  -6.437  -8.191  1.00  0.00     0.022 A 
ENDROOT
BRANCH   9  12
ATOM     12  O   UNL     1       7.425  -4.945  -5.586  1.00  0.00    -0.504 OA
ATOM     13  H   UNL     1       7.494  -5.562  -4.787  1.00  0.00     0.293 HD
ENDBRANCH   9  12
BRANCH   8  14
ATOM     14  O   UNL     1       6.056  -4.161  -7.928  1.00  0.00    -0.504 OA
ATOM     15  H   UNL     1       5.511  -3.926  -8.750  1.00  0.00     0.293 HD
ENDBRANCH   8  14
TORSDOF 2
ENDMDL
MODEL 8
REMARK VINA RESULT:    -4.919     22.889     23.766
REMARK INTER + INTRA:          -5.206
REMARK INTER:                  -5.206
REMARK INTRA:                   0.000
REMARK UNBOUND:                 0.000
REMARK SMILES O=c1ccc2cc(O)c(O)cc2o1
REMARK SMILES IDX 4 1 3 2 2 3 1 4 13 5 12 6 11 7 9 8 7 9 6 10 5 11 8 12 10 14
REMARK H PARENT 8 13 10 15
REMARK Flexibility Score: inf
ROOT
ATOM      1  C   UNL     1      24.773   5.967 -18.066  1.00  0.00     0.019 A 
ATOM      2  C   UNL     1      25.010   6.616 -16.854  1.00  0.00     0.094 A 
ATOM      3  C   UNL     1      24.566   7.933 -16.692  1.00  0.00     0.336 A 
ATOM      4  O   UNL     1      24.770   8.536 -15.607  1.00  0.00    -0.246 OA
ATOM      5  O   UNL     1      23.928   8.554 -17.681  1.00  0.00    -0.423 OA
ATOM      6  C   UNL     1      23.682   7.972 -18.852  1.00  0.00     0.142 A 
ATOM      7  C   UNL     1      23.008   8.675 -19.854  1.00  0.00     0.098 A 
ATOM      8  C   UNL     1      22.744   8.067 -21.091  1.00  0.00     0.161 A 
ATOM      9  C   UNL     1      23.162   6.743 -21.325  1.00  0.00     0.158 A 
ATOM     10  C   UNL     1      23.839   6.037 -20.322  1.00  0.00     0.062 A 
ATOM     11  C   UNL     1      24.100   6.645 -19.087  1.00  0.00     0.022 A 
ENDROOT
BRANCH   9  12
ATOM     12  O   UNL     1      22.913   6.116 -22.544  1.00  0.00    -0.504 OA
ATOM     13  H   UNL     1      22.820   6.635 -23.408  1.00  0.00     0.293 HD
ENDBRANCH   9  12
BRANCH   8  14
ATOM     14  O   UNL     1      22.071   8.771 -22.087  1.00  0.00    -0.504 OA
ATOM     15  H   UNL     1      21.502   8.298 -22.780  1.00  0.00     0.293 HD
ENDBRANCH   8  14
TORSDOF 2
ENDMDL
MODEL 9
REMARK VINA RESULT:    -4.853     11.458     13.540
REMARK INTER + INTRA:          -5.137
REMARK INTER:                  -5.137
REMARK INTRA:                   0.000
REMARK UNBOUND:                 0.000
REMARK SMILES O=c1ccc2cc(O)c(O)cc2o1
REMARK SMILES IDX 4 1 3 2 2 3 1 4 13 5 12 6 11 7 9 8 7 9 6 10 5 11 8 12 10 14
REMARK H PARENT 8 13 10 15
REMARK Flexibility Score: inf
ROOT
ATOM      1  C   UNL     1      23.076  -2.733  -7.997  1.00  0.00     0.019 A 
ATOM      2  C   UNL     1      24.027  -3.132  -7.058  1.00  0.00     0.094 A 
ATOM      3  C   UNL     1      23.601  -3.512  -5.780  1.00  0.00     0.336 A 
ATOM      4  O   UNL     1      24.443  -3.875  -4.918  1.00  0.00    -0.246 OA
ATOM      5  O   UNL     1      22.307  -3.492  -5.469  1.00  0.00    -0.423 OA
ATOM      6  C   UNL     1      21.368  -3.118  -6.334  1.00  0.00     0.142 A 
ATOM      7  C   UNL     1      20.024  -3.116  -5.950  1.00  0.00     0.098 A 
ATOM      8  C   UNL     1      19.029  -2.724  -6.858  1.00  0.00     0.161 A 
ATOM      9  C   UNL     1      19.385  -2.329  -8.161  1.00  0.00     0.158 A 
ATOM     10  C   UNL     1      20.731  -2.328  -8.548  1.00  0.00     0.062 A 
ATOM     11  C   UNL     1      21.723  -2.722  -7.641  1.00  0.00     0.022 A 
ENDROOT
BRANCH   9  12
ATOM     12  O   UNL     1      18.415  -1.934  -9.083  1.00  0.00    -0.504 OA
ATOM     13  H   UNL     1      18.332  -0.977  -9.401  1.00  0.00     0.293 HD
ENDBRANCH   9  12
BRANCH   8  14
ATOM     14  O   UNL     1      17.690  -2.724  -6.471  1.00  0.00    -0.504 OA
ATOM     15  H   UNL     1      17.222  -1.874  -6.176  1.00  0.00     0.293 HD
ENDBRANCH   8  14
TORSDOF 2
ENDMDL
