MODEL 1
REMARK VINA RESULT:     8.614      0.000      0.000
REMARK INTER + INTRA:          16.528
REMARK INTER:                  16.672
REMARK INTRA:                  -0.144
REMARK UNBOUND:                -0.144
REMARK SMILES CCCCCCCCCCCCCCCCCC(=O)[O-]
REMARK SMILES IDX 10 1 11 2 12 3 13 4 14 5 15 6 16 7 17 8 18 9 19 10 20 11
REMARK SMILES IDX 9 12 8 13 7 14 6 15 5 16 4 17 3 18 2 19 1 20
REMARK H PARENT
REMARK Flexibility Score: inf
ROOT
ATOM      1  C   UNL     1     -13.178  18.737 -14.684  1.00  0.00     0.000 C 
ENDROOT
BRANCH   1   2
ATOM      2  C   UNL     1     -13.122  17.984 -16.023  1.00  0.00     0.000 C 
BRANCH   2   3
ATOM      3  C   UNL     1     -14.473  17.971 -16.753  1.00  0.00     0.000 C 
BRANCH   3   4
ATOM      4  C   UNL     1     -14.272  17.918 -18.275  1.00  0.00     0.000 C 
BRANCH   4   5
ATOM      5  C   UNL     1     -14.754  19.194 -18.987  1.00  0.00     0.000 C 
BRANCH   5   6
ATOM      6  C   UNL     1     -13.877  19.654 -20.170  1.00  0.00     0.000 C 
BRANCH   6   7
ATOM      7  C   UNL     1     -14.253  21.021 -20.767  1.00  0.00     0.006 C 
BRANCH   7   8
ATOM      8  C   UNL     1     -13.969  21.113 -22.271  1.00  0.00     0.053 C 
BRANCH   8   9
ATOM      9  C   UNL     1     -13.272  19.877 -22.747  1.00  0.00     0.041 C 
ATOM     10  O   UNL     1     -13.941  18.877 -23.121  1.00  0.00    -0.550 OA
ATOM     11  O   UNL     1     -11.886  19.845 -22.825  1.00  0.00    -0.550 OA
ENDBRANCH   8   9
ENDBRANCH   7   8
ENDBRANCH   6   7
ENDBRANCH   5   6
ENDBRANCH   4   5
ENDBRANCH   3   4
ENDBRANCH   2   3
ENDBRANCH   1   2
BRANCH   1  12
ATOM     12  C   UNL     1     -11.898  19.539 -14.403  1.00  0.00     0.000 C 
BRANCH  12  13
ATOM     13  C   UNL     1     -11.836  19.976 -12.934  1.00  0.00    -0.000 C 
BRANCH  13  14
ATOM     14  C   UNL     1     -13.022  19.414 -12.141  1.00  0.00    -0.000 C 
BRANCH  14  15
ATOM     15  C   UNL     1     -12.736  17.980 -11.669  1.00  0.00    -0.000 C 
BRANCH  15  16
ATOM     16  C   UNL     1     -12.963  17.799 -10.160  1.00  0.00    -0.000 C 
BRANCH  16  17
ATOM     17  C   UNL     1     -13.380  19.106  -9.464  1.00  0.00    -0.000 C 
BRANCH  17  18
ATOM     18  C   UNL     1     -12.784  19.246  -8.052  1.00  0.00    -0.000 C 
BRANCH  18  19
ATOM     19  C   UNL     1     -12.772  20.683  -7.499  1.00  0.00    -0.003 C 
ATOM     20  C   UNL     1     -11.678  21.552  -8.116  1.00  0.00     0.004 C 
ENDBRANCH  18  19
ENDBRANCH  17  18
ENDBRANCH  16  17
ENDBRANCH  15  16
ENDBRANCH  14  15
ENDBRANCH  13  14
ENDBRANCH  12  13
ENDBRANCH   1  12
TORSDOF 16
ENDMDL
MODEL 2
REMARK VINA RESULT:     9.439      1.295      1.581
REMARK INTER + INTRA:          18.125
REMARK INTER:                  18.915
REMARK INTRA:                  -0.790
REMARK UNBOUND:                -0.144
REMARK SMILES CCCCCCCCCCCCCCCCCC(=O)[O-]
REMARK SMILES IDX 10 1 11 2 12 3 13 4 14 5 15 6 16 7 17 8 18 9 19 10 20 11
REMARK SMILES IDX 9 12 8 13 7 14 6 15 5 16 4 17 3 18 2 19 1 20
REMARK H PARENT
REMARK Flexibility Score: inf
ROOT
ATOM      1  C   UNL     1     -12.254  18.793 -15.682  1.00  0.00     0.000 C 
ENDROOT
BRANCH   1   2
ATOM      2  C   UNL     1     -10.917  19.493 -15.976  1.00  0.00     0.000 C 
BRANCH   2   3
ATOM      3  C   UNL     1     -10.768  19.890 -17.452  1.00  0.00     0.000 C 
BRANCH   3   4
ATOM      4  C   UNL     1     -11.635  18.997 -18.350  1.00  0.00     0.000 C 
BRANCH   4   5
ATOM      5  C   UNL     1     -12.039  19.684 -19.666  1.00  0.00     0.000 C 
BRANCH   5   6
ATOM      6  C   UNL     1     -13.559  19.794 -19.907  1.00  0.00     0.000 C 
BRANCH   6   7
ATOM      7  C   UNL     1     -14.015  21.082 -20.615  1.00  0.00     0.006 C 
BRANCH   7   8
ATOM      8  C   UNL     1     -14.507  20.831 -22.046  1.00  0.00     0.053 C 
BRANCH   8   9
ATOM      9  C   UNL     1     -13.570  19.916 -22.768  1.00  0.00     0.041 C 
ATOM     10  O   UNL     1     -13.953  18.770 -23.125  1.00  0.00    -0.550 OA
ATOM     11  O   UNL     1     -12.290  20.345 -23.092  1.00  0.00    -0.550 OA
ENDBRANCH   8   9
ENDBRANCH   7   8
ENDBRANCH   6   7
ENDBRANCH   5   6
ENDBRANCH   4   5
ENDBRANCH   3   4
ENDBRANCH   2   3
ENDBRANCH   1   2
BRANCH   1  12
ATOM     12  C   UNL     1     -12.485  18.568 -14.179  1.00  0.00     0.000 C 
BRANCH  12  13
ATOM     13  C   UNL     1     -12.123  19.822 -13.374  1.00  0.00    -0.000 C 
BRANCH  13  14
ATOM     14  C   UNL     1     -12.329  19.592 -11.873  1.00  0.00    -0.000 C 
BRANCH  14  15
ATOM     15  C   UNL     1     -13.221  18.366 -11.623  1.00  0.00    -0.000 C 
BRANCH  15  16
ATOM     16  C   UNL     1     -12.777  17.551 -10.399  1.00  0.00    -0.000 C 
BRANCH  16  17
ATOM     17  C   UNL     1     -12.329  18.442  -9.226  1.00  0.00    -0.000 C 
BRANCH  17  18
ATOM     18  C   UNL     1     -13.464  19.327  -8.682  1.00  0.00    -0.000 C 
BRANCH  18  19
ATOM     19  C   UNL     1     -13.032  20.334  -7.601  1.00  0.00    -0.003 C 
ATOM     20  C   UNL     1     -11.821  21.169  -8.013  1.00  0.00     0.004 C 
ENDBRANCH  18  19
ENDBRANCH  17  18
ENDBRANCH  16  17
ENDBRANCH  15  16
ENDBRANCH  14  15
ENDBRANCH  13  14
ENDBRANCH  12  13
ENDBRANCH   1  12
TORSDOF 16
ENDMDL
MODEL 3
REMARK VINA RESULT:     9.559      5.112     10.926
REMARK INTER + INTRA:          18.355
REMARK INTER:                  18.941
REMARK INTRA:                  -0.585
REMARK UNBOUND:                -0.144
REMARK SMILES CCCCCCCCCCCCCCCCCC(=O)[O-]
REMARK SMILES IDX 10 1 11 2 12 3 13 4 14 5 15 6 16 7 17 8 18 9 19 10 20 11
REMARK SMILES IDX 9 12 8 13 7 14 6 15 5 16 4 17 3 18 2 19 1 20
REMARK H PARENT
REMARK Flexibility Score: inf
ROOT
ATOM      1  C   UNL     1     -11.672  19.033 -15.154  1.00  0.00     0.000 C 
ENDROOT
BRANCH   1   2
ATOM      2  C   UNL     1     -11.652  19.837 -13.844  1.00  0.00     0.000 C 
BRANCH   2   3
ATOM      3  C   UNL     1     -12.984  19.765 -13.083  1.00  0.00     0.000 C 
BRANCH   3   4
ATOM      4  C   UNL     1     -12.977  18.605 -12.076  1.00  0.00     0.000 C 
BRANCH   4   5
ATOM      5  C   UNL     1     -13.091  19.078 -10.617  1.00  0.00     0.000 C 
BRANCH   5   6
ATOM      6  C   UNL     1     -12.670  18.039  -9.557  1.00  0.00     0.000 C 
BRANCH   6   7
ATOM      7  C   UNL     1     -12.900  18.467  -8.097  1.00  0.00     0.006 C 
BRANCH   7   8
ATOM      8  C   UNL     1     -13.485  19.879  -7.976  1.00  0.00     0.053 C 
BRANCH   8   9
ATOM      9  C   UNL     1     -12.419  20.855  -7.587  1.00  0.00     0.041 C 
ATOM     10  O   UNL     1     -11.540  21.198  -8.421  1.00  0.00    -0.550 OA
ATOM     11  O   UNL     1     -12.425  21.423  -6.320  1.00  0.00    -0.550 OA
ENDBRANCH   8   9
ENDBRANCH   7   8
ENDBRANCH   6   7
ENDBRANCH   5   6
ENDBRANCH   4   5
ENDBRANCH   3   4
ENDBRANCH   2   3
ENDBRANCH   1   2
BRANCH   1  12
ATOM     12  C   UNL     1     -10.500  19.387 -16.082  1.00  0.00     0.000 C 
BRANCH  12  13
ATOM     13  C   UNL     1     -11.001  20.054 -17.369  1.00  0.00    -0.000 C 
BRANCH  13  14
ATOM     14  C   UNL     1     -11.477  19.007 -18.383  1.00  0.00    -0.000 C 
BRANCH  14  15
ATOM     15  C   UNL     1     -12.034  19.680 -19.647  1.00  0.00    -0.000 C 
BRANCH  15  16
ATOM     16  C   UNL     1     -13.570  19.713 -19.671  1.00  0.00    -0.000 C 
BRANCH  16  17
ATOM     17  C   UNL     1     -14.123  20.755 -20.659  1.00  0.00    -0.000 C 
BRANCH  17  18
ATOM     18  C   UNL     1     -14.646  20.124 -21.962  1.00  0.00    -0.000 C 
BRANCH  18  19
ATOM     19  C   UNL     1     -13.603  20.023 -23.090  1.00  0.00    -0.003 C 
ATOM     20  C   UNL     1     -12.381  20.908 -22.855  1.00  0.00     0.004 C 
ENDBRANCH  18  19
ENDBRANCH  17  18
ENDBRANCH  16  17
ENDBRANCH  15  16
ENDBRANCH  14  15
ENDBRANCH  13  14
ENDBRANCH  12  13
ENDBRANCH   1  12
TORSDOF 16
ENDMDL
MODEL 4
REMARK VINA RESULT:     9.844      1.811      2.234
REMARK INTER + INTRA:          18.908
REMARK INTER:                  19.135
REMARK INTRA:                  -0.227
REMARK UNBOUND:                -0.144
REMARK SMILES CCCCCCCCCCCCCCCCCC(=O)[O-]
REMARK SMILES IDX 10 1 11 2 12 3 13 4 14 5 15 6 16 7 17 8 18 9 19 10 20 11
REMARK SMILES IDX 9 12 8 13 7 14 6 15 5 16 4 17 3 18 2 19 1 20
REMARK H PARENT
REMARK Flexibility Score: inf
ROOT
ATOM      1  C   UNL     1     -11.130  18.926 -15.185  1.00  0.00     0.000 C 
ENDROOT
BRANCH   1   2
ATOM      2  C   UNL     1     -10.887  19.671 -16.508  1.00  0.00     0.000 C 
BRANCH   2   3
ATOM      3  C   UNL     1     -11.505  18.953 -17.716  1.00  0.00     0.000 C 
BRANCH   3   4
ATOM      4  C   UNL     1     -11.366  19.801 -18.988  1.00  0.00     0.000 C 
BRANCH   4   5
ATOM      5  C   UNL     1     -12.179  19.246 -20.170  1.00  0.00     0.000 C 
BRANCH   5   6
ATOM      6  C   UNL     1     -11.687  19.682 -21.565  1.00  0.00     0.000 C 
BRANCH   6   7
ATOM      7  C   UNL     1     -12.786  19.812 -22.634  1.00  0.00     0.006 C 
BRANCH   7   8
ATOM      8  C   UNL     1     -13.592  21.110 -22.504  1.00  0.00     0.053 C 
BRANCH   8   9
ATOM      9  C   UNL     1     -14.440  21.078 -21.271  1.00  0.00     0.041 C 
ATOM     10  O   UNL     1     -14.136  21.785 -20.275  1.00  0.00    -0.550 OA
ATOM     11  O   UNL     1     -15.593  20.305 -21.240  1.00  0.00    -0.550 OA
ENDBRANCH   8   9
ENDBRANCH   7   8
ENDBRANCH   6   7
ENDBRANCH   5   6
ENDBRANCH   4   5
ENDBRANCH   3   4
ENDBRANCH   2   3
ENDBRANCH   1   2
BRANCH   1  12
ATOM     12  C   UNL     1     -11.695  19.841 -14.087  1.00  0.00     0.000 C 
BRANCH  12  13
ATOM     13  C   UNL     1     -12.988  19.260 -13.501  1.00  0.00    -0.000 C 
BRANCH  13  14
ATOM     14  C   UNL     1     -13.019  19.414 -11.976  1.00  0.00    -0.000 C 
BRANCH  14  15
ATOM     15  C   UNL     1     -13.083  18.043 -11.286  1.00  0.00    -0.000 C 
BRANCH  15  16
ATOM     16  C   UNL     1     -12.814  18.127  -9.776  1.00  0.00    -0.000 C 
BRANCH  16  17
ATOM     17  C   UNL     1     -13.530  19.317  -9.113  1.00  0.00    -0.000 C 
BRANCH  17  18
ATOM     18  C   UNL     1     -13.309  19.373  -7.591  1.00  0.00    -0.000 C 
BRANCH  18  19
ATOM     19  C   UNL     1     -12.797  20.727  -7.065  1.00  0.00    -0.003 C 
ATOM     20  C   UNL     1     -11.956  21.486  -8.090  1.00  0.00     0.004 C 
ENDBRANCH  18  19
ENDBRANCH  17  18
ENDBRANCH  16  17
ENDBRANCH  15  16
ENDBRANCH  14  15
ENDBRANCH  13  14
ENDBRANCH  12  13
ENDBRANCH   1  12
TORSDOF 16
ENDMDL
MODEL 5
REMARK VINA RESULT:     9.930      4.923     10.921
REMARK INTER + INTRA:          19.074
REMARK INTER:                  19.588
REMARK INTRA:                  -0.515
REMARK UNBOUND:                -0.144
REMARK SMILES CCCCCCCCCCCCCCCCCC(=O)[O-]
REMARK SMILES IDX 10 1 11 2 12 3 13 4 14 5 15 6 16 7 17 8 18 9 19 10 20 11
REMARK SMILES IDX 9 12 8 13 7 14 6 15 5 16 4 17 3 18 2 19 1 20
REMARK H PARENT
REMARK Flexibility Score: inf
ROOT
ATOM      1  C   UNL     1     -13.043  18.160 -16.118  1.00  0.00     0.000 C 
ENDROOT
BRANCH   1   2
ATOM      2  C   UNL     1     -13.274  19.006 -14.855  1.00  0.00     0.000 C 
BRANCH   2   3
ATOM      3  C   UNL     1     -11.993  19.687 -14.354  1.00  0.00     0.000 C 
BRANCH   3   4
ATOM      4  C   UNL     1     -11.855  19.543 -12.831  1.00  0.00     0.000 C 
BRANCH   4   5
ATOM      5  C   UNL     1     -13.125  18.988 -12.165  1.00  0.00     0.000 C 
BRANCH   5   6
ATOM      6  C   UNL     1     -12.959  18.561 -10.692  1.00  0.00     0.000 C 
BRANCH   6   7
ATOM      7  C   UNL     1     -13.430  19.597  -9.657  1.00  0.00     0.006 C 
BRANCH   7   8
ATOM      8  C   UNL     1     -12.757  19.421  -8.290  1.00  0.00     0.053 C 
BRANCH   8   9
ATOM      9  C   UNL     1     -12.345  20.748  -7.736  1.00  0.00     0.041 C 
ATOM     10  O   UNL     1     -12.650  21.064  -6.555  1.00  0.00    -0.550 OA
ATOM     11  O   UNL     1     -11.582  21.617  -8.505  1.00  0.00    -0.550 OA
ENDBRANCH   8   9
ENDBRANCH   7   8
ENDBRANCH   6   7
ENDBRANCH   5   6
ENDBRANCH   4   5
ENDBRANCH   3   4
ENDBRANCH   2   3
ENDBRANCH   1   2
BRANCH   1  12
ATOM     12  C   UNL     1     -14.340  17.894 -16.897  1.00  0.00     0.000 C 
BRANCH  12  13
ATOM     13  C   UNL     1     -14.106  18.006 -18.408  1.00  0.00    -0.000 C 
BRANCH  13  14
ATOM     14  C   UNL     1     -14.656  19.328 -18.954  1.00  0.00    -0.000 C 
BRANCH  14  15
ATOM     15  C   UNL     1     -14.303  19.499 -20.440  1.00  0.00    -0.000 C 
BRANCH  15  16
ATOM     16  C   UNL     1     -14.605  20.912 -20.960  1.00  0.00    -0.000 C 
BRANCH  16  17
ATOM     17  C   UNL     1     -13.884  21.222 -22.284  1.00  0.00    -0.000 C 
BRANCH  17  18
ATOM     18  C   UNL     1     -13.481  19.952 -23.056  1.00  0.00    -0.000 C 
BRANCH  18  19
ATOM     19  C   UNL     1     -11.965  19.694 -23.122  1.00  0.00    -0.003 C 
ATOM     20  C   UNL     1     -11.309  19.627 -21.744  1.00  0.00     0.004 C 
ENDBRANCH  18  19
ENDBRANCH  17  18
ENDBRANCH  16  17
ENDBRANCH  15  16
ENDBRANCH  14  15
ENDBRANCH  13  14
ENDBRANCH  12  13
ENDBRANCH   1  12
TORSDOF 16
ENDMDL
MODEL 6
REMARK VINA RESULT:    11.259     12.719     15.732
REMARK INTER + INTRA:          21.645
REMARK INTER:                  21.696
REMARK INTRA:                  -0.050
REMARK UNBOUND:                -0.144
REMARK SMILES CCCCCCCCCCCCCCCCCC(=O)[O-]
REMARK SMILES IDX 10 1 11 2 12 3 13 4 14 5 15 6 16 7 17 8 18 9 19 10 20 11
REMARK SMILES IDX 9 12 8 13 7 14 6 15 5 16 4 17 3 18 2 19 1 20
REMARK H PARENT
REMARK Flexibility Score: inf
ROOT
ATOM      1  C   UNL     1      -6.738   7.032 -18.734  1.00  0.00     0.000 C 
ENDROOT
BRANCH   1   2
ATOM      2  C   UNL     1      -7.751   7.927 -18.003  1.00  0.00     0.000 C 
BRANCH   2   3
ATOM      3  C   UNL     1      -8.042   9.233 -18.756  1.00  0.00     0.000 C 
BRANCH   3   4
ATOM      4  C   UNL     1      -8.477  10.340 -17.786  1.00  0.00     0.000 C 
BRANCH   4   5
ATOM      5  C   UNL     1      -7.709  10.303 -16.453  1.00  0.00     0.000 C 
BRANCH   5   6
ATOM      6  C   UNL     1      -6.837  11.542 -16.166  1.00  0.00     0.000 C 
BRANCH   6   7
ATOM      7  C   UNL     1      -6.627  12.484 -17.364  1.00  0.00     0.006 C 
BRANCH   7   8
ATOM      8  C   UNL     1      -5.983  13.818 -16.967  1.00  0.00     0.053 C 
BRANCH   8   9
ATOM      9  C   UNL     1      -4.533  13.624 -16.649  1.00  0.00     0.041 C 
ATOM     10  O   UNL     1      -3.969  14.357 -15.795  1.00  0.00    -0.550 OA
ATOM     11  O   UNL     1      -3.818  12.602 -17.259  1.00  0.00    -0.550 OA
ENDBRANCH   8   9
ENDBRANCH   7   8
ENDBRANCH   6   7
ENDBRANCH   5   6
ENDBRANCH   4   5
ENDBRANCH   3   4
ENDBRANCH   2   3
ENDBRANCH   1   2
BRANCH   1  12
ATOM     12  C   UNL     1      -7.169   5.557 -18.769  1.00  0.00     0.000 C 
BRANCH  12  13
ATOM     13  C   UNL     1      -8.494   5.390 -19.523  1.00  0.00    -0.000 C 
BRANCH  13  14
ATOM     14  C   UNL     1      -8.675   3.946 -20.005  1.00  0.00    -0.000 C 
BRANCH  14  15
ATOM     15  C   UNL     1      -7.370   3.398 -20.603  1.00  0.00    -0.000 C 
BRANCH  15  16
ATOM     16  C   UNL     1      -6.862   4.240 -21.783  1.00  0.00    -0.000 C 
BRANCH  16  17
ATOM     17  C   UNL     1      -7.480   3.812 -23.125  1.00  0.00    -0.000 C 
BRANCH  17  18
ATOM     18  C   UNL     1      -9.017   3.883 -23.123  1.00  0.00    -0.000 C 
BRANCH  18  19
ATOM     19  C   UNL     1      -9.597   5.266 -22.779  1.00  0.00    -0.003 C 
ATOM     20  C   UNL     1      -8.651   6.414 -23.125  1.00  0.00     0.004 C 
ENDBRANCH  18  19
ENDBRANCH  17  18
ENDBRANCH  16  17
ENDBRANCH  15  16
ENDBRANCH  14  15
ENDBRANCH  13  14
ENDBRANCH  12  13
ENDBRANCH   1  12
TORSDOF 16
ENDMDL
MODEL 7
REMARK VINA RESULT:    11.290      4.876     10.592
REMARK INTER + INTRA:          21.707
REMARK INTER:                  22.465
REMARK INTRA:                  -0.758
REMARK UNBOUND:                -0.144
REMARK SMILES CCCCCCCCCCCCCCCCCC(=O)[O-]
REMARK SMILES IDX 10 1 11 2 12 3 13 4 14 5 15 6 16 7 17 8 18 9 19 10 20 11
REMARK SMILES IDX 9 12 8 13 7 14 6 15 5 16 4 17 3 18 2 19 1 20
REMARK H PARENT
REMARK Flexibility Score: inf
ROOT
ATOM      1  C   UNL     1     -10.808  19.602 -15.951  1.00  0.00     0.000 C 
ENDROOT
BRANCH   1   2
ATOM      2  C   UNL     1     -11.935  18.584 -15.712  1.00  0.00     0.000 C 
BRANCH   2   3
ATOM      3  C   UNL     1     -12.801  18.932 -14.492  1.00  0.00     0.000 C 
BRANCH   3   4
ATOM      4  C   UNL     1     -12.149  20.044 -13.658  1.00  0.00     0.000 C 
BRANCH   4   5
ATOM      5  C   UNL     1     -12.059  19.695 -12.162  1.00  0.00     0.000 C 
BRANCH   5   6
ATOM      6  C   UNL     1     -13.236  18.865 -11.612  1.00  0.00     0.000 C 
BRANCH   6   7
ATOM      7  C   UNL     1     -13.807  19.352 -10.269  1.00  0.00     0.006 C 
BRANCH   7   8
ATOM      8  C   UNL     1     -12.742  19.449  -9.170  1.00  0.00     0.053 C 
BRANCH   8   9
ATOM      9  C   UNL     1     -12.510  18.108  -8.547  1.00  0.00     0.041 C 
ATOM     10  O   UNL     1     -13.033  17.827  -7.436  1.00  0.00    -0.550 OA
ATOM     11  O   UNL     1     -11.757  17.151  -9.215  1.00  0.00    -0.550 OA
ENDBRANCH   8   9
ENDBRANCH   7   8
ENDBRANCH   6   7
ENDBRANCH   5   6
ENDBRANCH   4   5
ENDBRANCH   3   4
ENDBRANCH   2   3
ENDBRANCH   1   2
BRANCH   1  12
ATOM     12  C   UNL     1     -10.721  20.053 -17.417  1.00  0.00     0.000 C 
BRANCH  12  13
ATOM     13  C   UNL     1     -11.611  19.183 -18.313  1.00  0.00    -0.000 C 
BRANCH  13  14
ATOM     14  C   UNL     1     -12.101  19.970 -19.534  1.00  0.00    -0.000 C 
BRANCH  14  15
ATOM     15  C   UNL     1     -13.586  19.687 -19.810  1.00  0.00    -0.000 C 
BRANCH  15  16
ATOM     16  C   UNL     1     -14.256  20.797 -20.633  1.00  0.00    -0.000 C 
BRANCH  16  17
ATOM     17  C   UNL     1     -14.462  20.400 -22.105  1.00  0.00    -0.000 C 
BRANCH  17  18
ATOM     18  C   UNL     1     -13.426  19.373 -22.597  1.00  0.00    -0.000 C 
BRANCH  18  19
ATOM     19  C   UNL     1     -12.112  19.984 -23.118  1.00  0.00    -0.003 C 
ATOM     20  C   UNL     1     -12.125  21.512 -23.124  1.00  0.00     0.004 C 
ENDBRANCH  18  19
ENDBRANCH  17  18
ENDBRANCH  16  17
ENDBRANCH  15  16
ENDBRANCH  14  15
ENDBRANCH  13  14
ENDBRANCH  12  13
ENDBRANCH   1  12
TORSDOF 16
ENDMDL
