MODEL 1
REMARK VINA RESULT:    -5.507      0.000      0.000
REMARK INTER + INTRA:          -6.769
REMARK INTER:                  -6.473
REMARK INTRA:                  -0.296
REMARK UNBOUND:                -0.296
REMARK SMILES O=c1c(O)c(-c2ccc(O)cc2)oc2cc(O)cc(O)c12
REMARK SMILES IDX 5 1 3 2 2 3 1 4 21 5 19 6 18 7 16 8 15 9 14 10 13 11 6 12
REMARK SMILES IDX 7 13 8 14 9 15 12 16 11 17 10 18 4 20 20 22 17 24
REMARK H PARENT 10 19 4 21 20 23 17 25
REMARK Flexibility Score: inf
ROOT
ATOM      1  C   UNL     1     213.841 216.760 220.307  1.00  0.00     0.180 A 
ATOM      2  C   UNL     1     213.096 215.570 220.243  1.00  0.00     0.208 A 
ATOM      3  C   UNL     1     213.776 214.346 220.138  1.00  0.00     0.238 A 
ATOM      4  O   UNL     1     213.106 213.281 220.157  1.00  0.00    -0.285 OA
ATOM      5  C   UNL     1     215.189 214.329 220.041  1.00  0.00     0.111 A 
ATOM      6  C   UNL     1     215.978 213.150 219.886  1.00  0.00     0.134 A 
ATOM      7  C   UNL     1     217.376 213.247 219.908  1.00  0.00     0.093 A 
ATOM      8  C   UNL     1     218.011 214.483 220.015  1.00  0.00     0.123 A 
ATOM      9  C   UNL     1     217.248 215.648 220.111  1.00  0.00     0.094 A 
ATOM     10  C   UNL     1     215.853 215.580 220.131  1.00  0.00     0.146 A 
ATOM     11  O   UNL     1     215.167 216.711 220.246  1.00  0.00    -0.452 OA
ENDROOT
BRANCH   1  12
ATOM     12  C   UNL     1     213.198 218.088 220.432  1.00  0.00     0.021 A 
ATOM     13  C   UNL     1     212.853 218.619 221.688  1.00  0.00     0.016 A 
ATOM     14  C   UNL     1     212.268 219.886 221.783  1.00  0.00     0.047 A 
ATOM     15  C   UNL     1     212.036 220.642 220.630  1.00  0.00     0.115 A 
ATOM     16  C   UNL     1     212.980 218.862 219.281  1.00  0.00     0.016 A 
ATOM     17  C   UNL     1     212.395 220.128 219.377  1.00  0.00     0.047 A 
BRANCH  15  18
ATOM     18  O   UNL     1     211.450 221.902 220.739  1.00  0.00    -0.508 OA
ATOM     19  H   UNL     1     210.773 222.110 221.463  1.00  0.00     0.293 HD
ENDBRANCH  15  18
ENDBRANCH   1  12
BRANCH   2  20
ATOM     20  O   UNL     1     211.700 215.612 220.263  1.00  0.00    -0.502 OA
ATOM     21  H   UNL     1     211.167 216.267 219.704  1.00  0.00     0.293 HD
ENDBRANCH   2  20
BRANCH   6  22
ATOM     22  O   UNL     1     215.447 211.872 219.683  1.00  0.00    -0.507 OA
ATOM     23  H   UNL     1     215.831 211.020 220.061  1.00  0.00     0.293 HD
ENDBRANCH   6  22
BRANCH   8  24
ATOM     24  O   UNL     1     219.403 214.543 220.015  1.00  0.00    -0.508 OA
ATOM     25  H   UNL     1     219.958 214.011 219.356  1.00  0.00     0.293 HD
ENDBRANCH   8  24
TORSDOF 5
ENDMDL
MODEL 2
REMARK VINA RESULT:    -5.502      4.586      9.125
REMARK INTER + INTRA:          -6.763
REMARK INTER:                  -6.470
REMARK INTRA:                  -0.293
REMARK UNBOUND:                -0.296
REMARK SMILES O=c1c(O)c(-c2ccc(O)cc2)oc2cc(O)cc(O)c12
REMARK SMILES IDX 5 1 3 2 2 3 1 4 21 5 19 6 18 7 16 8 15 9 14 10 13 11 6 12
REMARK SMILES IDX 7 13 8 14 9 15 12 16 11 17 10 18 4 20 20 22 17 24
REMARK H PARENT 10 19 4 21 20 23 17 25
REMARK Flexibility Score: inf
ROOT
ATOM      1  C   UNL     1     220.529 217.633 220.319  1.00  0.00     0.180 A 
ATOM      2  C   UNL     1     221.259 218.833 220.265  1.00  0.00     0.208 A 
ATOM      3  C   UNL     1     220.563 220.048 220.164  1.00  0.00     0.238 A 
ATOM      4  O   UNL     1     221.219 221.122 220.192  1.00  0.00    -0.285 OA
ATOM      5  C   UNL     1     219.150 220.047 220.062  1.00  0.00     0.111 A 
ATOM      6  C   UNL     1     218.346 221.216 219.911  1.00  0.00     0.134 A 
ATOM      7  C   UNL     1     216.950 221.101 219.928  1.00  0.00     0.093 A 
ATOM      8  C   UNL     1     216.331 219.856 220.026  1.00  0.00     0.123 A 
ATOM      9  C   UNL     1     217.109 218.701 220.118  1.00  0.00     0.094 A 
ATOM     10  C   UNL     1     218.502 218.787 220.143  1.00  0.00     0.146 A 
ATOM     11  O   UNL     1     219.203 217.665 220.254  1.00  0.00    -0.452 OA
ENDROOT
BRANCH   1  12
ATOM     12  C   UNL     1     221.190 216.313 220.440  1.00  0.00     0.021 A 
ATOM     13  C   UNL     1     221.565 215.792 221.692  1.00  0.00     0.016 A 
ATOM     14  C   UNL     1     222.166 214.533 221.782  1.00  0.00     0.047 A 
ATOM     15  C   UNL     1     222.384 213.773 220.629  1.00  0.00     0.115 A 
ATOM     16  C   UNL     1     221.394 215.534 219.288  1.00  0.00     0.016 A 
ATOM     17  C   UNL     1     221.994 214.275 219.381  1.00  0.00     0.047 A 
BRANCH  15  18
ATOM     18  O   UNL     1     222.985 212.520 220.734  1.00  0.00    -0.508 OA
ATOM     19  H   UNL     1     222.781 211.898 221.508  1.00  0.00     0.293 HD
ENDBRANCH  15  18
ENDBRANCH   1  12
BRANCH   2  20
ATOM     20  O   UNL     1     222.655 218.809 220.290  1.00  0.00    -0.502 OA
ATOM     21  H   UNL     1     223.182 217.971 220.504  1.00  0.00     0.293 HD
ENDBRANCH   2  20
BRANCH   6  22
ATOM     22  O   UNL     1     218.860 222.502 219.717  1.00  0.00    -0.507 OA
ATOM     23  H   UNL     1     218.935 222.966 218.825  1.00  0.00     0.293 HD
ENDBRANCH   6  22
BRANCH   8  24
ATOM     24  O   UNL     1     214.940 219.777 220.021  1.00  0.00    -0.508 OA
ATOM     25  H   UNL     1     214.371 220.458 219.531  1.00  0.00     0.293 HD
ENDBRANCH   8  24
TORSDOF 5
ENDMDL
MODEL 3
REMARK VINA RESULT:    -5.369      4.530      6.447
REMARK INTER + INTRA:          -6.606
REMARK INTER:                  -6.339
REMARK INTRA:                  -0.267
REMARK UNBOUND:                -0.296
REMARK SMILES O=c1c(O)c(-c2ccc(O)cc2)oc2cc(O)cc(O)c12
REMARK SMILES IDX 5 1 3 2 2 3 1 4 21 5 19 6 18 7 16 8 15 9 14 10 13 11 6 12
REMARK SMILES IDX 7 13 8 14 9 15 12 16 11 17 10 18 4 20 20 22 17 24
REMARK H PARENT 10 19 4 21 20 23 17 25
REMARK Flexibility Score: inf
ROOT
ATOM      1  C   UNL     1     216.738 220.533 220.326  1.00  0.00     0.180 A 
ATOM      2  C   UNL     1     215.546 221.276 220.280  1.00  0.00     0.208 A 
ATOM      3  C   UNL     1     214.322 220.593 220.188  1.00  0.00     0.238 A 
ATOM      4  O   UNL     1     213.256 221.260 220.223  1.00  0.00    -0.285 OA
ATOM      5  C   UNL     1     214.307 219.180 220.086  1.00  0.00     0.111 A 
ATOM      6  C   UNL     1     213.129 218.388 219.944  1.00  0.00     0.134 A 
ATOM      7  C   UNL     1     213.229 216.991 219.960  1.00  0.00     0.093 A 
ATOM      8  C   UNL     1     214.468 216.359 220.048  1.00  0.00     0.123 A 
ATOM      9  C   UNL     1     215.632 217.124 220.132  1.00  0.00     0.094 A 
ATOM     10  C   UNL     1     215.561 218.518 220.158  1.00  0.00     0.146 A 
ATOM     11  O   UNL     1     216.692 219.208 220.261  1.00  0.00    -0.452 OA
ENDROOT
BRANCH   1  12
ATOM     12  C   UNL     1     218.066 221.179 220.436  1.00  0.00     0.021 A 
ATOM     13  C   UNL     1     218.545 221.663 221.668  1.00  0.00     0.016 A 
ATOM     14  C   UNL     1     219.813 222.248 221.752  1.00  0.00     0.047 A 
ATOM     15  C   UNL     1     220.621 222.342 220.615  1.00  0.00     0.115 A 
ATOM     16  C   UNL     1     218.892 221.259 219.304  1.00  0.00     0.016 A 
ATOM     17  C   UNL     1     220.159 221.845 219.390  1.00  0.00     0.047 A 
BRANCH  15  18
ATOM     18  O   UNL     1     221.882 222.929 220.714  1.00  0.00    -0.508 OA
ATOM     19  H   UNL     1     222.584 222.571 221.350  1.00  0.00     0.293 HD
ENDBRANCH  15  18
ENDBRANCH   1  12
BRANCH   2  20
ATOM     20  O   UNL     1     215.585 222.672 220.305  1.00  0.00    -0.502 OA
ATOM     21  H   UNL     1     215.993 223.218 219.556  1.00  0.00     0.293 HD
ENDBRANCH   2  20
BRANCH   6  22
ATOM     22  O   UNL     1     211.847 218.917 219.758  1.00  0.00    -0.507 OA
ATOM     23  H   UNL     1     211.316 219.407 220.462  1.00  0.00     0.293 HD
ENDBRANCH   6  22
BRANCH   8  24
ATOM     24  O   UNL     1     214.532 214.967 220.044  1.00  0.00    -0.508 OA
ATOM     25  H   UNL     1     214.562 214.434 220.905  1.00  0.00     0.293 HD
ENDBRANCH   8  24
TORSDOF 5
ENDMDL
MODEL 4
REMARK VINA RESULT:    -5.362      4.506      6.478
REMARK INTER + INTRA:          -6.598
REMARK INTER:                  -6.338
REMARK INTRA:                  -0.260
REMARK UNBOUND:                -0.296
REMARK SMILES O=c1c(O)c(-c2ccc(O)cc2)oc2cc(O)cc(O)c12
REMARK SMILES IDX 5 1 3 2 2 3 1 4 21 5 19 6 18 7 16 8 15 9 14 10 13 11 6 12
REMARK SMILES IDX 7 13 8 14 9 15 12 16 11 17 10 18 4 20 20 22 17 24
REMARK H PARENT 10 19 4 21 20 23 17 25
REMARK Flexibility Score: inf
ROOT
ATOM      1  C   UNL     1     217.627 213.844 220.316  1.00  0.00     0.180 A 
ATOM      2  C   UNL     1     218.826 213.112 220.269  1.00  0.00     0.208 A 
ATOM      3  C   UNL     1     220.043 213.806 220.180  1.00  0.00     0.238 A 
ATOM      4  O   UNL     1     221.115 213.149 220.215  1.00  0.00    -0.285 OA
ATOM      5  C   UNL     1     220.045 215.219 220.083  1.00  0.00     0.111 A 
ATOM      6  C   UNL     1     221.216 216.023 219.943  1.00  0.00     0.134 A 
ATOM      7  C   UNL     1     221.103 217.419 219.963  1.00  0.00     0.093 A 
ATOM      8  C   UNL     1     219.859 218.039 220.052  1.00  0.00     0.123 A 
ATOM      9  C   UNL     1     218.701 217.263 220.133  1.00  0.00     0.094 A 
ATOM     10  C   UNL     1     218.785 215.869 220.155  1.00  0.00     0.146 A 
ATOM     11  O   UNL     1     217.661 215.170 220.255  1.00  0.00    -0.452 OA
ENDROOT
BRANCH   1  12
ATOM     12  C   UNL     1     216.305 213.185 220.424  1.00  0.00     0.021 A 
ATOM     13  C   UNL     1     215.839 212.671 221.648  1.00  0.00     0.016 A 
ATOM     14  C   UNL     1     214.577 212.075 221.731  1.00  0.00     0.047 A 
ATOM     15  C   UNL     1     213.760 211.998 220.598  1.00  0.00     0.115 A 
ATOM     16  C   UNL     1     215.469 213.122 219.296  1.00  0.00     0.016 A 
ATOM     17  C   UNL     1     214.208 212.525 219.381  1.00  0.00     0.047 A 
BRANCH  15  18
ATOM     18  O   UNL     1     212.505 211.400 220.695  1.00  0.00    -0.508 OA
ATOM     19  H   UNL     1     212.193 210.712 220.019  1.00  0.00     0.293 HD
ENDBRANCH  15  18
ENDBRANCH   1  12
BRANCH   2  20
ATOM     20  O   UNL     1     218.800 211.716 220.290  1.00  0.00    -0.502 OA
ATOM     21  H   UNL     1     218.017 211.192 220.661  1.00  0.00     0.293 HD
ENDBRANCH   2  20
BRANCH   6  22
ATOM     22  O   UNL     1     222.503 215.506 219.758  1.00  0.00    -0.507 OA
ATOM     23  H   UNL     1     222.712 214.604 219.360  1.00  0.00     0.293 HD
ENDBRANCH   6  22
BRANCH   8  24
ATOM     24  O   UNL     1     219.782 219.430 220.050  1.00  0.00    -0.508 OA
ATOM     25  H   UNL     1     220.403 219.997 220.616  1.00  0.00     0.293 HD
ENDBRANCH   8  24
TORSDOF 5
ENDMDL
MODEL 5
REMARK VINA RESULT:    -5.253      4.874      6.507
REMARK INTER + INTRA:          -6.470
REMARK INTER:                  -6.204
REMARK INTRA:                  -0.266
REMARK UNBOUND:                -0.296
REMARK SMILES O=c1c(O)c(-c2ccc(O)cc2)oc2cc(O)cc(O)c12
REMARK SMILES IDX 5 1 3 2 2 3 1 4 21 5 19 6 18 7 16 8 15 9 14 10 13 11 6 12
REMARK SMILES IDX 7 13 8 14 9 15 12 16 11 17 10 18 4 20 20 22 17 24
REMARK H PARENT 10 19 4 21 20 23 17 25
REMARK Flexibility Score: inf
ROOT
ATOM      1  C   UNL     1     219.981 218.576 220.559  1.00  0.00     0.180 A 
ATOM      2  C   UNL     1     218.700 218.181 220.981  1.00  0.00     0.208 A 
ATOM      3  C   UNL     1     218.371 216.816 220.970  1.00  0.00     0.238 A 
ATOM      4  O   UNL     1     217.251 216.462 221.420  1.00  0.00    -0.285 OA
ATOM      5  C   UNL     1     219.306 215.869 220.485  1.00  0.00     0.111 A 
ATOM      6  C   UNL     1     219.063 214.465 220.386  1.00  0.00     0.134 A 
ATOM      7  C   UNL     1     220.101 213.611 219.990  1.00  0.00     0.093 A 
ATOM      8  C   UNL     1     221.349 214.114 219.628  1.00  0.00     0.123 A 
ATOM      9  C   UNL     1     221.580 215.490 219.668  1.00  0.00     0.094 A 
ATOM     10  C   UNL     1     220.578 216.363 220.096  1.00  0.00     0.146 A 
ATOM     11  O   UNL     1     220.847 217.663 220.139  1.00  0.00    -0.452 OA
ENDROOT
BRANCH   1  12
ATOM     12  C   UNL     1     220.406 219.995 220.555  1.00  0.00     0.021 A 
ATOM     13  C   UNL     1     220.029 220.870 219.519  1.00  0.00     0.016 A 
ATOM     14  C   UNL     1     220.423 222.212 219.550  1.00  0.00     0.047 A 
ATOM     15  C   UNL     1     221.182 222.699 220.618  1.00  0.00     0.115 A 
ATOM     16  C   UNL     1     221.151 220.497 221.635  1.00  0.00     0.016 A 
ATOM     17  C   UNL     1     221.544 221.838 221.663  1.00  0.00     0.047 A 
BRANCH  15  18
ATOM     18  O   UNL     1     221.568 224.038 220.634  1.00  0.00    -0.508 OA
ATOM     19  H   UNL     1     220.975 224.764 220.251  1.00  0.00     0.293 HD
ENDBRANCH  15  18
ENDBRANCH   1  12
BRANCH   2  20
ATOM     20  O   UNL     1     217.765 219.137 221.385  1.00  0.00    -0.502 OA
ATOM     21  H   UNL     1     216.914 219.320 220.867  1.00  0.00     0.293 HD
ENDBRANCH   2  20
BRANCH   6  22
ATOM     22  O   UNL     1     217.826 213.864 220.638  1.00  0.00    -0.507 OA
ATOM     23  H   UNL     1     217.644 212.873 220.590  1.00  0.00     0.293 HD
ENDBRANCH   6  22
BRANCH   8  24
ATOM     24  O   UNL     1     222.352 213.237 219.222  1.00  0.00    -0.508 OA
ATOM     25  H   UNL     1     222.158 212.456 218.607  1.00  0.00     0.293 HD
ENDBRANCH   8  24
TORSDOF 5
ENDMDL
MODEL 6
REMARK VINA RESULT:    -5.220      3.016      7.645
REMARK INTER + INTRA:          -6.431
REMARK INTER:                  -6.169
REMARK INTRA:                  -0.262
REMARK UNBOUND:                -0.296
REMARK SMILES O=c1c(O)c(-c2ccc(O)cc2)oc2cc(O)cc(O)c12
REMARK SMILES IDX 5 1 3 2 2 3 1 4 21 5 19 6 18 7 16 8 15 9 14 10 13 11 6 12
REMARK SMILES IDX 7 13 8 14 9 15 12 16 11 17 10 18 4 20 20 22 17 24
REMARK H PARENT 10 19 4 21 20 23 17 25
REMARK Flexibility Score: inf
ROOT
ATOM      1  C   UNL     1     218.563 214.459 220.589  1.00  0.00     0.180 A 
ATOM      2  C   UNL     1     218.158 215.733 221.022  1.00  0.00     0.208 A 
ATOM      3  C   UNL     1     216.792 216.057 221.001  1.00  0.00     0.238 A 
ATOM      4  O   UNL     1     216.429 217.170 221.460  1.00  0.00    -0.285 OA
ATOM      5  C   UNL     1     215.853 215.124 220.497  1.00  0.00     0.111 A 
ATOM      6  C   UNL     1     214.450 215.361 220.387  1.00  0.00     0.134 A 
ATOM      7  C   UNL     1     213.604 214.325 219.972  1.00  0.00     0.093 A 
ATOM      8  C   UNL     1     214.116 213.083 219.601  1.00  0.00     0.123 A 
ATOM      9  C   UNL     1     215.492 212.857 219.651  1.00  0.00     0.094 A 
ATOM     10  C   UNL     1     216.357 213.858 220.098  1.00  0.00     0.146 A 
ATOM     11  O   UNL     1     217.657 213.593 220.151  1.00  0.00    -0.452 OA
ENDROOT
BRANCH   1  12
ATOM     12  C   UNL     1     219.984 214.039 220.594  1.00  0.00     0.021 A 
ATOM     13  C   UNL     1     220.870 214.440 219.577  1.00  0.00     0.016 A 
ATOM     14  C   UNL     1     222.212 214.051 219.616  1.00  0.00     0.047 A 
ATOM     15  C   UNL     1     222.689 213.273 220.676  1.00  0.00     0.115 A 
ATOM     16  C   UNL     1     220.475 213.275 221.665  1.00  0.00     0.016 A 
ATOM     17  C   UNL     1     221.818 212.887 221.702  1.00  0.00     0.047 A 
BRANCH  15  18
ATOM     18  O   UNL     1     224.030 212.892 220.700  1.00  0.00    -0.508 OA
ATOM     19  H   UNL     1     224.770 213.569 220.842  1.00  0.00     0.293 HD
ENDBRANCH  15  18
ENDBRANCH   1  12
BRANCH   2  20
ATOM     20  O   UNL     1     219.107 216.667 221.445  1.00  0.00    -0.502 OA
ATOM     21  H   UNL     1     218.960 217.666 221.366  1.00  0.00     0.293 HD
ENDBRANCH   2  20
BRANCH   6  22
ATOM     22  O   UNL     1     213.841 216.594 220.647  1.00  0.00    -0.507 OA
ATOM     23  H   UNL     1     213.059 216.971 220.134  1.00  0.00     0.293 HD
ENDBRANCH   6  22
BRANCH   8  24
ATOM     24  O   UNL     1     213.247 212.080 219.175  1.00  0.00    -0.508 OA
ATOM     25  H   UNL     1     213.179 211.194 219.661  1.00  0.00     0.293 HD
ENDBRANCH   8  24
TORSDOF 5
ENDMDL
MODEL 7
REMARK VINA RESULT:    -5.219      2.090      6.540
REMARK INTER + INTRA:          -6.430
REMARK INTER:                  -6.154
REMARK INTRA:                  -0.276
REMARK UNBOUND:                -0.296
REMARK SMILES O=c1c(O)c(-c2ccc(O)cc2)oc2cc(O)cc(O)c12
REMARK SMILES IDX 5 1 3 2 2 3 1 4 21 5 19 6 18 7 16 8 15 9 14 10 13 11 6 12
REMARK SMILES IDX 7 13 8 14 9 15 12 16 11 17 10 18 4 20 20 22 17 24
REMARK H PARENT 10 19 4 21 20 23 17 25
REMARK Flexibility Score: inf
ROOT
ATOM      1  C   UNL     1     214.417 215.788 220.617  1.00  0.00     0.180 A 
ATOM      2  C   UNL     1     215.714 216.184 220.987  1.00  0.00     0.208 A 
ATOM      3  C   UNL     1     216.048 217.547 220.939  1.00  0.00     0.238 A 
ATOM      4  O   UNL     1     217.184 217.903 221.343  1.00  0.00    -0.285 OA
ATOM      5  C   UNL     1     215.101 218.490 220.468  1.00  0.00     0.111 A 
ATOM      6  C   UNL     1     215.346 219.890 220.335  1.00  0.00     0.134 A 
ATOM      7  C   UNL     1     214.300 220.742 219.959  1.00  0.00     0.093 A 
ATOM      8  C   UNL     1     213.038 220.239 219.650  1.00  0.00     0.123 A 
ATOM      9  C   UNL     1     212.802 218.865 219.723  1.00  0.00     0.094 A 
ATOM     10  C   UNL     1     213.814 217.995 220.133  1.00  0.00     0.146 A 
ATOM     11  O   UNL     1     213.541 216.698 220.209  1.00  0.00    -0.452 OA
ENDROOT
BRANCH   1  12
ATOM     12  C   UNL     1     213.985 214.371 220.654  1.00  0.00     0.021 A 
ATOM     13  C   UNL     1     213.233 213.862 221.728  1.00  0.00     0.016 A 
ATOM     14  C   UNL     1     212.815 212.528 221.729  1.00  0.00     0.047 A 
ATOM     15  C   UNL     1     213.129 211.691 220.654  1.00  0.00     0.115 A 
ATOM     16  C   UNL     1     214.279 213.530 219.568  1.00  0.00     0.016 A 
ATOM     17  C   UNL     1     213.861 212.196 219.571  1.00  0.00     0.047 A 
BRANCH  15  18
ATOM     18  O   UNL     1     212.708 210.363 220.669  1.00  0.00    -0.508 OA
ATOM     19  H   UNL     1     213.343 209.609 220.905  1.00  0.00     0.293 HD
ENDBRANCH  15  18
ENDBRANCH   1  12
BRANCH   2  20
ATOM     20  O   UNL     1     216.657 215.231 221.376  1.00  0.00    -0.502 OA
ATOM     21  H   UNL     1     216.482 214.235 221.315  1.00  0.00     0.293 HD
ENDBRANCH   2  20
BRANCH   6  22
ATOM     22  O   UNL     1     216.595 220.489 220.533  1.00  0.00    -0.507 OA
ATOM     23  H   UNL     1     216.759 221.313 221.092  1.00  0.00     0.293 HD
ENDBRANCH   6  22
BRANCH   8  24
ATOM     24  O   UNL     1     212.025 221.114 219.262  1.00  0.00    -0.508 OA
ATOM     25  H   UNL     1     211.860 221.336 218.288  1.00  0.00     0.293 HD
ENDBRANCH   8  24
TORSDOF 5
ENDMDL
MODEL 8
REMARK VINA RESULT:    -5.216      4.999      7.235
REMARK INTER + INTRA:          -6.426
REMARK INTER:                  -6.147
REMARK INTRA:                  -0.280
REMARK UNBOUND:                -0.296
REMARK SMILES O=c1c(O)c(-c2ccc(O)cc2)oc2cc(O)cc(O)c12
REMARK SMILES IDX 5 1 3 2 2 3 1 4 21 5 19 6 18 7 16 8 15 9 14 10 13 11 6 12
REMARK SMILES IDX 7 13 8 14 9 15 12 16 11 17 10 18 4 20 20 22 17 24
REMARK H PARENT 10 19 4 21 20 23 17 25
REMARK Flexibility Score: inf
ROOT
ATOM      1  C   UNL     1     220.649 218.575 220.424  1.00  0.00     0.180 A 
ATOM      2  C   UNL     1     221.787 217.814 220.107  1.00  0.00     0.208 A 
ATOM      3  C   UNL     1     221.647 216.430 219.914  1.00  0.00     0.238 A 
ATOM      4  O   UNL     1     222.654 215.767 219.556  1.00  0.00    -0.285 OA
ATOM      5  C   UNL     1     220.383 215.816 220.095  1.00  0.00     0.111 A 
ATOM      6  C   UNL     1     220.135 214.416 219.970  1.00  0.00     0.134 A 
ATOM      7  C   UNL     1     218.823 213.935 220.068  1.00  0.00     0.093 A 
ATOM      8  C   UNL     1     217.761 214.793 220.350  1.00  0.00     0.123 A 
ATOM      9  C   UNL     1     218.000 216.156 220.530  1.00  0.00     0.094 A 
ATOM     10  C   UNL     1     219.292 216.671 220.400  1.00  0.00     0.146 A 
ATOM     11  O   UNL     1     219.472 217.977 220.557  1.00  0.00    -0.452 OA
ENDROOT
BRANCH   1  12
ATOM     12  C   UNL     1     220.713 220.041 220.629  1.00  0.00     0.021 A 
ATOM     13  C   UNL     1     220.365 220.940 219.605  1.00  0.00     0.016 A 
ATOM     14  C   UNL     1     220.410 222.319 219.830  1.00  0.00     0.047 A 
ATOM     15  C   UNL     1     220.788 222.816 221.081  1.00  0.00     0.115 A 
ATOM     16  C   UNL     1     221.072 220.548 221.889  1.00  0.00     0.016 A 
ATOM     17  C   UNL     1     221.117 221.927 222.112  1.00  0.00     0.047 A 
BRANCH  15  18
ATOM     18  O   UNL     1     220.830 224.194 221.290  1.00  0.00    -0.508 OA
ATOM     19  H   UNL     1     221.707 224.700 221.301  1.00  0.00     0.293 HD
ENDBRANCH  15  18
ENDBRANCH   1  12
BRANCH   2  20
ATOM     20  O   UNL     1     223.038 218.426 220.006  1.00  0.00    -0.502 OA
ATOM     21  H   UNL     1     223.246 219.315 220.444  1.00  0.00     0.293 HD
ENDBRANCH   2  20
BRANCH   6  22
ATOM     22  O   UNL     1     221.135 213.457 219.776  1.00  0.00    -0.507 OA
ATOM     23  H   UNL     1     221.347 213.013 218.895  1.00  0.00     0.293 HD
ENDBRANCH   6  22
BRANCH   8  24
ATOM     24  O   UNL     1     216.471 214.278 220.459  1.00  0.00    -0.508 OA
ATOM     25  H   UNL     1     216.267 213.475 221.043  1.00  0.00     0.293 HD
ENDBRANCH   8  24
TORSDOF 5
ENDMDL
MODEL 9
REMARK VINA RESULT:    -5.157      3.843      5.063
REMARK INTER + INTRA:          -6.357
REMARK INTER:                  -6.089
REMARK INTRA:                  -0.268
REMARK UNBOUND:                -0.296
REMARK SMILES O=c1c(O)c(-c2ccc(O)cc2)oc2cc(O)cc(O)c12
REMARK SMILES IDX 5 1 3 2 2 3 1 4 21 5 19 6 18 7 16 8 15 9 14 10 13 11 6 12
REMARK SMILES IDX 7 13 8 14 9 15 12 16 11 17 10 18 4 20 20 22 17 24
REMARK H PARENT 10 19 4 21 20 23 17 25
REMARK Flexibility Score: inf
ROOT
ATOM      1  C   UNL     1     215.795 219.864 220.644  1.00  0.00     0.180 A 
ATOM      2  C   UNL     1     216.197 218.582 221.057  1.00  0.00     0.208 A 
ATOM      3  C   UNL     1     217.561 218.250 221.018  1.00  0.00     0.238 A 
ATOM      4  O   UNL     1     217.921 217.129 221.460  1.00  0.00    -0.285 OA
ATOM      5  C   UNL     1     218.500 219.184 220.514  1.00  0.00     0.111 A 
ATOM      6  C   UNL     1     219.900 218.939 220.386  1.00  0.00     0.134 A 
ATOM      7  C   UNL     1     220.748 219.975 219.974  1.00  0.00     0.093 A 
ATOM      8  C   UNL     1     220.240 221.224 219.623  1.00  0.00     0.123 A 
ATOM      9  C   UNL     1     218.866 221.458 219.691  1.00  0.00     0.094 A 
ATOM     10  C   UNL     1     218.000 220.457 220.136  1.00  0.00     0.146 A 
ATOM     11  O   UNL     1     216.702 220.729 220.206  1.00  0.00    -0.452 OA
ENDROOT
BRANCH   1  12
ATOM     12  C   UNL     1     214.378 220.292 220.669  1.00  0.00     0.021 A 
ATOM     13  C   UNL     1     213.875 221.103 221.703  1.00  0.00     0.016 A 
ATOM     14  C   UNL     1     212.539 221.515 221.693  1.00  0.00     0.047 A 
ATOM     15  C   UNL     1     211.694 221.137 220.644  1.00  0.00     0.115 A 
ATOM     16  C   UNL     1     213.528 219.934 219.609  1.00  0.00     0.016 A 
ATOM     17  C   UNL     1     212.192 220.347 219.600  1.00  0.00     0.047 A 
BRANCH  15  18
ATOM     18  O   UNL     1     210.364 221.554 220.648  1.00  0.00    -0.508 OA
ATOM     19  H   UNL     1     209.964 222.053 219.862  1.00  0.00     0.293 HD
ENDBRANCH  15  18
ENDBRANCH   1  12
BRANCH   2  20
ATOM     20  O   UNL     1     215.247 217.649 221.480  1.00  0.00    -0.502 OA
ATOM     21  H   UNL     1     214.401 217.916 221.967  1.00  0.00     0.293 HD
ENDBRANCH   2  20
BRANCH   6  22
ATOM     22  O   UNL     1     220.504 217.700 220.625  1.00  0.00    -0.507 OA
ATOM     23  H   UNL     1     221.487 217.561 220.804  1.00  0.00     0.293 HD
ENDBRANCH   6  22
BRANCH   8  24
ATOM     24  O   UNL     1     221.111 222.226 219.200  1.00  0.00    -0.508 OA
ATOM     25  H   UNL     1     220.784 223.164 218.999  1.00  0.00     0.293 HD
ENDBRANCH   8  24
TORSDOF 5
ENDMDL
