MODEL 1
REMARK VINA RESULT:    -4.513      0.000      0.000
REMARK INTER + INTRA:         -12.665
REMARK INTER:                  -9.790
REMARK INTRA:                  -2.875
REMARK UNBOUND:                -2.875
REMARK SMILES CCCCCCCCCCCCCCCCCCCCCC(=O)[O-]
REMARK SMILES IDX 12 1 11 2 10 3 9 4 8 5 7 6 6 7 5 8 4 9 3 10 2 11 1 12 13 13
REMARK SMILES IDX 14 14 15 15 16 16 17 17 18 18 19 19 20 20 21 21 22 22 23 23
REMARK SMILES IDX 24 24
REMARK H PARENT
REMARK Flexibility Score: inf
ROOT
ATOM      1  C   UNL     1      36.134  76.743  10.870  1.00  0.00     0.000 C 
ENDROOT
BRANCH   1   2
ATOM      2  C   UNL     1      35.701  75.680   9.836  1.00  0.00     0.000 C 
BRANCH   2   3
ATOM      3  C   UNL     1      36.747  75.477   8.726  1.00  0.00     0.000 C 
BRANCH   3   4
ATOM      4  C   UNL     1      36.101  75.105   7.374  1.00  0.00    -0.000 C 
BRANCH   4   5
ATOM      5  C   UNL     1      34.681  75.672   7.184  1.00  0.00    -0.000 C 
BRANCH   5   6
ATOM      6  C   UNL     1      33.859  75.015   6.061  1.00  0.00    -0.000 C 
BRANCH   6   7
ATOM      7  C   UNL     1      32.505  74.474   6.551  1.00  0.00    -0.000 C 
BRANCH   7   8
ATOM      8  C   UNL     1      32.649  73.316   7.556  1.00  0.00    -0.000 C 
BRANCH   8   9
ATOM      9  C   UNL     1      31.827  73.462   8.849  1.00  0.00    -0.000 C 
BRANCH   9  10
ATOM     10  C   UNL     1      32.450  74.453   9.846  1.00  0.00    -0.000 C 
BRANCH  10  11
ATOM     11  C   UNL     1      32.158  74.080  11.309  1.00  0.00    -0.003 C 
ATOM     12  C   UNL     1      33.325  74.385  12.245  1.00  0.00     0.004 C 
ENDBRANCH  10  11
ENDBRANCH   9  10
ENDBRANCH   8   9
ENDBRANCH   7   8
ENDBRANCH   6   7
ENDBRANCH   5   6
ENDBRANCH   4   5
ENDBRANCH   3   4
ENDBRANCH   2   3
ENDBRANCH   1   2
BRANCH   1  13
ATOM     13  C   UNL     1      35.023  77.750  11.225  1.00  0.00     0.000 C 
BRANCH  13  14
ATOM     14  C   UNL     1      34.067  78.096  10.068  1.00  0.00     0.000 C 
BRANCH  14  15
ATOM     15  C   UNL     1      32.572  78.152  10.448  1.00  0.00     0.000 C 
BRANCH  15  16
ATOM     16  C   UNL     1      32.268  78.812  11.805  1.00  0.00     0.000 C 
BRANCH  16  17
ATOM     17  C   UNL     1      31.691  77.863  12.872  1.00  0.00     0.000 C 
BRANCH  17  18
ATOM     18  C   UNL     1      32.596  77.704  14.115  1.00  0.00     0.000 C 
BRANCH  18  19
ATOM     19  C   UNL     1      32.846  79.042  14.833  1.00  0.00     0.000 C 
BRANCH  19  20
ATOM     20  C   UNL     1      31.556  79.658  15.399  1.00  0.00     0.006 C 
BRANCH  20  21
ATOM     21  C   UNL     1      31.544  81.189  15.303  1.00  0.00     0.053 C 
BRANCH  21  22
ATOM     22  C   UNL     1      32.318  81.788  16.435  1.00  0.00     0.041 C 
ATOM     23  O   UNL     1      32.133  81.387  17.613  1.00  0.00    -0.550 OA
ATOM     24  O   UNL     1      33.208  82.828  16.194  1.00  0.00    -0.550 OA
ENDBRANCH  21  22
ENDBRANCH  20  21
ENDBRANCH  19  20
ENDBRANCH  18  19
ENDBRANCH  17  18
ENDBRANCH  16  17
ENDBRANCH  15  16
ENDBRANCH  14  15
ENDBRANCH  13  14
ENDBRANCH   1  13
TORSDOF 20
ENDMDL
MODEL 2
REMARK VINA RESULT:    -4.465      1.480      2.062
REMARK INTER + INTRA:         -12.561
REMARK INTER:                  -9.098
REMARK INTRA:                  -3.463
REMARK UNBOUND:                -2.875
REMARK SMILES CCCCCCCCCCCCCCCCCCCCCC(=O)[O-]
REMARK SMILES IDX 12 1 11 2 10 3 9 4 8 5 7 6 6 7 5 8 4 9 3 10 2 11 1 12 13 13
REMARK SMILES IDX 14 14 15 15 16 16 17 17 18 18 19 19 20 20 21 21 22 22 23 23
REMARK SMILES IDX 24 24
REMARK H PARENT
REMARK Flexibility Score: inf
ROOT
ATOM      1  C   UNL     1      35.704  77.742  11.323  1.00  0.00     0.000 C 
ENDROOT
BRANCH   1   2
ATOM      2  C   UNL     1      36.513  76.624  10.627  1.00  0.00     0.000 C 
BRANCH   2   3
ATOM      3  C   UNL     1      35.612  75.544  10.004  1.00  0.00     0.000 C 
BRANCH   3   4
ATOM      4  C   UNL     1      35.697  75.528   8.463  1.00  0.00    -0.000 C 
BRANCH   4   5
ATOM      5  C   UNL     1      34.546  76.282   7.767  1.00  0.00    -0.000 C 
BRANCH   5   6
ATOM      6  C   UNL     1      33.182  75.572   7.802  1.00  0.00    -0.000 C 
BRANCH   6   7
ATOM      7  C   UNL     1      32.122  76.354   8.596  1.00  0.00    -0.000 C 
BRANCH   7   8
ATOM      8  C   UNL     1      31.463  75.515   9.706  1.00  0.00    -0.000 C 
BRANCH   8   9
ATOM      9  C   UNL     1      31.859  74.027   9.727  1.00  0.00    -0.000 C 
BRANCH   9  10
ATOM     10  C   UNL     1      32.651  73.636  10.985  1.00  0.00    -0.000 C 
BRANCH  10  11
ATOM     11  C   UNL     1      32.221  74.439  12.224  1.00  0.00    -0.003 C 
ATOM     12  C   UNL     1      30.961  73.883  12.885  1.00  0.00     0.004 C 
ENDBRANCH  10  11
ENDBRANCH   9  10
ENDBRANCH   8   9
ENDBRANCH   7   8
ENDBRANCH   6   7
ENDBRANCH   5   6
ENDBRANCH   4   5
ENDBRANCH   3   4
ENDBRANCH   2   3
ENDBRANCH   1   2
BRANCH   1  13
ATOM     13  C   UNL     1      34.215  77.400  11.514  1.00  0.00     0.000 C 
BRANCH  13  14
ATOM     14  C   UNL     1      33.239  78.543  11.178  1.00  0.00     0.000 C 
BRANCH  14  15
ATOM     15  C   UNL     1      32.349  79.011  12.350  1.00  0.00     0.000 C 
BRANCH  15  16
ATOM     16  C   UNL     1      31.593  77.889  13.084  1.00  0.00     0.000 C 
BRANCH  16  17
ATOM     17  C   UNL     1      32.142  77.542  14.480  1.00  0.00     0.000 C 
BRANCH  17  18
ATOM     18  C   UNL     1      33.125  78.595  15.039  1.00  0.00     0.000 C 
BRANCH  18  19
ATOM     19  C   UNL     1      32.553  79.342  16.257  1.00  0.00     0.000 C 
BRANCH  19  20
ATOM     20  C   UNL     1      32.483  80.862  16.038  1.00  0.00     0.006 C 
BRANCH  20  21
ATOM     21  C   UNL     1      31.334  81.270  15.107  1.00  0.00     0.053 C 
BRANCH  21  22
ATOM     22  C   UNL     1      30.035  80.728  15.614  1.00  0.00     0.041 C 
ATOM     23  O   UNL     1      29.602  81.071  16.745  1.00  0.00    -0.550 OA
ATOM     24  O   UNL     1      29.327  79.801  14.858  1.00  0.00    -0.550 OA
ENDBRANCH  21  22
ENDBRANCH  20  21
ENDBRANCH  19  20
ENDBRANCH  18  19
ENDBRANCH  17  18
ENDBRANCH  16  17
ENDBRANCH  15  16
ENDBRANCH  14  15
ENDBRANCH  13  14
ENDBRANCH   1  13
TORSDOF 20
ENDMDL
MODEL 3
REMARK VINA RESULT:    -4.393      1.212      2.262
REMARK INTER + INTRA:         -12.405
REMARK INTER:                  -9.316
REMARK INTRA:                  -3.089
REMARK UNBOUND:                -2.875
REMARK SMILES CCCCCCCCCCCCCCCCCCCCCC(=O)[O-]
REMARK SMILES IDX 12 1 11 2 10 3 9 4 8 5 7 6 6 7 5 8 4 9 3 10 2 11 1 12 13 13
REMARK SMILES IDX 14 14 15 15 16 16 17 17 18 18 19 19 20 20 21 21 22 22 23 23
REMARK SMILES IDX 24 24
REMARK H PARENT
REMARK Flexibility Score: inf
ROOT
ATOM      1  C   UNL     1      33.856  78.438  10.463  1.00  0.00     0.000 C 
ENDROOT
BRANCH   1   2
ATOM      2  C   UNL     1      34.498  77.629  11.611  1.00  0.00     0.000 C 
BRANCH   2   3
ATOM      3  C   UNL     1      34.974  76.237  11.158  1.00  0.00     0.000 C 
BRANCH   3   4
ATOM      4  C   UNL     1      35.948  76.311   9.964  1.00  0.00    -0.000 C 
BRANCH   4   5
ATOM      5  C   UNL     1      35.518  75.460   8.753  1.00  0.00    -0.000 C 
BRANCH   5   6
ATOM      6  C   UNL     1      34.583  76.167   7.756  1.00  0.00    -0.000 C 
BRANCH   6   7
ATOM      7  C   UNL     1      33.109  75.767   7.934  1.00  0.00    -0.000 C 
BRANCH   7   8
ATOM      8  C   UNL     1      32.936  74.414   8.648  1.00  0.00    -0.000 C 
BRANCH   8   9
ATOM      9  C   UNL     1      32.058  74.446   9.913  1.00  0.00    -0.000 C 
BRANCH   9  10
ATOM     10  C   UNL     1      32.098  73.127  10.703  1.00  0.00    -0.000 C 
BRANCH  10  11
ATOM     11  C   UNL     1      32.109  71.893   9.787  1.00  0.00    -0.003 C 
ATOM     12  C   UNL     1      30.943  70.942  10.056  1.00  0.00     0.004 C 
ENDBRANCH  10  11
ENDBRANCH   9  10
ENDBRANCH   8   9
ENDBRANCH   7   8
ENDBRANCH   6   7
ENDBRANCH   5   6
ENDBRANCH   4   5
ENDBRANCH   3   4
ENDBRANCH   2   3
ENDBRANCH   1   2
BRANCH   1  13
ATOM     13  C   UNL     1      32.434  78.939  10.778  1.00  0.00     0.000 C 
BRANCH  13  14
ATOM     14  C   UNL     1      31.301  78.139  10.108  1.00  0.00     0.000 C 
BRANCH  14  15
ATOM     15  C   UNL     1      30.281  77.509  11.080  1.00  0.00     0.000 C 
BRANCH  15  16
ATOM     16  C   UNL     1      30.454  77.906  12.557  1.00  0.00     0.000 C 
BRANCH  16  17
ATOM     17  C   UNL     1      31.227  76.888  13.417  1.00  0.00     0.000 C 
BRANCH  17  18
ATOM     18  C   UNL     1      32.095  77.537  14.517  1.00  0.00     0.000 C 
BRANCH  18  19
ATOM     19  C   UNL     1      32.233  79.059  14.333  1.00  0.00     0.000 C 
BRANCH  19  20
ATOM     20  C   UNL     1      31.431  79.855  15.375  1.00  0.00     0.006 C 
BRANCH  20  21
ATOM     21  C   UNL     1      31.532  81.371  15.163  1.00  0.00     0.053 C 
BRANCH  21  22
ATOM     22  C   UNL     1      32.324  82.000  16.266  1.00  0.00     0.041 C 
ATOM     23  O   UNL     1      32.963  83.064  16.060  1.00  0.00    -0.550 OA
ATOM     24  O   UNL     1      32.398  81.381  17.508  1.00  0.00    -0.550 OA
ENDBRANCH  21  22
ENDBRANCH  20  21
ENDBRANCH  19  20
ENDBRANCH  18  19
ENDBRANCH  17  18
ENDBRANCH  16  17
ENDBRANCH  15  16
ENDBRANCH  14  15
ENDBRANCH  13  14
ENDBRANCH   1  13
TORSDOF 20
ENDMDL
MODEL 4
REMARK VINA RESULT:    -4.367      1.000      1.619
REMARK INTER + INTRA:         -12.347
REMARK INTER:                  -9.667
REMARK INTRA:                  -2.681
REMARK UNBOUND:                -2.875
REMARK SMILES CCCCCCCCCCCCCCCCCCCCCC(=O)[O-]
REMARK SMILES IDX 12 1 11 2 10 3 9 4 8 5 7 6 6 7 5 8 4 9 3 10 2 11 1 12 13 13
REMARK SMILES IDX 14 14 15 15 16 16 17 17 18 18 19 19 20 20 21 21 22 22 23 23
REMARK SMILES IDX 24 24
REMARK H PARENT
REMARK Flexibility Score: inf
ROOT
ATOM      1  C   UNL     1      35.820  75.783   9.783  1.00  0.00     0.000 C 
ENDROOT
BRANCH   1   2
ATOM      2  C   UNL     1      36.830  75.373   8.688  1.00  0.00     0.000 C 
BRANCH   2   3
ATOM      3  C   UNL     1      36.146  75.047   7.348  1.00  0.00     0.000 C 
BRANCH   3   4
ATOM      4  C   UNL     1      34.820  75.815   7.165  1.00  0.00    -0.000 C 
BRANCH   4   5
ATOM      5  C   UNL     1      33.819  75.117   6.224  1.00  0.00    -0.000 C 
BRANCH   5   6
ATOM      6  C   UNL     1      32.577  74.525   6.913  1.00  0.00    -0.000 C 
BRANCH   6   7
ATOM      7  C   UNL     1      32.647  74.611   8.447  1.00  0.00    -0.000 C 
BRANCH   7   8
ATOM      8  C   UNL     1      31.486  75.418   9.057  1.00  0.00    -0.000 C 
BRANCH   8   9
ATOM      9  C   UNL     1      30.656  74.673  10.119  1.00  0.00    -0.000 C 
BRANCH   9  10
ATOM     10  C   UNL     1      31.066  75.030  11.557  1.00  0.00    -0.000 C 
BRANCH  10  11
ATOM     11  C   UNL     1      31.959  73.956  12.198  1.00  0.00    -0.003 C 
ATOM     12  C   UNL     1      33.448  74.286  12.101  1.00  0.00     0.004 C 
ENDBRANCH  10  11
ENDBRANCH   9  10
ENDBRANCH   8   9
ENDBRANCH   7   8
ENDBRANCH   6   7
ENDBRANCH   5   6
ENDBRANCH   4   5
ENDBRANCH   3   4
ENDBRANCH   2   3
ENDBRANCH   1   2
BRANCH   1  13
ATOM     13  C   UNL     1      36.396  76.768  10.818  1.00  0.00     0.000 C 
BRANCH  13  14
ATOM     14  C   UNL     1      35.372  77.747  11.421  1.00  0.00     0.000 C 
BRANCH  14  15
ATOM     15  C   UNL     1      33.995  77.767  10.724  1.00  0.00     0.000 C 
BRANCH  15  16
ATOM     16  C   UNL     1      33.016  78.837  11.242  1.00  0.00     0.000 C 
BRANCH  16  17
ATOM     17  C   UNL     1      31.969  78.324  12.249  1.00  0.00     0.000 C 
BRANCH  17  18
ATOM     18  C   UNL     1      32.584  77.734  13.537  1.00  0.00     0.000 C 
BRANCH  18  19
ATOM     19  C   UNL     1      33.063  78.824  14.511  1.00  0.00     0.000 C 
BRANCH  19  20
ATOM     20  C   UNL     1      31.940  79.330  15.431  1.00  0.00     0.006 C 
BRANCH  20  21
ATOM     21  C   UNL     1      32.387  80.499  16.318  1.00  0.00     0.053 C 
BRANCH  21  22
ATOM     22  C   UNL     1      32.189  81.800  15.605  1.00  0.00     0.041 C 
ATOM     23  O   UNL     1      32.801  82.831  15.985  1.00  0.00    -0.550 OA
ATOM     24  O   UNL     1      31.287  81.884  14.551  1.00  0.00    -0.550 OA
ENDBRANCH  21  22
ENDBRANCH  20  21
ENDBRANCH  19  20
ENDBRANCH  18  19
ENDBRANCH  17  18
ENDBRANCH  16  17
ENDBRANCH  15  16
ENDBRANCH  14  15
ENDBRANCH  13  14
ENDBRANCH   1  13
TORSDOF 20
ENDMDL
MODEL 5
REMARK VINA RESULT:    -4.341      3.839      7.526
REMARK INTER + INTRA:         -12.293
REMARK INTER:                  -8.452
REMARK INTRA:                  -3.841
REMARK UNBOUND:                -2.875
REMARK SMILES CCCCCCCCCCCCCCCCCCCCCC(=O)[O-]
REMARK SMILES IDX 12 1 11 2 10 3 9 4 8 5 7 6 6 7 5 8 4 9 3 10 2 11 1 12 13 13
REMARK SMILES IDX 14 14 15 15 16 16 17 17 18 18 19 19 20 20 21 21 22 22 23 23
REMARK SMILES IDX 24 24
REMARK H PARENT
REMARK Flexibility Score: inf
ROOT
ATOM      1  C   UNL     1      34.723  75.538  10.699  1.00  0.00     0.000 C 
ENDROOT
BRANCH   1   2
ATOM      2  C   UNL     1      35.266  76.866  11.272  1.00  0.00     0.000 C 
BRANCH   2   3
ATOM      3  C   UNL     1      34.601  78.099  10.635  1.00  0.00     0.000 C 
BRANCH   3   4
ATOM      4  C   UNL     1      33.859  77.754   9.327  1.00  0.00    -0.000 C 
BRANCH   4   5
ATOM      5  C   UNL     1      32.348  78.059   9.367  1.00  0.00    -0.000 C 
BRANCH   5   6
ATOM      6  C   UNL     1      31.801  78.479  10.743  1.00  0.00    -0.000 C 
BRANCH   6   7
ATOM      7  C   UNL     1      30.951  77.383  11.408  1.00  0.00    -0.000 C 
BRANCH   7   8
ATOM      8  C   UNL     1      30.991  77.444  12.945  1.00  0.00    -0.000 C 
BRANCH   8   9
ATOM      9  C   UNL     1      32.399  77.507  13.564  1.00  0.00    -0.000 C 
BRANCH   9  10
ATOM     10  C   UNL     1      32.599  78.732  14.473  1.00  0.00    -0.000 C 
BRANCH  10  11
ATOM     11  C   UNL     1      31.570  79.841  14.201  1.00  0.00    -0.003 C 
ATOM     12  C   UNL     1      31.528  80.897  15.305  1.00  0.00     0.004 C 
ENDBRANCH  10  11
ENDBRANCH   9  10
ENDBRANCH   8   9
ENDBRANCH   7   8
ENDBRANCH   6   7
ENDBRANCH   5   6
ENDBRANCH   4   5
ENDBRANCH   3   4
ENDBRANCH   2   3
ENDBRANCH   1   2
BRANCH   1  13
ATOM     13  C   UNL     1      33.889  74.724  11.705  1.00  0.00     0.000 C 
BRANCH  13  14
ATOM     14  C   UNL     1      32.573  74.152  11.145  1.00  0.00     0.000 C 
BRANCH  14  15
ATOM     15  C   UNL     1      32.467  74.139   9.605  1.00  0.00     0.000 C 
BRANCH  15  16
ATOM     16  C   UNL     1      31.034  74.055   9.050  1.00  0.00     0.000 C 
BRANCH  16  17
ATOM     17  C   UNL     1      30.743  74.991   7.862  1.00  0.00     0.000 C 
BRANCH  17  18
ATOM     18  C   UNL     1      32.013  75.465   7.120  1.00  0.00     0.000 C 
BRANCH  18  19
ATOM     19  C   UNL     1      32.436  74.494   6.003  1.00  0.00     0.000 C 
BRANCH  19  20
ATOM     20  C   UNL     1      33.921  74.107   6.089  1.00  0.00     0.006 C 
BRANCH  20  21
ATOM     21  C   UNL     1      34.761  75.156   6.829  1.00  0.00     0.053 C 
BRANCH  21  22
ATOM     22  C   UNL     1      36.168  74.673   6.997  1.00  0.00     0.041 C 
ATOM     23  O   UNL     1      36.625  73.777   6.242  1.00  0.00    -0.550 OA
ATOM     24  O   UNL     1      36.957  75.177   8.024  1.00  0.00    -0.550 OA
ENDBRANCH  21  22
ENDBRANCH  20  21
ENDBRANCH  19  20
ENDBRANCH  18  19
ENDBRANCH  17  18
ENDBRANCH  16  17
ENDBRANCH  15  16
ENDBRANCH  14  15
ENDBRANCH  13  14
ENDBRANCH   1  13
TORSDOF 20
ENDMDL
MODEL 6
REMARK VINA RESULT:    -4.323      1.881      3.627
REMARK INTER + INTRA:         -12.252
REMARK INTER:                  -8.731
REMARK INTRA:                  -3.521
REMARK UNBOUND:                -2.875
REMARK SMILES CCCCCCCCCCCCCCCCCCCCCC(=O)[O-]
REMARK SMILES IDX 12 1 11 2 10 3 9 4 8 5 7 6 6 7 5 8 4 9 3 10 2 11 1 12 13 13
REMARK SMILES IDX 14 14 15 15 16 16 17 17 18 18 19 19 20 20 21 21 22 22 23 23
REMARK SMILES IDX 24 24
REMARK H PARENT
REMARK Flexibility Score: inf
ROOT
ATOM      1  C   UNL     1      32.992  78.438  12.778  1.00  0.00     0.000 C 
ENDROOT
BRANCH   1   2
ATOM      2  C   UNL     1      32.345  78.893  11.452  1.00  0.00     0.000 C 
BRANCH   2   3
ATOM      3  C   UNL     1      31.466  77.799  10.819  1.00  0.00     0.000 C 
BRANCH   3   4
ATOM      4  C   UNL     1      31.371  77.940   9.285  1.00  0.00    -0.000 C 
BRANCH   4   5
ATOM      5  C   UNL     1      32.371  77.055   8.514  1.00  0.00    -0.000 C 
BRANCH   5   6
ATOM      6  C   UNL     1      33.823  77.564   8.504  1.00  0.00    -0.000 C 
BRANCH   6   7
ATOM      7  C   UNL     1      34.812  76.559   9.119  1.00  0.00    -0.000 C 
BRANCH   7   8
ATOM      8  C   UNL     1      34.113  75.347   9.763  1.00  0.00    -0.000 C 
BRANCH   8   9
ATOM      9  C   UNL     1      34.574  75.007  11.193  1.00  0.00    -0.000 C 
BRANCH   9  10
ATOM     10  C   UNL     1      33.473  74.341  12.034  1.00  0.00    -0.000 C 
BRANCH  10  11
ATOM     11  C   UNL     1      32.184  74.100  11.232  1.00  0.00    -0.003 C 
ATOM     12  C   UNL     1      30.957  73.904  12.122  1.00  0.00     0.004 C 
ENDBRANCH  10  11
ENDBRANCH   9  10
ENDBRANCH   8   9
ENDBRANCH   7   8
ENDBRANCH   6   7
ENDBRANCH   5   6
ENDBRANCH   4   5
ENDBRANCH   3   4
ENDBRANCH   2   3
ENDBRANCH   1   2
BRANCH   1  13
ATOM     13  C   UNL     1      32.376  77.151  13.359  1.00  0.00     0.000 C 
BRANCH  13  14
ATOM     14  C   UNL     1      31.573  77.345  14.658  1.00  0.00     0.000 C 
BRANCH  14  15
ATOM     15  C   UNL     1      30.053  77.109  14.531  1.00  0.00     0.000 C 
BRANCH  15  16
ATOM     16  C   UNL     1      29.316  78.087  13.598  1.00  0.00     0.000 C 
BRANCH  16  17
ATOM     17  C   UNL     1      28.446  79.136  14.315  1.00  0.00     0.000 C 
BRANCH  17  18
ATOM     18  C   UNL     1      29.192  79.905  15.427  1.00  0.00     0.000 C 
BRANCH  18  19
ATOM     19  C   UNL     1      29.768  81.242  14.930  1.00  0.00     0.000 C 
BRANCH  19  20
ATOM     20  C   UNL     1      31.251  81.136  14.537  1.00  0.00     0.006 C 
BRANCH  20  21
ATOM     21  C   UNL     1      32.139  80.688  15.705  1.00  0.00     0.053 C 
BRANCH  21  22
ATOM     22  C   UNL     1      32.472  81.853  16.583  1.00  0.00     0.041 C 
ATOM     23  O   UNL     1      32.367  81.756  17.833  1.00  0.00    -0.550 OA
ATOM     24  O   UNL     1      32.849  83.064  16.016  1.00  0.00    -0.550 OA
ENDBRANCH  21  22
ENDBRANCH  20  21
ENDBRANCH  19  20
ENDBRANCH  18  19
ENDBRANCH  17  18
ENDBRANCH  16  17
ENDBRANCH  15  16
ENDBRANCH  14  15
ENDBRANCH  13  14
ENDBRANCH   1  13
TORSDOF 20
ENDMDL
MODEL 7
REMARK VINA RESULT:    -4.316      3.677      8.437
REMARK INTER + INTRA:         -12.238
REMARK INTER:                  -9.027
REMARK INTRA:                  -3.211
REMARK UNBOUND:                -2.875
REMARK SMILES CCCCCCCCCCCCCCCCCCCCCC(=O)[O-]
REMARK SMILES IDX 12 1 11 2 10 3 9 4 8 5 7 6 6 7 5 8 4 9 3 10 2 11 1 12 13 13
REMARK SMILES IDX 14 14 15 15 16 16 17 17 18 18 19 19 20 20 21 21 22 22 23 23
REMARK SMILES IDX 24 24
REMARK H PARENT
REMARK Flexibility Score: inf
ROOT
ATOM      1  C   UNL     1      31.437  76.876  11.308  1.00  0.00     0.000 C 
ENDROOT
BRANCH   1   2
ATOM      2  C   UNL     1      30.315  76.831  12.368  1.00  0.00     0.000 C 
BRANCH   2   3
ATOM      3  C   UNL     1      30.799  76.272  13.718  1.00  0.00     0.000 C 
BRANCH   3   4
ATOM      4  C   UNL     1      30.784  77.338  14.833  1.00  0.00    -0.000 C 
BRANCH   4   5
ATOM      5  C   UNL     1      32.188  77.759  15.313  1.00  0.00    -0.000 C 
BRANCH   5   6
ATOM      6  C   UNL     1      32.725  79.063  14.699  1.00  0.00    -0.000 C 
BRANCH   6   7
ATOM      7  C   UNL     1      31.608  79.985  14.181  1.00  0.00    -0.000 C 
BRANCH   7   8
ATOM      8  C   UNL     1      31.145  81.013  15.229  1.00  0.00    -0.000 C 
BRANCH   8   9
ATOM      9  C   UNL     1      32.276  81.706  16.013  1.00  0.00    -0.000 C 
BRANCH   9  10
ATOM     10  C   UNL     1      31.984  81.811  17.519  1.00  0.00    -0.000 C 
BRANCH  10  11
ATOM     11  C   UNL     1      30.978  80.751  17.999  1.00  0.00    -0.003 C 
ATOM     12  C   UNL     1      31.653  79.521  18.604  1.00  0.00     0.004 C 
ENDBRANCH  10  11
ENDBRANCH   9  10
ENDBRANCH   8   9
ENDBRANCH   7   8
ENDBRANCH   6   7
ENDBRANCH   5   6
ENDBRANCH   4   5
ENDBRANCH   3   4
ENDBRANCH   2   3
ENDBRANCH   1   2
BRANCH   1  13
ATOM     13  C   UNL     1      31.822  78.302  10.874  1.00  0.00     0.000 C 
BRANCH  13  14
ATOM     14  C   UNL     1      33.325  78.626  10.969  1.00  0.00     0.000 C 
BRANCH  14  15
ATOM     15  C   UNL     1      34.193  77.525  11.613  1.00  0.00     0.000 C 
BRANCH  15  16
ATOM     16  C   UNL     1      35.713  77.722  11.467  1.00  0.00     0.000 C 
BRANCH  16  17
ATOM     17  C   UNL     1      36.440  76.607  10.692  1.00  0.00     0.000 C 
BRANCH  17  18
ATOM     18  C   UNL     1      35.490  75.670   9.915  1.00  0.00     0.000 C 
BRANCH  18  19
ATOM     19  C   UNL     1      35.943  75.449   8.461  1.00  0.00     0.000 C 
BRANCH  19  20
ATOM     20  C   UNL     1      34.880  75.883   7.439  1.00  0.00     0.006 C 
BRANCH  20  21
ATOM     21  C   UNL     1      33.562  76.301   8.102  1.00  0.00     0.053 C 
BRANCH  21  22
ATOM     22  C   UNL     1      32.417  75.540   7.511  1.00  0.00     0.041 C 
ATOM     23  O   UNL     1      32.597  74.799   6.510  1.00  0.00    -0.550 OA
ATOM     24  O   UNL     1      31.139  75.690   8.035  1.00  0.00    -0.550 OA
ENDBRANCH  21  22
ENDBRANCH  20  21
ENDBRANCH  19  20
ENDBRANCH  18  19
ENDBRANCH  17  18
ENDBRANCH  16  17
ENDBRANCH  15  16
ENDBRANCH  14  15
ENDBRANCH  13  14
ENDBRANCH   1  13
TORSDOF 20
ENDMDL
MODEL 8
REMARK VINA RESULT:    -4.306      1.589      3.382
REMARK INTER + INTRA:         -12.216
REMARK INTER:                  -8.126
REMARK INTRA:                  -4.090
REMARK UNBOUND:                -2.875
REMARK SMILES CCCCCCCCCCCCCCCCCCCCCC(=O)[O-]
REMARK SMILES IDX 12 1 11 2 10 3 9 4 8 5 7 6 6 7 5 8 4 9 3 10 2 11 1 12 13 13
REMARK SMILES IDX 14 14 15 15 16 16 17 17 18 18 19 19 20 20 21 21 22 22 23 23
REMARK SMILES IDX 24 24
REMARK H PARENT
REMARK Flexibility Score: inf
ROOT
ATOM      1  C   UNL     1      34.424  77.316  11.499  1.00  0.00     0.000 C 
ENDROOT
BRANCH   1   2
ATOM      2  C   UNL     1      34.424  75.821  11.111  1.00  0.00     0.000 C 
BRANCH   2   3
ATOM      3  C   UNL     1      33.576  74.963  12.067  1.00  0.00     0.000 C 
BRANCH   3   4
ATOM      4  C   UNL     1      32.701  73.939  11.314  1.00  0.00    -0.000 C 
BRANCH   4   5
ATOM      5  C   UNL     1      32.755  74.080   9.780  1.00  0.00    -0.000 C 
BRANCH   5   6
ATOM      6  C   UNL     1      31.387  74.139   9.079  1.00  0.00    -0.000 C 
BRANCH   6   7
ATOM      7  C   UNL     1      31.503  74.297   7.554  1.00  0.00    -0.000 C 
BRANCH   7   8
ATOM      8  C   UNL     1      32.834  73.762   6.995  1.00  0.00    -0.000 C 
BRANCH   8   9
ATOM      9  C   UNL     1      33.465  74.610   5.876  1.00  0.00    -0.000 C 
BRANCH   9  10
ATOM     10  C   UNL     1      34.563  75.557   6.388  1.00  0.00    -0.000 C 
BRANCH  10  11
ATOM     11  C   UNL     1      35.854  74.811   6.765  1.00  0.00    -0.003 C 
ATOM     12  C   UNL     1      36.383  75.199   8.145  1.00  0.00     0.004 C 
ENDBRANCH  10  11
ENDBRANCH   9  10
ENDBRANCH   8   9
ENDBRANCH   7   8
ENDBRANCH   6   7
ENDBRANCH   5   6
ENDBRANCH   4   5
ENDBRANCH   3   4
ENDBRANCH   2   3
ENDBRANCH   1   2
BRANCH   1  13
ATOM     13  C   UNL     1      33.962  78.251  10.365  1.00  0.00     0.000 C 
BRANCH  13  14
ATOM     14  C   UNL     1      33.501  77.535   9.082  1.00  0.00     0.000 C 
BRANCH  14  15
ATOM     15  C   UNL     1      32.037  77.801   8.672  1.00  0.00     0.000 C 
BRANCH  15  16
ATOM     16  C   UNL     1      31.131  78.335   9.796  1.00  0.00     0.000 C 
BRANCH  16  17
ATOM     17  C   UNL     1      30.252  77.273  10.482  1.00  0.00     0.000 C 
BRANCH  17  18
ATOM     18  C   UNL     1      30.649  76.991  11.948  1.00  0.00     0.000 C 
BRANCH  18  19
ATOM     19  C   UNL     1      30.437  78.214  12.858  1.00  0.00     0.000 C 
BRANCH  19  20
ATOM     20  C   UNL     1      31.753  78.746  13.449  1.00  0.00     0.006 C 
BRANCH  20  21
ATOM     21  C   UNL     1      32.385  77.771  14.451  1.00  0.00     0.053 C 
BRANCH  21  22
ATOM     22  C   UNL     1      32.439  78.387  15.813  1.00  0.00     0.041 C 
ATOM     23  O   UNL     1      31.944  77.786  16.802  1.00  0.00    -0.550 OA
ATOM     24  O   UNL     1      32.992  79.650  15.982  1.00  0.00    -0.550 OA
ENDBRANCH  21  22
ENDBRANCH  20  21
ENDBRANCH  19  20
ENDBRANCH  18  19
ENDBRANCH  17  18
ENDBRANCH  16  17
ENDBRANCH  15  16
ENDBRANCH  14  15
ENDBRANCH  13  14
ENDBRANCH   1  13
TORSDOF 20
ENDMDL
MODEL 9
REMARK VINA RESULT:    -4.294      1.167      3.063
REMARK INTER + INTRA:         -12.191
REMARK INTER:                  -8.982
REMARK INTRA:                  -3.209
REMARK UNBOUND:                -2.875
REMARK SMILES CCCCCCCCCCCCCCCCCCCCCC(=O)[O-]
REMARK SMILES IDX 12 1 11 2 10 3 9 4 8 5 7 6 6 7 5 8 4 9 3 10 2 11 1 12 13 13
REMARK SMILES IDX 14 14 15 15 16 16 17 17 18 18 19 19 20 20 21 21 22 22 23 23
REMARK SMILES IDX 24 24
REMARK H PARENT
REMARK Flexibility Score: inf
ROOT
ATOM      1  C   UNL     1      35.653  76.639  10.783  1.00  0.00     0.000 C 
ENDROOT
BRANCH   1   2
ATOM      2  C   UNL     1      34.992  75.243  10.790  1.00  0.00     0.000 C 
BRANCH   2   3
ATOM      3  C   UNL     1      33.868  75.126  11.834  1.00  0.00     0.000 C 
BRANCH   3   4
ATOM      4  C   UNL     1      32.955  73.909  11.578  1.00  0.00    -0.000 C 
BRANCH   4   5
ATOM      5  C   UNL     1      31.790  74.195  10.610  1.00  0.00    -0.000 C 
BRANCH   5   6
ATOM      6  C   UNL     1      32.090  73.921   9.126  1.00  0.00    -0.000 C 
BRANCH   6   7
ATOM      7  C   UNL     1      31.611  75.053   8.201  1.00  0.00    -0.000 C 
BRANCH   7   8
ATOM      8  C   UNL     1      32.755  75.975   7.741  1.00  0.00    -0.000 C 
BRANCH   8   9
ATOM      9  C   UNL     1      33.792  75.321   6.811  1.00  0.00    -0.000 C 
BRANCH   9  10
ATOM     10  C   UNL     1      35.238  75.500   7.304  1.00  0.00    -0.000 C 
BRANCH  10  11
ATOM     11  C   UNL     1      36.209  74.499   6.658  1.00  0.00    -0.003 C 
ATOM     12  C   UNL     1      35.514  73.229   6.169  1.00  0.00     0.004 C 
ENDBRANCH  10  11
ENDBRANCH   9  10
ENDBRANCH   8   9
ENDBRANCH   7   8
ENDBRANCH   6   7
ENDBRANCH   5   6
ENDBRANCH   4   5
ENDBRANCH   3   4
ENDBRANCH   2   3
ENDBRANCH   1   2
BRANCH   1  13
ATOM     13  C   UNL     1      34.709  77.773  11.226  1.00  0.00     0.000 C 
BRANCH  13  14
ATOM     14  C   UNL     1      33.809  78.340  10.112  1.00  0.00     0.000 C 
BRANCH  14  15
ATOM     15  C   UNL     1      32.313  78.462  10.476  1.00  0.00     0.000 C 
BRANCH  15  16
ATOM     16  C   UNL     1      32.025  78.788  11.952  1.00  0.00     0.000 C 
BRANCH  16  17
ATOM     17  C   UNL     1      31.356  77.652  12.748  1.00  0.00     0.000 C 
BRANCH  17  18
ATOM     18  C   UNL     1      31.949  77.451  14.160  1.00  0.00     0.000 C 
BRANCH  18  19
ATOM     19  C   UNL     1      33.031  78.493  14.495  1.00  0.00     0.000 C 
BRANCH  19  20
ATOM     20  C   UNL     1      33.041  78.876  15.984  1.00  0.00     0.006 C 
BRANCH  20  21
ATOM     21  C   UNL     1      31.857  79.773  16.368  1.00  0.00     0.053 C 
BRANCH  21  22
ATOM     22  C   UNL     1      31.965  81.099  15.684  1.00  0.00     0.041 C 
ATOM     23  O   UNL     1      32.853  81.921  16.029  1.00  0.00    -0.550 OA
ATOM     24  O   UNL     1      31.049  81.450  14.699  1.00  0.00    -0.550 OA
ENDBRANCH  21  22
ENDBRANCH  20  21
ENDBRANCH  19  20
ENDBRANCH  18  19
ENDBRANCH  17  18
ENDBRANCH  16  17
ENDBRANCH  15  16
ENDBRANCH  14  15
ENDBRANCH  13  14
ENDBRANCH   1  13
TORSDOF 20
ENDMDL
