MODEL 1
REMARK VINA RESULT:    -8.047      0.000      0.000
REMARK INTER + INTRA:          -9.746
REMARK INTER:                  -9.458
REMARK INTRA:                  -0.288
REMARK UNBOUND:                -0.288
REMARK SMILES O=c1c(O)c(-c2ccc(O)cc2)oc2cc(O)cc(O)c12
REMARK SMILES IDX 5 1 3 2 2 3 1 4 21 5 19 6 18 7 16 8 15 9 14 10 13 11 6 12
REMARK SMILES IDX 7 13 8 14 9 15 12 16 11 17 10 18 4 20 20 22 17 24
REMARK H PARENT 10 19 4 21 20 23 17 25
REMARK Flexibility Score: inf
ROOT
ATOM      1  C   UNL     1     -45.243 -11.251  11.879  1.00  0.00     0.180 A 
ATOM      2  C   UNL     1     -45.288 -10.198  12.811  1.00  0.00     0.208 A 
ATOM      3  C   UNL     1     -44.260  -9.243  12.807  1.00  0.00     0.238 A 
ATOM      4  O   UNL     1     -44.277  -8.334  13.678  1.00  0.00    -0.285 OA
ATOM      5  C   UNL     1     -43.208  -9.342  11.864  1.00  0.00     0.111 A 
ATOM      6  C   UNL     1     -42.136  -8.407  11.745  1.00  0.00     0.134 A 
ATOM      7  C   UNL     1     -41.081  -8.676  10.864  1.00  0.00     0.093 A 
ATOM      8  C   UNL     1     -41.092  -9.808  10.051  1.00  0.00     0.123 A 
ATOM      9  C   UNL     1     -42.164 -10.698  10.117  1.00  0.00     0.094 A 
ATOM     10  C   UNL     1     -43.214 -10.476  11.012  1.00  0.00     0.146 A 
ATOM     11  O   UNL     1     -44.210 -11.353  11.051  1.00  0.00    -0.452 OA
ENDROOT
BRANCH   1  12
ATOM     12  C   UNL     1     -46.303 -12.282  11.804  1.00  0.00     0.021 A 
ATOM     13  C   UNL     1     -46.251 -13.445  12.594  1.00  0.00     0.016 A 
ATOM     14  C   UNL     1     -47.276 -14.394  12.524  1.00  0.00     0.047 A 
ATOM     15  C   UNL     1     -48.372 -14.186  11.676  1.00  0.00     0.115 A 
ATOM     16  C   UNL     1     -47.415 -12.072  10.973  1.00  0.00     0.016 A 
ATOM     17  C   UNL     1     -48.438 -13.023  10.904  1.00  0.00     0.047 A 
BRANCH  15  18
ATOM     18  O   UNL     1     -49.398 -15.125  11.597  1.00  0.00    -0.508 OA
ATOM     19  H   UNL     1     -49.617 -15.736  12.375  1.00  0.00     0.293 HD
ENDBRANCH  15  18
ENDBRANCH   1  12
BRANCH   2  20
ATOM     20  O   UNL     1     -46.323 -10.131  13.747  1.00  0.00    -0.502 OA
ATOM     21  H   UNL     1     -46.771  -9.260  14.001  1.00  0.00     0.293 HD
ENDBRANCH   2  20
BRANCH   6  22
ATOM     22  O   UNL     1     -42.073  -7.197  12.443  1.00  0.00    -0.507 OA
ATOM     23  H   UNL     1     -41.242  -6.830  12.881  1.00  0.00     0.293 HD
ENDBRANCH   6  22
BRANCH   8  24
ATOM     24  O   UNL     1     -40.033 -10.036   9.174  1.00  0.00    -0.508 OA
ATOM     25  H   UNL     1     -40.173 -10.497   8.284  1.00  0.00     0.293 HD
ENDBRANCH   8  24
TORSDOF 5
ENDMDL
MODEL 2
REMARK VINA RESULT:    -7.704      1.550      6.612
REMARK INTER + INTRA:          -9.343
REMARK INTER:                  -9.214
REMARK INTRA:                  -0.130
REMARK UNBOUND:                -0.288
REMARK SMILES O=c1c(O)c(-c2ccc(O)cc2)oc2cc(O)cc(O)c12
REMARK SMILES IDX 5 1 3 2 2 3 1 4 21 5 19 6 18 7 16 8 15 9 14 10 13 11 6 12
REMARK SMILES IDX 7 13 8 14 9 15 12 16 11 17 10 18 4 20 20 22 17 24
REMARK H PARENT 10 19 4 21 20 23 17 25
REMARK Flexibility Score: inf
ROOT
ATOM      1  C   UNL     1     -44.578 -11.234  12.194  1.00  0.00     0.180 A 
ATOM      2  C   UNL     1     -44.764 -11.129  13.584  1.00  0.00     0.208 A 
ATOM      3  C   UNL     1     -45.894 -11.724  14.166  1.00  0.00     0.238 A 
ATOM      4  O   UNL     1     -46.083 -11.580  15.402  1.00  0.00    -0.285 OA
ATOM      5  C   UNL     1     -46.816 -12.430  13.356  1.00  0.00     0.111 A 
ATOM      6  C   UNL     1     -47.974 -13.106  13.846  1.00  0.00     0.134 A 
ATOM      7  C   UNL     1     -48.885 -13.660  12.938  1.00  0.00     0.093 A 
ATOM      8  C   UNL     1     -48.648 -13.621  11.565  1.00  0.00     0.123 A 
ATOM      9  C   UNL     1     -47.489 -13.015  11.079  1.00  0.00     0.094 A 
ATOM     10  C   UNL     1     -46.579 -12.421  11.957  1.00  0.00     0.146 A 
ATOM     11  O   UNL     1     -45.494 -11.846  11.453  1.00  0.00    -0.452 OA
ENDROOT
BRANCH   1  12
ATOM     12  C   UNL     1     -43.399 -10.655  11.511  1.00  0.00     0.021 A 
ATOM     13  C   UNL     1     -43.181  -9.265  11.479  1.00  0.00     0.016 A 
ATOM     14  C   UNL     1     -42.047  -8.743  10.848  1.00  0.00     0.047 A 
ATOM     15  C   UNL     1     -41.112  -9.601  10.255  1.00  0.00     0.115 A 
ATOM     16  C   UNL     1     -42.447 -11.509  10.932  1.00  0.00     0.016 A 
ATOM     17  C   UNL     1     -41.314 -10.983  10.301  1.00  0.00     0.047 A 
BRANCH  15  18
ATOM     18  O   UNL     1     -39.980  -9.092   9.623  1.00  0.00    -0.508 OA
ATOM     19  H   UNL     1     -39.077  -9.080  10.083  1.00  0.00     0.293 HD
ENDBRANCH  15  18
ENDBRANCH   1  12
BRANCH   2  20
ATOM     20  O   UNL     1     -43.854 -10.409  14.363  1.00  0.00    -0.502 OA
ATOM     21  H   UNL     1     -44.146  -9.800  15.116  1.00  0.00     0.293 HD
ENDBRANCH   2  20
BRANCH   6  22
ATOM     22  O   UNL     1     -48.259 -13.283  15.203  1.00  0.00    -0.507 OA
ATOM     23  H   UNL     1     -47.697 -12.923  15.959  1.00  0.00     0.293 HD
ENDBRANCH   6  22
BRANCH   8  24
ATOM     24  O   UNL     1     -49.569 -14.196  10.692  1.00  0.00    -0.508 OA
ATOM     25  H   UNL     1     -50.527 -13.871  10.643  1.00  0.00     0.293 HD
ENDBRANCH   8  24
TORSDOF 5
ENDMDL
MODEL 3
REMARK VINA RESULT:    -7.220      2.928      8.025
REMARK INTER + INTRA:          -8.774
REMARK INTER:                  -8.530
REMARK INTRA:                  -0.245
REMARK UNBOUND:                -0.288
REMARK SMILES O=c1c(O)c(-c2ccc(O)cc2)oc2cc(O)cc(O)c12
REMARK SMILES IDX 5 1 3 2 2 3 1 4 21 5 19 6 18 7 16 8 15 9 14 10 13 11 6 12
REMARK SMILES IDX 7 13 8 14 9 15 12 16 11 17 10 18 4 20 20 22 17 24
REMARK H PARENT 10 19 4 21 20 23 17 25
REMARK Flexibility Score: inf
ROOT
ATOM      1  C   UNL     1     -47.680 -12.669  12.568  1.00  0.00     0.180 A 
ATOM      2  C   UNL     1     -48.619 -12.742  11.524  1.00  0.00     0.208 A 
ATOM      3  C   UNL     1     -49.930 -13.153  11.814  1.00  0.00     0.238 A 
ATOM      4  O   UNL     1     -50.751 -13.268  10.867  1.00  0.00    -0.285 OA
ATOM      5  C   UNL     1     -50.290 -13.472  13.146  1.00  0.00     0.111 A 
ATOM      6  C   UNL     1     -51.599 -13.861  13.561  1.00  0.00     0.134 A 
ATOM      7  C   UNL     1     -51.809 -14.280  14.881  1.00  0.00     0.093 A 
ATOM      8  C   UNL     1     -50.775 -14.260  15.815  1.00  0.00     0.123 A 
ATOM      9  C   UNL     1     -49.505 -13.825  15.436  1.00  0.00     0.094 A 
ATOM     10  C   UNL     1     -49.256 -13.435  14.117  1.00  0.00     0.146 A 
ATOM     11  O   UNL     1     -48.031 -13.038  13.795  1.00  0.00    -0.452 OA
ENDROOT
BRANCH   1  12
ATOM     12  C   UNL     1     -46.287 -12.220  12.344  1.00  0.00     0.021 A 
ATOM     13  C   UNL     1     -45.329 -13.069  11.761  1.00  0.00     0.016 A 
ATOM     14  C   UNL     1     -44.025 -12.615  11.537  1.00  0.00     0.047 A 
ATOM     15  C   UNL     1     -43.666 -11.305  11.881  1.00  0.00     0.115 A 
ATOM     16  C   UNL     1     -45.925 -10.902  12.667  1.00  0.00     0.016 A 
ATOM     17  C   UNL     1     -44.620 -10.451  12.443  1.00  0.00     0.047 A 
BRANCH  15  18
ATOM     18  O   UNL     1     -42.371 -10.842  11.664  1.00  0.00    -0.508 OA
ATOM     19  H   UNL     1     -41.579 -11.234  12.159  1.00  0.00     0.293 HD
ENDBRANCH  15  18
ENDBRANCH   1  12
BRANCH   2  20
ATOM     20  O   UNL     1     -48.238 -12.443  10.213  1.00  0.00    -0.502 OA
ATOM     21  H   UNL     1     -47.364 -11.984   9.992  1.00  0.00     0.293 HD
ENDBRANCH   2  20
BRANCH   6  22
ATOM     22  O   UNL     1     -52.723 -13.829  12.730  1.00  0.00    -0.507 OA
ATOM     23  H   UNL     1     -52.718 -13.520  11.770  1.00  0.00     0.293 HD
ENDBRANCH   6  22
BRANCH   8  24
ATOM     24  O   UNL     1     -51.024 -14.669  17.124  1.00  0.00    -0.508 OA
ATOM     25  H   UNL     1     -51.906 -14.474  17.581  1.00  0.00     0.293 HD
ENDBRANCH   8  24
TORSDOF 5
ENDMDL
MODEL 4
REMARK VINA RESULT:    -7.059      8.667     10.673
REMARK INTER + INTRA:          -8.586
REMARK INTER:                  -8.476
REMARK INTRA:                  -0.110
REMARK UNBOUND:                -0.288
REMARK SMILES O=c1c(O)c(-c2ccc(O)cc2)oc2cc(O)cc(O)c12
REMARK SMILES IDX 5 1 3 2 2 3 1 4 21 5 19 6 18 7 16 8 15 9 14 10 13 11 6 12
REMARK SMILES IDX 7 13 8 14 9 15 12 16 11 17 10 18 4 20 20 22 17 24
REMARK H PARENT 10 19 4 21 20 23 17 25
REMARK Flexibility Score: inf
ROOT
ATOM      1  C   UNL     1     -39.625  -7.640   3.704  1.00  0.00     0.180 A 
ATOM      2  C   UNL     1     -38.827  -7.803   4.850  1.00  0.00     0.208 A 
ATOM      3  C   UNL     1     -37.814  -6.867   5.113  1.00  0.00     0.238 A 
ATOM      4  O   UNL     1     -37.068  -7.049   6.110  1.00  0.00    -0.285 OA
ATOM      5  C   UNL     1     -37.622  -5.772   4.236  1.00  0.00     0.111 A 
ATOM      6  C   UNL     1     -36.652  -4.742   4.428  1.00  0.00     0.134 A 
ATOM      7  C   UNL     1     -36.462  -3.779   3.428  1.00  0.00     0.093 A 
ATOM      8  C   UNL     1     -37.250  -3.769   2.279  1.00  0.00     0.123 A 
ATOM      9  C   UNL     1     -38.241  -4.736   2.109  1.00  0.00     0.094 A 
ATOM     10  C   UNL     1     -38.430  -5.732   3.071  1.00  0.00     0.146 A 
ATOM     11  O   UNL     1     -39.377  -6.639   2.867  1.00  0.00    -0.452 OA
ENDROOT
BRANCH   1  12
ATOM     12  C   UNL     1     -40.728  -8.571   3.373  1.00  0.00     0.021 A 
ATOM     13  C   UNL     1     -41.812  -8.762   4.249  1.00  0.00     0.016 A 
ATOM     14  C   UNL     1     -42.855  -9.628   3.904  1.00  0.00     0.047 A 
ATOM     15  C   UNL     1     -42.835 -10.302   2.675  1.00  0.00     0.115 A 
ATOM     16  C   UNL     1     -40.726  -9.233   2.135  1.00  0.00     0.016 A 
ATOM     17  C   UNL     1     -41.770 -10.099   1.793  1.00  0.00     0.047 A 
BRANCH  15  18
ATOM     18  O   UNL     1     -43.867 -11.167   2.321  1.00  0.00    -0.508 OA
ATOM     19  H   UNL     1     -44.151 -11.286   1.356  1.00  0.00     0.293 HD
ENDBRANCH  15  18
ENDBRANCH   1  12
BRANCH   2  20
ATOM     20  O   UNL     1     -39.019  -8.903   5.690  1.00  0.00    -0.502 OA
ATOM     21  H   UNL     1     -39.689  -9.633   5.485  1.00  0.00     0.293 HD
ENDBRANCH   2  20
BRANCH   6  22
ATOM     22  O   UNL     1     -35.875  -4.605   5.582  1.00  0.00    -0.507 OA
ATOM     23  H   UNL     1     -35.792  -5.305   6.304  1.00  0.00     0.293 HD
ENDBRANCH   6  22
BRANCH   8  24
ATOM     24  O   UNL     1     -37.044  -2.786   1.312  1.00  0.00    -0.508 OA
ATOM     25  H   UNL     1     -36.479  -1.967   1.503  1.00  0.00     0.293 HD
ENDBRANCH   8  24
TORSDOF 5
ENDMDL
MODEL 5
REMARK VINA RESULT:    -7.058      3.093      7.533
REMARK INTER + INTRA:          -8.584
REMARK INTER:                  -8.344
REMARK INTRA:                  -0.240
REMARK UNBOUND:                -0.288
REMARK SMILES O=c1c(O)c(-c2ccc(O)cc2)oc2cc(O)cc(O)c12
REMARK SMILES IDX 5 1 3 2 2 3 1 4 21 5 19 6 18 7 16 8 15 9 14 10 13 11 6 12
REMARK SMILES IDX 7 13 8 14 9 15 12 16 11 17 10 18 4 20 20 22 17 24
REMARK H PARENT 10 19 4 21 20 23 17 25
REMARK Flexibility Score: inf
ROOT
ATOM      1  C   UNL     1     -46.905 -12.208  13.860  1.00  0.00     0.180 A 
ATOM      2  C   UNL     1     -47.046 -12.139  15.257  1.00  0.00     0.208 A 
ATOM      3  C   UNL     1     -48.273 -12.501  15.835  1.00  0.00     0.238 A 
ATOM      4  O   UNL     1     -48.410 -12.387  17.081  1.00  0.00    -0.285 OA
ATOM      5  C   UNL     1     -49.338 -12.941  15.012  1.00  0.00     0.111 A 
ATOM      6  C   UNL     1     -50.611 -13.370  15.495  1.00  0.00     0.134 A 
ATOM      7  C   UNL     1     -51.633 -13.659  14.582  1.00  0.00     0.093 A 
ATOM      8  C   UNL     1     -51.409 -13.599  13.208  1.00  0.00     0.123 A 
ATOM      9  C   UNL     1     -50.151 -13.239  12.725  1.00  0.00     0.094 A 
ATOM     10  C   UNL     1     -49.122 -12.910  13.610  1.00  0.00     0.146 A 
ATOM     11  O   UNL     1     -47.943 -12.561  13.110  1.00  0.00    -0.452 OA
ENDROOT
BRANCH   1  12
ATOM     12  C   UNL     1     -45.635 -11.867  13.178  1.00  0.00     0.021 A 
ATOM     13  C   UNL     1     -44.786 -12.867  12.669  1.00  0.00     0.016 A 
ATOM     14  C   UNL     1     -43.603 -12.520  12.008  1.00  0.00     0.047 A 
ATOM     15  C   UNL     1     -43.262 -11.172  11.835  1.00  0.00     0.115 A 
ATOM     16  C   UNL     1     -45.295 -10.518  12.982  1.00  0.00     0.016 A 
ATOM     17  C   UNL     1     -44.112 -10.175  12.321  1.00  0.00     0.047 A 
BRANCH  15  18
ATOM     18  O   UNL     1     -42.086 -10.815  11.178  1.00  0.00    -0.508 OA
ATOM     19  H   UNL     1     -41.761 -11.320  10.363  1.00  0.00     0.293 HD
ENDBRANCH  15  18
ENDBRANCH   1  12
BRANCH   2  20
ATOM     20  O   UNL     1     -45.990 -11.682  16.049  1.00  0.00    -0.502 OA
ATOM     21  H   UNL     1     -46.013 -11.718  17.060  1.00  0.00     0.293 HD
ENDBRANCH   2  20
BRANCH   6  22
ATOM     22  O   UNL     1     -50.912 -13.553  16.848  1.00  0.00    -0.507 OA
ATOM     23  H   UNL     1     -51.330 -12.853  17.442  1.00  0.00     0.293 HD
ENDBRANCH   6  22
BRANCH   8  24
ATOM     24  O   UNL     1     -52.446 -13.909  12.329  1.00  0.00    -0.508 OA
ATOM     25  H   UNL     1     -53.328 -14.281  12.660  1.00  0.00     0.293 HD
ENDBRANCH   8  24
TORSDOF 5
ENDMDL
MODEL 6
REMARK VINA RESULT:    -6.929      3.381      5.762
REMARK INTER + INTRA:          -8.432
REMARK INTER:                  -8.725
REMARK INTRA:                   0.293
REMARK UNBOUND:                -0.288
REMARK SMILES O=c1c(O)c(-c2ccc(O)cc2)oc2cc(O)cc(O)c12
REMARK SMILES IDX 5 1 3 2 2 3 1 4 21 5 19 6 18 7 16 8 15 9 14 10 13 11 6 12
REMARK SMILES IDX 7 13 8 14 9 15 12 16 11 17 10 18 4 20 20 22 17 24
REMARK H PARENT 10 19 4 21 20 23 17 25
REMARK Flexibility Score: inf
ROOT
ATOM      1  C   UNL     1     -49.405 -13.215  13.348  1.00  0.00     0.180 A 
ATOM      2  C   UNL     1     -49.254 -13.299  11.953  1.00  0.00     0.208 A 
ATOM      3  C   UNL     1     -48.010 -12.988  11.382  1.00  0.00     0.238 A 
ATOM      4  O   UNL     1     -47.897 -13.013  10.129  1.00  0.00    -0.285 OA
ATOM      5  C   UNL     1     -46.927 -12.611  12.214  1.00  0.00     0.111 A 
ATOM      6  C   UNL     1     -45.612 -12.313  11.746  1.00  0.00     0.134 A 
ATOM      7  C   UNL     1     -44.655 -11.824  12.644  1.00  0.00     0.093 A 
ATOM      8  C   UNL     1     -44.944 -11.687  14.001  1.00  0.00     0.123 A 
ATOM      9  C   UNL     1     -46.209 -12.032  14.478  1.00  0.00     0.094 A 
ATOM     10  C   UNL     1     -47.196 -12.488  13.601  1.00  0.00     0.146 A 
ATOM     11  O   UNL     1     -48.389 -12.795  14.095  1.00  0.00    -0.452 OA
ENDROOT
BRANCH   1  12
ATOM     12  C   UNL     1     -50.678 -13.551  14.026  1.00  0.00     0.021 A 
ATOM     13  C   UNL     1     -51.575 -14.485  13.476  1.00  0.00     0.016 A 
ATOM     14  C   UNL     1     -52.760 -14.805  14.146  1.00  0.00     0.047 A 
ATOM     15  C   UNL     1     -53.056 -14.208  15.379  1.00  0.00     0.115 A 
ATOM     16  C   UNL     1     -50.972 -12.973  15.271  1.00  0.00     0.016 A 
ATOM     17  C   UNL     1     -52.158 -13.295  15.939  1.00  0.00     0.047 A 
BRANCH  15  18
ATOM     18  O   UNL     1     -54.234 -14.518  16.055  1.00  0.00    -0.508 OA
ATOM     19  H   UNL     1     -54.585 -13.932  16.803  1.00  0.00     0.293 HD
ENDBRANCH  15  18
ENDBRANCH   1  12
BRANCH   2  20
ATOM     20  O   UNL     1     -50.341 -13.652  11.149  1.00  0.00    -0.502 OA
ATOM     21  H   UNL     1     -51.036 -14.329  11.439  1.00  0.00     0.293 HD
ENDBRANCH   2  20
BRANCH   6  22
ATOM     22  O   UNL     1     -45.191 -12.503  10.427  1.00  0.00    -0.507 OA
ATOM     23  H   UNL     1     -44.230 -12.616  10.142  1.00  0.00     0.293 HD
ENDBRANCH   6  22
BRANCH   8  24
ATOM     24  O   UNL     1     -43.962 -11.212  14.868  1.00  0.00    -0.508 OA
ATOM     25  H   UNL     1     -44.073 -10.336  15.365  1.00  0.00     0.293 HD
ENDBRANCH   8  24
TORSDOF 5
ENDMDL
MODEL 7
REMARK VINA RESULT:    -6.855      2.018      7.275
REMARK INTER + INTRA:          -8.346
REMARK INTER:                  -8.525
REMARK INTRA:                   0.180
REMARK UNBOUND:                -0.288
REMARK SMILES O=c1c(O)c(-c2ccc(O)cc2)oc2cc(O)cc(O)c12
REMARK SMILES IDX 5 1 3 2 2 3 1 4 21 5 19 6 18 7 16 8 15 9 14 10 13 11 6 12
REMARK SMILES IDX 7 13 8 14 9 15 12 16 11 17 10 18 4 20 20 22 17 24
REMARK H PARENT 10 19 4 21 20 23 17 25
REMARK Flexibility Score: inf
ROOT
ATOM      1  C   UNL     1     -44.581 -10.141  12.929  1.00  0.00     0.180 A 
ATOM      2  C   UNL     1     -44.503 -11.127  11.930  1.00  0.00     0.208 A 
ATOM      3  C   UNL     1     -45.428 -12.183  11.941  1.00  0.00     0.238 A 
ATOM      4  O   UNL     1     -45.320 -13.090  11.076  1.00  0.00    -0.285 OA
ATOM      5  C   UNL     1     -46.429 -12.233  12.942  1.00  0.00     0.111 A 
ATOM      6  C   UNL     1     -47.442 -13.235  13.025  1.00  0.00     0.134 A 
ATOM      7  C   UNL     1     -48.299 -13.259  14.133  1.00  0.00     0.093 A 
ATOM      8  C   UNL     1     -48.223 -12.281  15.123  1.00  0.00     0.123 A 
ATOM      9  C   UNL     1     -47.276 -11.262  15.021  1.00  0.00     0.094 A 
ATOM     10  C   UNL     1     -46.383 -11.232  13.946  1.00  0.00     0.146 A 
ATOM     11  O   UNL     1     -45.490 -10.252  13.892  1.00  0.00    -0.452 OA
ENDROOT
BRANCH   1  12
ATOM     12  C   UNL     1     -43.658  -8.984  12.969  1.00  0.00     0.021 A 
ATOM     13  C   UNL     1     -43.221  -8.355  11.789  1.00  0.00     0.016 A 
ATOM     14  C   UNL     1     -42.368  -7.249  11.853  1.00  0.00     0.047 A 
ATOM     15  C   UNL     1     -41.953  -6.749  13.094  1.00  0.00     0.115 A 
ATOM     16  C   UNL     1     -43.254  -8.464  14.210  1.00  0.00     0.016 A 
ATOM     17  C   UNL     1     -42.401  -7.358  14.270  1.00  0.00     0.047 A 
BRANCH  15  18
ATOM     18  O   UNL     1     -41.103  -5.648  13.170  1.00  0.00    -0.508 OA
ATOM     19  H   UNL     1     -40.416  -5.560  13.909  1.00  0.00     0.293 HD
ENDBRANCH  15  18
ENDBRANCH   1  12
BRANCH   2  20
ATOM     20  O   UNL     1     -43.495 -11.070  10.964  1.00  0.00    -0.502 OA
ATOM     21  H   UNL     1     -42.529 -10.878  11.197  1.00  0.00     0.293 HD
ENDBRANCH   2  20
BRANCH   6  22
ATOM     22  O   UNL     1     -47.664 -14.205  12.043  1.00  0.00    -0.507 OA
ATOM     23  H   UNL     1     -47.352 -14.134  11.086  1.00  0.00     0.293 HD
ENDBRANCH   6  22
BRANCH   8  24
ATOM     24  O   UNL     1     -49.103 -12.327  16.203  1.00  0.00    -0.508 OA
ATOM     25  H   UNL     1     -50.103 -12.414  16.068  1.00  0.00     0.293 HD
ENDBRANCH   8  24
TORSDOF 5
ENDMDL
MODEL 8
REMARK VINA RESULT:    -6.851      2.055      7.136
REMARK INTER + INTRA:          -8.341
REMARK INTER:                  -8.372
REMARK INTRA:                   0.031
REMARK UNBOUND:                -0.288
REMARK SMILES O=c1c(O)c(-c2ccc(O)cc2)oc2cc(O)cc(O)c12
REMARK SMILES IDX 5 1 3 2 2 3 1 4 21 5 19 6 18 7 16 8 15 9 14 10 13 11 6 12
REMARK SMILES IDX 7 13 8 14 9 15 12 16 11 17 10 18 4 20 20 22 17 24
REMARK H PARENT 10 19 4 21 20 23 17 25
REMARK Flexibility Score: inf
ROOT
ATOM      1  C   UNL     1     -45.467 -11.668  11.931  1.00  0.00     0.180 A 
ATOM      2  C   UNL     1     -46.174 -12.407  10.967  1.00  0.00     0.208 A 
ATOM      3  C   UNL     1     -47.378 -13.029  11.333  1.00  0.00     0.238 A 
ATOM      4  O   UNL     1     -47.978 -13.733  10.480  1.00  0.00    -0.285 OA
ATOM      5  C   UNL     1     -47.869 -12.891  12.654  1.00  0.00     0.111 A 
ATOM      6  C   UNL     1     -49.098 -13.445  13.123  1.00  0.00     0.134 A 
ATOM      7  C   UNL     1     -49.419 -13.357  14.484  1.00  0.00     0.093 A 
ATOM      8  C   UNL     1     -48.591 -12.679  15.377  1.00  0.00     0.123 A 
ATOM      9  C   UNL     1     -47.416 -12.083  14.918  1.00  0.00     0.094 A 
ATOM     10  C   UNL     1     -47.050 -12.185  13.573  1.00  0.00     0.146 A 
ATOM     11  O   UNL     1     -45.920 -11.612  13.179  1.00  0.00    -0.452 OA
ENDROOT
BRANCH   1  12
ATOM     12  C   UNL     1     -44.203 -10.964  11.614  1.00  0.00     0.021 A 
ATOM     13  C   UNL     1     -43.135 -11.625  10.982  1.00  0.00     0.016 A 
ATOM     14  C   UNL     1     -41.960 -10.933  10.671  1.00  0.00     0.047 A 
ATOM     15  C   UNL     1     -41.844  -9.570  10.974  1.00  0.00     0.115 A 
ATOM     16  C   UNL     1     -44.086  -9.593  11.896  1.00  0.00     0.016 A 
ATOM     17  C   UNL     1     -42.910  -8.903  11.585  1.00  0.00     0.047 A 
BRANCH  15  18
ATOM     18  O   UNL     1     -40.678  -8.870  10.670  1.00  0.00    -0.508 OA
ATOM     19  H   UNL     1     -39.924  -8.783  11.340  1.00  0.00     0.293 HD
ENDBRANCH  15  18
ENDBRANCH   1  12
BRANCH   2  20
ATOM     20  O   UNL     1     -45.661 -12.548   9.674  1.00  0.00    -0.502 OA
ATOM     21  H   UNL     1     -45.519 -11.759   9.056  1.00  0.00     0.293 HD
ENDBRANCH   2  20
BRANCH   6  22
ATOM     22  O   UNL     1     -50.042 -14.062  12.298  1.00  0.00    -0.507 OA
ATOM     23  H   UNL     1     -50.478 -13.627  11.499  1.00  0.00     0.293 HD
ENDBRANCH   6  22
BRANCH   8  24
ATOM     24  O   UNL     1     -48.950 -12.598  16.721  1.00  0.00    -0.508 OA
ATOM     25  H   UNL     1     -48.264 -12.411  17.442  1.00  0.00     0.293 HD
ENDBRANCH   8  24
TORSDOF 5
ENDMDL
MODEL 9
REMARK VINA RESULT:    -6.432      1.215      6.399
REMARK INTER + INTRA:          -7.848
REMARK INTER:                  -8.382
REMARK INTRA:                   0.534
REMARK UNBOUND:                -0.288
REMARK SMILES O=c1c(O)c(-c2ccc(O)cc2)oc2cc(O)cc(O)c12
REMARK SMILES IDX 5 1 3 2 2 3 1 4 21 5 19 6 18 7 16 8 15 9 14 10 13 11 6 12
REMARK SMILES IDX 7 13 8 14 9 15 12 16 11 17 10 18 4 20 20 22 17 24
REMARK H PARENT 10 19 4 21 20 23 17 25
REMARK Flexibility Score: inf
ROOT
ATOM      1  C   UNL     1     -43.816 -10.596  11.578  1.00  0.00     0.180 A 
ATOM      2  C   UNL     1     -44.348  -9.735  12.554  1.00  0.00     0.208 A 
ATOM      3  C   UNL     1     -45.469 -10.151  13.289  1.00  0.00     0.238 A 
ATOM      4  O   UNL     1     -45.973  -9.354  14.124  1.00  0.00    -0.285 OA
ATOM      5  C   UNL     1     -46.036 -11.426  13.050  1.00  0.00     0.111 A 
ATOM      6  C   UNL     1     -47.149 -11.964  13.764  1.00  0.00     0.134 A 
ATOM      7  C   UNL     1     -47.708 -13.181  13.354  1.00  0.00     0.093 A 
ATOM      8  C   UNL     1     -47.155 -13.909  12.302  1.00  0.00     0.123 A 
ATOM      9  C   UNL     1     -46.031 -13.421  11.636  1.00  0.00     0.094 A 
ATOM     10  C   UNL     1     -45.473 -12.192  11.998  1.00  0.00     0.146 A 
ATOM     11  O   UNL     1     -44.410 -11.758  11.332  1.00  0.00    -0.452 OA
ENDROOT
BRANCH   1  12
ATOM     12  C   UNL     1     -42.620 -10.240  10.780  1.00  0.00     0.021 A 
ATOM     13  C   UNL     1     -42.271 -10.959   9.623  1.00  0.00     0.016 A 
ATOM     14  C   UNL     1     -41.151 -10.589   8.872  1.00  0.00     0.047 A 
ATOM     15  C   UNL     1     -40.374  -9.489   9.259  1.00  0.00     0.115 A 
ATOM     16  C   UNL     1     -41.849  -9.126  11.150  1.00  0.00     0.016 A 
ATOM     17  C   UNL     1     -40.729  -8.759  10.397  1.00  0.00     0.047 A 
BRANCH  15  18
ATOM     18  O   UNL     1     -39.256  -9.112   8.520  1.00  0.00    -0.508 OA
ATOM     19  H   UNL     1     -38.892  -8.167   8.555  1.00  0.00     0.293 HD
ENDBRANCH  15  18
ENDBRANCH   1  12
BRANCH   2  20
ATOM     20  O   UNL     1     -43.786  -8.472  12.760  1.00  0.00    -0.502 OA
ATOM     21  H   UNL     1     -42.989  -8.324  13.365  1.00  0.00     0.293 HD
ENDBRANCH   2  20
BRANCH   6  22
ATOM     22  O   UNL     1     -47.721 -11.363  14.889  1.00  0.00    -0.507 OA
ATOM     23  H   UNL     1     -47.327 -11.391  15.817  1.00  0.00     0.293 HD
ENDBRANCH   6  22
BRANCH   8  24
ATOM     24  O   UNL     1     -47.728 -15.125  11.931  1.00  0.00    -0.508 OA
ATOM     25  H   UNL     1     -48.441 -15.569  12.498  1.00  0.00     0.293 HD
ENDBRANCH   8  24
TORSDOF 5
ENDMDL
