MODEL 1
REMARK VINA RESULT:    -2.997      0.000      0.000
REMARK INTER + INTRA:          -9.753
REMARK INTER:                  -7.904
REMARK INTRA:                  -1.849
REMARK UNBOUND:                -1.849
REMARK SMILES CCCCCCCCCCCCCCCCCCCCCCCCCCCCCC(=O)[O-]
REMARK SMILES IDX 16 1 17 2 18 3 19 4 20 5 21 6 22 7 23 8 24 9 25 10 26 11
REMARK SMILES IDX 27 12 28 13 29 14 30 15 31 16 32 17 15 18 14 19 13 20 12 21
REMARK SMILES IDX 11 22 10 23 9 24 8 25 7 26 6 27 5 28 4 29 3 30 2 31 1 32
REMARK H PARENT
REMARK Flexibility Score: inf
ROOT
ATOM      1  C   UNL     1      32.635 159.859 119.960  1.00  0.00     0.000 C 
ENDROOT
BRANCH   1   2
ATOM      2  C   UNL     1      32.381 158.679 120.918  1.00  0.00     0.000 C 
BRANCH   2   3
ATOM      3  C   UNL     1      31.284 158.945 121.968  1.00  0.00     0.000 C 
BRANCH   3   4
ATOM      4  C   UNL     1      29.934 158.319 121.574  1.00  0.00     0.000 C 
BRANCH   4   5
ATOM      5  C   UNL     1      29.212 159.102 120.464  1.00  0.00     0.000 C 
BRANCH   5   6
ATOM      6  C   UNL     1      28.788 160.513 120.909  1.00  0.00     0.000 C 
BRANCH   6   7
ATOM      7  C   UNL     1      29.453 161.627 120.079  1.00  0.00     0.000 C 
BRANCH   7   8
ATOM      8  C   UNL     1      29.663 161.297 118.587  1.00  0.00     0.000 C 
BRANCH   8   9
ATOM      9  C   UNL     1      28.489 160.565 117.910  1.00  0.00     0.000 C 
BRANCH   9  10
ATOM     10  C   UNL     1      27.352 161.477 117.404  1.00  0.00     0.000 C 
BRANCH  10  11
ATOM     11  C   UNL     1      25.940 161.096 117.889  1.00  0.00     0.000 C 
BRANCH  11  12
ATOM     12  C   UNL     1      25.426 159.785 117.270  1.00  0.00     0.000 C 
BRANCH  12  13
ATOM     13  C   UNL     1      26.136 158.538 117.832  1.00  0.00     0.006 C 
BRANCH  13  14
ATOM     14  C   UNL     1      25.957 158.343 119.347  1.00  0.00     0.053 C 
BRANCH  14  15
ATOM     15  C   UNL     1      26.041 156.907 119.763  1.00  0.00     0.041 C 
ATOM     16  O   UNL     1      25.526 156.006 119.050  1.00  0.00    -0.550 OA
ATOM     17  O   UNL     1      26.727 156.556 120.918  1.00  0.00    -0.550 OA
ENDBRANCH  14  15
ENDBRANCH  13  14
ENDBRANCH  12  13
ENDBRANCH  11  12
ENDBRANCH  10  11
ENDBRANCH   9  10
ENDBRANCH   8   9
ENDBRANCH   7   8
ENDBRANCH   6   7
ENDBRANCH   5   6
ENDBRANCH   4   5
ENDBRANCH   3   4
ENDBRANCH   2   3
ENDBRANCH   1   2
BRANCH   1  18
ATOM     18  C   UNL     1      33.202 161.091 120.686  1.00  0.00     0.000 C 
BRANCH  18  19
ATOM     19  C   UNL     1      34.737 161.169 120.611  1.00  0.00     0.000 C 
BRANCH  19  20
ATOM     20  C   UNL     1      35.420 160.558 121.849  1.00  0.00     0.000 C 
BRANCH  20  21
ATOM     21  C   UNL     1      36.960 160.531 121.734  1.00  0.00     0.000 C 
BRANCH  21  22
ATOM     22  C   UNL     1      37.559 161.776 121.053  1.00  0.00     0.000 C 
BRANCH  22  23
ATOM     23  C   UNL     1      39.023 161.643 120.592  1.00  0.00     0.000 C 
BRANCH  23  24
ATOM     24  C   UNL     1      39.228 161.164 119.137  1.00  0.00    -0.000 C 
BRANCH  24  25
ATOM     25  C   UNL     1      40.047 162.124 118.245  1.00  0.00    -0.000 C 
BRANCH  25  26
ATOM     26  C   UNL     1      40.649 161.463 116.992  1.00  0.00    -0.000 C 
BRANCH  26  27
ATOM     27  C   UNL     1      41.771 160.469 117.318  1.00  0.00    -0.000 C 
BRANCH  27  28
ATOM     28  C   UNL     1      42.427 159.929 116.038  1.00  0.00    -0.000 C 
BRANCH  28  29
ATOM     29  C   UNL     1      43.745 159.182 116.313  1.00  0.00    -0.000 C 
BRANCH  29  30
ATOM     30  C   UNL     1      44.893 160.060 116.849  1.00  0.00    -0.000 C 
BRANCH  30  31
ATOM     31  C   UNL     1      45.123 159.973 118.368  1.00  0.00    -0.003 C 
ATOM     32  C   UNL     1      44.770 158.602 118.946  1.00  0.00     0.004 C 
ENDBRANCH  30  31
ENDBRANCH  29  30
ENDBRANCH  28  29
ENDBRANCH  27  28
ENDBRANCH  26  27
ENDBRANCH  25  26
ENDBRANCH  24  25
ENDBRANCH  23  24
ENDBRANCH  22  23
ENDBRANCH  21  22
ENDBRANCH  20  21
ENDBRANCH  19  20
ENDBRANCH  18  19
ENDBRANCH   1  18
TORSDOF 28
ENDMDL
MODEL 2
REMARK VINA RESULT:    -2.735      5.891     10.983
REMARK INTER + INTRA:          -9.061
REMARK INTER:                  -5.369
REMARK INTRA:                  -3.693
REMARK UNBOUND:                -1.849
REMARK SMILES CCCCCCCCCCCCCCCCCCCCCCCCCCCCCC(=O)[O-]
REMARK SMILES IDX 16 1 17 2 18 3 19 4 20 5 21 6 22 7 23 8 24 9 25 10 26 11
REMARK SMILES IDX 27 12 28 13 29 14 30 15 31 16 32 17 15 18 14 19 13 20 12 21
REMARK SMILES IDX 11 22 10 23 9 24 8 25 7 26 6 27 5 28 4 29 3 30 2 31 1 32
REMARK H PARENT
REMARK Flexibility Score: inf
ROOT
ATOM      1  C   UNL     1      27.776 159.690 120.767  1.00  0.00     0.000 C 
ENDROOT
BRANCH   1   2
ATOM      2  C   UNL     1      28.740 159.192 121.861  1.00  0.00     0.000 C 
BRANCH   2   3
ATOM      3  C   UNL     1      28.982 157.670 121.843  1.00  0.00     0.000 C 
BRANCH   3   4
ATOM      4  C   UNL     1      30.295 157.295 121.134  1.00  0.00     0.000 C 
BRANCH   4   5
ATOM      5  C   UNL     1      31.523 158.002 121.733  1.00  0.00     0.000 C 
BRANCH   5   6
ATOM      6  C   UNL     1      32.636 158.244 120.698  1.00  0.00     0.000 C 
BRANCH   6   7
ATOM      7  C   UNL     1      33.277 159.639 120.824  1.00  0.00     0.000 C 
BRANCH   7   8
ATOM      8  C   UNL     1      32.421 160.689 121.560  1.00  0.00     0.000 C 
BRANCH   8   9
ATOM      9  C   UNL     1      31.936 161.863 120.688  1.00  0.00     0.000 C 
BRANCH   9  10
ATOM     10  C   UNL     1      30.428 161.860 120.365  1.00  0.00     0.000 C 
BRANCH  10  11
ATOM     11  C   UNL     1      30.074 161.649 118.879  1.00  0.00     0.000 C 
BRANCH  11  12
ATOM     12  C   UNL     1      30.415 160.237 118.375  1.00  0.00     0.000 C 
BRANCH  12  13
ATOM     13  C   UNL     1      31.221 160.247 117.063  1.00  0.00     0.006 C 
BRANCH  13  14
ATOM     14  C   UNL     1      32.730 160.480 117.254  1.00  0.00     0.053 C 
BRANCH  14  15
ATOM     15  C   UNL     1      33.497 160.413 115.969  1.00  0.00     0.041 C 
ATOM     16  O   UNL     1      33.479 161.382 115.166  1.00  0.00    -0.550 OA
ATOM     17  O   UNL     1      34.267 159.296 115.676  1.00  0.00    -0.550 OA
ENDBRANCH  14  15
ENDBRANCH  13  14
ENDBRANCH  12  13
ENDBRANCH  11  12
ENDBRANCH  10  11
ENDBRANCH   9  10
ENDBRANCH   8   9
ENDBRANCH   7   8
ENDBRANCH   6   7
ENDBRANCH   5   6
ENDBRANCH   4   5
ENDBRANCH   3   4
ENDBRANCH   2   3
ENDBRANCH   1   2
BRANCH   1  18
ATOM     18  C   UNL     1      26.327 159.233 121.012  1.00  0.00     0.000 C 
BRANCH  18  19
ATOM     19  C   UNL     1      25.613 160.079 122.081  1.00  0.00     0.000 C 
BRANCH  19  20
ATOM     20  C   UNL     1      25.736 161.591 121.816  1.00  0.00     0.000 C 
BRANCH  20  21
ATOM     21  C   UNL     1      25.253 161.995 120.406  1.00  0.00     0.000 C 
BRANCH  21  22
ATOM     22  C   UNL     1      26.385 162.125 119.369  1.00  0.00     0.000 C 
BRANCH  22  23
ATOM     23  C   UNL     1      25.948 162.052 117.893  1.00  0.00     0.000 C 
BRANCH  23  24
ATOM     24  C   UNL     1      25.555 160.650 117.378  1.00  0.00    -0.000 C 
BRANCH  24  25
ATOM     25  C   UNL     1      26.743 159.749 116.974  1.00  0.00    -0.000 C 
BRANCH  25  26
ATOM     26  C   UNL     1      26.371 158.608 116.010  1.00  0.00    -0.000 C 
BRANCH  26  27
ATOM     27  C   UNL     1      25.664 157.439 116.707  1.00  0.00    -0.000 C 
BRANCH  27  28
ATOM     28  C   UNL     1      25.577 157.665 118.225  1.00  0.00    -0.000 C 
BRANCH  28  29
ATOM     29  C   UNL     1      25.197 156.388 118.996  1.00  0.00    -0.000 C 
BRANCH  29  30
ATOM     30  C   UNL     1      26.371 155.436 119.302  1.00  0.00    -0.000 C 
BRANCH  30  31
ATOM     31  C   UNL     1      26.326 154.774 120.690  1.00  0.00    -0.003 C 
ATOM     32  C   UNL     1      26.401 155.785 121.835  1.00  0.00     0.004 C 
ENDBRANCH  30  31
ENDBRANCH  29  30
ENDBRANCH  28  29
ENDBRANCH  27  28
ENDBRANCH  26  27
ENDBRANCH  25  26
ENDBRANCH  24  25
ENDBRANCH  23  24
ENDBRANCH  22  23
ENDBRANCH  21  22
ENDBRANCH  20  21
ENDBRANCH  19  20
ENDBRANCH  18  19
ENDBRANCH   1  18
TORSDOF 28
ENDMDL
MODEL 3
REMARK VINA RESULT:    -2.728      1.887      3.484
REMARK INTER + INTRA:          -9.042
REMARK INTER:                  -7.650
REMARK INTRA:                  -1.392
REMARK UNBOUND:                -1.849
REMARK SMILES CCCCCCCCCCCCCCCCCCCCCCCCCCCCCC(=O)[O-]
REMARK SMILES IDX 16 1 17 2 18 3 19 4 20 5 21 6 22 7 23 8 24 9 25 10 26 11
REMARK SMILES IDX 27 12 28 13 29 14 30 15 31 16 32 17 15 18 14 19 13 20 12 21
REMARK SMILES IDX 11 22 10 23 9 24 8 25 7 26 6 27 5 28 4 29 3 30 2 31 1 32
REMARK H PARENT
REMARK Flexibility Score: inf
ROOT
ATOM      1  C   UNL     1      31.438 159.784 119.604  1.00  0.00     0.000 C 
ENDROOT
BRANCH   1   2
ATOM      2  C   UNL     1      31.949 158.968 120.808  1.00  0.00     0.000 C 
BRANCH   2   3
ATOM      3  C   UNL     1      31.759 157.445 120.664  1.00  0.00     0.000 C 
BRANCH   3   4
ATOM      4  C   UNL     1      30.465 156.951 121.335  1.00  0.00     0.000 C 
BRANCH   4   5
ATOM      5  C   UNL     1      29.724 158.062 122.098  1.00  0.00     0.000 C 
BRANCH   5   6
ATOM      6  C   UNL     1      28.247 158.186 121.684  1.00  0.00     0.000 C 
BRANCH   6   7
ATOM      7  C   UNL     1      27.487 156.849 121.777  1.00  0.00     0.000 C 
BRANCH   7   8
ATOM      8  C   UNL     1      25.964 156.974 121.987  1.00  0.00     0.000 C 
BRANCH   8   9
ATOM      9  C   UNL     1      25.133 157.068 120.693  1.00  0.00     0.000 C 
BRANCH   9  10
ATOM     10  C   UNL     1      25.953 157.220 119.397  1.00  0.00     0.000 C 
BRANCH  10  11
ATOM     11  C   UNL     1      25.487 158.344 118.452  1.00  0.00     0.000 C 
BRANCH  11  12
ATOM     12  C   UNL     1      26.258 159.659 118.657  1.00  0.00     0.000 C 
BRANCH  12  13
ATOM     13  C   UNL     1      25.558 160.871 118.013  1.00  0.00     0.006 C 
BRANCH  13  14
ATOM     14  C   UNL     1      26.047 161.196 116.591  1.00  0.00     0.053 C 
BRANCH  14  15
ATOM     15  C   UNL     1      27.249 160.397 116.191  1.00  0.00     0.041 C 
ATOM     16  O   UNL     1      27.143 159.462 115.355  1.00  0.00    -0.550 OA
ATOM     17  O   UNL     1      28.497 160.712 116.711  1.00  0.00    -0.550 OA
ENDBRANCH  14  15
ENDBRANCH  13  14
ENDBRANCH  12  13
ENDBRANCH  11  12
ENDBRANCH  10  11
ENDBRANCH   9  10
ENDBRANCH   8   9
ENDBRANCH   7   8
ENDBRANCH   6   7
ENDBRANCH   5   6
ENDBRANCH   4   5
ENDBRANCH   3   4
ENDBRANCH   2   3
ENDBRANCH   1   2
BRANCH   1  18
ATOM     18  C   UNL     1      31.360 161.290 119.908  1.00  0.00     0.000 C 
BRANCH  18  19
ATOM     19  C   UNL     1      32.099 161.671 121.203  1.00  0.00     0.000 C 
BRANCH  19  20
ATOM     20  C   UNL     1      33.547 162.125 120.944  1.00  0.00     0.000 C 
BRANCH  20  21
ATOM     21  C   UNL     1      34.431 161.005 120.354  1.00  0.00     0.000 C 
BRANCH  21  22
ATOM     22  C   UNL     1      35.419 160.388 121.363  1.00  0.00     0.000 C 
BRANCH  22  23
ATOM     23  C   UNL     1      36.308 161.391 122.123  1.00  0.00     0.000 C 
BRANCH  23  24
ATOM     24  C   UNL     1      37.371 162.123 121.274  1.00  0.00    -0.000 C 
BRANCH  24  25
ATOM     25  C   UNL     1      38.541 161.236 120.793  1.00  0.00    -0.000 C 
BRANCH  25  26
ATOM     26  C   UNL     1      39.585 161.977 119.938  1.00  0.00    -0.000 C 
BRANCH  26  27
ATOM     27  C   UNL     1      39.566 161.552 118.465  1.00  0.00    -0.000 C 
BRANCH  27  28
ATOM     28  C   UNL     1      40.982 161.550 117.866  1.00  0.00    -0.000 C 
BRANCH  28  29
ATOM     29  C   UNL     1      41.317 160.239 117.133  1.00  0.00    -0.000 C 
BRANCH  29  30
ATOM     30  C   UNL     1      42.162 160.405 115.853  1.00  0.00    -0.000 C 
BRANCH  30  31
ATOM     31  C   UNL     1      43.550 159.743 115.902  1.00  0.00    -0.003 C 
ATOM     32  C   UNL     1      44.063 159.538 117.328  1.00  0.00     0.004 C 
ENDBRANCH  30  31
ENDBRANCH  29  30
ENDBRANCH  28  29
ENDBRANCH  27  28
ENDBRANCH  26  27
ENDBRANCH  25  26
ENDBRANCH  24  25
ENDBRANCH  23  24
ENDBRANCH  22  23
ENDBRANCH  21  22
ENDBRANCH  20  21
ENDBRANCH  19  20
ENDBRANCH  18  19
ENDBRANCH   1  18
TORSDOF 28
ENDMDL
MODEL 4
REMARK VINA RESULT:    -2.324      1.827      3.070
REMARK INTER + INTRA:          -7.977
REMARK INTER:                  -6.789
REMARK INTRA:                  -1.188
REMARK UNBOUND:                -1.849
REMARK SMILES CCCCCCCCCCCCCCCCCCCCCCCCCCCCCC(=O)[O-]
REMARK SMILES IDX 16 1 17 2 18 3 19 4 20 5 21 6 22 7 23 8 24 9 25 10 26 11
REMARK SMILES IDX 27 12 28 13 29 14 30 15 31 16 32 17 15 18 14 19 13 20 12 21
REMARK SMILES IDX 11 22 10 23 9 24 8 25 7 26 6 27 5 28 4 29 3 30 2 31 1 32
REMARK H PARENT
REMARK Flexibility Score: inf
ROOT
ATOM      1  C   UNL     1      32.474 159.350 119.072  1.00  0.00     0.000 C 
ENDROOT
BRANCH   1   2
ATOM      2  C   UNL     1      32.121 158.842 120.484  1.00  0.00     0.000 C 
BRANCH   2   3
ATOM      3  C   UNL     1      30.818 159.432 121.059  1.00  0.00     0.000 C 
BRANCH   3   4
ATOM      4  C   UNL     1      29.566 158.874 120.359  1.00  0.00     0.000 C 
BRANCH   4   5
ATOM      5  C   UNL     1      28.341 159.795 120.500  1.00  0.00     0.000 C 
BRANCH   5   6
ATOM      6  C   UNL     1      27.884 159.960 121.960  1.00  0.00     0.000 C 
BRANCH   6   7
ATOM      7  C   UNL     1      26.761 161.001 122.120  1.00  0.00     0.000 C 
BRANCH   7   8
ATOM      8  C   UNL     1      25.328 160.437 122.042  1.00  0.00     0.000 C 
BRANCH   8   9
ATOM      9  C   UNL     1      25.149 159.241 121.088  1.00  0.00     0.000 C 
BRANCH   9  10
ATOM     10  C   UNL     1      25.208 157.853 121.758  1.00  0.00     0.000 C 
BRANCH  10  11
ATOM     11  C   UNL     1      26.415 156.982 121.357  1.00  0.00     0.000 C 
BRANCH  11  12
ATOM     12  C   UNL     1      26.598 156.873 119.834  1.00  0.00     0.000 C 
BRANCH  12  13
ATOM     13  C   UNL     1      25.261 156.786 119.075  1.00  0.00     0.006 C 
BRANCH  13  14
ATOM     14  C   UNL     1      25.306 157.377 117.655  1.00  0.00     0.053 C 
BRANCH  14  15
ATOM     15  C   UNL     1      25.905 158.749 117.614  1.00  0.00     0.041 C 
ATOM     16  O   UNL     1      27.057 158.926 117.140  1.00  0.00    -0.550 OA
ATOM     17  O   UNL     1      25.173 159.841 118.061  1.00  0.00    -0.550 OA
ENDBRANCH  14  15
ENDBRANCH  13  14
ENDBRANCH  12  13
ENDBRANCH  11  12
ENDBRANCH  10  11
ENDBRANCH   9  10
ENDBRANCH   8   9
ENDBRANCH   7   8
ENDBRANCH   6   7
ENDBRANCH   5   6
ENDBRANCH   4   5
ENDBRANCH   3   4
ENDBRANCH   2   3
ENDBRANCH   1   2
BRANCH   1  18
ATOM     18  C   UNL     1      32.229 160.861 118.915  1.00  0.00     0.000 C 
BRANCH  18  19
ATOM     19  C   UNL     1      33.385 161.709 119.477  1.00  0.00     0.000 C 
BRANCH  19  20
ATOM     20  C   UNL     1      33.359 161.794 121.015  1.00  0.00     0.000 C 
BRANCH  20  21
ATOM     21  C   UNL     1      34.688 161.347 121.663  1.00  0.00     0.000 C 
BRANCH  21  22
ATOM     22  C   UNL     1      35.855 161.207 120.667  1.00  0.00     0.000 C 
BRANCH  22  23
ATOM     23  C   UNL     1      37.084 160.434 121.186  1.00  0.00     0.000 C 
BRANCH  23  24
ATOM     24  C   UNL     1      38.384 160.616 120.371  1.00  0.00    -0.000 C 
BRANCH  24  25
ATOM     25  C   UNL     1      39.102 161.968 120.586  1.00  0.00    -0.000 C 
BRANCH  25  26
ATOM     26  C   UNL     1      40.437 162.100 119.831  1.00  0.00    -0.000 C 
BRANCH  26  27
ATOM     27  C   UNL     1      40.420 161.421 118.456  1.00  0.00    -0.000 C 
BRANCH  27  28
ATOM     28  C   UNL     1      41.840 161.067 117.990  1.00  0.00    -0.000 C 
BRANCH  28  29
ATOM     29  C   UNL     1      41.948 160.922 116.461  1.00  0.00    -0.000 C 
BRANCH  29  30
ATOM     30  C   UNL     1      42.471 159.557 115.970  1.00  0.00    -0.000 C 
BRANCH  30  31
ATOM     31  C   UNL     1      43.961 159.295 116.246  1.00  0.00    -0.003 C 
ATOM     32  C   UNL     1      44.835 159.454 115.001  1.00  0.00     0.004 C 
ENDBRANCH  30  31
ENDBRANCH  29  30
ENDBRANCH  28  29
ENDBRANCH  27  28
ENDBRANCH  26  27
ENDBRANCH  25  26
ENDBRANCH  24  25
ENDBRANCH  23  24
ENDBRANCH  22  23
ENDBRANCH  21  22
ENDBRANCH  20  21
ENDBRANCH  19  20
ENDBRANCH  18  19
ENDBRANCH   1  18
TORSDOF 28
ENDMDL
MODEL 5
REMARK VINA RESULT:    -2.218      1.498      2.640
REMARK INTER + INTRA:          -7.697
REMARK INTER:                  -6.071
REMARK INTRA:                  -1.626
REMARK UNBOUND:                -1.849
REMARK SMILES CCCCCCCCCCCCCCCCCCCCCCCCCCCCCC(=O)[O-]
REMARK SMILES IDX 16 1 17 2 18 3 19 4 20 5 21 6 22 7 23 8 24 9 25 10 26 11
REMARK SMILES IDX 27 12 28 13 29 14 30 15 31 16 32 17 15 18 14 19 13 20 12 21
REMARK SMILES IDX 11 22 10 23 9 24 8 25 7 26 6 27 5 28 4 29 3 30 2 31 1 32
REMARK H PARENT
REMARK Flexibility Score: inf
ROOT
ATOM      1  C   UNL     1      32.410 159.439 119.228  1.00  0.00     0.000 C 
ENDROOT
BRANCH   1   2
ATOM      2  C   UNL     1      32.060 158.929 120.640  1.00  0.00     0.000 C 
BRANCH   2   3
ATOM      3  C   UNL     1      30.917 159.704 121.325  1.00  0.00     0.000 C 
BRANCH   3   4
ATOM      4  C   UNL     1      29.550 159.023 121.129  1.00  0.00     0.000 C 
BRANCH   4   5
ATOM      5  C   UNL     1      29.046 159.098 119.677  1.00  0.00     0.000 C 
BRANCH   5   6
ATOM      6  C   UNL     1      28.764 160.540 119.218  1.00  0.00     0.000 C 
BRANCH   6   7
ATOM      7  C   UNL     1      28.306 160.621 117.750  1.00  0.00     0.000 C 
BRANCH   7   8
ATOM      8  C   UNL     1      26.779 160.667 117.541  1.00  0.00     0.000 C 
BRANCH   8   9
ATOM      9  C   UNL     1      25.945 160.073 118.692  1.00  0.00     0.000 C 
BRANCH   9  10
ATOM     10  C   UNL     1      25.402 161.100 119.706  1.00  0.00     0.000 C 
BRANCH  10  11
ATOM     11  C   UNL     1      26.168 161.172 121.042  1.00  0.00     0.000 C 
BRANCH  11  12
ATOM     12  C   UNL     1      26.256 159.814 121.758  1.00  0.00     0.000 C 
BRANCH  12  13
ATOM     13  C   UNL     1      24.977 158.970 121.600  1.00  0.00     0.006 C 
BRANCH  13  14
ATOM     14  C   UNL     1      25.109 157.527 122.119  1.00  0.00     0.053 C 
BRANCH  14  15
ATOM     15  C   UNL     1      26.103 156.719 121.344  1.00  0.00     0.041 C 
ATOM     16  O   UNL     1      26.667 155.726 121.874  1.00  0.00    -0.550 OA
ATOM     17  O   UNL     1      26.377 157.035 120.020  1.00  0.00    -0.550 OA
ENDBRANCH  14  15
ENDBRANCH  13  14
ENDBRANCH  12  13
ENDBRANCH  11  12
ENDBRANCH  10  11
ENDBRANCH   9  10
ENDBRANCH   8   9
ENDBRANCH   7   8
ENDBRANCH   6   7
ENDBRANCH   5   6
ENDBRANCH   4   5
ENDBRANCH   3   4
ENDBRANCH   2   3
ENDBRANCH   1   2
BRANCH   1  18
ATOM     18  C   UNL     1      32.201 160.957 119.086  1.00  0.00     0.000 C 
BRANCH  18  19
ATOM     19  C   UNL     1      33.448 161.766 119.486  1.00  0.00     0.000 C 
BRANCH  19  20
ATOM     20  C   UNL     1      33.483 162.088 120.991  1.00  0.00     0.000 C 
BRANCH  20  21
ATOM     21  C   UNL     1      34.811 161.676 121.663  1.00  0.00     0.000 C 
BRANCH  21  22
ATOM     22  C   UNL     1      35.980 161.484 120.677  1.00  0.00     0.000 C 
BRANCH  22  23
ATOM     23  C   UNL     1      37.179 160.679 121.214  1.00  0.00     0.000 C 
BRANCH  23  24
ATOM     24  C   UNL     1      38.526 160.924 120.497  1.00  0.00    -0.000 C 
BRANCH  24  25
ATOM     25  C   UNL     1      39.384 162.061 121.096  1.00  0.00    -0.000 C 
BRANCH  25  26
ATOM     26  C   UNL     1      40.821 162.122 120.548  1.00  0.00    -0.000 C 
BRANCH  26  27
ATOM     27  C   UNL     1      40.920 161.706 119.075  1.00  0.00    -0.000 C 
BRANCH  27  28
ATOM     28  C   UNL     1      42.381 161.481 118.656  1.00  0.00    -0.000 C 
BRANCH  28  29
ATOM     29  C   UNL     1      42.625 161.770 117.164  1.00  0.00    -0.000 C 
BRANCH  29  30
ATOM     30  C   UNL     1      42.167 160.657 116.200  1.00  0.00    -0.000 C 
BRANCH  30  31
ATOM     31  C   UNL     1      43.257 159.642 115.815  1.00  0.00    -0.003 C 
ATOM     32  C   UNL     1      44.137 160.122 114.660  1.00  0.00     0.004 C 
ENDBRANCH  30  31
ENDBRANCH  29  30
ENDBRANCH  28  29
ENDBRANCH  27  28
ENDBRANCH  26  27
ENDBRANCH  25  26
ENDBRANCH  24  25
ENDBRANCH  23  24
ENDBRANCH  22  23
ENDBRANCH  21  22
ENDBRANCH  20  21
ENDBRANCH  19  20
ENDBRANCH  18  19
ENDBRANCH   1  18
TORSDOF 28
ENDMDL
MODEL 6
REMARK VINA RESULT:    -2.091      4.850     13.145
REMARK INTER + INTRA:          -7.362
REMARK INTER:                  -6.097
REMARK INTRA:                  -1.265
REMARK UNBOUND:                -1.849
REMARK SMILES CCCCCCCCCCCCCCCCCCCCCCCCCCCCCC(=O)[O-]
REMARK SMILES IDX 16 1 17 2 18 3 19 4 20 5 21 6 22 7 23 8 24 9 25 10 26 11
REMARK SMILES IDX 27 12 28 13 29 14 30 15 31 16 32 17 15 18 14 19 13 20 12 21
REMARK SMILES IDX 11 22 10 23 9 24 8 25 7 26 6 27 5 28 4 29 3 30 2 31 1 32
REMARK H PARENT
REMARK Flexibility Score: inf
ROOT
ATOM      1  C   UNL     1      31.236 160.555 118.504  1.00  0.00     0.000 C 
ENDROOT
BRANCH   1   2
ATOM      2  C   UNL     1      32.113 161.797 118.755  1.00  0.00     0.000 C 
BRANCH   2   3
ATOM      3  C   UNL     1      32.572 161.959 120.218  1.00  0.00     0.000 C 
BRANCH   3   4
ATOM      4  C   UNL     1      33.075 160.636 120.822  1.00  0.00     0.000 C 
BRANCH   4   5
ATOM      5  C   UNL     1      34.329 160.815 121.696  1.00  0.00     0.000 C 
BRANCH   5   6
ATOM      6  C   UNL     1      35.362 159.693 121.493  1.00  0.00     0.000 C 
BRANCH   6   7
ATOM      7  C   UNL     1      36.815 160.196 121.581  1.00  0.00     0.000 C 
BRANCH   7   8
ATOM      8  C   UNL     1      37.000 161.710 121.352  1.00  0.00     0.000 C 
BRANCH   8   9
ATOM      9  C   UNL     1      38.014 162.084 120.254  1.00  0.00     0.000 C 
BRANCH   9  10
ATOM     10  C   UNL     1      39.488 162.123 120.708  1.00  0.00     0.000 C 
BRANCH  10  11
ATOM     11  C   UNL     1      40.505 161.587 119.682  1.00  0.00     0.000 C 
BRANCH  11  12
ATOM     12  C   UNL     1      39.845 161.082 118.388  1.00  0.00     0.000 C 
BRANCH  12  13
ATOM     13  C   UNL     1      40.854 160.469 117.400  1.00  0.00     0.006 C 
BRANCH  13  14
ATOM     14  C   UNL     1      41.435 161.474 116.390  1.00  0.00     0.053 C 
BRANCH  14  15
ATOM     15  C   UNL     1      42.890 161.251 116.117  1.00  0.00     0.041 C 
ATOM     16  O   UNL     1      43.765 161.845 116.799  1.00  0.00    -0.550 OA
ATOM     17  O   UNL     1      43.283 160.351 115.135  1.00  0.00    -0.550 OA
ENDBRANCH  14  15
ENDBRANCH  13  14
ENDBRANCH  12  13
ENDBRANCH  11  12
ENDBRANCH  10  11
ENDBRANCH   9  10
ENDBRANCH   8   9
ENDBRANCH   7   8
ENDBRANCH   6   7
ENDBRANCH   5   6
ENDBRANCH   4   5
ENDBRANCH   3   4
ENDBRANCH   2   3
ENDBRANCH   1   2
BRANCH   1  18
ATOM     18  C   UNL     1      29.926 160.590 119.310  1.00  0.00     0.000 C 
BRANCH  18  19
ATOM     19  C   UNL     1      30.030 159.826 120.642  1.00  0.00     0.000 C 
BRANCH  19  20
ATOM     20  C   UNL     1      28.743 159.051 120.979  1.00  0.00     0.000 C 
BRANCH  20  21
ATOM     21  C   UNL     1      29.016 157.736 121.742  1.00  0.00     0.000 C 
BRANCH  21  22
ATOM     22  C   UNL     1      28.478 156.477 121.034  1.00  0.00     0.000 C 
BRANCH  22  23
ATOM     23  C   UNL     1      26.955 156.449 120.794  1.00  0.00     0.000 C 
BRANCH  23  24
ATOM     24  C   UNL     1      26.075 156.586 122.056  1.00  0.00    -0.000 C 
BRANCH  24  25
ATOM     25  C   UNL     1      25.232 157.880 122.123  1.00  0.00    -0.000 C 
BRANCH  25  26
ATOM     26  C   UNL     1      25.861 159.081 121.394  1.00  0.00    -0.000 C 
BRANCH  26  27
ATOM     27  C   UNL     1      24.960 160.323 121.396  1.00  0.00    -0.000 C 
BRANCH  27  28
ATOM     28  C   UNL     1      24.900 160.970 120.003  1.00  0.00    -0.000 C 
BRANCH  28  29
ATOM     29  C   UNL     1      25.391 160.030 118.887  1.00  0.00    -0.000 C 
BRANCH  29  30
ATOM     30  C   UNL     1      25.493 160.673 117.490  1.00  0.00    -0.000 C 
BRANCH  30  31
ATOM     31  C   UNL     1      26.880 161.234 117.133  1.00  0.00    -0.003 C 
ATOM     32  C   UNL     1      27.811 160.181 116.528  1.00  0.00     0.004 C 
ENDBRANCH  30  31
ENDBRANCH  29  30
ENDBRANCH  28  29
ENDBRANCH  27  28
ENDBRANCH  26  27
ENDBRANCH  25  26
ENDBRANCH  24  25
ENDBRANCH  23  24
ENDBRANCH  22  23
ENDBRANCH  21  22
ENDBRANCH  20  21
ENDBRANCH  19  20
ENDBRANCH  18  19
ENDBRANCH   1  18
TORSDOF 28
ENDMDL
MODEL 7
REMARK VINA RESULT:    -1.888      4.952     13.580
REMARK INTER + INTRA:          -6.828
REMARK INTER:                  -5.194
REMARK INTRA:                  -1.634
REMARK UNBOUND:                -1.849
REMARK SMILES CCCCCCCCCCCCCCCCCCCCCCCCCCCCCC(=O)[O-]
REMARK SMILES IDX 16 1 17 2 18 3 19 4 20 5 21 6 22 7 23 8 24 9 25 10 26 11
REMARK SMILES IDX 27 12 28 13 29 14 30 15 31 16 32 17 15 18 14 19 13 20 12 21
REMARK SMILES IDX 11 22 10 23 9 24 8 25 7 26 6 27 5 28 4 29 3 30 2 31 1 32
REMARK H PARENT
REMARK Flexibility Score: inf
ROOT
ATOM      1  C   UNL     1      32.901 160.824 118.610  1.00  0.00     0.000 C 
ENDROOT
BRANCH   1   2
ATOM      2  C   UNL     1      33.026 161.228 120.092  1.00  0.00     0.000 C 
BRANCH   2   3
ATOM      3  C   UNL     1      34.061 160.406 120.885  1.00  0.00     0.000 C 
BRANCH   3   4
ATOM      4  C   UNL     1      34.684 161.209 122.041  1.00  0.00     0.000 C 
BRANCH   4   5
ATOM      5  C   UNL     1      36.064 161.791 121.689  1.00  0.00     0.000 C 
BRANCH   5   6
ATOM      6  C   UNL     1      36.969 160.782 120.959  1.00  0.00     0.000 C 
BRANCH   6   7
ATOM      7  C   UNL     1      38.450 161.204 120.950  1.00  0.00     0.000 C 
BRANCH   7   8
ATOM      8  C   UNL     1      38.896 162.003 119.709  1.00  0.00     0.000 C 
BRANCH   8   9
ATOM      9  C   UNL     1      40.421 162.125 119.525  1.00  0.00     0.000 C 
BRANCH   9  10
ATOM     10  C   UNL     1      41.267 161.236 120.459  1.00  0.00     0.000 C 
BRANCH  10  11
ATOM     11  C   UNL     1      42.602 161.852 120.921  1.00  0.00     0.000 C 
BRANCH  11  12
ATOM     12  C   UNL     1      43.679 161.841 119.824  1.00  0.00     0.000 C 
BRANCH  12  13
ATOM     13  C   UNL     1      43.494 160.694 118.813  1.00  0.00     0.006 C 
BRANCH  13  14
ATOM     14  C   UNL     1      44.676 160.512 117.846  1.00  0.00     0.053 C 
BRANCH  14  15
ATOM     15  C   UNL     1      44.306 160.772 116.418  1.00  0.00     0.041 C 
ATOM     16  O   UNL     1      44.980 161.576 115.722  1.00  0.00    -0.550 OA
ATOM     17  O   UNL     1      43.240 160.095 115.841  1.00  0.00    -0.550 OA
ENDBRANCH  14  15
ENDBRANCH  13  14
ENDBRANCH  12  13
ENDBRANCH  11  12
ENDBRANCH  10  11
ENDBRANCH   9  10
ENDBRANCH   8   9
ENDBRANCH   7   8
ENDBRANCH   6   7
ENDBRANCH   5   6
ENDBRANCH   4   5
ENDBRANCH   3   4
ENDBRANCH   2   3
ENDBRANCH   1   2
BRANCH   1  18
ATOM     18  C   UNL     1      31.550 160.158 118.297  1.00  0.00     0.000 C 
BRANCH  18  19
ATOM     19  C   UNL     1      30.370 161.142 118.388  1.00  0.00     0.000 C 
BRANCH  19  20
ATOM     20  C   UNL     1      29.274 160.660 119.356  1.00  0.00     0.000 C 
BRANCH  20  21
ATOM     21  C   UNL     1      29.534 159.237 119.897  1.00  0.00     0.000 C 
BRANCH  21  22
ATOM     22  C   UNL     1      28.983 158.996 121.316  1.00  0.00     0.000 C 
BRANCH  22  23
ATOM     23  C   UNL     1      27.473 159.252 121.496  1.00  0.00     0.000 C 
BRANCH  23  24
ATOM     24  C   UNL     1      27.068 160.720 121.754  1.00  0.00    -0.000 C 
BRANCH  24  25
ATOM     25  C   UNL     1      25.840 161.206 120.950  1.00  0.00    -0.000 C 
BRANCH  25  26
ATOM     26  C   UNL     1      26.190 161.889 119.616  1.00  0.00    -0.000 C 
BRANCH  26  27
ATOM     27  C   UNL     1      24.970 162.095 118.709  1.00  0.00    -0.000 C 
BRANCH  27  28
ATOM     28  C   UNL     1      24.948 161.071 117.563  1.00  0.00    -0.000 C 
BRANCH  28  29
ATOM     29  C   UNL     1      25.578 159.723 117.956  1.00  0.00    -0.000 C 
BRANCH  29  30
ATOM     30  C   UNL     1      27.029 159.516 117.476  1.00  0.00    -0.000 C 
BRANCH  30  31
ATOM     31  C   UNL     1      27.412 160.297 116.208  1.00  0.00    -0.003 C 
ATOM     32  C   UNL     1      27.555 159.400 114.977  1.00  0.00     0.004 C 
ENDBRANCH  30  31
ENDBRANCH  29  30
ENDBRANCH  28  29
ENDBRANCH  27  28
ENDBRANCH  26  27
ENDBRANCH  25  26
ENDBRANCH  24  25
ENDBRANCH  23  24
ENDBRANCH  22  23
ENDBRANCH  21  22
ENDBRANCH  20  21
ENDBRANCH  19  20
ENDBRANCH  18  19
ENDBRANCH   1  18
TORSDOF 28
ENDMDL
MODEL 8
REMARK VINA RESULT:    -1.700      5.671     10.149
REMARK INTER + INTRA:          -6.333
REMARK INTER:                  -4.304
REMARK INTRA:                  -2.029
REMARK UNBOUND:                -1.849
REMARK SMILES CCCCCCCCCCCCCCCCCCCCCCCCCCCCCC(=O)[O-]
REMARK SMILES IDX 16 1 17 2 18 3 19 4 20 5 21 6 22 7 23 8 24 9 25 10 26 11
REMARK SMILES IDX 27 12 28 13 29 14 30 15 31 16 32 17 15 18 14 19 13 20 12 21
REMARK SMILES IDX 11 22 10 23 9 24 8 25 7 26 6 27 5 28 4 29 3 30 2 31 1 32
REMARK H PARENT
REMARK Flexibility Score: inf
ROOT
ATOM      1  C   UNL     1      28.270 160.315 116.042  1.00  0.00     0.000 C 
ENDROOT
BRANCH   1   2
ATOM      2  C   UNL     1      27.395 161.584 116.003  1.00  0.00     0.000 C 
BRANCH   2   3
ATOM      3  C   UNL     1      26.953 162.088 117.391  1.00  0.00     0.000 C 
BRANCH   3   4
ATOM      4  C   UNL     1      25.529 161.629 117.753  1.00  0.00     0.000 C 
BRANCH   4   5
ATOM      5  C   UNL     1      25.433 161.041 119.171  1.00  0.00     0.000 C 
BRANCH   5   6
ATOM      6  C   UNL     1      25.028 162.087 120.225  1.00  0.00     0.000 C 
BRANCH   6   7
ATOM      7  C   UNL     1      25.584 161.770 121.625  1.00  0.00     0.000 C 
BRANCH   7   8
ATOM      8  C   UNL     1      27.106 161.965 121.786  1.00  0.00     0.000 C 
BRANCH   8   9
ATOM      9  C   UNL     1      27.900 162.013 120.467  1.00  0.00     0.000 C 
BRANCH   9  10
ATOM     10  C   UNL     1      29.260 161.287 120.493  1.00  0.00     0.000 C 
BRANCH  10  11
ATOM     11  C   UNL     1      29.900 161.141 121.888  1.00  0.00     0.000 C 
BRANCH  11  12
ATOM     12  C   UNL     1      31.058 162.124 122.124  1.00  0.00     0.000 C 
BRANCH  12  13
ATOM     13  C   UNL     1      32.301 161.802 121.273  1.00  0.00     0.006 C 
BRANCH  13  14
ATOM     14  C   UNL     1      33.341 160.922 121.989  1.00  0.00     0.053 C 
BRANCH  14  15
ATOM     15  C   UNL     1      34.720 161.076 121.427  1.00  0.00     0.041 C 
ATOM     16  O   UNL     1      35.669 160.377 121.869  1.00  0.00    -0.550 OA
ATOM     17  O   UNL     1      34.951 161.962 120.383  1.00  0.00    -0.550 OA
ENDBRANCH  14  15
ENDBRANCH  13  14
ENDBRANCH  12  13
ENDBRANCH  11  12
ENDBRANCH  10  11
ENDBRANCH   9  10
ENDBRANCH   8   9
ENDBRANCH   7   8
ENDBRANCH   6   7
ENDBRANCH   5   6
ENDBRANCH   4   5
ENDBRANCH   3   4
ENDBRANCH   2   3
ENDBRANCH   1   2
BRANCH   1  18
ATOM     18  C   UNL     1      27.683 159.228 116.960  1.00  0.00     0.000 C 
BRANCH  18  19
ATOM     19  C   UNL     1      26.254 158.822 116.558  1.00  0.00     0.000 C 
BRANCH  19  20
ATOM     20  C   UNL     1      25.962 157.337 116.840  1.00  0.00     0.000 C 
BRANCH  20  21
ATOM     21  C   UNL     1      25.292 157.106 118.213  1.00  0.00     0.000 C 
BRANCH  21  22
ATOM     22  C   UNL     1      25.670 158.153 119.278  1.00  0.00     0.000 C 
BRANCH  22  23
ATOM     23  C   UNL     1      25.030 157.952 120.666  1.00  0.00     0.000 C 
BRANCH  23  24
ATOM     24  C   UNL     1      26.018 157.745 121.836  1.00  0.00    -0.000 C 
BRANCH  24  25
ATOM     25  C   UNL     1      26.635 156.331 121.924  1.00  0.00    -0.000 C 
BRANCH  25  26
ATOM     26  C   UNL     1      28.170 156.318 122.046  1.00  0.00    -0.000 C 
BRANCH  26  27
ATOM     27  C   UNL     1      28.785 157.723 122.023  1.00  0.00    -0.000 C 
BRANCH  27  28
ATOM     28  C   UNL     1      30.320 157.660 122.070  1.00  0.00    -0.000 C 
BRANCH  28  29
ATOM     29  C   UNL     1      30.979 158.253 120.811  1.00  0.00    -0.000 C 
BRANCH  29  30
ATOM     30  C   UNL     1      32.351 157.649 120.447  1.00  0.00    -0.000 C 
BRANCH  30  31
ATOM     31  C   UNL     1      33.101 158.375 119.317  1.00  0.00    -0.003 C 
ATOM     32  C   UNL     1      32.323 159.565 118.754  1.00  0.00     0.004 C 
ENDBRANCH  30  31
ENDBRANCH  29  30
ENDBRANCH  28  29
ENDBRANCH  27  28
ENDBRANCH  26  27
ENDBRANCH  25  26
ENDBRANCH  24  25
ENDBRANCH  23  24
ENDBRANCH  22  23
ENDBRANCH  21  22
ENDBRANCH  20  21
ENDBRANCH  19  20
ENDBRANCH  18  19
ENDBRANCH   1  18
TORSDOF 28
ENDMDL
