MODEL 1
REMARK VINA RESULT:    -7.769      0.000      0.000
REMARK INTER + INTRA:          -8.104
REMARK INTER:                  -8.450
REMARK INTRA:                   0.346
REMARK UNBOUND:                 0.346
REMARK SMILES CC1(C)CC[C@@]2(C(=O)[O-])CC[C@@]3(C)C(=CC[C@@H]4[C@@]5(C)CC[C@H](O)C(C)(C)[C@H]5CC[C@]43C)[C@@H]2C1
REMARK SMILES IDX 6 1 5 2 10 3 32 4 4 5 11 6 14 7 33 8 2 9 12 10 15 11 1 12
REMARK SMILES IDX 3 13 13 14 30 15 16 16 17 17 29 18 31 19 18 20 28 21 27 22
REMARK SMILES IDX 20 23 19 24 24 25 21 26 22 27 25 28 26 29 7 30 8 31 9 32
REMARK SMILES IDX 23 33
REMARK H PARENT 23 34
REMARK Flexibility Score: inf
ROOT
ATOM      1  C   UNL     1       0.313  26.539  26.790  1.00  0.00     0.017 C 
ATOM      2  C   UNL     1       1.501  26.285  25.819  1.00  0.00     0.014 C 
ATOM      3  C   UNL     1      -1.008  26.192  26.053  1.00  0.00     0.014 C 
ATOM      4  C   UNL     1       0.481  25.590  28.019  1.00  0.00     0.028 C 
ATOM      5  C   UNL     1       2.869  26.494  26.494  1.00  0.00     0.007 C 
ATOM      6  C   UNL     1      -2.244  26.151  26.983  1.00  0.00     0.013 C 
ATOM      7  C   UNL     1      -0.772  25.635  28.911  1.00  0.00    -0.064 C 
ATOM      8  C   UNL     1       1.846  25.810  28.727  1.00  0.00     0.015 C 
ATOM      9  C   UNL     1       3.061  25.632  27.773  1.00  0.00    -0.035 C 
ATOM     10  C   UNL     1      -2.105  25.225  28.250  1.00  0.00    -0.006 C 
ATOM     11  C   UNL     1      -0.732  26.271  30.103  1.00  0.00    -0.027 C 
ATOM     12  C   UNL     1       4.334  26.115  28.504  1.00  0.00     0.011 C 
ATOM     13  C   UNL     1       3.270  24.142  27.404  1.00  0.00     0.011 C 
ATOM     14  C   UNL     1      -1.993  23.748  27.748  1.00  0.00     0.017 C 
ATOM     15  C   UNL     1      -3.377  25.354  29.261  1.00  0.00    -0.020 C 
ATOM     16  C   UNL     1      -1.925  26.575  30.945  1.00  0.00     0.032 C 
ATOM     17  C   UNL     1      -3.252  26.626  30.148  1.00  0.00     0.006 C 
ATOM     18  C   UNL     1      -4.677  25.529  28.448  1.00  0.00     0.008 C 
ATOM     19  C   UNL     1      -3.494  24.085  30.164  1.00  0.00     0.012 C 
ATOM     20  C   UNL     1      -4.537  27.041  31.040  1.00  0.00    -0.025 C 
ATOM     21  C   UNL     1      -5.959  25.595  29.262  1.00  0.00     0.005 C 
ATOM     22  C   UNL     1      -5.920  26.312  30.653  1.00  0.00     0.003 C 
ATOM     23  C   UNL     1      -4.704  28.598  30.921  1.00  0.00     0.010 C 
ATOM     24  C   UNL     1      -4.252  26.735  32.550  1.00  0.00     0.012 C 
ATOM     25  C   UNL     1      -7.226  27.211  30.863  1.00  0.00    -0.006 C 
ATOM     26  C   UNL     1      -5.648  28.997  29.784  1.00  0.00     0.033 C 
ATOM     27  C   UNL     1      -7.105  28.534  30.019  1.00  0.00     0.120 C 
ATOM     28  C   UNL     1      -8.517  26.442  30.431  1.00  0.00     0.014 C 
ATOM     29  C   UNL     1      -7.467  27.525  32.371  1.00  0.00     0.014 C 
ENDROOT
BRANCH   1  30
ATOM     30  C   UNL     1       0.276  28.023  27.153  1.00  0.00     0.048 C 
ATOM     31  O   UNL     1       0.783  28.455  28.221  1.00  0.00    -0.550 OA
ATOM     32  O   UNL     1      -0.398  28.919  26.329  1.00  0.00    -0.550 OA
ENDBRANCH   1  30
BRANCH  27  33
ATOM     33  O   UNL     1      -7.830  29.586  30.609  1.00  0.00    -0.393 OA
ATOM     34  H   UNL     1      -8.471  29.915  29.925  1.00  0.00     0.210 HD
ENDBRANCH  27  33
TORSDOF 2
ENDMDL
MODEL 2
REMARK VINA RESULT:    -7.156      1.036      1.226
REMARK INTER + INTRA:          -7.437
REMARK INTER:                  -7.793
REMARK INTRA:                   0.356
REMARK UNBOUND:                 0.346
REMARK SMILES CC1(C)CC[C@@]2(C(=O)[O-])CC[C@@]3(C)C(=CC[C@@H]4[C@@]5(C)CC[C@H](O)C(C)(C)[C@H]5CC[C@]43C)[C@@H]2C1
REMARK SMILES IDX 6 1 5 2 10 3 32 4 4 5 11 6 14 7 33 8 2 9 12 10 15 11 1 12
REMARK SMILES IDX 3 13 13 14 30 15 16 16 17 17 29 18 31 19 18 20 28 21 27 22
REMARK SMILES IDX 20 23 19 24 24 25 21 26 22 27 25 28 26 29 7 30 8 31 9 32
REMARK SMILES IDX 23 33
REMARK H PARENT 23 34
REMARK Flexibility Score: inf
ROOT
ATOM      1  C   UNL     1      -0.519  25.813  26.799  1.00  0.00     0.017 C 
ATOM      2  C   UNL     1       0.574  25.230  25.861  1.00  0.00     0.014 C 
ATOM      3  C   UNL     1      -1.855  25.074  26.518  1.00  0.00     0.014 C 
ATOM      4  C   UNL     1      -0.084  25.546  28.275  1.00  0.00     0.028 C 
ATOM      5  C   UNL     1       1.968  25.824  26.140  1.00  0.00     0.007 C 
ATOM      6  C   UNL     1      -2.960  25.373  27.559  1.00  0.00     0.013 C 
ATOM      7  C   UNL     1      -1.222  25.904  29.247  1.00  0.00    -0.064 C 
ATOM      8  C   UNL     1       1.308  26.164  28.579  1.00  0.00     0.015 C 
ATOM      9  C   UNL     1       2.421  25.657  27.617  1.00  0.00    -0.035 C 
ATOM     10  C   UNL     1      -2.552  25.141  29.063  1.00  0.00    -0.006 C 
ATOM     11  C   UNL     1      -1.136  27.015  30.012  1.00  0.00    -0.027 C 
ATOM     12  C   UNL     1       3.689  26.512  27.840  1.00  0.00     0.011 C 
ATOM     13  C   UNL     1       2.791  24.184  27.915  1.00  0.00     0.011 C 
ATOM     14  C   UNL     1      -2.294  23.610  29.254  1.00  0.00     0.017 C 
ATOM     15  C   UNL     1      -3.706  25.625  30.106  1.00  0.00    -0.020 C 
ATOM     16  C   UNL     1      -2.257  27.583  30.815  1.00  0.00     0.032 C 
ATOM     17  C   UNL     1      -3.660  27.168  30.306  1.00  0.00     0.006 C 
ATOM     18  C   UNL     1      -5.102  25.315  29.524  1.00  0.00     0.008 C 
ATOM     19  C   UNL     1      -3.544  24.906  31.482  1.00  0.00     0.012 C 
ATOM     20  C   UNL     1      -4.881  27.851  31.120  1.00  0.00    -0.025 C 
ATOM     21  C   UNL     1      -6.280  25.653  30.423  1.00  0.00     0.005 C 
ATOM     22  C   UNL     1      -6.184  26.928  31.327  1.00  0.00     0.003 C 
ATOM     23  C   UNL     1      -5.274  29.164  30.355  1.00  0.00     0.010 C 
ATOM     24  C   UNL     1      -4.387  28.290  32.541  1.00  0.00     0.012 C 
ATOM     25  C   UNL     1      -7.570  27.725  31.329  1.00  0.00    -0.006 C 
ATOM     26  C   UNL     1      -6.387  28.930  29.330  1.00  0.00     0.033 C 
ATOM     27  C   UNL     1      -7.730  28.522  29.981  1.00  0.00     0.120 C 
ATOM     28  C   UNL     1      -8.782  26.753  31.499  1.00  0.00     0.014 C 
ATOM     29  C   UNL     1      -7.680  28.676  32.560  1.00  0.00     0.014 C 
ENDROOT
BRANCH   1  30
ATOM     30  C   UNL     1      -0.721  27.292  26.470  1.00  0.00     0.048 C 
ATOM     31  O   UNL     1      -1.501  27.666  25.555  1.00  0.00    -0.550 OA
ATOM     32  O   UNL     1       0.026  28.256  27.139  1.00  0.00    -0.550 OA
ENDBRANCH   1  30
BRANCH  27  33
ATOM     33  O   UNL     1      -8.522  29.671  30.155  1.00  0.00    -0.393 OA
ATOM     34  H   UNL     1      -7.953  30.453  29.932  1.00  0.00     0.210 HD
ENDBRANCH  27  33
TORSDOF 2
ENDMDL
MODEL 3
REMARK VINA RESULT:    -6.620      2.552      4.407
REMARK INTER + INTRA:          -6.854
REMARK INTER:                  -7.204
REMARK INTRA:                   0.349
REMARK UNBOUND:                 0.346
REMARK SMILES CC1(C)CC[C@@]2(C(=O)[O-])CC[C@@]3(C)C(=CC[C@@H]4[C@@]5(C)CC[C@H](O)C(C)(C)[C@H]5CC[C@]43C)[C@@H]2C1
REMARK SMILES IDX 6 1 5 2 10 3 32 4 4 5 11 6 14 7 33 8 2 9 12 10 15 11 1 12
REMARK SMILES IDX 3 13 13 14 30 15 16 16 17 17 29 18 31 19 18 20 28 21 27 22
REMARK SMILES IDX 20 23 19 24 24 25 21 26 22 27 25 28 26 29 7 30 8 31 9 32
REMARK SMILES IDX 23 33
REMARK H PARENT 23 34
REMARK Flexibility Score: inf
ROOT
ATOM      1  C   UNL     1       1.500  26.892  26.984  1.00  0.00     0.017 C 
ATOM      2  C   UNL     1       2.765  27.393  26.234  1.00  0.00     0.014 C 
ATOM      3  C   UNL     1       1.847  26.741  28.490  1.00  0.00     0.014 C 
ATOM      4  C   UNL     1       0.382  27.971  26.820  1.00  0.00     0.028 C 
ATOM      5  C   UNL     1       2.493  27.681  24.746  1.00  0.00     0.007 C 
ATOM      6  C   UNL     1       0.611  26.502  29.390  1.00  0.00     0.013 C 
ATOM      7  C   UNL     1      -0.824  27.639  27.718  1.00  0.00    -0.064 C 
ATOM      8  C   UNL     1       0.076  28.251  25.323  1.00  0.00     0.015 C 
ATOM      9  C   UNL     1       1.333  28.690  24.519  1.00  0.00    -0.035 C 
ATOM     10  C   UNL     1      -0.552  27.553  29.235  1.00  0.00    -0.006 C 
ATOM     11  C   UNL     1      -1.969  27.175  27.169  1.00  0.00    -0.027 C 
ATOM     12  C   UNL     1       0.976  28.696  23.015  1.00  0.00     0.011 C 
ATOM     13  C   UNL     1       1.771  30.125  24.902  1.00  0.00     0.011 C 
ATOM     14  C   UNL     1      -0.013  28.933  29.736  1.00  0.00     0.017 C 
ATOM     15  C   UNL     1      -1.878  27.150  30.092  1.00  0.00    -0.020 C 
ATOM     16  C   UNL     1      -3.114  26.612  27.943  1.00  0.00     0.032 C 
ATOM     17  C   UNL     1      -2.717  26.076  29.341  1.00  0.00     0.006 C 
ATOM     18  C   UNL     1      -1.461  26.503  31.430  1.00  0.00     0.008 C 
ATOM     19  C   UNL     1      -2.757  28.410  30.374  1.00  0.00     0.012 C 
ATOM     20  C   UNL     1      -3.938  25.386  30.149  1.00  0.00    -0.025 C 
ATOM     21  C   UNL     1      -2.600  26.136  32.367  1.00  0.00     0.005 C 
ATOM     22  C   UNL     1      -3.937  25.614  31.743  1.00  0.00     0.003 C 
ATOM     23  C   UNL     1      -3.895  23.848  29.831  1.00  0.00     0.010 C 
ATOM     24  C   UNL     1      -5.304  25.920  29.599  1.00  0.00     0.012 C 
ATOM     25  C   UNL     1      -4.516  24.388  32.590  1.00  0.00    -0.006 C 
ATOM     26  C   UNL     1      -3.072  23.064  30.856  1.00  0.00     0.033 C 
ATOM     27  C   UNL     1      -3.695  23.084  32.272  1.00  0.00     0.120 C 
ATOM     28  C   UNL     1      -4.447  24.678  34.125  1.00  0.00     0.014 C 
ATOM     29  C   UNL     1      -6.037  24.175  32.320  1.00  0.00     0.014 C 
ENDROOT
BRANCH   1  30
ATOM     30  C   UNL     1       1.115  25.513  26.448  1.00  0.00     0.048 C 
ATOM     31  O   UNL     1       0.258  25.374  25.537  1.00  0.00    -0.550 OA
ATOM     32  O   UNL     1       1.662  24.371  27.025  1.00  0.00    -0.550 OA
ENDBRANCH   1  30
BRANCH  27  33
ATOM     33  O   UNL     1      -4.480  21.929  32.443  1.00  0.00    -0.393 OA
ATOM     34  H   UNL     1      -4.651  21.836  33.417  1.00  0.00     0.210 HD
ENDBRANCH  27  33
TORSDOF 2
ENDMDL
MODEL 4
REMARK VINA RESULT:    -6.541      1.742      7.975
REMARK INTER + INTRA:          -6.769
REMARK INTER:                  -7.113
REMARK INTRA:                   0.345
REMARK UNBOUND:                 0.346
REMARK SMILES CC1(C)CC[C@@]2(C(=O)[O-])CC[C@@]3(C)C(=CC[C@@H]4[C@@]5(C)CC[C@H](O)C(C)(C)[C@H]5CC[C@]43C)[C@@H]2C1
REMARK SMILES IDX 6 1 5 2 10 3 32 4 4 5 11 6 14 7 33 8 2 9 12 10 15 11 1 12
REMARK SMILES IDX 3 13 13 14 30 15 16 16 17 17 29 18 31 19 18 20 28 21 27 22
REMARK SMILES IDX 20 23 19 24 24 25 21 26 22 27 25 28 26 29 7 30 8 31 9 32
REMARK SMILES IDX 23 33
REMARK H PARENT 23 34
REMARK Flexibility Score: inf
ROOT
ATOM      1  C   UNL     1      -4.246  27.212  32.512  1.00  0.00     0.017 C 
ATOM      2  C   UNL     1      -5.291  27.296  33.660  1.00  0.00     0.014 C 
ATOM      3  C   UNL     1      -3.115  26.241  32.945  1.00  0.00     0.014 C 
ATOM      4  C   UNL     1      -4.962  26.636  31.248  1.00  0.00     0.028 C 
ATOM      5  C   UNL     1      -6.514  28.152  33.282  1.00  0.00     0.007 C 
ATOM      6  C   UNL     1      -2.148  25.864  31.797  1.00  0.00     0.013 C 
ATOM      7  C   UNL     1      -3.937  26.324  30.143  1.00  0.00    -0.064 C 
ATOM      8  C   UNL     1      -6.182  27.506  30.839  1.00  0.00     0.015 C 
ATOM      9  C   UNL     1      -7.221  27.672  31.984  1.00  0.00    -0.035 C 
ATOM     10  C   UNL     1      -2.833  25.304  30.494  1.00  0.00    -0.006 C 
ATOM     11  C   UNL     1      -3.859  27.115  29.050  1.00  0.00    -0.027 C 
ATOM     12  C   UNL     1      -8.250  28.745  31.561  1.00  0.00     0.011 C 
ATOM     13  C   UNL     1      -7.995  26.354  32.235  1.00  0.00     0.011 C 
ATOM     14  C   UNL     1      -3.497  23.936  30.858  1.00  0.00     0.017 C 
ATOM     15  C   UNL     1      -1.772  25.080  29.277  1.00  0.00    -0.020 C 
ATOM     16  C   UNL     1      -2.771  27.051  28.031  1.00  0.00     0.032 C 
ATOM     17  C   UNL     1      -1.457  26.425  28.562  1.00  0.00     0.006 C 
ATOM     18  C   UNL     1      -0.427  24.574  29.841  1.00  0.00     0.008 C 
ATOM     19  C   UNL     1      -2.326  24.047  28.246  1.00  0.00     0.012 C 
ATOM     20  C   UNL     1      -0.247  26.433  27.488  1.00  0.00    -0.025 C 
ATOM     21  C   UNL     1       0.642  24.256  28.809  1.00  0.00     0.005 C 
ATOM     22  C   UNL     1       0.731  25.154  27.529  1.00  0.00     0.003 C 
ATOM     23  C   UNL     1       0.582  27.745  27.729  1.00  0.00     0.010 C 
ATOM     24  C   UNL     1      -0.830  26.530  26.037  1.00  0.00     0.012 C 
ATOM     25  C   UNL     1       2.255  25.471  27.166  1.00  0.00    -0.006 C 
ATOM     26  C   UNL     1       1.746  27.529  28.699  1.00  0.00     0.033 C 
ATOM     27  C   UNL     1       2.822  26.565  28.145  1.00  0.00     0.120 C 
ATOM     28  C   UNL     1       3.140  24.185  27.265  1.00  0.00     0.014 C 
ATOM     29  C   UNL     1       2.408  25.914  25.679  1.00  0.00     0.014 C 
ENDROOT
BRANCH   1  30
ATOM     30  C   UNL     1      -3.627  28.593  32.299  1.00  0.00     0.048 C 
ATOM     31  O   UNL     1      -4.041  29.371  31.400  1.00  0.00    -0.550 OA
ATOM     32  O   UNL     1      -2.530  28.982  33.059  1.00  0.00    -0.550 OA
ENDBRANCH   1  30
BRANCH  27  33
ATOM     33  O   UNL     1       3.842  27.319  27.537  1.00  0.00    -0.393 OA
ATOM     34  H   UNL     1       3.925  28.164  28.052  1.00  0.00     0.210 HD
ENDBRANCH  27  33
TORSDOF 2
ENDMDL
MODEL 5
REMARK VINA RESULT:    -6.507      1.780      7.990
REMARK INTER + INTRA:          -6.731
REMARK INTER:                  -7.083
REMARK INTRA:                   0.352
REMARK UNBOUND:                 0.346
REMARK SMILES CC1(C)CC[C@@]2(C(=O)[O-])CC[C@@]3(C)C(=CC[C@@H]4[C@@]5(C)CC[C@H](O)C(C)(C)[C@H]5CC[C@]43C)[C@@H]2C1
REMARK SMILES IDX 6 1 5 2 10 3 32 4 4 5 11 6 14 7 33 8 2 9 12 10 15 11 1 12
REMARK SMILES IDX 3 13 13 14 30 15 16 16 17 17 29 18 31 19 18 20 28 21 27 22
REMARK SMILES IDX 20 23 19 24 24 25 21 26 22 27 25 28 26 29 7 30 8 31 9 32
REMARK SMILES IDX 23 33
REMARK H PARENT 23 34
REMARK Flexibility Score: inf
ROOT
ATOM      1  C   UNL     1      -4.612  26.598  31.650  1.00  0.00     0.017 C 
ATOM      2  C   UNL     1      -5.924  26.414  32.463  1.00  0.00     0.014 C 
ATOM      3  C   UNL     1      -3.597  25.513  32.099  1.00  0.00     0.014 C 
ATOM      4  C   UNL     1      -4.947  26.394  30.138  1.00  0.00     0.028 C 
ATOM      5  C   UNL     1      -7.037  27.377  32.011  1.00  0.00     0.007 C 
ATOM      6  C   UNL     1      -2.348  25.417  31.190  1.00  0.00     0.013 C 
ATOM      7  C   UNL     1      -3.657  26.347  29.300  1.00  0.00    -0.064 C 
ATOM      8  C   UNL     1      -6.050  27.378  29.661  1.00  0.00     0.015 C 
ATOM      9  C   UNL     1      -7.359  27.274  30.494  1.00  0.00    -0.035 C 
ATOM     10  C   UNL     1      -2.644  25.237  29.653  1.00  0.00    -0.006 C 
ATOM     11  C   UNL     1      -3.325  27.393  28.510  1.00  0.00    -0.027 C 
ATOM     12  C   UNL     1      -8.282  28.453  30.108  1.00  0.00     0.011 C 
ATOM     13  C   UNL     1      -8.119  25.962  30.182  1.00  0.00     0.011 C 
ATOM     14  C   UNL     1      -3.327  23.843  29.462  1.00  0.00     0.017 C 
ATOM     15  C   UNL     1      -1.293  25.303  28.745  1.00  0.00    -0.020 C 
ATOM     16  C   UNL     1      -2.006  27.561  27.834  1.00  0.00     0.032 C 
ATOM     17  C   UNL     1      -0.854  26.777  28.512  1.00  0.00     0.006 C 
ATOM     18  C   UNL     1      -0.125  24.626  29.492  1.00  0.00     0.008 C 
ATOM     19  C   UNL     1      -1.516  24.592  27.372  1.00  0.00     0.012 C 
ATOM     20  C   UNL     1       0.595  27.025  27.834  1.00  0.00    -0.025 C 
ATOM     21  C   UNL     1       1.189  24.553  28.732  1.00  0.00     0.005 C 
ATOM     22  C   UNL     1       1.577  25.749  27.800  1.00  0.00     0.003 C 
ATOM     23  C   UNL     1       1.279  28.202  28.617  1.00  0.00     0.010 C 
ATOM     24  C   UNL     1       0.410  27.515  26.358  1.00  0.00     0.012 C 
ATOM     25  C   UNL     1       3.129  26.101  27.947  1.00  0.00    -0.006 C 
ATOM     26  C   UNL     1       2.155  27.704  29.769  1.00  0.00     0.033 C 
ATOM     27  C   UNL     1       3.375  26.884  29.289  1.00  0.00     0.120 C 
ATOM     28  C   UNL     1       4.006  24.806  27.938  1.00  0.00     0.014 C 
ATOM     29  C   UNL     1       3.650  26.910  26.719  1.00  0.00     0.014 C 
ENDROOT
BRANCH   1  30
ATOM     30  C   UNL     1      -4.013  27.967  31.973  1.00  0.00     0.048 C 
ATOM     31  O   UNL     1      -4.216  28.967  31.237  1.00  0.00    -0.550 OA
ATOM     32  O   UNL     1      -3.159  28.107  33.062  1.00  0.00    -0.550 OA
ENDBRANCH   1  30
BRANCH  27  33
ATOM     33  O   UNL     1       4.489  27.737  29.188  1.00  0.00    -0.393 OA
ATOM     34  H   UNL     1       5.277  27.223  29.506  1.00  0.00     0.210 HD
ENDBRANCH  27  33
TORSDOF 2
ENDMDL
MODEL 6
REMARK VINA RESULT:    -6.459      1.795      2.880
REMARK INTER + INTRA:          -6.680
REMARK INTER:                  -7.031
REMARK INTRA:                   0.351
REMARK UNBOUND:                 0.346
REMARK SMILES CC1(C)CC[C@@]2(C(=O)[O-])CC[C@@]3(C)C(=CC[C@@H]4[C@@]5(C)CC[C@H](O)C(C)(C)[C@H]5CC[C@]43C)[C@@H]2C1
REMARK SMILES IDX 6 1 5 2 10 3 32 4 4 5 11 6 14 7 33 8 2 9 12 10 15 11 1 12
REMARK SMILES IDX 3 13 13 14 30 15 16 16 17 17 29 18 31 19 18 20 28 21 27 22
REMARK SMILES IDX 20 23 19 24 24 25 21 26 22 27 25 28 26 29 7 30 8 31 9 32
REMARK SMILES IDX 23 33
REMARK H PARENT 23 34
REMARK Flexibility Score: inf
ROOT
ATOM      1  C   UNL     1       0.075  24.340  28.384  1.00  0.00     0.017 C 
ATOM      2  C   UNL     1       1.360  23.631  27.872  1.00  0.00     0.014 C 
ATOM      3  C   UNL     1      -0.655  23.386  29.367  1.00  0.00     0.014 C 
ATOM      4  C   UNL     1       0.508  25.632  29.149  1.00  0.00     0.028 C 
ATOM      5  C   UNL     1       2.217  24.542  26.973  1.00  0.00     0.007 C 
ATOM      6  C   UNL     1      -1.806  24.064  30.149  1.00  0.00     0.013 C 
ATOM      7  C   UNL     1      -0.698  26.264  29.866  1.00  0.00    -0.064 C 
ATOM      8  C   UNL     1       1.350  26.574  28.245  1.00  0.00     0.015 C 
ATOM      9  C   UNL     1       2.612  25.882  27.655  1.00  0.00    -0.035 C 
ATOM     10  C   UNL     1      -1.417  25.386  30.912  1.00  0.00    -0.006 C 
ATOM     11  C   UNL     1      -1.249  27.403  29.390  1.00  0.00    -0.027 C 
ATOM     12  C   UNL     1       3.228  26.813  26.587  1.00  0.00     0.011 C 
ATOM     13  C   UNL     1       3.684  25.647  28.747  1.00  0.00     0.011 C 
ATOM     14  C   UNL     1      -0.404  25.001  32.040  1.00  0.00     0.017 C 
ATOM     15  C   UNL     1      -2.707  26.125  31.578  1.00  0.00    -0.020 C 
ATOM     16  C   UNL     1      -2.542  27.982  29.857  1.00  0.00     0.032 C 
ATOM     17  C   UNL     1      -3.488  26.944  30.510  1.00  0.00     0.006 C 
ATOM     18  C   UNL     1      -3.699  25.071  32.112  1.00  0.00     0.008 C 
ATOM     19  C   UNL     1      -2.264  27.062  32.746  1.00  0.00     0.012 C 
ATOM     20  C   UNL     1      -4.927  27.549  30.940  1.00  0.00    -0.025 C 
ATOM     21  C   UNL     1      -4.925  25.619  32.824  1.00  0.00     0.005 C 
ATOM     22  C   UNL     1      -5.560  26.948  32.293  1.00  0.00     0.003 C 
ATOM     23  C   UNL     1      -5.910  27.309  29.739  1.00  0.00     0.010 C 
ATOM     24  C   UNL     1      -4.813  29.101  31.124  1.00  0.00     0.012 C 
ATOM     25  C   UNL     1      -7.156  26.851  32.294  1.00  0.00    -0.006 C 
ATOM     26  C   UNL     1      -6.678  25.992  29.870  1.00  0.00     0.033 C 
ATOM     27  C   UNL     1      -7.639  25.971  31.082  1.00  0.00     0.120 C 
ATOM     28  C   UNL     1      -7.685  26.227  33.626  1.00  0.00     0.014 C 
ATOM     29  C   UNL     1      -7.814  28.265  32.260  1.00  0.00     0.014 C 
ENDROOT
BRANCH   1  30
ATOM     30  C   UNL     1      -0.855  24.602  27.201  1.00  0.00     0.048 C 
ATOM     31  O   UNL     1      -0.873  25.712  26.607  1.00  0.00    -0.550 OA
ATOM     32  O   UNL     1      -1.764  23.625  26.807  1.00  0.00    -0.550 OA
ENDBRANCH   1  30
BRANCH  27  33
ATOM     33  O   UNL     1      -8.925  26.348  30.654  1.00  0.00    -0.393 OA
ATOM     34  H   UNL     1      -8.936  27.340  30.607  1.00  0.00     0.210 HD
ENDBRANCH  27  33
TORSDOF 2
ENDMDL
MODEL 7
REMARK VINA RESULT:    -5.962      1.630      2.192
REMARK INTER + INTRA:          -6.139
REMARK INTER:                  -6.483
REMARK INTRA:                   0.344
REMARK UNBOUND:                 0.346
REMARK SMILES CC1(C)CC[C@@]2(C(=O)[O-])CC[C@@]3(C)C(=CC[C@@H]4[C@@]5(C)CC[C@H](O)C(C)(C)[C@H]5CC[C@]43C)[C@@H]2C1
REMARK SMILES IDX 6 1 5 2 10 3 32 4 4 5 11 6 14 7 33 8 2 9 12 10 15 11 1 12
REMARK SMILES IDX 3 13 13 14 30 15 16 16 17 17 29 18 31 19 18 20 28 21 27 22
REMARK SMILES IDX 20 23 19 24 24 25 21 26 22 27 25 28 26 29 7 30 8 31 9 32
REMARK SMILES IDX 23 33
REMARK H PARENT 23 34
REMARK Flexibility Score: inf
ROOT
ATOM      1  C   UNL     1       0.677  27.796  28.347  1.00  0.00     0.017 C 
ATOM      2  C   UNL     1       1.935  28.078  27.480  1.00  0.00     0.014 C 
ATOM      3  C   UNL     1      -0.449  28.773  27.914  1.00  0.00     0.014 C 
ATOM      4  C   UNL     1       0.218  26.329  28.073  1.00  0.00     0.028 C 
ATOM      5  C   UNL     1       3.077  27.082  27.757  1.00  0.00     0.007 C 
ATOM      6  C   UNL     1      -1.834  28.429  28.514  1.00  0.00     0.013 C 
ATOM      7  C   UNL     1      -1.146  26.057  28.733  1.00  0.00    -0.064 C 
ATOM      8  C   UNL     1       1.352  25.311  28.376  1.00  0.00     0.015 C 
ATOM      9  C   UNL     1       2.655  25.598  27.577  1.00  0.00    -0.035 C 
ATOM     10  C   UNL     1      -2.321  26.949  28.282  1.00  0.00    -0.006 C 
ATOM     11  C   UNL     1      -1.220  25.281  29.838  1.00  0.00    -0.027 C 
ATOM     12  C   UNL     1       3.780  24.697  28.134  1.00  0.00     0.011 C 
ATOM     13  C   UNL     1       2.480  25.255  26.077  1.00  0.00     0.011 C 
ATOM     14  C   UNL     1      -2.547  26.760  26.746  1.00  0.00     0.017 C 
ATOM     15  C   UNL     1      -3.706  26.616  29.073  1.00  0.00    -0.020 C 
ATOM     16  C   UNL     1      -2.435  25.130  30.689  1.00  0.00     0.032 C 
ATOM     17  C   UNL     1      -3.427  26.314  30.574  1.00  0.00     0.006 C 
ATOM     18  C   UNL     1      -4.631  27.852  29.055  1.00  0.00     0.008 C 
ATOM     19  C   UNL     1      -4.440  25.406  28.415  1.00  0.00     0.012 C 
ATOM     20  C   UNL     1      -4.705  26.197  31.561  1.00  0.00    -0.025 C 
ATOM     21  C   UNL     1      -5.994  27.664  29.701  1.00  0.00     0.005 C 
ATOM     22  C   UNL     1      -6.096  26.753  30.970  1.00  0.00     0.003 C 
ATOM     23  C   UNL     1      -4.344  26.962  32.883  1.00  0.00     0.010 C 
ATOM     24  C   UNL     1      -4.930  24.698  31.957  1.00  0.00     0.012 C 
ATOM     25  C   UNL     1      -7.066  27.408  32.059  1.00  0.00    -0.006 C 
ATOM     26  C   UNL     1      -4.790  28.426  32.849  1.00  0.00     0.033 C 
ATOM     27  C   UNL     1      -6.327  28.587  32.793  1.00  0.00     0.120 C 
ATOM     28  C   UNL     1      -8.374  27.952  31.398  1.00  0.00     0.014 C 
ATOM     29  C   UNL     1      -7.580  26.345  33.078  1.00  0.00     0.014 C 
ENDROOT
BRANCH   1  30
ATOM     30  C   UNL     1       1.008  28.078  29.813  1.00  0.00     0.048 C 
ATOM     31  O   UNL     1       1.327  27.156  30.608  1.00  0.00    -0.550 OA
ATOM     32  O   UNL     1       0.886  29.371  30.312  1.00  0.00    -0.550 OA
ENDBRANCH   1  30
BRANCH  27  33
ATOM     33  O   UNL     1      -6.817  28.766  34.100  1.00  0.00    -0.393 OA
ATOM     34  H   UNL     1      -6.618  27.932  34.601  1.00  0.00     0.210 HD
ENDBRANCH  27  33
TORSDOF 2
ENDMDL
MODEL 8
REMARK VINA RESULT:    -5.631      2.031      7.619
REMARK INTER + INTRA:          -5.779
REMARK INTER:                  -6.135
REMARK INTRA:                   0.356
REMARK UNBOUND:                 0.346
REMARK SMILES CC1(C)CC[C@@]2(C(=O)[O-])CC[C@@]3(C)C(=CC[C@@H]4[C@@]5(C)CC[C@H](O)C(C)(C)[C@H]5CC[C@]43C)[C@@H]2C1
REMARK SMILES IDX 6 1 5 2 10 3 32 4 4 5 11 6 14 7 33 8 2 9 12 10 15 11 1 12
REMARK SMILES IDX 3 13 13 14 30 15 16 16 17 17 29 18 31 19 18 20 28 21 27 22
REMARK SMILES IDX 20 23 19 24 24 25 21 26 22 27 25 28 26 29 7 30 8 31 9 32
REMARK SMILES IDX 23 33
REMARK H PARENT 23 34
REMARK Flexibility Score: inf
ROOT
ATOM      1  C   UNL     1      -3.421  26.178  32.607  1.00  0.00     0.017 C 
ATOM      2  C   UNL     1      -4.011  25.693  33.960  1.00  0.00     0.014 C 
ATOM      3  C   UNL     1      -1.964  25.658  32.490  1.00  0.00     0.014 C 
ATOM      4  C   UNL     1      -4.281  25.562  31.456  1.00  0.00     0.028 C 
ATOM      5  C   UNL     1      -5.497  26.064  34.123  1.00  0.00     0.007 C 
ATOM      6  C   UNL     1      -1.349  25.846  31.082  1.00  0.00     0.013 C 
ATOM      7  C   UNL     1      -3.622  25.825  30.090  1.00  0.00    -0.064 C 
ATOM      8  C   UNL     1      -5.778  25.952  31.592  1.00  0.00     0.015 C 
ATOM      9  C   UNL     1      -6.390  25.544  32.963  1.00  0.00    -0.035 C 
ATOM     10  C   UNL     1      -2.199  25.263  29.890  1.00  0.00    -0.006 C 
ATOM     11  C   UNL     1      -4.156  26.736  29.246  1.00  0.00    -0.027 C 
ATOM     12  C   UNL     1      -7.786  26.195  33.089  1.00  0.00     0.011 C 
ATOM     13  C   UNL     1      -6.578  24.011  33.058  1.00  0.00     0.011 C 
ATOM     14  C   UNL     1      -2.237  23.708  30.052  1.00  0.00     0.017 C 
ATOM     15  C   UNL     1      -1.571  25.636  28.434  1.00  0.00    -0.020 C 
ATOM     16  C   UNL     1      -3.492  27.237  28.007  1.00  0.00     0.032 C 
ATOM     17  C   UNL     1      -1.951  27.088  28.023  1.00  0.00     0.006 C 
ATOM     18  C   UNL     1      -0.030  25.604  28.502  1.00  0.00     0.008 C 
ATOM     19  C   UNL     1      -2.066  24.630  27.346  1.00  0.00     0.012 C 
ATOM     20  C   UNL     1      -1.219  27.710  26.720  1.00  0.00    -0.025 C 
ATOM     21  C   UNL     1       0.694  25.867  27.192  1.00  0.00     0.005 C 
ATOM     22  C   UNL     1       0.076  26.906  26.197  1.00  0.00     0.003 C 
ATOM     23  C   UNL     1      -0.822  29.188  27.070  1.00  0.00     0.010 C 
ATOM     24  C   UNL     1      -2.235  27.786  25.530  1.00  0.00     0.012 C 
ATOM     25  C   UNL     1       1.217  27.827  25.560  1.00  0.00    -0.006 C 
ATOM     26  C   UNL     1       0.596  29.293  27.636  1.00  0.00     0.033 C 
ATOM     27  C   UNL     1       1.686  28.901  26.611  1.00  0.00     0.120 C 
ATOM     28  C   UNL     1       2.448  26.974  25.112  1.00  0.00     0.014 C 
ATOM     29  C   UNL     1       0.734  28.504  24.241  1.00  0.00     0.014 C 
ENDROOT
BRANCH   1  30
ATOM     30  C   UNL     1      -3.380  27.706  32.600  1.00  0.00     0.048 C 
ATOM     31  O   UNL     1      -2.423  28.343  33.113  1.00  0.00    -0.550 OA
ATOM     32  O   UNL     1      -4.455  28.423  32.084  1.00  0.00    -0.550 OA
ENDBRANCH   1  30
BRANCH  27  33
ATOM     33  O   UNL     1       2.159  30.065  25.978  1.00  0.00    -0.393 OA
ATOM     34  H   UNL     1       3.129  29.930  25.811  1.00  0.00     0.210 HD
ENDBRANCH  27  33
TORSDOF 2
ENDMDL
MODEL 9
REMARK VINA RESULT:    -5.420     15.456     18.109
REMARK INTER + INTRA:          -5.550
REMARK INTER:                  -6.324
REMARK INTRA:                   0.774
REMARK UNBOUND:                 0.346
REMARK SMILES CC1(C)CC[C@@]2(C(=O)[O-])CC[C@@]3(C)C(=CC[C@@H]4[C@@]5(C)CC[C@H](O)C(C)(C)[C@H]5CC[C@]43C)[C@@H]2C1
REMARK SMILES IDX 6 1 5 2 10 3 32 4 4 5 11 6 14 7 33 8 2 9 12 10 15 11 1 12
REMARK SMILES IDX 3 13 13 14 30 15 16 16 17 17 29 18 31 19 18 20 28 21 27 22
REMARK SMILES IDX 20 23 19 24 24 25 21 26 22 27 25 28 26 29 7 30 8 31 9 32
REMARK SMILES IDX 23 33
REMARK H PARENT 23 34
REMARK Flexibility Score: inf
ROOT
ATOM      1  C   UNL     1      -9.814  19.912  18.091  1.00  0.00     0.017 C 
ATOM      2  C   UNL     1     -10.303  21.358  18.386  1.00  0.00     0.014 C 
ATOM      3  C   UNL     1     -10.870  18.914  18.635  1.00  0.00     0.014 C 
ATOM      4  C   UNL     1      -9.700  19.747  16.542  1.00  0.00     0.028 C 
ATOM      5  C   UNL     1      -9.375  22.429  17.784  1.00  0.00     0.007 C 
ATOM      6  C   UNL     1     -10.636  17.453  18.179  1.00  0.00     0.013 C 
ATOM      7  C   UNL     1      -9.430  18.276  16.175  1.00  0.00    -0.064 C 
ATOM      8  C   UNL     1      -8.743  20.803  15.925  1.00  0.00     0.015 C 
ATOM      9  C   UNL     1      -9.160  22.266  16.254  1.00  0.00    -0.035 C 
ATOM     10  C   UNL     1     -10.489  17.247  16.625  1.00  0.00    -0.006 C 
ATOM     11  C   UNL     1      -8.205  17.900  15.744  1.00  0.00    -0.027 C 
ATOM     12  C   UNL     1      -8.019  23.211  15.815  1.00  0.00     0.011 C 
ATOM     13  C   UNL     1     -10.433  22.674  15.474  1.00  0.00     0.011 C 
ATOM     14  C   UNL     1     -11.862  17.606  15.966  1.00  0.00     0.017 C 
ATOM     15  C   UNL     1     -10.088  15.717  16.232  1.00  0.00    -0.020 C 
ATOM     16  C   UNL     1      -7.762  16.486  15.576  1.00  0.00     0.032 C 
ATOM     17  C   UNL     1      -8.564  15.476  16.432  1.00  0.00     0.006 C 
ATOM     18  C   UNL     1     -10.802  14.729  17.178  1.00  0.00     0.008 C 
ATOM     19  C   UNL     1     -10.486  15.404  14.755  1.00  0.00     0.012 C 
ATOM     20  C   UNL     1      -8.030  13.952  16.320  1.00  0.00    -0.025 C 
ATOM     21  C   UNL     1     -10.573  13.255  16.886  1.00  0.00     0.005 C 
ATOM     22  C   UNL     1      -9.165  12.809  16.369  1.00  0.00     0.003 C 
ATOM     23  C   UNL     1      -7.002  13.732  17.486  1.00  0.00     0.010 C 
ATOM     24  C   UNL     1      -7.237  13.768  14.981  1.00  0.00     0.012 C 
ATOM     25  C   UNL     1      -8.708  11.449  17.074  1.00  0.00    -0.006 C 
ATOM     26  C   UNL     1      -7.663  13.168  18.747  1.00  0.00     0.033 C 
ATOM     27  C   UNL     1      -8.231  11.743  18.545  1.00  0.00     0.120 C 
ATOM     28  C   UNL     1      -9.876  10.410  17.110  1.00  0.00     0.014 C 
ATOM     29  C   UNL     1      -7.594  10.728  16.255  1.00  0.00     0.014 C 
ENDROOT
BRANCH   1  30
ATOM     30  C   UNL     1      -8.504  19.667  18.839  1.00  0.00     0.048 C 
ATOM     31  O   UNL     1      -8.152  18.513  19.196  1.00  0.00    -0.550 OA
ATOM     32  O   UNL     1      -7.707  20.747  19.207  1.00  0.00    -0.550 OA
ENDBRANCH   1  30
BRANCH  27  33
ATOM     33  O   UNL     1      -7.274  10.804  18.971  1.00  0.00    -0.393 OA
ATOM     34  H   UNL     1      -6.416  11.045  18.534  1.00  0.00     0.210 HD
ENDBRANCH  27  33
TORSDOF 2
ENDMDL
