MODEL 1
REMARK VINA RESULT:    -3.332      0.000      0.000
REMARK INTER + INTRA:         -13.253
REMARK INTER:                  -8.397
REMARK INTRA:                  -4.856
REMARK UNBOUND:                -4.856
REMARK SMILES CCCCCCCCCCCCCCCCCCCCCCCCCCCC(=O)[O-]
REMARK SMILES IDX 15 1 16 2 17 3 18 4 19 5 20 6 21 7 22 8 23 9 24 10 25 11
REMARK SMILES IDX 26 12 27 13 28 14 29 15 30 16 14 17 13 18 12 19 11 20 10 21
REMARK SMILES IDX 9 22 8 23 7 24 6 25 5 26 4 27 3 28 2 29 1 30
REMARK H PARENT
REMARK Flexibility Score: inf
ROOT
ATOM      1  C   UNL     1     161.275 157.336 164.145  1.00  0.00     0.000 C 
ENDROOT
BRANCH   1   2
ATOM      2  C   UNL     1     161.701 156.028 163.459  1.00  0.00     0.000 C 
BRANCH   2   3
ATOM      3  C   UNL     1     161.104 154.786 164.138  1.00  0.00     0.000 C 
BRANCH   3   4
ATOM      4  C   UNL     1     161.947 153.537 163.835  1.00  0.00     0.000 C 
BRANCH   4   5
ATOM      5  C   UNL     1     161.088 152.318 163.465  1.00  0.00     0.000 C 
BRANCH   5   6
ATOM      6  C   UNL     1     161.334 151.839 162.022  1.00  0.00     0.000 C 
BRANCH   6   7
ATOM      7  C   UNL     1     161.401 153.001 161.018  1.00  0.00     0.000 C 
BRANCH   7   8
ATOM      8  C   UNL     1     162.808 153.188 160.425  1.00  0.00     0.000 C 
BRANCH   8   9
ATOM      9  C   UNL     1     163.277 154.650 160.472  1.00  0.00     0.000 C 
BRANCH   9  10
ATOM     10  C   UNL     1     164.339 154.968 159.406  1.00  0.00     0.000 C 
BRANCH  10  11
ATOM     11  C   UNL     1     164.952 153.705 158.779  1.00  0.00     0.000 C 
BRANCH  11  12
ATOM     12  C   UNL     1     164.822 153.653 157.242  1.00  0.00     0.006 C 
BRANCH  12  13
ATOM     13  C   UNL     1     164.467 155.020 156.643  1.00  0.00     0.053 C 
BRANCH  13  14
ATOM     14  C   UNL     1     165.637 155.594 155.908  1.00  0.00     0.041 C 
ATOM     15  O   UNL     1     165.454 156.328 154.902  1.00  0.00    -0.550 OA
ATOM     16  O   UNL     1     166.931 155.289 156.312  1.00  0.00    -0.550 OA
ENDBRANCH  13  14
ENDBRANCH  12  13
ENDBRANCH  11  12
ENDBRANCH  10  11
ENDBRANCH   9  10
ENDBRANCH   8   9
ENDBRANCH   7   8
ENDBRANCH   6   7
ENDBRANCH   5   6
ENDBRANCH   4   5
ENDBRANCH   3   4
ENDBRANCH   2   3
ENDBRANCH   1   2
BRANCH   1  17
ATOM     17  C   UNL     1     161.721 157.403 165.616  1.00  0.00     0.000 C 
BRANCH  17  18
ATOM     18  C   UNL     1     163.247 157.296 165.775  1.00  0.00     0.000 C 
BRANCH  18  19
ATOM     19  C   UNL     1     163.670 156.021 166.526  1.00  0.00     0.000 C 
BRANCH  19  20
ATOM     20  C   UNL     1     164.675 155.171 165.732  1.00  0.00     0.000 C 
BRANCH  20  21
ATOM     21  C   UNL     1     165.297 155.939 164.553  1.00  0.00     0.000 C 
BRANCH  21  22
ATOM     22  C   UNL     1     166.833 155.836 164.534  1.00  0.00    -0.000 C 
BRANCH  22  23
ATOM     23  C   UNL     1     167.427 156.192 163.160  1.00  0.00    -0.000 C 
BRANCH  23  24
ATOM     24  C   UNL     1     166.923 155.270 162.035  1.00  0.00    -0.000 C 
BRANCH  24  25
ATOM     25  C   UNL     1     167.753 153.991 161.817  1.00  0.00    -0.000 C 
BRANCH  25  26
ATOM     26  C   UNL     1     167.098 152.692 162.326  1.00  0.00    -0.000 C 
BRANCH  26  27
ATOM     27  C   UNL     1     165.598 152.806 162.666  1.00  0.00    -0.000 C 
BRANCH  27  28
ATOM     28  C   UNL     1     165.056 151.704 163.593  1.00  0.00    -0.000 C 
BRANCH  28  29
ATOM     29  C   UNL     1     165.720 151.708 164.978  1.00  0.00    -0.003 C 
ATOM     30  C   UNL     1     165.236 150.533 165.823  1.00  0.00     0.004 C 
ENDBRANCH  28  29
ENDBRANCH  27  28
ENDBRANCH  26  27
ENDBRANCH  25  26
ENDBRANCH  24  25
ENDBRANCH  23  24
ENDBRANCH  22  23
ENDBRANCH  21  22
ENDBRANCH  20  21
ENDBRANCH  19  20
ENDBRANCH  18  19
ENDBRANCH  17  18
ENDBRANCH   1  17
TORSDOF 26
ENDMDL
MODEL 2
REMARK VINA RESULT:    -3.321      3.882      7.034
REMARK INTER + INTRA:         -13.225
REMARK INTER:                  -8.372
REMARK INTRA:                  -4.854
REMARK UNBOUND:                -4.856
REMARK SMILES CCCCCCCCCCCCCCCCCCCCCCCCCCCC(=O)[O-]
REMARK SMILES IDX 15 1 16 2 17 3 18 4 19 5 20 6 21 7 22 8 23 9 24 10 25 11
REMARK SMILES IDX 26 12 27 13 28 14 29 15 30 16 14 17 13 18 12 19 11 20 10 21
REMARK SMILES IDX 9 22 8 23 7 24 6 25 5 26 4 27 3 28 2 29 1 30
REMARK H PARENT
REMARK Flexibility Score: inf
ROOT
ATOM      1  C   UNL     1     161.764 158.114 164.847  1.00  0.00     0.000 C 
ENDROOT
BRANCH   1   2
ATOM      2  C   UNL     1     163.117 157.790 165.502  1.00  0.00     0.000 C 
BRANCH   2   3
ATOM      3  C   UNL     1     163.038 156.585 166.453  1.00  0.00     0.000 C 
BRANCH   3   4
ATOM      4  C   UNL     1     164.156 155.575 166.151  1.00  0.00     0.000 C 
BRANCH   4   5
ATOM      5  C   UNL     1     165.021 155.990 164.951  1.00  0.00     0.000 C 
BRANCH   5   6
ATOM      6  C   UNL     1     165.171 154.864 163.912  1.00  0.00     0.000 C 
BRANCH   6   7
ATOM      7  C   UNL     1     166.171 153.783 164.354  1.00  0.00     0.000 C 
BRANCH   7   8
ATOM      8  C   UNL     1     165.510 152.406 164.533  1.00  0.00     0.000 C 
BRANCH   8   9
ATOM      9  C   UNL     1     164.365 152.167 163.537  1.00  0.00     0.000 C 
BRANCH   9  10
ATOM     10  C   UNL     1     163.325 151.159 164.056  1.00  0.00     0.000 C 
BRANCH  10  11
ATOM     11  C   UNL     1     162.700 150.315 162.933  1.00  0.00     0.000 C 
BRANCH  11  12
ATOM     12  C   UNL     1     161.907 149.095 163.446  1.00  0.00     0.006 C 
BRANCH  12  13
ATOM     13  C   UNL     1     161.104 149.416 164.714  1.00  0.00     0.053 C 
BRANCH  13  14
ATOM     14  C   UNL     1     161.462 148.471 165.817  1.00  0.00     0.041 C 
ATOM     15  O   UNL     1     162.649 148.405 166.234  1.00  0.00    -0.550 OA
ATOM     16  O   UNL     1     160.494 147.638 166.362  1.00  0.00    -0.550 OA
ENDBRANCH  13  14
ENDBRANCH  12  13
ENDBRANCH  11  12
ENDBRANCH  10  11
ENDBRANCH   9  10
ENDBRANCH   8   9
ENDBRANCH   7   8
ENDBRANCH   6   7
ENDBRANCH   5   6
ENDBRANCH   4   5
ENDBRANCH   3   4
ENDBRANCH   2   3
ENDBRANCH   1   2
BRANCH   1  17
ATOM     17  C   UNL     1     160.958 156.849 164.504  1.00  0.00     0.000 C 
BRANCH  17  18
ATOM     18  C   UNL     1     161.606 156.024 163.381  1.00  0.00     0.000 C 
BRANCH  18  19
ATOM     19  C   UNL     1     161.594 154.515 163.679  1.00  0.00     0.000 C 
BRANCH  19  20
ATOM     20  C   UNL     1     160.194 153.992 164.038  1.00  0.00     0.000 C 
BRANCH  20  21
ATOM     21  C   UNL     1     159.931 152.580 163.484  1.00  0.00     0.000 C 
BRANCH  21  22
ATOM     22  C   UNL     1     159.150 152.609 162.158  1.00  0.00    -0.000 C 
BRANCH  22  23
ATOM     23  C   UNL     1     160.012 152.174 160.961  1.00  0.00    -0.000 C 
BRANCH  23  24
ATOM     24  C   UNL     1     160.022 153.211 159.823  1.00  0.00    -0.000 C 
BRANCH  24  25
ATOM     25  C   UNL     1     161.277 154.103 159.762  1.00  0.00    -0.000 C 
BRANCH  25  26
ATOM     26  C   UNL     1     162.552 153.478 160.362  1.00  0.00    -0.000 C 
BRANCH  26  27
ATOM     27  C   UNL     1     163.691 154.474 160.659  1.00  0.00    -0.000 C 
BRANCH  27  28
ATOM     28  C   UNL     1     164.870 154.428 159.670  1.00  0.00    -0.000 C 
BRANCH  28  29
ATOM     29  C   UNL     1     166.236 154.546 160.362  1.00  0.00    -0.003 C 
ATOM     30  C   UNL     1     167.340 154.838 159.351  1.00  0.00     0.004 C 
ENDBRANCH  28  29
ENDBRANCH  27  28
ENDBRANCH  26  27
ENDBRANCH  25  26
ENDBRANCH  24  25
ENDBRANCH  23  24
ENDBRANCH  22  23
ENDBRANCH  21  22
ENDBRANCH  20  21
ENDBRANCH  19  20
ENDBRANCH  18  19
ENDBRANCH  17  18
ENDBRANCH   1  17
TORSDOF 26
ENDMDL
MODEL 3
REMARK VINA RESULT:    -3.265      2.168      4.345
REMARK INTER + INTRA:         -13.085
REMARK INTER:                  -7.852
REMARK INTRA:                  -5.233
REMARK UNBOUND:                -4.856
REMARK SMILES CCCCCCCCCCCCCCCCCCCCCCCCCCCC(=O)[O-]
REMARK SMILES IDX 15 1 16 2 17 3 18 4 19 5 20 6 21 7 22 8 23 9 24 10 25 11
REMARK SMILES IDX 26 12 27 13 28 14 29 15 30 16 14 17 13 18 12 19 11 20 10 21
REMARK SMILES IDX 9 22 8 23 7 24 6 25 5 26 4 27 3 28 2 29 1 30
REMARK H PARENT
REMARK Flexibility Score: inf
ROOT
ATOM      1  C   UNL     1     161.339 154.583 163.390  1.00  0.00     0.000 C 
ENDROOT
BRANCH   1   2
ATOM      2  C   UNL     1     162.132 155.336 162.310  1.00  0.00     0.000 C 
BRANCH   2   3
ATOM      3  C   UNL     1     162.039 154.662 160.933  1.00  0.00     0.000 C 
BRANCH   3   4
ATOM      4  C   UNL     1     163.366 154.789 160.169  1.00  0.00     0.000 C 
BRANCH   4   5
ATOM      5  C   UNL     1     163.905 153.433 159.688  1.00  0.00     0.000 C 
BRANCH   5   6
ATOM      6  C   UNL     1     165.430 153.308 159.859  1.00  0.00     0.000 C 
BRANCH   6   7
ATOM      7  C   UNL     1     166.152 154.658 159.716  1.00  0.00     0.000 C 
BRANCH   7   8
ATOM      8  C   UNL     1     167.214 154.644 158.604  1.00  0.00     0.000 C 
BRANCH   8   9
ATOM      9  C   UNL     1     166.752 155.383 157.339  1.00  0.00     0.000 C 
BRANCH   9  10
ATOM     10  C   UNL     1     165.907 154.496 156.408  1.00  0.00     0.000 C 
BRANCH  10  11
ATOM     11  C   UNL     1     164.463 155.002 156.252  1.00  0.00     0.000 C 
BRANCH  11  12
ATOM     12  C   UNL     1     163.430 153.871 156.063  1.00  0.00     0.006 C 
BRANCH  12  13
ATOM     13  C   UNL     1     162.245 154.305 155.190  1.00  0.00     0.053 C 
BRANCH  13  14
ATOM     14  C   UNL     1     160.973 154.283 155.977  1.00  0.00     0.041 C 
ATOM     15  O   UNL     1     159.868 154.448 155.397  1.00  0.00    -0.550 OA
ATOM     16  O   UNL     1     161.010 154.115 157.355  1.00  0.00    -0.550 OA
ENDBRANCH  13  14
ENDBRANCH  12  13
ENDBRANCH  11  12
ENDBRANCH  10  11
ENDBRANCH   9  10
ENDBRANCH   8   9
ENDBRANCH   7   8
ENDBRANCH   6   7
ENDBRANCH   5   6
ENDBRANCH   4   5
ENDBRANCH   3   4
ENDBRANCH   2   3
ENDBRANCH   1   2
BRANCH   1  17
ATOM     17  C   UNL     1     161.485 155.222 164.782  1.00  0.00     0.000 C 
BRANCH  17  18
ATOM     18  C   UNL     1     162.276 156.540 164.745  1.00  0.00     0.000 C 
BRANCH  18  19
ATOM     19  C   UNL     1     163.424 156.563 165.769  1.00  0.00     0.000 C 
BRANCH  19  20
ATOM     20  C   UNL     1     164.379 155.368 165.618  1.00  0.00     0.000 C 
BRANCH  20  21
ATOM     21  C   UNL     1     165.377 155.552 164.462  1.00  0.00     0.000 C 
BRANCH  21  22
ATOM     22  C   UNL     1     165.450 154.314 163.550  1.00  0.00    -0.000 C 
BRANCH  22  23
ATOM     23  C   UNL     1     164.575 153.158 164.062  1.00  0.00    -0.000 C 
BRANCH  23  24
ATOM     24  C   UNL     1     164.551 151.955 163.101  1.00  0.00    -0.000 C 
BRANCH  24  25
ATOM     25  C   UNL     1     163.146 151.446 162.726  1.00  0.00    -0.000 C 
BRANCH  25  26
ATOM     26  C   UNL     1     162.264 151.026 163.918  1.00  0.00    -0.000 C 
BRANCH  26  27
ATOM     27  C   UNL     1     160.746 151.037 163.644  1.00  0.00    -0.000 C 
BRANCH  27  28
ATOM     28  C   UNL     1     160.355 151.002 162.156  1.00  0.00    -0.000 C 
BRANCH  28  29
ATOM     29  C   UNL     1     159.369 152.116 161.771  1.00  0.00    -0.003 C 
ATOM     30  C   UNL     1     159.317 152.304 160.258  1.00  0.00     0.004 C 
ENDBRANCH  28  29
ENDBRANCH  27  28
ENDBRANCH  26  27
ENDBRANCH  25  26
ENDBRANCH  24  25
ENDBRANCH  23  24
ENDBRANCH  22  23
ENDBRANCH  21  22
ENDBRANCH  20  21
ENDBRANCH  19  20
ENDBRANCH  18  19
ENDBRANCH  17  18
ENDBRANCH   1  17
TORSDOF 26
ENDMDL
MODEL 4
REMARK VINA RESULT:    -3.252      3.248      7.077
REMARK INTER + INTRA:         -13.053
REMARK INTER:                  -7.915
REMARK INTRA:                  -5.138
REMARK UNBOUND:                -4.856
REMARK SMILES CCCCCCCCCCCCCCCCCCCCCCCCCCCC(=O)[O-]
REMARK SMILES IDX 15 1 16 2 17 3 18 4 19 5 20 6 21 7 22 8 23 9 24 10 25 11
REMARK SMILES IDX 26 12 27 13 28 14 29 15 30 16 14 17 13 18 12 19 11 20 10 21
REMARK SMILES IDX 9 22 8 23 7 24 6 25 5 26 4 27 3 28 2 29 1 30
REMARK H PARENT
REMARK Flexibility Score: inf
ROOT
ATOM      1  C   UNL     1     162.147 155.497 162.888  1.00  0.00     0.000 C 
ENDROOT
BRANCH   1   2
ATOM      2  C   UNL     1     161.355 155.055 164.129  1.00  0.00     0.000 C 
BRANCH   2   3
ATOM      3  C   UNL     1     161.378 156.107 165.249  1.00  0.00     0.000 C 
BRANCH   3   4
ATOM      4  C   UNL     1     162.790 156.685 165.429  1.00  0.00     0.000 C 
BRANCH   4   5
ATOM      5  C   UNL     1     163.641 155.870 166.416  1.00  0.00     0.000 C 
BRANCH   5   6
ATOM      6  C   UNL     1     164.949 155.358 165.786  1.00  0.00     0.000 C 
BRANCH   6   7
ATOM      7  C   UNL     1     165.440 156.252 164.636  1.00  0.00     0.000 C 
BRANCH   7   8
ATOM      8  C   UNL     1     166.861 155.890 164.172  1.00  0.00     0.000 C 
BRANCH   8   9
ATOM      9  C   UNL     1     166.908 155.463 162.697  1.00  0.00     0.000 C 
BRANCH   9  10
ATOM     10  C   UNL     1     166.968 153.936 162.521  1.00  0.00     0.000 C 
BRANCH  10  11
ATOM     11  C   UNL     1     167.463 153.210 163.783  1.00  0.00     0.000 C 
BRANCH  11  12
ATOM     12  C   UNL     1     166.841 151.810 163.974  1.00  0.00     0.006 C 
BRANCH  12  13
ATOM     13  C   UNL     1     166.083 151.689 165.303  1.00  0.00     0.053 C 
BRANCH  13  14
ATOM     14  C   UNL     1     165.681 150.269 165.552  1.00  0.00     0.041 C 
ATOM     15  O   UNL     1     166.473 149.330 165.279  1.00  0.00    -0.550 OA
ATOM     16  O   UNL     1     164.417 149.981 166.052  1.00  0.00    -0.550 OA
ENDBRANCH  13  14
ENDBRANCH  12  13
ENDBRANCH  11  12
ENDBRANCH  10  11
ENDBRANCH   9  10
ENDBRANCH   8   9
ENDBRANCH   7   8
ENDBRANCH   6   7
ENDBRANCH   5   6
ENDBRANCH   4   5
ENDBRANCH   3   4
ENDBRANCH   2   3
ENDBRANCH   1   2
BRANCH   1  17
ATOM     17  C   UNL     1     163.127 154.417 162.398  1.00  0.00     0.000 C 
BRANCH  17  18
ATOM     18  C   UNL     1     163.417 153.355 163.471  1.00  0.00     0.000 C 
BRANCH  18  19
ATOM     19  C   UNL     1     163.101 151.929 162.986  1.00  0.00     0.000 C 
BRANCH  19  20
ATOM     20  C   UNL     1     162.036 151.232 163.848  1.00  0.00     0.000 C 
BRANCH  20  21
ATOM     21  C   UNL     1     160.603 151.539 163.379  1.00  0.00     0.000 C 
BRANCH  21  22
ATOM     22  C   UNL     1     160.503 151.664 161.848  1.00  0.00    -0.000 C 
BRANCH  22  23
ATOM     23  C   UNL     1     159.754 152.935 161.412  1.00  0.00    -0.000 C 
BRANCH  23  24
ATOM     24  C   UNL     1     159.127 152.809 160.012  1.00  0.00    -0.000 C 
BRANCH  24  25
ATOM     25  C   UNL     1     160.042 153.228 158.845  1.00  0.00    -0.000 C 
BRANCH  25  26
ATOM     26  C   UNL     1     161.277 154.057 159.249  1.00  0.00    -0.000 C 
BRANCH  26  27
ATOM     27  C   UNL     1     162.631 153.340 159.073  1.00  0.00    -0.000 C 
BRANCH  27  28
ATOM     28  C   UNL     1     163.716 154.167 158.360  1.00  0.00    -0.000 C 
BRANCH  28  29
ATOM     29  C   UNL     1     163.133 155.235 157.423  1.00  0.00    -0.003 C 
ATOM     30  C   UNL     1     163.599 155.019 155.986  1.00  0.00     0.004 C 
ENDBRANCH  28  29
ENDBRANCH  27  28
ENDBRANCH  26  27
ENDBRANCH  25  26
ENDBRANCH  24  25
ENDBRANCH  23  24
ENDBRANCH  22  23
ENDBRANCH  21  22
ENDBRANCH  20  21
ENDBRANCH  19  20
ENDBRANCH  18  19
ENDBRANCH  17  18
ENDBRANCH   1  17
TORSDOF 26
ENDMDL
MODEL 5
REMARK VINA RESULT:    -3.206      3.386      7.837
REMARK INTER + INTRA:         -12.934
REMARK INTER:                  -8.719
REMARK INTRA:                  -4.216
REMARK UNBOUND:                -4.856
REMARK SMILES CCCCCCCCCCCCCCCCCCCCCCCCCCCC(=O)[O-]
REMARK SMILES IDX 15 1 16 2 17 3 18 4 19 5 20 6 21 7 22 8 23 9 24 10 25 11
REMARK SMILES IDX 26 12 27 13 28 14 29 15 30 16 14 17 13 18 12 19 11 20 10 21
REMARK SMILES IDX 9 22 8 23 7 24 6 25 5 26 4 27 3 28 2 29 1 30
REMARK H PARENT
REMARK Flexibility Score: inf
ROOT
ATOM      1  C   UNL     1     165.104 152.971 162.431  1.00  0.00     0.000 C 
ENDROOT
BRANCH   1   2
ATOM      2  C   UNL     1     165.313 154.336 163.105  1.00  0.00     0.000 C 
BRANCH   2   3
ATOM      3  C   UNL     1     165.197 154.262 164.636  1.00  0.00     0.000 C 
BRANCH   3   4
ATOM      4  C   UNL     1     164.951 155.655 165.235  1.00  0.00     0.000 C 
BRANCH   4   5
ATOM      5  C   UNL     1     163.992 155.621 166.436  1.00  0.00     0.000 C 
BRANCH   5   6
ATOM      6  C   UNL     1     163.045 156.834 166.469  1.00  0.00     0.000 C 
BRANCH   6   7
ATOM      7  C   UNL     1     163.211 157.747 165.243  1.00  0.00     0.000 C 
BRANCH   7   8
ATOM      8  C   UNL     1     161.890 157.964 164.486  1.00  0.00     0.000 C 
BRANCH   8   9
ATOM      9  C   UNL     1     161.073 156.671 164.343  1.00  0.00     0.000 C 
BRANCH   9  10
ATOM     10  C   UNL     1     161.720 155.663 163.377  1.00  0.00     0.000 C 
BRANCH  10  11
ATOM     11  C   UNL     1     161.681 154.220 163.908  1.00  0.00     0.000 C 
BRANCH  11  12
ATOM     12  C   UNL     1     161.226 153.187 162.855  1.00  0.00     0.006 C 
BRANCH  12  13
ATOM     13  C   UNL     1     161.451 151.743 163.323  1.00  0.00     0.053 C 
BRANCH  13  14
ATOM     14  C   UNL     1     160.153 151.103 163.701  1.00  0.00     0.041 C 
ATOM     15  O   UNL     1     159.098 151.790 163.745  1.00  0.00    -0.550 OA
ATOM     16  O   UNL     1     160.113 149.757 164.040  1.00  0.00    -0.550 OA
ENDBRANCH  13  14
ENDBRANCH  12  13
ENDBRANCH  11  12
ENDBRANCH  10  11
ENDBRANCH   9  10
ENDBRANCH   8   9
ENDBRANCH   7   8
ENDBRANCH   6   7
ENDBRANCH   5   6
ENDBRANCH   4   5
ENDBRANCH   3   4
ENDBRANCH   2   3
ENDBRANCH   1   2
BRANCH   1  17
ATOM     17  C   UNL     1     164.468 153.093 161.035  1.00  0.00     0.000 C 
BRANCH  17  18
ATOM     18  C   UNL     1     164.783 154.438 160.360  1.00  0.00     0.000 C 
BRANCH  18  19
ATOM     19  C   UNL     1     163.513 155.229 160.004  1.00  0.00     0.000 C 
BRANCH  19  20
ATOM     20  C   UNL     1     162.366 154.324 159.523  1.00  0.00     0.000 C 
BRANCH  20  21
ATOM     21  C   UNL     1     161.888 154.680 158.105  1.00  0.00     0.000 C 
BRANCH  21  22
ATOM     22  C   UNL     1     162.560 153.812 157.026  1.00  0.00    -0.000 C 
BRANCH  22  23
ATOM     23  C   UNL     1     162.921 154.617 155.767  1.00  0.00    -0.000 C 
BRANCH  23  24
ATOM     24  C   UNL     1     164.321 155.253 155.845  1.00  0.00    -0.000 C 
BRANCH  24  25
ATOM     25  C   UNL     1     165.341 154.484 156.707  1.00  0.00    -0.000 C 
BRANCH  25  26
ATOM     26  C   UNL     1     166.638 155.253 157.026  1.00  0.00    -0.000 C 
BRANCH  26  27
ATOM     27  C   UNL     1     167.511 155.597 155.802  1.00  0.00    -0.000 C 
BRANCH  27  28
ATOM     28  C   UNL     1     167.540 157.089 155.424  1.00  0.00    -0.000 C 
BRANCH  28  29
ATOM     29  C   UNL     1     167.231 157.335 153.940  1.00  0.00    -0.003 C 
ATOM     30  C   UNL     1     165.927 158.111 153.772  1.00  0.00     0.004 C 
ENDBRANCH  28  29
ENDBRANCH  27  28
ENDBRANCH  26  27
ENDBRANCH  25  26
ENDBRANCH  24  25
ENDBRANCH  23  24
ENDBRANCH  22  23
ENDBRANCH  21  22
ENDBRANCH  20  21
ENDBRANCH  19  20
ENDBRANCH  18  19
ENDBRANCH  17  18
ENDBRANCH   1  17
TORSDOF 26
ENDMDL
MODEL 6
REMARK VINA RESULT:    -3.192      3.106      7.382
REMARK INTER + INTRA:         -12.899
REMARK INTER:                  -8.255
REMARK INTRA:                  -4.644
REMARK UNBOUND:                -4.856
REMARK SMILES CCCCCCCCCCCCCCCCCCCCCCCCCCCC(=O)[O-]
REMARK SMILES IDX 15 1 16 2 17 3 18 4 19 5 20 6 21 7 22 8 23 9 24 10 25 11
REMARK SMILES IDX 26 12 27 13 28 14 29 15 30 16 14 17 13 18 12 19 11 20 10 21
REMARK SMILES IDX 9 22 8 23 7 24 6 25 5 26 4 27 3 28 2 29 1 30
REMARK H PARENT
REMARK Flexibility Score: inf
ROOT
ATOM      1  C   UNL     1     167.321 154.725 162.386  1.00  0.00     0.000 C 
ENDROOT
BRANCH   1   2
ATOM      2  C   UNL     1     166.005 154.964 163.143  1.00  0.00     0.000 C 
BRANCH   2   3
ATOM      3  C   UNL     1     165.494 153.699 163.850  1.00  0.00     0.000 C 
BRANCH   3   4
ATOM      4  C   UNL     1     164.885 154.043 165.218  1.00  0.00     0.000 C 
BRANCH   4   5
ATOM      5  C   UNL     1     164.756 155.558 165.444  1.00  0.00     0.000 C 
BRANCH   5   6
ATOM      6  C   UNL     1     163.817 155.903 166.615  1.00  0.00     0.000 C 
BRANCH   6   7
ATOM      7  C   UNL     1     162.992 157.174 166.355  1.00  0.00     0.000 C 
BRANCH   7   8
ATOM      8  C   UNL     1     162.981 157.577 164.871  1.00  0.00     0.000 C 
BRANCH   8   9
ATOM      9  C   UNL     1     161.659 157.221 164.173  1.00  0.00     0.000 C 
BRANCH   9  10
ATOM     10  C   UNL     1     161.740 155.903 163.384  1.00  0.00     0.000 C 
BRANCH  10  11
ATOM     11  C   UNL     1     161.207 154.699 164.179  1.00  0.00     0.000 C 
BRANCH  11  12
ATOM     12  C   UNL     1     160.946 153.451 163.309  1.00  0.00     0.006 C 
BRANCH  12  13
ATOM     13  C   UNL     1     162.053 152.399 163.455  1.00  0.00     0.053 C 
BRANCH  13  14
ATOM     14  C   UNL     1     161.465 151.045 163.697  1.00  0.00     0.041 C 
ATOM     15  O   UNL     1     160.262 150.932 164.050  1.00  0.00    -0.550 OA
ATOM     16  O   UNL     1     162.255 149.910 163.568  1.00  0.00    -0.550 OA
ENDBRANCH  13  14
ENDBRANCH  12  13
ENDBRANCH  11  12
ENDBRANCH  10  11
ENDBRANCH   9  10
ENDBRANCH   8   9
ENDBRANCH   7   8
ENDBRANCH   6   7
ENDBRANCH   5   6
ENDBRANCH   4   5
ENDBRANCH   3   4
ENDBRANCH   2   3
ENDBRANCH   1   2
BRANCH   1  17
ATOM     17  C   UNL     1     167.480 155.657 161.172  1.00  0.00     0.000 C 
BRANCH  17  18
ATOM     18  C   UNL     1     167.525 154.889 159.841  1.00  0.00     0.000 C 
BRANCH  18  19
ATOM     19  C   UNL     1     166.684 153.601 159.878  1.00  0.00     0.000 C 
BRANCH  19  20
ATOM     20  C   UNL     1     165.404 153.704 159.032  1.00  0.00     0.000 C 
BRANCH  20  21
ATOM     21  C   UNL     1     164.543 154.922 159.410  1.00  0.00     0.000 C 
BRANCH  21  22
ATOM     22  C   UNL     1     163.500 154.586 160.491  1.00  0.00    -0.000 C 
BRANCH  22  23
ATOM     23  C   UNL     1     162.080 154.458 159.915  1.00  0.00    -0.000 C 
BRANCH  23  24
ATOM     24  C   UNL     1     161.778 153.048 159.377  1.00  0.00    -0.000 C 
BRANCH  24  25
ATOM     25  C   UNL     1     161.512 152.970 157.861  1.00  0.00    -0.000 C 
BRANCH  25  26
ATOM     26  C   UNL     1     161.341 154.330 157.157  1.00  0.00    -0.000 C 
BRANCH  26  27
ATOM     27  C   UNL     1     162.060 154.458 155.799  1.00  0.00    -0.000 C 
BRANCH  27  28
ATOM     28  C   UNL     1     163.572 154.731 155.887  1.00  0.00    -0.000 C 
BRANCH  28  29
ATOM     29  C   UNL     1     164.423 153.503 155.532  1.00  0.00    -0.003 C 
ATOM     30  C   UNL     1     165.782 153.918 154.976  1.00  0.00     0.004 C 
ENDBRANCH  28  29
ENDBRANCH  27  28
ENDBRANCH  26  27
ENDBRANCH  25  26
ENDBRANCH  24  25
ENDBRANCH  23  24
ENDBRANCH  22  23
ENDBRANCH  21  22
ENDBRANCH  20  21
ENDBRANCH  19  20
ENDBRANCH  18  19
ENDBRANCH  17  18
ENDBRANCH   1  17
TORSDOF 26
ENDMDL
MODEL 7
REMARK VINA RESULT:    -3.156      4.686      7.445
REMARK INTER + INTRA:         -12.808
REMARK INTER:                  -8.091
REMARK INTRA:                  -4.717
REMARK UNBOUND:                -4.856
REMARK SMILES CCCCCCCCCCCCCCCCCCCCCCCCCCCC(=O)[O-]
REMARK SMILES IDX 15 1 16 2 17 3 18 4 19 5 20 6 21 7 22 8 23 9 24 10 25 11
REMARK SMILES IDX 26 12 27 13 28 14 29 15 30 16 14 17 13 18 12 19 11 20 10 21
REMARK SMILES IDX 9 22 8 23 7 24 6 25 5 26 4 27 3 28 2 29 1 30
REMARK H PARENT
REMARK Flexibility Score: inf
ROOT
ATOM      1  C   UNL     1     165.515 151.310 164.884  1.00  0.00     0.000 C 
ENDROOT
BRANCH   1   2
ATOM      2  C   UNL     1     164.742 150.655 163.728  1.00  0.00     0.000 C 
BRANCH   2   3
ATOM      3  C   UNL     1     163.388 150.081 164.175  1.00  0.00     0.000 C 
BRANCH   3   4
ATOM      4  C   UNL     1     163.486 149.481 165.585  1.00  0.00     0.000 C 
BRANCH   4   5
ATOM      5  C   UNL     1     162.439 148.384 165.835  1.00  0.00     0.000 C 
BRANCH   5   6
ATOM      6  C   UNL     1     161.212 148.517 164.915  1.00  0.00     0.000 C 
BRANCH   6   7
ATOM      7  C   UNL     1     159.893 148.613 165.700  1.00  0.00     0.000 C 
BRANCH   7   8
ATOM      8  C   UNL     1     158.925 149.649 165.104  1.00  0.00     0.000 C 
BRANCH   8   9
ATOM      9  C   UNL     1     159.565 150.472 163.976  1.00  0.00     0.000 C 
BRANCH   9  10
ATOM     10  C   UNL     1     158.575 150.805 162.847  1.00  0.00     0.000 C 
BRANCH  10  11
ATOM     11  C   UNL     1     158.350 152.317 162.678  1.00  0.00     0.000 C 
BRANCH  11  12
ATOM     12  C   UNL     1     156.885 152.752 162.900  1.00  0.00     0.006 C 
BRANCH  12  13
ATOM     13  C   UNL     1     155.991 151.581 163.327  1.00  0.00     0.053 C 
BRANCH  13  14
ATOM     14  C   UNL     1     155.469 151.794 164.713  1.00  0.00     0.041 C 
ATOM     15  O   UNL     1     156.269 151.926 165.677  1.00  0.00    -0.550 OA
ATOM     16  O   UNL     1     154.101 151.812 164.947  1.00  0.00    -0.550 OA
ENDBRANCH  13  14
ENDBRANCH  12  13
ENDBRANCH  11  12
ENDBRANCH  10  11
ENDBRANCH   9  10
ENDBRANCH   8   9
ENDBRANCH   7   8
ENDBRANCH   6   7
ENDBRANCH   5   6
ENDBRANCH   4   5
ENDBRANCH   3   4
ENDBRANCH   2   3
ENDBRANCH   1   2
BRANCH   1  17
ATOM     17  C   UNL     1     165.983 152.736 164.546  1.00  0.00     0.000 C 
BRANCH  17  18
ATOM     18  C   UNL     1     164.927 153.800 164.887  1.00  0.00     0.000 C 
BRANCH  18  19
ATOM     19  C   UNL     1     165.414 155.228 164.589  1.00  0.00     0.000 C 
BRANCH  19  20
ATOM     20  C   UNL     1     164.365 156.297 164.935  1.00  0.00     0.000 C 
BRANCH  20  21
ATOM     21  C   UNL     1     163.621 155.992 166.247  1.00  0.00     0.000 C 
BRANCH  21  22
ATOM     22  C   UNL     1     162.093 156.016 166.072  1.00  0.00    -0.000 C 
BRANCH  22  23
ATOM     23  C   UNL     1     161.669 155.832 164.604  1.00  0.00    -0.000 C 
BRANCH  23  24
ATOM     24  C   UNL     1     160.905 154.517 164.363  1.00  0.00    -0.000 C 
BRANCH  24  25
ATOM     25  C   UNL     1     161.722 153.402 163.683  1.00  0.00    -0.000 C 
BRANCH  25  26
ATOM     26  C   UNL     1     161.842 153.521 162.150  1.00  0.00    -0.000 C 
BRANCH  26  27
ATOM     27  C   UNL     1     163.210 153.114 161.568  1.00  0.00    -0.000 C 
BRANCH  27  28
ATOM     28  C   UNL     1     164.159 154.285 161.257  1.00  0.00    -0.000 C 
BRANCH  28  29
ATOM     29  C   UNL     1     165.590 153.826 160.939  1.00  0.00    -0.003 C 
ATOM     30  C   UNL     1     166.577 154.983 161.062  1.00  0.00     0.004 C 
ENDBRANCH  28  29
ENDBRANCH  27  28
ENDBRANCH  26  27
ENDBRANCH  25  26
ENDBRANCH  24  25
ENDBRANCH  23  24
ENDBRANCH  22  23
ENDBRANCH  21  22
ENDBRANCH  20  21
ENDBRANCH  19  20
ENDBRANCH  18  19
ENDBRANCH  17  18
ENDBRANCH   1  17
TORSDOF 26
ENDMDL
MODEL 8
REMARK VINA RESULT:    -3.148      3.005      6.501
REMARK INTER + INTRA:         -12.788
REMARK INTER:                  -7.281
REMARK INTRA:                  -5.507
REMARK UNBOUND:                -4.856
REMARK SMILES CCCCCCCCCCCCCCCCCCCCCCCCCCCC(=O)[O-]
REMARK SMILES IDX 15 1 16 2 17 3 18 4 19 5 20 6 21 7 22 8 23 9 24 10 25 11
REMARK SMILES IDX 26 12 27 13 28 14 29 15 30 16 14 17 13 18 12 19 11 20 10 21
REMARK SMILES IDX 9 22 8 23 7 24 6 25 5 26 4 27 3 28 2 29 1 30
REMARK H PARENT
REMARK Flexibility Score: inf
ROOT
ATOM      1  C   UNL     1     161.721 153.010 163.328  1.00  0.00     0.000 C 
ENDROOT
BRANCH   1   2
ATOM      2  C   UNL     1     161.379 154.302 164.088  1.00  0.00     0.000 C 
BRANCH   2   3
ATOM      3  C   UNL     1     161.733 155.566 163.289  1.00  0.00     0.000 C 
BRANCH   3   4
ATOM      4  C   UNL     1     161.887 156.778 164.221  1.00  0.00     0.000 C 
BRANCH   4   5
ATOM      5  C   UNL     1     161.901 156.384 165.707  1.00  0.00     0.000 C 
BRANCH   5   6
ATOM      6  C   UNL     1     163.267 156.635 166.372  1.00  0.00     0.000 C 
BRANCH   6   7
ATOM      7  C   UNL     1     164.259 155.484 166.134  1.00  0.00     0.000 C 
BRANCH   7   8
ATOM      8  C   UNL     1     165.231 155.772 164.977  1.00  0.00     0.000 C 
BRANCH   8   9
ATOM      9  C   UNL     1     165.480 154.537 164.097  1.00  0.00     0.000 C 
BRANCH   9  10
ATOM     10  C   UNL     1     165.221 153.215 164.839  1.00  0.00     0.000 C 
BRANCH  10  11
ATOM     11  C   UNL     1     166.343 152.185 164.631  1.00  0.00     0.000 C 
BRANCH  11  12
ATOM     12  C   UNL     1     165.832 150.735 164.492  1.00  0.00     0.006 C 
BRANCH  12  13
ATOM     13  C   UNL     1     164.427 150.555 165.082  1.00  0.00     0.053 C 
BRANCH  13  14
ATOM     14  C   UNL     1     163.568 149.749 164.161  1.00  0.00     0.041 C 
ATOM     15  O   UNL     1     163.540 150.012 162.929  1.00  0.00    -0.550 OA
ATOM     16  O   UNL     1     162.769 148.731 164.666  1.00  0.00    -0.550 OA
ENDBRANCH  13  14
ENDBRANCH  12  13
ENDBRANCH  11  12
ENDBRANCH  10  11
ENDBRANCH   9  10
ENDBRANCH   8   9
ENDBRANCH   7   8
ENDBRANCH   6   7
ENDBRANCH   5   6
ENDBRANCH   4   5
ENDBRANCH   3   4
ENDBRANCH   2   3
ENDBRANCH   1   2
BRANCH   1  17
ATOM     17  C   UNL     1     160.474 152.165 163.011  1.00  0.00     0.000 C 
BRANCH  17  18
ATOM     18  C   UNL     1     160.269 151.961 161.501  1.00  0.00     0.000 C 
BRANCH  18  19
ATOM     19  C   UNL     1     160.404 153.272 160.708  1.00  0.00     0.000 C 
BRANCH  19  20
ATOM     20  C   UNL     1     160.859 153.044 159.258  1.00  0.00     0.000 C 
BRANCH  20  21
ATOM     21  C   UNL     1     161.500 154.297 158.636  1.00  0.00     0.000 C 
BRANCH  21  22
ATOM     22  C   UNL     1     163.027 154.162 158.492  1.00  0.00    -0.000 C 
BRANCH  22  23
ATOM     23  C   UNL     1     163.788 154.948 159.573  1.00  0.00    -0.000 C 
BRANCH  23  24
ATOM     24  C   UNL     1     164.077 154.108 160.831  1.00  0.00    -0.000 C 
BRANCH  24  25
ATOM     25  C   UNL     1     164.293 152.604 160.577  1.00  0.00    -0.000 C 
BRANCH  25  26
ATOM     26  C   UNL     1     165.665 152.057 161.016  1.00  0.00    -0.000 C 
BRANCH  26  27
ATOM     27  C   UNL     1     166.873 152.625 160.244  1.00  0.00    -0.000 C 
BRANCH  27  28
ATOM     28  C   UNL     1     167.704 153.667 161.012  1.00  0.00    -0.000 C 
BRANCH  28  29
ATOM     29  C   UNL     1     167.655 155.062 160.369  1.00  0.00    -0.003 C 
ATOM     30  C   UNL     1     167.479 154.963 158.857  1.00  0.00     0.004 C 
ENDBRANCH  28  29
ENDBRANCH  27  28
ENDBRANCH  26  27
ENDBRANCH  25  26
ENDBRANCH  24  25
ENDBRANCH  23  24
ENDBRANCH  22  23
ENDBRANCH  21  22
ENDBRANCH  20  21
ENDBRANCH  19  20
ENDBRANCH  18  19
ENDBRANCH  17  18
ENDBRANCH   1  17
TORSDOF 26
ENDMDL
MODEL 9
REMARK VINA RESULT:    -3.141      4.213      6.623
REMARK INTER + INTRA:         -12.772
REMARK INTER:                  -7.806
REMARK INTRA:                  -4.966
REMARK UNBOUND:                -4.856
REMARK SMILES CCCCCCCCCCCCCCCCCCCCCCCCCCCC(=O)[O-]
REMARK SMILES IDX 15 1 16 2 17 3 18 4 19 5 20 6 21 7 22 8 23 9 24 10 25 11
REMARK SMILES IDX 26 12 27 13 28 14 29 15 30 16 14 17 13 18 12 19 11 20 10 21
REMARK SMILES IDX 9 22 8 23 7 24 6 25 5 26 4 27 3 28 2 29 1 30
REMARK H PARENT
REMARK Flexibility Score: inf
ROOT
ATOM      1  C   UNL     1     163.028 156.721 166.503  1.00  0.00     0.000 C 
ENDROOT
BRANCH   1   2
ATOM      2  C   UNL     1     163.045 157.908 165.527  1.00  0.00     0.000 C 
BRANCH   2   3
ATOM      3  C   UNL     1     161.713 158.078 164.782  1.00  0.00     0.000 C 
BRANCH   3   4
ATOM      4  C   UNL     1     161.009 156.725 164.601  1.00  0.00     0.000 C 
BRANCH   4   5
ATOM      5  C   UNL     1     161.500 155.962 163.361  1.00  0.00     0.000 C 
BRANCH   5   6
ATOM      6  C   UNL     1     161.820 154.487 163.662  1.00  0.00     0.000 C 
BRANCH   6   7
ATOM      7  C   UNL     1     160.560 153.608 163.712  1.00  0.00     0.000 C 
BRANCH   7   8
ATOM      8  C   UNL     1     160.872 152.115 163.511  1.00  0.00     0.000 C 
BRANCH   8   9
ATOM      9  C   UNL     1     162.379 151.841 163.383  1.00  0.00     0.000 C 
BRANCH   9  10
ATOM     10  C   UNL     1     162.723 150.346 163.499  1.00  0.00     0.000 C 
BRANCH  10  11
ATOM     11  C   UNL     1     163.419 149.996 164.825  1.00  0.00     0.000 C 
BRANCH  11  12
ATOM     12  C   UNL     1     163.524 148.478 165.085  1.00  0.00     0.006 C 
BRANCH  12  13
ATOM     13  C   UNL     1     162.231 147.736 164.719  1.00  0.00     0.053 C 
BRANCH  13  14
ATOM     14  C   UNL     1     161.654 147.060 165.922  1.00  0.00     0.041 C 
ATOM     15  O   UNL     1     161.954 145.865 166.182  1.00  0.00    -0.550 OA
ATOM     16  O   UNL     1     160.756 147.737 166.738  1.00  0.00    -0.550 OA
ENDBRANCH  13  14
ENDBRANCH  12  13
ENDBRANCH  11  12
ENDBRANCH  10  11
ENDBRANCH   9  10
ENDBRANCH   8   9
ENDBRANCH   7   8
ENDBRANCH   6   7
ENDBRANCH   5   6
ENDBRANCH   4   5
ENDBRANCH   3   4
ENDBRANCH   2   3
ENDBRANCH   1   2
BRANCH   1  17
ATOM     17  C   UNL     1     164.155 155.711 166.224  1.00  0.00     0.000 C 
BRANCH  17  18
ATOM     18  C   UNL     1     164.936 156.040 164.942  1.00  0.00     0.000 C 
BRANCH  18  19
ATOM     19  C   UNL     1     165.900 154.912 164.536  1.00  0.00     0.000 C 
BRANCH  19  20
ATOM     20  C   UNL     1     165.276 153.516 164.686  1.00  0.00     0.000 C 
BRANCH  20  21
ATOM     21  C   UNL     1     166.306 152.386 164.511  1.00  0.00     0.000 C 
BRANCH  21  22
ATOM     22  C   UNL     1     166.189 151.696 163.141  1.00  0.00    -0.000 C 
BRANCH  22  23
ATOM     23  C   UNL     1     167.020 152.402 162.056  1.00  0.00    -0.000 C 
BRANCH  23  24
ATOM     24  C   UNL     1     166.210 152.698 160.780  1.00  0.00    -0.000 C 
BRANCH  24  25
ATOM     25  C   UNL     1     165.762 154.163 160.616  1.00  0.00    -0.000 C 
BRANCH  25  26
ATOM     26  C   UNL     1     164.388 154.499 161.229  1.00  0.00    -0.000 C 
BRANCH  26  27
ATOM     27  C   UNL     1     163.258 154.737 160.207  1.00  0.00    -0.000 C 
BRANCH  27  28
ATOM     28  C   UNL     1     162.349 153.522 159.949  1.00  0.00    -0.000 C 
BRANCH  28  29
ATOM     29  C   UNL     1     160.858 153.890 159.903  1.00  0.00    -0.003 C 
ATOM     30  C   UNL     1     159.982 152.648 160.039  1.00  0.00     0.004 C 
ENDBRANCH  28  29
ENDBRANCH  27  28
ENDBRANCH  26  27
ENDBRANCH  25  26
ENDBRANCH  24  25
ENDBRANCH  23  24
ENDBRANCH  22  23
ENDBRANCH  21  22
ENDBRANCH  20  21
ENDBRANCH  19  20
ENDBRANCH  18  19
ENDBRANCH  17  18
ENDBRANCH   1  17
TORSDOF 26
ENDMDL
