MODEL 1
REMARK VINA RESULT:    -6.855      0.000      0.000
REMARK INTER + INTRA:          -8.792
REMARK INTER:                  -8.458
REMARK INTRA:                  -0.333
REMARK UNBOUND:                -0.333
REMARK SMILES Oc1cc(O)c2cc(O)c(-c3cc(O)c(O)c(O)c3)[o+]c2c1
REMARK SMILES IDX 10 1 20 2 21 3 22 4 2 5 3 6 4 7 6 8 7 9 8 10 11 11 12 12
REMARK SMILES IDX 13 13 19 14 15 15 17 16 14 17 16 19 18 21 9 23 1 25 5 27
REMARK H PARENT 14 18 16 20 18 22 9 24 1 26 5 28
REMARK Flexibility Score: inf
ROOT
ATOM      1  C   UNL     1     -39.543  22.568  28.803  1.00  0.00     0.402 A 
ATOM      2  O   UNL     1     -38.684  21.743  29.397  1.00  0.00    -0.202 OA
ATOM      3  C   UNL     1     -37.563  22.155  29.981  1.00  0.00     0.368 A 
ATOM      4  C   UNL     1     -36.724  21.213  30.582  1.00  0.00     0.162 A 
ATOM      5  C   UNL     1     -35.540  21.619  31.206  1.00  0.00     0.128 A 
ATOM      6  C   UNL     1     -35.196  22.972  31.230  1.00  0.00     0.093 A 
ATOM      7  C   UNL     1     -36.020  23.936  30.635  1.00  0.00     0.136 A 
ATOM      8  C   UNL     1     -37.220  23.529  29.998  1.00  0.00     0.125 A 
ATOM      9  C   UNL     1     -38.100  24.422  29.364  1.00  0.00     0.078 A 
ATOM     10  C   UNL     1     -39.263  23.946  28.753  1.00  0.00     0.223 A 
ENDROOT
BRANCH   1  11
ATOM     11  C   UNL     1     -40.763  21.988  28.195  1.00  0.00     0.091 A 
ATOM     12  C   UNL     1     -40.654  21.220  27.027  1.00  0.00     0.068 A 
ATOM     13  C   UNL     1     -41.784  20.642  26.437  1.00  0.00     0.162 A 
ATOM     14  C   UNL     1     -42.022  22.143  28.795  1.00  0.00     0.068 A 
ATOM     15  C   UNL     1     -43.054  20.821  27.036  1.00  0.00     0.200 A 
ATOM     16  C   UNL     1     -43.160  21.568  28.217  1.00  0.00     0.162 A 
BRANCH  13  17
ATOM     17  O   UNL     1     -41.599  19.900  25.267  1.00  0.00    -0.504 OA
ATOM     18  H   UNL     1     -40.717  19.817  24.784  1.00  0.00     0.293 HD
ENDBRANCH  13  17
BRANCH  15  19
ATOM     19  O   UNL     1     -44.221  20.275  26.496  1.00  0.00    -0.502 OA
ATOM     20  H   UNL     1     -45.084  20.786  26.380  1.00  0.00     0.293 HD
ENDBRANCH  15  19
BRANCH  16  21
ATOM     21  O   UNL     1     -44.409  21.733  28.815  1.00  0.00    -0.504 OA
ATOM     22  H   UNL     1     -45.260  21.771  28.266  1.00  0.00     0.293 HD
ENDBRANCH  16  21
ENDBRANCH   1  11
BRANCH  10  23
ATOM     23  O   UNL     1     -40.112  24.827  28.081  1.00  0.00    -0.500 OA
ATOM     24  H   UNL     1     -40.868  24.494  27.495  1.00  0.00     0.294 HD
ENDBRANCH  10  23
BRANCH   5  25
ATOM     25  O   UNL     1     -34.700  20.685  31.807  1.00  0.00    -0.507 OA
ATOM     26  H   UNL     1     -35.059  19.823  32.198  1.00  0.00     0.293 HD
ENDBRANCH   5  25
BRANCH   7  27
ATOM     27  O   UNL     1     -35.605  25.269  30.705  1.00  0.00    -0.507 OA
ATOM     28  H   UNL     1     -34.726  25.612  30.347  1.00  0.00     0.293 HD
ENDBRANCH   7  27
TORSDOF 7
ENDMDL
MODEL 2
REMARK VINA RESULT:    -6.795      0.230      1.809
REMARK INTER + INTRA:          -8.718
REMARK INTER:                  -8.372
REMARK INTRA:                  -0.346
REMARK UNBOUND:                -0.333
REMARK SMILES Oc1cc(O)c2cc(O)c(-c3cc(O)c(O)c(O)c3)[o+]c2c1
REMARK SMILES IDX 10 1 20 2 21 3 22 4 2 5 3 6 4 7 6 8 7 9 8 10 11 11 12 12
REMARK SMILES IDX 13 13 19 14 15 15 17 16 14 17 16 19 18 21 9 23 1 25 5 27
REMARK H PARENT 14 18 16 20 18 22 9 24 1 26 5 28
REMARK Flexibility Score: inf
ROOT
ATOM      1  C   UNL     1     -39.519  22.477  28.986  1.00  0.00     0.402 A 
ATOM      2  O   UNL     1     -38.651  21.681  29.605  1.00  0.00    -0.202 OA
ATOM      3  C   UNL     1     -37.548  22.126  30.199  1.00  0.00     0.368 A 
ATOM      4  C   UNL     1     -36.697  21.212  30.826  1.00  0.00     0.162 A 
ATOM      5  C   UNL     1     -35.532  21.654  31.461  1.00  0.00     0.128 A 
ATOM      6  C   UNL     1     -35.219  23.015  31.469  1.00  0.00     0.093 A 
ATOM      7  C   UNL     1     -36.054  23.951  30.848  1.00  0.00     0.136 A 
ATOM      8  C   UNL     1     -37.236  23.508  30.200  1.00  0.00     0.125 A 
ATOM      9  C   UNL     1     -38.126  24.372  29.540  1.00  0.00     0.078 A 
ATOM     10  C   UNL     1     -39.269  23.860  28.920  1.00  0.00     0.223 A 
ENDROOT
BRANCH   1  11
ATOM     11  C   UNL     1     -40.717  21.861  28.370  1.00  0.00     0.091 A 
ATOM     12  C   UNL     1     -41.955  21.960  29.020  1.00  0.00     0.068 A 
ATOM     13  C   UNL     1     -43.111  21.406  28.457  1.00  0.00     0.162 A 
ATOM     14  C   UNL     1     -40.651  21.227  27.120  1.00  0.00     0.068 A 
ATOM     15  C   UNL     1     -43.032  20.748  27.206  1.00  0.00     0.200 A 
ATOM     16  C   UNL     1     -41.799  20.670  26.544  1.00  0.00     0.162 A 
BRANCH  13  17
ATOM     17  O   UNL     1     -44.306  21.534  29.168  1.00  0.00    -0.504 OA
ATOM     18  H   UNL     1     -44.910  20.760  29.404  1.00  0.00     0.293 HD
ENDBRANCH  13  17
BRANCH  15  19
ATOM     19  O   UNL     1     -44.146  20.170  26.591  1.00  0.00    -0.502 OA
ATOM     20  H   UNL     1     -44.814  19.584  27.067  1.00  0.00     0.293 HD
ENDBRANCH  15  19
BRANCH  16  21
ATOM     21  O   UNL     1     -41.724  20.036  25.305  1.00  0.00    -0.504 OA
ATOM     22  H   UNL     1     -42.328  19.257  25.069  1.00  0.00     0.293 HD
ENDBRANCH  16  21
ENDBRANCH   1  11
BRANCH  10  23
ATOM     23  O   UNL     1     -40.127  24.712  28.222  1.00  0.00    -0.500 OA
ATOM     24  H   UNL     1     -41.101  24.479  28.071  1.00  0.00     0.294 HD
ENDBRANCH  10  23
BRANCH   5  25
ATOM     25  O   UNL     1     -34.680  20.748  32.088  1.00  0.00    -0.507 OA
ATOM     26  H   UNL     1     -34.815  19.748  32.003  1.00  0.00     0.293 HD
ENDBRANCH   5  25
BRANCH   7  27
ATOM     27  O   UNL     1     -35.670  25.294  30.904  1.00  0.00    -0.507 OA
ATOM     28  H   UNL     1     -34.737  25.628  30.713  1.00  0.00     0.293 HD
ENDBRANCH   7  27
TORSDOF 7
ENDMDL
MODEL 3
REMARK VINA RESULT:    -6.791     10.079     11.408
REMARK INTER + INTRA:          -8.712
REMARK INTER:                  -8.330
REMARK INTRA:                  -0.382
REMARK UNBOUND:                -0.333
REMARK SMILES Oc1cc(O)c2cc(O)c(-c3cc(O)c(O)c(O)c3)[o+]c2c1
REMARK SMILES IDX 10 1 20 2 21 3 22 4 2 5 3 6 4 7 6 8 7 9 8 10 11 11 12 12
REMARK SMILES IDX 13 13 19 14 15 15 17 16 14 17 16 19 18 21 9 23 1 25 5 27
REMARK H PARENT 14 18 16 20 18 22 9 24 1 26 5 28
REMARK Flexibility Score: inf
ROOT
ATOM      1  C   UNL     1     -36.612  22.625  18.476  1.00  0.00     0.402 A 
ATOM      2  O   UNL     1     -35.771  23.655  18.421  1.00  0.00    -0.202 OA
ATOM      3  C   UNL     1     -34.690  23.756  19.188  1.00  0.00     0.368 A 
ATOM      4  C   UNL     1     -33.865  24.876  19.057  1.00  0.00     0.162 A 
ATOM      5  C   UNL     1     -32.719  25.005  19.848  1.00  0.00     0.128 A 
ATOM      6  C   UNL     1     -32.399  24.010  20.774  1.00  0.00     0.093 A 
ATOM      7  C   UNL     1     -33.209  22.878  20.926  1.00  0.00     0.136 A 
ATOM      8  C   UNL     1     -34.374  22.743  20.126  1.00  0.00     0.125 A 
ATOM      9  C   UNL     1     -35.252  21.651  20.219  1.00  0.00     0.078 A 
ATOM     10  C   UNL     1     -36.383  21.589  19.400  1.00  0.00     0.223 A 
ENDROOT
BRANCH   1  11
ATOM     11  C   UNL     1     -37.777  22.624  17.562  1.00  0.00     0.091 A 
ATOM     12  C   UNL     1     -38.974  23.231  17.968  1.00  0.00     0.068 A 
ATOM     13  C   UNL     1     -40.089  23.266  17.123  1.00  0.00     0.162 A 
ATOM     14  C   UNL     1     -37.694  22.077  16.272  1.00  0.00     0.068 A 
ATOM     15  C   UNL     1     -40.004  22.692  15.832  1.00  0.00     0.200 A 
ATOM     16  C   UNL     1     -38.801  22.106  15.415  1.00  0.00     0.162 A 
BRANCH  13  17
ATOM     17  O   UNL     1     -41.250  23.878  17.602  1.00  0.00    -0.504 OA
ATOM     18  H   UNL     1     -42.177  23.685  17.252  1.00  0.00     0.293 HD
ENDBRANCH  13  17
BRANCH  15  19
ATOM     19  O   UNL     1     -41.080  22.688  14.940  1.00  0.00    -0.502 OA
ATOM     20  H   UNL     1     -41.835  22.019  14.967  1.00  0.00     0.293 HD
ENDBRANCH  15  19
BRANCH  16  21
ATOM     21  O   UNL     1     -38.712  21.554  14.138  1.00  0.00    -0.504 OA
ATOM     22  H   UNL     1     -38.189  22.008  13.398  1.00  0.00     0.293 HD
ENDBRANCH  16  21
ENDBRANCH   1  11
BRANCH  10  23
ATOM     23  O   UNL     1     -37.282  20.529  19.526  1.00  0.00    -0.500 OA
ATOM     24  H   UNL     1     -37.221  19.867  20.291  1.00  0.00     0.294 HD
ENDBRANCH  10  23
BRANCH   5  25
ATOM     25  O   UNL     1     -31.893  26.119  19.722  1.00  0.00    -0.507 OA
ATOM     26  H   UNL     1     -31.865  26.663  18.868  1.00  0.00     0.293 HD
ENDBRANCH   5  25
BRANCH   7  27
ATOM     27  O   UNL     1     -32.817  21.927  21.872  1.00  0.00    -0.507 OA
ATOM     28  H   UNL     1     -32.712  20.942  21.681  1.00  0.00     0.293 HD
ENDBRANCH   7  27
TORSDOF 7
ENDMDL
MODEL 4
REMARK VINA RESULT:    -6.708      9.993     12.973
REMARK INTER + INTRA:          -8.610
REMARK INTER:                  -8.301
REMARK INTRA:                  -0.309
REMARK UNBOUND:                -0.333
REMARK SMILES Oc1cc(O)c2cc(O)c(-c3cc(O)c(O)c(O)c3)[o+]c2c1
REMARK SMILES IDX 10 1 20 2 21 3 22 4 2 5 3 6 4 7 6 8 7 9 8 10 11 11 12 12
REMARK SMILES IDX 13 13 19 14 15 15 17 16 14 17 16 19 18 21 9 23 1 25 5 27
REMARK H PARENT 14 18 16 20 18 22 9 24 1 26 5 28
REMARK Flexibility Score: inf
ROOT
ATOM      1  C   UNL     1     -35.865  23.010  18.587  1.00  0.00     0.402 A 
ATOM      2  O   UNL     1     -37.036  23.627  18.726  1.00  0.00    -0.202 OA
ATOM      3  C   UNL     1     -38.050  23.465  17.882  1.00  0.00     0.368 A 
ATOM      4  C   UNL     1     -39.243  24.155  18.112  1.00  0.00     0.162 A 
ATOM      5  C   UNL     1     -40.327  24.001  17.243  1.00  0.00     0.128 A 
ATOM      6  C   UNL     1     -40.216  23.152  16.138  1.00  0.00     0.093 A 
ATOM      7  C   UNL     1     -39.032  22.450  15.885  1.00  0.00     0.136 A 
ATOM      8  C   UNL     1     -37.928  22.605  16.763  1.00  0.00     0.125 A 
ATOM      9  C   UNL     1     -36.698  21.952  16.581  1.00  0.00     0.078 A 
ATOM     10  C   UNL     1     -35.654  22.158  17.487  1.00  0.00     0.223 A 
ENDROOT
BRANCH   1  11
ATOM     11  C   UNL     1     -34.816  23.265  19.600  1.00  0.00     0.091 A 
ATOM     12  C   UNL     1     -34.232  24.537  19.684  1.00  0.00     0.068 A 
ATOM     13  C   UNL     1     -33.251  24.819  20.642  1.00  0.00     0.162 A 
ATOM     14  C   UNL     1     -34.430  22.276  20.518  1.00  0.00     0.068 A 
ATOM     15  C   UNL     1     -32.852  23.809  21.550  1.00  0.00     0.200 A 
ATOM     16  C   UNL     1     -33.451  22.544  21.483  1.00  0.00     0.162 A 
BRANCH  13  17
ATOM     17  O   UNL     1     -32.707  26.105  20.656  1.00  0.00    -0.504 OA
ATOM     18  H   UNL     1     -33.059  26.862  21.223  1.00  0.00     0.293 HD
ENDBRANCH  13  17
BRANCH  15  19
ATOM     19  O   UNL     1     -31.875  24.022  22.527  1.00  0.00    -0.502 OA
ATOM     20  H   UNL     1     -32.065  24.403  23.442  1.00  0.00     0.293 HD
ENDBRANCH  15  19
BRANCH  16  21
ATOM     21  O   UNL     1     -33.069  21.554  22.387  1.00  0.00    -0.504 OA
ATOM     22  H   UNL     1     -33.037  21.730  23.384  1.00  0.00     0.293 HD
ENDBRANCH  16  21
ENDBRANCH   1  11
BRANCH  10  23
ATOM     23  O   UNL     1     -34.416  21.549  17.279  1.00  0.00    -0.500 OA
ATOM     24  H   UNL     1     -34.339  20.565  17.052  1.00  0.00     0.294 HD
ENDBRANCH  10  23
BRANCH   5  25
ATOM     25  O   UNL     1     -41.519  24.685  17.467  1.00  0.00    -0.507 OA
ATOM     26  H   UNL     1     -42.413  24.209  17.458  1.00  0.00     0.293 HD
ENDBRANCH   5  25
BRANCH   7  27
ATOM     27  O   UNL     1     -39.004  21.620  14.760  1.00  0.00    -0.507 OA
ATOM     28  H   UNL     1     -39.209  20.632  14.776  1.00  0.00     0.293 HD
ENDBRANCH   7  27
TORSDOF 7
ENDMDL
MODEL 5
REMARK VINA RESULT:    -6.592     10.114     11.077
REMARK INTER + INTRA:          -8.466
REMARK INTER:                  -8.120
REMARK INTRA:                  -0.346
REMARK UNBOUND:                -0.333
REMARK SMILES Oc1cc(O)c2cc(O)c(-c3cc(O)c(O)c(O)c3)[o+]c2c1
REMARK SMILES IDX 10 1 20 2 21 3 22 4 2 5 3 6 4 7 6 8 7 9 8 10 11 11 12 12
REMARK SMILES IDX 13 13 19 14 15 15 17 16 14 17 16 19 18 21 9 23 1 25 5 27
REMARK H PARENT 14 18 16 20 18 22 9 24 1 26 5 28
REMARK Flexibility Score: inf
ROOT
ATOM      1  C   UNL     1     -36.447  23.883  18.349  1.00  0.00     0.402 A 
ATOM      2  O   UNL     1     -35.914  22.990  19.178  1.00  0.00    -0.202 OA
ATOM      3  C   UNL     1     -34.868  23.250  19.956  1.00  0.00     0.368 A 
ATOM      4  C   UNL     1     -34.380  22.246  20.797  1.00  0.00     0.162 A 
ATOM      5  C   UNL     1     -33.283  22.494  21.628  1.00  0.00     0.128 A 
ATOM      6  C   UNL     1     -32.673  23.751  21.618  1.00  0.00     0.093 A 
ATOM      7  C   UNL     1     -33.143  24.773  20.784  1.00  0.00     0.136 A 
ATOM      8  C   UNL     1     -34.254  24.526  19.937  1.00  0.00     0.125 A 
ATOM      9  C   UNL     1     -34.785  25.486  19.059  1.00  0.00     0.078 A 
ATOM     10  C   UNL     1     -35.880  25.167  18.251  1.00  0.00     0.223 A 
ENDROOT
BRANCH   1  11
ATOM     11  C   UNL     1     -37.619  23.475  17.540  1.00  0.00     0.091 A 
ATOM     12  C   UNL     1     -38.900  23.901  17.917  1.00  0.00     0.068 A 
ATOM     13  C   UNL     1     -40.027  23.550  17.164  1.00  0.00     0.162 A 
ATOM     14  C   UNL     1     -37.470  22.714  16.370  1.00  0.00     0.068 A 
ATOM     15  C   UNL     1     -39.871  22.764  15.998  1.00  0.00     0.200 A 
ATOM     16  C   UNL     1     -38.588  22.357  15.607  1.00  0.00     0.162 A 
BRANCH  13  17
ATOM     17  O   UNL     1     -41.272  24.002  17.609  1.00  0.00    -0.504 OA
ATOM     18  H   UNL     1     -41.838  23.521  18.292  1.00  0.00     0.293 HD
ENDBRANCH  13  17
BRANCH  15  19
ATOM     19  O   UNL     1     -40.954  22.375  15.205  1.00  0.00    -0.502 OA
ATOM     20  H   UNL     1     -41.105  21.433  14.877  1.00  0.00     0.293 HD
ENDBRANCH  15  19
BRANCH  16  21
ATOM     21  O   UNL     1     -38.432  21.596  14.449  1.00  0.00    -0.504 OA
ATOM     22  H   UNL     1     -38.792  20.651  14.382  1.00  0.00     0.293 HD
ENDBRANCH  16  21
ENDBRANCH   1  11
BRANCH  10  23
ATOM     23  O   UNL     1     -36.376  26.104  17.343  1.00  0.00    -0.500 OA
ATOM     24  H   UNL     1     -35.793  26.843  16.970  1.00  0.00     0.294 HD
ENDBRANCH  10  23
BRANCH   5  25
ATOM     25  O   UNL     1     -32.792  21.498  22.469  1.00  0.00    -0.507 OA
ATOM     26  H   UNL     1     -32.919  20.516  22.257  1.00  0.00     0.293 HD
ENDBRANCH   5  25
BRANCH   7  27
ATOM     27  O   UNL     1     -32.479  26.002  20.836  1.00  0.00    -0.507 OA
ATOM     28  H   UNL     1     -31.617  26.205  20.352  1.00  0.00     0.293 HD
ENDBRANCH   7  27
TORSDOF 7
ENDMDL
MODEL 6
REMARK VINA RESULT:    -6.564      9.860     12.813
REMARK INTER + INTRA:          -8.432
REMARK INTER:                  -8.253
REMARK INTRA:                  -0.178
REMARK UNBOUND:                -0.333
REMARK SMILES Oc1cc(O)c2cc(O)c(-c3cc(O)c(O)c(O)c3)[o+]c2c1
REMARK SMILES IDX 10 1 20 2 21 3 22 4 2 5 3 6 4 7 6 8 7 9 8 10 11 11 12 12
REMARK SMILES IDX 13 13 19 14 15 15 17 16 14 17 16 19 18 21 9 23 1 25 5 27
REMARK H PARENT 14 18 16 20 18 22 9 24 1 26 5 28
REMARK Flexibility Score: inf
ROOT
ATOM      1  C   UNL     1     -35.731  23.023  18.855  1.00  0.00     0.402 A 
ATOM      2  O   UNL     1     -36.912  23.635  18.909  1.00  0.00    -0.202 OA
ATOM      3  C   UNL     1     -37.870  23.452  18.005  1.00  0.00     0.368 A 
ATOM      4  C   UNL     1     -39.080  24.137  18.148  1.00  0.00     0.162 A 
ATOM      5  C   UNL     1     -40.105  23.961  17.215  1.00  0.00     0.128 A 
ATOM      6  C   UNL     1     -39.920  23.095  16.134  1.00  0.00     0.093 A 
ATOM      7  C   UNL     1     -38.718  22.396  15.968  1.00  0.00     0.136 A 
ATOM      8  C   UNL     1     -37.673  22.574  16.912  1.00  0.00     0.125 A 
ATOM      9  C   UNL     1     -36.430  21.927  16.818  1.00  0.00     0.078 A 
ATOM     10  C   UNL     1     -35.446  22.155  17.785  1.00  0.00     0.223 A 
ENDROOT
BRANCH   1  11
ATOM     11  C   UNL     1     -34.750  23.303  19.928  1.00  0.00     0.091 A 
ATOM     12  C   UNL     1     -34.268  22.248  20.715  1.00  0.00     0.068 A 
ATOM     13  C   UNL     1     -33.325  22.473  21.725  1.00  0.00     0.162 A 
ATOM     14  C   UNL     1     -34.246  24.596  20.139  1.00  0.00     0.068 A 
ATOM     15  C   UNL     1     -32.839  23.784  21.946  1.00  0.00     0.200 A 
ATOM     16  C   UNL     1     -33.301  24.836  21.144  1.00  0.00     0.162 A 
BRANCH  13  17
ATOM     17  O   UNL     1     -32.901  21.374  22.476  1.00  0.00    -0.504 OA
ATOM     18  H   UNL     1     -32.677  21.414  23.459  1.00  0.00     0.293 HD
ENDBRANCH  13  17
BRANCH  15  19
ATOM     19  O   UNL     1     -31.901  24.078  22.939  1.00  0.00    -0.502 OA
ATOM     20  H   UNL     1     -31.865  24.953  23.441  1.00  0.00     0.293 HD
ENDBRANCH  15  19
BRANCH  16  21
ATOM     21  O   UNL     1     -32.811  26.124  21.351  1.00  0.00    -0.504 OA
ATOM     22  H   UNL     1     -32.535  26.718  20.578  1.00  0.00     0.293 HD
ENDBRANCH  16  21
ENDBRANCH   1  11
BRANCH  10  23
ATOM     23  O   UNL     1     -34.194  21.551  17.666  1.00  0.00    -0.500 OA
ATOM     24  H   UNL     1     -34.096  20.559  17.486  1.00  0.00     0.294 HD
ENDBRANCH  10  23
BRANCH   5  25
ATOM     25  O   UNL     1     -41.313  24.640  17.352  1.00  0.00    -0.507 OA
ATOM     26  H   UNL     1     -41.797  25.027  16.550  1.00  0.00     0.293 HD
ENDBRANCH   5  25
BRANCH   7  27
ATOM     27  O   UNL     1     -38.614  21.548  14.862  1.00  0.00    -0.507 OA
ATOM     28  H   UNL     1     -37.789  21.016  14.628  1.00  0.00     0.293 HD
ENDBRANCH   7  27
TORSDOF 7
ENDMDL
MODEL 7
REMARK VINA RESULT:    -6.448      2.079      2.128
REMARK INTER + INTRA:          -8.289
REMARK INTER:                  -7.946
REMARK INTRA:                  -0.343
REMARK UNBOUND:                -0.333
REMARK SMILES Oc1cc(O)c2cc(O)c(-c3cc(O)c(O)c(O)c3)[o+]c2c1
REMARK SMILES IDX 10 1 20 2 21 3 22 4 2 5 3 6 4 7 6 8 7 9 8 10 11 11 12 12
REMARK SMILES IDX 13 13 19 14 15 15 17 16 14 17 16 19 18 21 9 23 1 25 5 27
REMARK H PARENT 14 18 16 20 18 22 9 24 1 26 5 28
REMARK Flexibility Score: inf
ROOT
ATOM      1  C   UNL     1     -39.057  23.719  28.048  1.00  0.00     0.402 A 
ATOM      2  O   UNL     1     -38.310  22.620  28.117  1.00  0.00    -0.202 OA
ATOM      3  C   UNL     1     -37.082  22.603  28.625  1.00  0.00     0.368 A 
ATOM      4  C   UNL     1     -36.375  21.398  28.658  1.00  0.00     0.162 A 
ATOM      5  C   UNL     1     -35.083  21.352  29.189  1.00  0.00     0.128 A 
ATOM      6  C   UNL     1     -34.496  22.516  29.690  1.00  0.00     0.093 A 
ATOM      7  C   UNL     1     -35.182  23.736  29.669  1.00  0.00     0.136 A 
ATOM      8  C   UNL     1     -36.493  23.789  29.128  1.00  0.00     0.125 A 
ATOM      9  C   UNL     1     -37.251  24.969  29.053  1.00  0.00     0.078 A 
ATOM     10  C   UNL     1     -38.535  24.944  28.503  1.00  0.00     0.223 A 
ENDROOT
BRANCH   1  11
ATOM     11  C   UNL     1     -40.415  23.606  27.468  1.00  0.00     0.091 A 
ATOM     12  C   UNL     1     -40.631  23.984  26.136  1.00  0.00     0.068 A 
ATOM     13  C   UNL     1     -41.898  23.872  25.550  1.00  0.00     0.162 A 
ATOM     14  C   UNL     1     -41.484  23.076  28.208  1.00  0.00     0.068 A 
ATOM     15  C   UNL     1     -42.975  23.357  26.310  1.00  0.00     0.200 A 
ATOM     16  C   UNL     1     -42.755  22.957  27.635  1.00  0.00     0.162 A 
BRANCH  13  17
ATOM     17  O   UNL     1     -42.038  24.280  24.222  1.00  0.00    -0.504 OA
ATOM     18  H   UNL     1     -42.377  25.188  23.941  1.00  0.00     0.293 HD
ENDBRANCH  13  17
BRANCH  15  19
ATOM     19  O   UNL     1     -44.264  23.224  25.789  1.00  0.00    -0.502 OA
ATOM     20  H   UNL     1     -44.812  22.378  25.843  1.00  0.00     0.293 HD
ENDBRANCH  15  19
BRANCH  16  21
ATOM     21  O   UNL     1     -43.813  22.435  28.379  1.00  0.00    -0.504 OA
ATOM     22  H   UNL     1     -44.546  23.029  28.748  1.00  0.00     0.293 HD
ENDBRANCH  16  21
ENDBRANCH   1  11
BRANCH  10  23
ATOM     23  O   UNL     1     -39.269  26.125  28.383  1.00  0.00    -0.500 OA
ATOM     24  H   UNL     1     -39.223  26.854  29.084  1.00  0.00     0.294 HD
ENDBRANCH  10  23
BRANCH   5  25
ATOM     25  O   UNL     1     -34.374  20.154  29.225  1.00  0.00    -0.507 OA
ATOM     26  H   UNL     1     -34.636  19.366  28.645  1.00  0.00     0.293 HD
ENDBRANCH   5  25
BRANCH   7  27
ATOM     27  O   UNL     1     -34.525  24.854  30.193  1.00  0.00    -0.507 OA
ATOM     28  H   UNL     1     -33.712  24.809  30.788  1.00  0.00     0.293 HD
ENDBRANCH   7  27
TORSDOF 7
ENDMDL
MODEL 8
REMARK VINA RESULT:    -6.396      2.400      2.902
REMARK INTER + INTRA:          -8.225
REMARK INTER:                  -7.841
REMARK INTRA:                  -0.383
REMARK UNBOUND:                -0.333
REMARK SMILES Oc1cc(O)c2cc(O)c(-c3cc(O)c(O)c(O)c3)[o+]c2c1
REMARK SMILES IDX 10 1 20 2 21 3 22 4 2 5 3 6 4 7 6 8 7 9 8 10 11 11 12 12
REMARK SMILES IDX 13 13 19 14 15 15 17 16 14 17 16 19 18 21 9 23 1 25 5 27
REMARK H PARENT 14 18 16 20 18 22 9 24 1 26 5 28
REMARK Flexibility Score: inf
ROOT
ATOM      1  C   UNL     1     -40.027  23.358  29.127  1.00  0.00     0.402 A 
ATOM      2  O   UNL     1     -38.956  23.711  28.421  1.00  0.00    -0.202 OA
ATOM      3  C   UNL     1     -37.960  24.436  28.920  1.00  0.00     0.368 A 
ATOM      4  C   UNL     1     -36.874  24.755  28.102  1.00  0.00     0.162 A 
ATOM      5  C   UNL     1     -35.811  25.514  28.602  1.00  0.00     0.128 A 
ATOM      6  C   UNL     1     -35.836  25.954  29.927  1.00  0.00     0.093 A 
ATOM      7  C   UNL     1     -36.912  25.648  30.769  1.00  0.00     0.136 A 
ATOM      8  C   UNL     1     -37.994  24.881  30.265  1.00  0.00     0.125 A 
ATOM      9  C   UNL     1     -39.121  24.538  31.031  1.00  0.00     0.078 A 
ATOM     10  C   UNL     1     -40.150  23.782  30.463  1.00  0.00     0.223 A 
ENDROOT
BRANCH   1  11
ATOM     11  C   UNL     1     -41.066  22.540  28.460  1.00  0.00     0.091 A 
ATOM     12  C   UNL     1     -42.044  23.170  27.678  1.00  0.00     0.068 A 
ATOM     13  C   UNL     1     -43.029  22.426  27.018  1.00  0.00     0.162 A 
ATOM     14  C   UNL     1     -41.060  21.139  28.547  1.00  0.00     0.068 A 
ATOM     15  C   UNL     1     -43.030  21.015  27.129  1.00  0.00     0.200 A 
ATOM     16  C   UNL     1     -42.038  20.382  27.890  1.00  0.00     0.162 A 
BRANCH  13  17
ATOM     17  O   UNL     1     -43.978  23.124  26.267  1.00  0.00    -0.504 OA
ATOM     18  H   UNL     1     -44.447  22.748  25.457  1.00  0.00     0.293 HD
ENDBRANCH  13  17
BRANCH  15  19
ATOM     19  O   UNL     1     -43.986  20.213  26.500  1.00  0.00    -0.502 OA
ATOM     20  H   UNL     1     -43.768  19.503  25.817  1.00  0.00     0.293 HD
ENDBRANCH  15  19
BRANCH  16  21
ATOM     21  O   UNL     1     -42.029  18.991  27.987  1.00  0.00    -0.504 OA
ATOM     22  H   UNL     1     -41.331  18.502  28.535  1.00  0.00     0.293 HD
ENDBRANCH  16  21
ENDBRANCH   1  11
BRANCH  10  23
ATOM     23  O   UNL     1     -41.292  23.483  31.208  1.00  0.00    -0.500 OA
ATOM     24  H   UNL     1     -41.285  23.495  32.221  1.00  0.00     0.294 HD
ENDBRANCH  10  23
BRANCH   5  25
ATOM     25  O   UNL     1     -34.726  25.835  27.791  1.00  0.00    -0.507 OA
ATOM     26  H   UNL     1     -33.772  25.710  28.108  1.00  0.00     0.293 HD
ENDBRANCH   5  25
BRANCH   7  27
ATOM     27  O   UNL     1     -36.858  26.125  32.082  1.00  0.00    -0.507 OA
ATOM     28  H   UNL     1     -36.924  25.541  32.903  1.00  0.00     0.293 HD
ENDBRANCH   7  27
TORSDOF 7
ENDMDL
MODEL 9
REMARK VINA RESULT:    -6.386      1.131      2.496
REMARK INTER + INTRA:          -8.213
REMARK INTER:                  -7.874
REMARK INTRA:                  -0.339
REMARK UNBOUND:                -0.333
REMARK SMILES Oc1cc(O)c2cc(O)c(-c3cc(O)c(O)c(O)c3)[o+]c2c1
REMARK SMILES IDX 10 1 20 2 21 3 22 4 2 5 3 6 4 7 6 8 7 9 8 10 11 11 12 12
REMARK SMILES IDX 13 13 19 14 15 15 17 16 14 17 16 19 18 21 9 23 1 25 5 27
REMARK H PARENT 14 18 16 20 18 22 9 24 1 26 5 28
REMARK Flexibility Score: inf
ROOT
ATOM      1  C   UNL     1     -39.378  21.944  29.139  1.00  0.00     0.402 A 
ATOM      2  O   UNL     1     -38.707  23.014  28.720  1.00  0.00    -0.202 OA
ATOM      3  C   UNL     1     -37.562  23.416  29.263  1.00  0.00     0.368 A 
ATOM      4  C   UNL     1     -36.928  24.551  28.751  1.00  0.00     0.162 A 
ATOM      5  C   UNL     1     -35.721  24.994  29.301  1.00  0.00     0.128 A 
ATOM      6  C   UNL     1     -35.145  24.296  30.365  1.00  0.00     0.093 A 
ATOM      7  C   UNL     1     -35.760  23.155  30.896  1.00  0.00     0.136 A 
ATOM      8  C   UNL     1     -36.986  22.704  30.344  1.00  0.00     0.125 A 
ATOM      9  C   UNL     1     -37.680  21.579  30.819  1.00  0.00     0.078 A 
ATOM     10  C   UNL     1     -38.887  21.197  30.226  1.00  0.00     0.223 A 
ENDROOT
BRANCH   1  11
ATOM     11  C   UNL     1     -40.639  21.594  28.447  1.00  0.00     0.091 A 
ATOM     12  C   UNL     1     -40.588  20.889  27.235  1.00  0.00     0.068 A 
ATOM     13  C   UNL     1     -41.761  20.525  26.563  1.00  0.00     0.162 A 
ATOM     14  C   UNL     1     -41.889  21.902  29.004  1.00  0.00     0.068 A 
ATOM     15  C   UNL     1     -43.018  20.859  27.121  1.00  0.00     0.200 A 
ATOM     16  C   UNL     1     -43.070  21.542  28.344  1.00  0.00     0.162 A 
BRANCH  13  17
ATOM     17  O   UNL     1     -41.631  19.835  25.356  1.00  0.00    -0.504 OA
ATOM     18  H   UNL     1     -42.263  19.936  24.575  1.00  0.00     0.293 HD
ENDBRANCH  13  17
BRANCH  15  19
ATOM     19  O   UNL     1     -44.226  20.530  26.501  1.00  0.00    -0.502 OA
ATOM     20  H   UNL     1     -45.096  21.015  26.662  1.00  0.00     0.293 HD
ENDBRANCH  15  19
BRANCH  16  21
ATOM     21  O   UNL     1     -44.309  21.858  28.902  1.00  0.00    -0.504 OA
ATOM     22  H   UNL     1     -44.456  22.721  29.413  1.00  0.00     0.293 HD
ENDBRANCH  16  21
ENDBRANCH   1  11
BRANCH  10  23
ATOM     23  O   UNL     1     -39.601  20.109  30.730  1.00  0.00    -0.500 OA
ATOM     24  H   UNL     1     -39.511  19.183  30.332  1.00  0.00     0.294 HD
ENDBRANCH  10  23
BRANCH   5  25
ATOM     25  O   UNL     1     -35.085  26.125  28.796  1.00  0.00    -0.507 OA
ATOM     26  H   UNL     1     -35.592  26.830  28.276  1.00  0.00     0.293 HD
ENDBRANCH   5  25
BRANCH   7  27
ATOM     27  O   UNL     1     -35.117  22.513  31.959  1.00  0.00    -0.507 OA
ATOM     28  H   UNL     1     -35.069  22.877  32.899  1.00  0.00     0.293 HD
ENDBRANCH   7  27
TORSDOF 7
ENDMDL
