MODEL 1
REMARK VINA RESULT:    12.185      0.000      0.000
REMARK INTER + INTRA:          14.099
REMARK INTER:                  14.322
REMARK INTRA:                  -0.224
REMARK UNBOUND:                -0.224
REMARK SMILES O=c1c(O)c(-c2ccc(O)cc2)oc2cc(O)cc(O)c12
REMARK SMILES IDX 5 1 3 2 2 3 1 4 21 5 19 6 18 7 16 8 15 9 14 10 13 11 6 12
REMARK SMILES IDX 7 13 8 14 9 15 12 16 11 17 10 18 4 20 20 22 17 24
REMARK H PARENT 10 19 4 21 20 23 17 25
REMARK Flexibility Score: inf
ROOT
ATOM      1  C   UNL     1     -19.486  -6.923  12.036  1.00  0.00     0.180 A 
ATOM      2  C   UNL     1     -20.370  -7.664  12.839  1.00  0.00     0.208 A 
ATOM      3  C   UNL     1     -20.665  -8.989  12.484  1.00  0.00     0.238 A 
ATOM      4  O   UNL     1     -21.415  -9.665  13.236  1.00  0.00    -0.285 OA
ATOM      5  C   UNL     1     -20.086  -9.554  11.320  1.00  0.00     0.111 A 
ATOM      6  C   UNL     1     -20.345 -10.873  10.845  1.00  0.00     0.134 A 
ATOM      7  C   UNL     1     -19.616 -11.371   9.758  1.00  0.00     0.093 A 
ATOM      8  C   UNL     1     -18.685 -10.576   9.090  1.00  0.00     0.123 A 
ATOM      9  C   UNL     1     -18.466  -9.264   9.511  1.00  0.00     0.094 A 
ATOM     10  C   UNL     1     -19.152  -8.751  10.615  1.00  0.00     0.146 A 
ATOM     11  O   UNL     1     -18.907  -7.500  10.989  1.00  0.00    -0.452 OA
ENDROOT
BRANCH   1  12
ATOM     12  C   UNL     1     -19.146  -5.512  12.332  1.00  0.00     0.021 A 
ATOM     13  C   UNL     1     -20.096  -4.507  12.088  1.00  0.00     0.016 A 
ATOM     14  C   UNL     1     -19.805  -3.171  12.381  1.00  0.00     0.047 A 
ATOM     15  C   UNL     1     -18.565  -2.827  12.935  1.00  0.00     0.115 A 
ATOM     16  C   UNL     1     -17.911  -5.161  12.906  1.00  0.00     0.016 A 
ATOM     17  C   UNL     1     -17.623  -3.825  13.199  1.00  0.00     0.047 A 
BRANCH  15  18
ATOM     18  O   UNL     1     -18.263  -1.499  13.232  1.00  0.00    -0.508 OA
ATOM     19  H   UNL     1     -17.571  -0.983  12.701  1.00  0.00     0.293 HD
ENDBRANCH  15  18
ENDBRANCH   1  12
BRANCH   2  20
ATOM     20  O   UNL     1     -20.915  -7.095  13.994  1.00  0.00    -0.502 OA
ATOM     21  H   UNL     1     -21.581  -7.584  14.579  1.00  0.00     0.293 HD
ENDBRANCH   2  20
BRANCH   6  22
ATOM     22  O   UNL     1     -21.321 -11.719  11.381  1.00  0.00    -0.507 OA
ATOM     23  H   UNL     1     -21.248 -12.189  12.271  1.00  0.00     0.293 HD
ENDBRANCH   6  22
BRANCH   8  24
ATOM     24  O   UNL     1     -17.990 -11.099   8.002  1.00  0.00    -0.508 OA
ATOM     25  H   UNL     1     -17.683 -10.510   7.236  1.00  0.00     0.293 HD
ENDBRANCH   8  24
TORSDOF 5
ENDMDL
MODEL 2
REMARK VINA RESULT:    12.934      1.146      3.069
REMARK INTER + INTRA:          14.979
REMARK INTER:                  15.128
REMARK INTRA:                  -0.149
REMARK UNBOUND:                -0.224
REMARK SMILES O=c1c(O)c(-c2ccc(O)cc2)oc2cc(O)cc(O)c12
REMARK SMILES IDX 5 1 3 2 2 3 1 4 21 5 19 6 18 7 16 8 15 9 14 10 13 11 6 12
REMARK SMILES IDX 7 13 8 14 9 15 12 16 11 17 10 18 4 20 20 22 17 24
REMARK H PARENT 10 19 4 21 20 23 17 25
REMARK Flexibility Score: inf
ROOT
ATOM      1  C   UNL     1     -18.881  -6.814  11.439  1.00  0.00     0.180 A 
ATOM      2  C   UNL     1     -18.007  -7.174  10.399  1.00  0.00     0.208 A 
ATOM      3  C   UNL     1     -18.072  -8.474   9.874  1.00  0.00     0.238 A 
ATOM      4  O   UNL     1     -17.324  -8.775   8.907  1.00  0.00    -0.285 OA
ATOM      5  C   UNL     1     -19.000  -9.404  10.405  1.00  0.00     0.111 A 
ATOM      6  C   UNL     1     -19.125 -10.759   9.976  1.00  0.00     0.134 A 
ATOM      7  C   UNL     1     -20.165 -11.549  10.481  1.00  0.00     0.093 A 
ATOM      8  C   UNL     1     -21.043 -11.055  11.446  1.00  0.00     0.123 A 
ATOM      9  C   UNL     1     -20.893  -9.750  11.915  1.00  0.00     0.094 A 
ATOM     10  C   UNL     1     -19.887  -8.925  11.404  1.00  0.00     0.146 A 
ATOM     11  O   UNL     1     -19.784  -7.686  11.871  1.00  0.00    -0.452 OA
ENDROOT
BRANCH   1  12
ATOM     12  C   UNL     1     -18.855  -5.470  12.061  1.00  0.00     0.021 A 
ATOM     13  C   UNL     1     -17.722  -5.068  12.788  1.00  0.00     0.016 A 
ATOM     14  C   UNL     1     -17.666  -3.795  13.364  1.00  0.00     0.047 A 
ATOM     15  C   UNL     1     -18.736  -2.904  13.208  1.00  0.00     0.115 A 
ATOM     16  C   UNL     1     -19.916  -4.563  11.891  1.00  0.00     0.016 A 
ATOM     17  C   UNL     1     -19.857  -3.290  12.468  1.00  0.00     0.047 A 
BRANCH  15  18
ATOM     18  O   UNL     1     -18.692  -1.633  13.778  1.00  0.00    -0.508 OA
ATOM     19  H   UNL     1     -18.124  -1.439  14.594  1.00  0.00     0.293 HD
ENDBRANCH  15  18
ENDBRANCH   1  12
BRANCH   2  20
ATOM     20  O   UNL     1     -17.113  -6.235   9.875  1.00  0.00    -0.502 OA
ATOM     21  H   UNL     1     -16.907  -5.361  10.343  1.00  0.00     0.293 HD
ENDBRANCH   2  20
BRANCH   6  22
ATOM     22  O   UNL     1     -18.245 -11.381   9.086  1.00  0.00    -0.507 OA
ATOM     23  H   UNL     1     -18.374 -12.305   8.701  1.00  0.00     0.293 HD
ENDBRANCH   6  22
BRANCH   8  24
ATOM     24  O   UNL     1     -22.056 -11.875  11.937  1.00  0.00    -0.508 OA
ATOM     25  H   UNL     1     -21.923 -12.874  12.049  1.00  0.00     0.293 HD
ENDBRANCH   8  24
TORSDOF 5
ENDMDL
MODEL 3
REMARK VINA RESULT:    14.949      1.637      2.906
REMARK INTER + INTRA:          17.347
REMARK INTER:                  17.347
REMARK INTRA:                  -0.000
REMARK UNBOUND:                -0.224
REMARK SMILES O=c1c(O)c(-c2ccc(O)cc2)oc2cc(O)cc(O)c12
REMARK SMILES IDX 5 1 3 2 2 3 1 4 21 5 19 6 18 7 16 8 15 9 14 10 13 11 6 12
REMARK SMILES IDX 7 13 8 14 9 15 12 16 11 17 10 18 4 20 20 22 17 24
REMARK H PARENT 10 19 4 21 20 23 17 25
REMARK Flexibility Score: inf
ROOT
ATOM      1  C   UNL     1     -19.064  -6.534  11.908  1.00  0.00     0.180 A 
ATOM      2  C   UNL     1     -19.409  -6.845  10.581  1.00  0.00     0.208 A 
ATOM      3  C   UNL     1     -19.530  -8.193  10.208  1.00  0.00     0.238 A 
ATOM      4  O   UNL     1     -19.892  -8.465   9.033  1.00  0.00    -0.285 OA
ATOM      5  C   UNL     1     -19.288  -9.214  11.160  1.00  0.00     0.111 A 
ATOM      6  C   UNL     1     -19.344 -10.612  10.881  1.00  0.00     0.134 A 
ATOM      7  C   UNL     1     -19.217 -11.530  11.931  1.00  0.00     0.093 A 
ATOM      8  C   UNL     1     -18.971 -11.104  13.236  1.00  0.00     0.123 A 
ATOM      9  C   UNL     1     -18.857  -9.741  13.509  1.00  0.00     0.094 A 
ATOM     10  C   UNL     1     -19.016  -8.799  12.489  1.00  0.00     0.146 A 
ATOM     11  O   UNL     1     -18.909  -7.510  12.794  1.00  0.00    -0.452 OA
ENDROOT
BRANCH   1  12
ATOM     12  C   UNL     1     -18.893  -5.137  12.370  1.00  0.00     0.021 A 
ATOM     13  C   UNL     1     -17.675  -4.746  12.951  1.00  0.00     0.016 A 
ATOM     14  C   UNL     1     -17.484  -3.427  13.374  1.00  0.00     0.047 A 
ATOM     15  C   UNL     1     -18.503  -2.480  13.208  1.00  0.00     0.115 A 
ATOM     16  C   UNL     1     -19.904  -4.176  12.189  1.00  0.00     0.016 A 
ATOM     17  C   UNL     1     -19.710  -2.858  12.612  1.00  0.00     0.047 A 
BRANCH  15  18
ATOM     18  O   UNL     1     -18.324  -1.163  13.625  1.00  0.00    -0.508 OA
ATOM     19  H   UNL     1     -17.723  -0.933  14.408  1.00  0.00     0.293 HD
ENDBRANCH  15  18
ENDBRANCH   1  12
BRANCH   2  20
ATOM     20  O   UNL     1     -19.664  -5.823   9.662  1.00  0.00    -0.502 OA
ATOM     21  H   UNL     1     -19.725  -4.850   9.935  1.00  0.00     0.293 HD
ENDBRANCH   2  20
BRANCH   6  22
ATOM     22  O   UNL     1     -19.492 -11.147   9.598  1.00  0.00    -0.507 OA
ATOM     23  H   UNL     1     -19.595 -12.130   9.394  1.00  0.00     0.293 HD
ENDBRANCH   6  22
BRANCH   8  24
ATOM     24  O   UNL     1     -18.834 -12.047  14.252  1.00  0.00    -0.508 OA
ATOM     25  H   UNL     1     -18.001 -12.087  14.829  1.00  0.00     0.293 HD
ENDBRANCH   8  24
TORSDOF 5
ENDMDL
MODEL 4
REMARK VINA RESULT:    14.998      8.737     11.478
REMARK INTER + INTRA:          17.405
REMARK INTER:                  17.673
REMARK INTRA:                  -0.268
REMARK UNBOUND:                -0.224
REMARK SMILES O=c1c(O)c(-c2ccc(O)cc2)oc2cc(O)cc(O)c12
REMARK SMILES IDX 5 1 3 2 2 3 1 4 21 5 19 6 18 7 16 8 15 9 14 10 13 11 6 12
REMARK SMILES IDX 7 13 8 14 9 15 12 16 11 17 10 18 4 20 20 22 17 24
REMARK H PARENT 10 19 4 21 20 23 17 25
REMARK Flexibility Score: inf
ROOT
ATOM      1  C   UNL     1     -20.847   2.889  13.109  1.00  0.00     0.180 A 
ATOM      2  C   UNL     1     -20.286   4.035  13.700  1.00  0.00     0.208 A 
ATOM      3  C   UNL     1     -19.040   3.931  14.339  1.00  0.00     0.238 A 
ATOM      4  O   UNL     1     -18.519   4.971  14.819  1.00  0.00    -0.285 OA
ATOM      5  C   UNL     1     -18.378   2.681  14.394  1.00  0.00     0.111 A 
ATOM      6  C   UNL     1     -17.131   2.453  15.049  1.00  0.00     0.134 A 
ATOM      7  C   UNL     1     -16.505   1.206  14.927  1.00  0.00     0.093 A 
ATOM      8  C   UNL     1     -17.111   0.161  14.229  1.00  0.00     0.123 A 
ATOM      9  C   UNL     1     -18.357   0.356  13.634  1.00  0.00     0.094 A 
ATOM     10  C   UNL     1     -18.990   1.600  13.708  1.00  0.00     0.146 A 
ATOM     11  O   UNL     1     -20.171   1.746  13.119  1.00  0.00    -0.452 OA
ENDROOT
BRANCH   1  12
ATOM     12  C   UNL     1     -22.168   2.914  12.440  1.00  0.00     0.021 A 
ATOM     13  C   UNL     1     -22.231   2.909  11.036  1.00  0.00     0.016 A 
ATOM     14  C   UNL     1     -23.468   2.909  10.383  1.00  0.00     0.047 A 
ATOM     15  C   UNL     1     -24.656   2.900  11.126  1.00  0.00     0.115 A 
ATOM     16  C   UNL     1     -23.364   2.885  13.178  1.00  0.00     0.016 A 
ATOM     17  C   UNL     1     -24.599   2.884  12.523  1.00  0.00     0.047 A 
BRANCH  15  18
ATOM     18  O   UNL     1     -25.894   2.900  10.487  1.00  0.00    -0.508 OA
ATOM     19  H   UNL     1     -26.035   2.415   9.608  1.00  0.00     0.293 HD
ENDBRANCH  15  18
ENDBRANCH   1  12
BRANCH   2  20
ATOM     20  O   UNL     1     -20.947   5.264  13.616  1.00  0.00    -0.502 OA
ATOM     21  H   UNL     1     -21.718   5.509  14.226  1.00  0.00     0.293 HD
ENDBRANCH   2  20
BRANCH   6  22
ATOM     22  O   UNL     1     -16.484   3.400  15.849  1.00  0.00    -0.507 OA
ATOM     23  H   UNL     1     -15.486   3.447  15.990  1.00  0.00     0.293 HD
ENDBRANCH   6  22
BRANCH   8  24
ATOM     24  O   UNL     1     -16.466  -1.071  14.142  1.00  0.00    -0.508 OA
ATOM     25  H   UNL     1     -15.813  -1.380  14.853  1.00  0.00     0.293 HD
ENDBRANCH   8  24
TORSDOF 5
ENDMDL
