MODEL 1
REMARK VINA RESULT:    -1.388      0.000      0.000
REMARK INTER + INTRA:          -3.430
REMARK INTER:                  -2.362
REMARK INTRA:                  -1.068
REMARK UNBOUND:                -1.068
REMARK SMILES CCCCCCCCCCCCCC(=O)[O-]
REMARK SMILES IDX 8 1 9 2 10 3 11 4 12 5 13 6 14 7 15 8 16 9 7 10 6 11 5 12
REMARK SMILES IDX 4 13 3 14 2 15 1 16
REMARK H PARENT
REMARK Flexibility Score: inf
ROOT
ATOM      1  C   UNL     1     -14.761 -38.857  26.176  1.00  0.00     0.000 C 
ENDROOT
BRANCH   1   2
ATOM      2  C   UNL     1     -13.525 -37.940  26.236  1.00  0.00     0.000 C 
BRANCH   2   3
ATOM      3  C   UNL     1     -12.170 -38.648  26.035  1.00  0.00     0.000 C 
BRANCH   3   4
ATOM      4  C   UNL     1     -11.023 -37.742  25.552  1.00  0.00     0.000 C 
BRANCH   4   5
ATOM      5  C   UNL     1     -11.345 -36.245  25.694  1.00  0.00     0.006 C 
BRANCH   5   6
ATOM      6  C   UNL     1     -11.026 -35.716  27.099  1.00  0.00     0.053 C 
BRANCH   6   7
ATOM      7  C   UNL     1     -12.079 -34.770  27.590  1.00  0.00     0.041 C 
ATOM      8  O   UNL     1     -12.002 -33.542  27.325  1.00  0.00    -0.550 OA
ATOM      9  O   UNL     1     -13.162 -35.250  28.317  1.00  0.00    -0.550 OA
ENDBRANCH   6   7
ENDBRANCH   5   6
ENDBRANCH   4   5
ENDBRANCH   3   4
ENDBRANCH   2   3
ENDBRANCH   1   2
BRANCH   1  10
ATOM     10  C   UNL     1     -15.945 -38.317  26.996  1.00  0.00     0.000 C 
BRANCH  10  11
ATOM     11  C   UNL     1     -15.839 -36.806  27.259  1.00  0.00    -0.000 C 
BRANCH  11  12
ATOM     12  C   UNL     1     -16.901 -35.994  26.496  1.00  0.00    -0.000 C 
BRANCH  12  13
ATOM     13  C   UNL     1     -16.612 -35.915  24.989  1.00  0.00    -0.000 C 
BRANCH  13  14
ATOM     14  C   UNL     1     -15.140 -35.600  24.684  1.00  0.00    -0.000 C 
BRANCH  14  15
ATOM     15  C   UNL     1     -14.674 -36.327  23.417  1.00  0.00    -0.003 C 
ATOM     16  C   UNL     1     -15.822 -37.094  22.767  1.00  0.00     0.004 C 
ENDBRANCH  14  15
ENDBRANCH  13  14
ENDBRANCH  12  13
ENDBRANCH  11  12
ENDBRANCH  10  11
ENDBRANCH   1  10
TORSDOF 12
ENDMDL
MODEL 2
REMARK VINA RESULT:    -0.784      2.407      5.126
REMARK INTER + INTRA:          -2.403
REMARK INTER:                  -1.331
REMARK INTRA:                  -1.072
REMARK UNBOUND:                -1.068
REMARK SMILES CCCCCCCCCCCCCC(=O)[O-]
REMARK SMILES IDX 8 1 9 2 10 3 11 4 12 5 13 6 14 7 15 8 16 9 7 10 6 11 5 12
REMARK SMILES IDX 4 13 3 14 2 15 1 16
REMARK H PARENT
REMARK Flexibility Score: inf
ROOT
ATOM      1  C   UNL     1     -15.494 -38.596  26.503  1.00  0.00     0.000 C 
ENDROOT
BRANCH   1   2
ATOM      2  C   UNL     1     -15.503 -37.501  27.586  1.00  0.00     0.000 C 
BRANCH   2   3
ATOM      3  C   UNL     1     -15.657 -36.058  27.062  1.00  0.00     0.000 C 
BRANCH   3   4
ATOM      4  C   UNL     1     -16.970 -35.769  26.314  1.00  0.00     0.000 C 
BRANCH   4   5
ATOM      5  C   UNL     1     -16.853 -35.987  24.796  1.00  0.00     0.006 C 
BRANCH   5   6
ATOM      6  C   UNL     1     -15.397 -35.936  24.315  1.00  0.00     0.053 C 
BRANCH   6   7
ATOM      7  C   UNL     1     -15.245 -36.499  22.935  1.00  0.00     0.041 C 
ATOM      8  O   UNL     1     -15.970 -37.457  22.558  1.00  0.00    -0.550 OA
ATOM      9  O   UNL     1     -14.323 -35.947  22.054  1.00  0.00    -0.550 OA
ENDBRANCH   6   7
ENDBRANCH   5   6
ENDBRANCH   4   5
ENDBRANCH   3   4
ENDBRANCH   2   3
ENDBRANCH   1   2
BRANCH   1  10
ATOM     10  C   UNL     1     -14.182 -38.631  25.702  1.00  0.00     0.000 C 
BRANCH  10  11
ATOM     11  C   UNL     1     -12.948 -38.360  26.578  1.00  0.00    -0.000 C 
BRANCH  11  12
ATOM     12  C   UNL     1     -11.663 -38.170  25.753  1.00  0.00    -0.000 C 
BRANCH  12  13
ATOM     13  C   UNL     1     -11.182 -36.710  25.739  1.00  0.00    -0.000 C 
BRANCH  13  14
ATOM     14  C   UNL     1     -12.260 -35.728  26.222  1.00  0.00    -0.000 C 
BRANCH  14  15
ATOM     15  C   UNL     1     -11.702 -34.788  27.298  1.00  0.00    -0.003 C 
ATOM     16  C   UNL     1     -12.484 -34.916  28.602  1.00  0.00     0.004 C 
ENDBRANCH  14  15
ENDBRANCH  13  14
ENDBRANCH  12  13
ENDBRANCH  11  12
ENDBRANCH  10  11
ENDBRANCH   1  10
TORSDOF 12
ENDMDL
MODEL 3
REMARK VINA RESULT:    -0.650      2.250      4.953
REMARK INTER + INTRA:          -2.174
REMARK INTER:                  -1.551
REMARK INTRA:                  -0.623
REMARK UNBOUND:                -1.068
REMARK SMILES CCCCCCCCCCCCCC(=O)[O-]
REMARK SMILES IDX 8 1 9 2 10 3 11 4 12 5 13 6 14 7 15 8 16 9 7 10 6 11 5 12
REMARK SMILES IDX 4 13 3 14 2 15 1 16
REMARK H PARENT
REMARK Flexibility Score: inf
ROOT
ATOM      1  C   UNL     1     -14.316 -38.856  25.795  1.00  0.00     0.000 C 
ENDROOT
BRANCH   1   2
ATOM      2  C   UNL     1     -15.646 -38.685  26.551  1.00  0.00     0.000 C 
BRANCH   2   3
ATOM      3  C   UNL     1     -15.877 -37.290  27.170  1.00  0.00     0.000 C 
BRANCH   3   4
ATOM      4  C   UNL     1     -16.992 -36.459  26.512  1.00  0.00     0.000 C 
BRANCH   4   5
ATOM      5  C   UNL     1     -16.449 -35.343  25.604  1.00  0.00     0.006 C 
BRANCH   5   6
ATOM      6  C   UNL     1     -15.117 -35.729  24.948  1.00  0.00     0.053 C 
BRANCH   6   7
ATOM      7  C   UNL     1     -15.318 -36.346  23.598  1.00  0.00     0.041 C 
ATOM      8  O   UNL     1     -14.435 -36.228  22.709  1.00  0.00    -0.550 OA
ATOM      9  O   UNL     1     -16.469 -37.078  23.331  1.00  0.00    -0.550 OA
ENDBRANCH   6   7
ENDBRANCH   5   6
ENDBRANCH   4   5
ENDBRANCH   3   4
ENDBRANCH   2   3
ENDBRANCH   1   2
BRANCH   1  10
ATOM     10  C   UNL     1     -13.135 -38.169  26.502  1.00  0.00     0.000 C 
BRANCH  10  11
ATOM     11  C   UNL     1     -11.809 -38.351  25.746  1.00  0.00    -0.000 C 
BRANCH  11  12
ATOM     12  C   UNL     1     -11.020 -37.037  25.603  1.00  0.00    -0.000 C 
BRANCH  12  13
ATOM     13  C   UNL     1     -11.829 -35.812  26.058  1.00  0.00    -0.000 C 
BRANCH  13  14
ATOM     14  C   UNL     1     -11.159 -35.058  27.217  1.00  0.00    -0.000 C 
BRANCH  14  15
ATOM     15  C   UNL     1     -12.132 -34.878  28.389  1.00  0.00    -0.003 C 
ATOM     16  C   UNL     1     -13.557 -35.242  27.984  1.00  0.00     0.004 C 
ENDBRANCH  14  15
ENDBRANCH  13  14
ENDBRANCH  12  13
ENDBRANCH  11  12
ENDBRANCH  10  11
ENDBRANCH   1  10
TORSDOF 12
ENDMDL
MODEL 4
REMARK VINA RESULT:    -0.403      0.839      2.241
REMARK INTER + INTRA:          -1.754
REMARK INTER:                  -1.361
REMARK INTRA:                  -0.393
REMARK UNBOUND:                -1.068
REMARK SMILES CCCCCCCCCCCCCC(=O)[O-]
REMARK SMILES IDX 8 1 9 2 10 3 11 4 12 5 13 6 14 7 15 8 16 9 7 10 6 11 5 12
REMARK SMILES IDX 4 13 3 14 2 15 1 16
REMARK H PARENT
REMARK Flexibility Score: inf
ROOT
ATOM      1  C   UNL     1     -15.019 -38.609  26.425  1.00  0.00     0.000 C 
ENDROOT
BRANCH   1   2
ATOM      2  C   UNL     1     -13.695 -37.895  26.752  1.00  0.00     0.000 C 
BRANCH   2   3
ATOM      3  C   UNL     1     -12.417 -38.679  26.390  1.00  0.00     0.000 C 
BRANCH   3   4
ATOM      4  C   UNL     1     -11.357 -37.879  25.612  1.00  0.00     0.000 C 
BRANCH   4   5
ATOM      5  C   UNL     1     -11.577 -36.359  25.694  1.00  0.00     0.006 C 
BRANCH   5   6
ATOM      6  C   UNL     1     -11.073 -35.772  27.020  1.00  0.00     0.053 C 
BRANCH   6   7
ATOM      7  C   UNL     1     -12.042 -34.787  27.597  1.00  0.00     0.041 C 
ATOM      8  O   UNL     1     -12.941 -35.172  28.389  1.00  0.00    -0.550 OA
ATOM      9  O   UNL     1     -11.933 -33.437  27.285  1.00  0.00    -0.550 OA
ENDBRANCH   6   7
ENDBRANCH   5   6
ENDBRANCH   4   5
ENDBRANCH   3   4
ENDBRANCH   2   3
ENDBRANCH   1   2
BRANCH   1  10
ATOM     10  C   UNL     1     -15.256 -38.764  24.913  1.00  0.00     0.000 C 
BRANCH  10  11
ATOM     11  C   UNL     1     -15.846 -37.495  24.276  1.00  0.00    -0.000 C 
BRANCH  11  12
ATOM     12  C   UNL     1     -14.807 -36.371  24.116  1.00  0.00    -0.000 C 
BRANCH  12  13
ATOM     13  C   UNL     1     -15.093 -35.170  25.030  1.00  0.00    -0.000 C 
BRANCH  13  14
ATOM     14  C   UNL     1     -15.894 -35.557  26.282  1.00  0.00    -0.000 C 
BRANCH  14  15
ATOM     15  C   UNL     1     -17.384 -35.240  26.100  1.00  0.00    -0.003 C 
ATOM     16  C   UNL     1     -18.257 -36.290  26.780  1.00  0.00     0.004 C 
ENDBRANCH  14  15
ENDBRANCH  13  14
ENDBRANCH  12  13
ENDBRANCH  11  12
ENDBRANCH  10  11
ENDBRANCH   1  10
TORSDOF 12
ENDMDL
MODEL 5
REMARK VINA RESULT:    -0.302      2.091      4.658
REMARK INTER + INTRA:          -1.582
REMARK INTER:                  -0.766
REMARK INTRA:                  -0.816
REMARK UNBOUND:                -1.068
REMARK SMILES CCCCCCCCCCCCCC(=O)[O-]
REMARK SMILES IDX 8 1 9 2 10 3 11 4 12 5 13 6 14 7 15 8 16 9 7 10 6 11 5 12
REMARK SMILES IDX 4 13 3 14 2 15 1 16
REMARK H PARENT
REMARK Flexibility Score: inf
ROOT
ATOM      1  C   UNL     1     -14.749 -38.707  26.838  1.00  0.00     0.000 C 
ENDROOT
BRANCH   1   2
ATOM      2  C   UNL     1     -15.519 -38.990  25.535  1.00  0.00     0.000 C 
BRANCH   2   3
ATOM      3  C   UNL     1     -15.089 -38.143  24.320  1.00  0.00     0.000 C 
BRANCH   3   4
ATOM      4  C   UNL     1     -15.890 -36.846  24.109  1.00  0.00     0.000 C 
BRANCH   4   5
ATOM      5  C   UNL     1     -15.156 -35.600  24.632  1.00  0.00     0.006 C 
BRANCH   5   6
ATOM      6  C   UNL     1     -15.475 -35.318  26.106  1.00  0.00     0.053 C 
BRANCH   6   7
ATOM      7  C   UNL     1     -16.918 -35.563  26.423  1.00  0.00     0.041 C 
ATOM      8  O   UNL     1     -17.789 -34.709  26.112  1.00  0.00    -0.550 OA
ATOM      9  O   UNL     1     -17.306 -36.749  27.033  1.00  0.00    -0.550 OA
ENDBRANCH   6   7
ENDBRANCH   5   6
ENDBRANCH   4   5
ENDBRANCH   3   4
ENDBRANCH   2   3
ENDBRANCH   1   2
BRANCH   1  10
ATOM     10  C   UNL     1     -13.518 -37.811  26.622  1.00  0.00     0.000 C 
BRANCH  10  11
ATOM     11  C   UNL     1     -12.257 -38.618  26.268  1.00  0.00    -0.000 C 
BRANCH  11  12
ATOM     12  C   UNL     1     -11.122 -37.736  25.718  1.00  0.00    -0.000 C 
BRANCH  12  13
ATOM     13  C   UNL     1     -11.498 -36.246  25.680  1.00  0.00    -0.000 C 
BRANCH  13  14
ATOM     14  C   UNL     1     -10.888 -35.453  26.845  1.00  0.00    -0.000 C 
BRANCH  14  15
ATOM     15  C   UNL     1     -11.879 -34.409  27.376  1.00  0.00    -0.003 C 
ATOM     16  C   UNL     1     -12.779 -35.002  28.456  1.00  0.00     0.004 C 
ENDBRANCH  14  15
ENDBRANCH  13  14
ENDBRANCH  12  13
ENDBRANCH  11  12
ENDBRANCH  10  11
ENDBRANCH   1  10
TORSDOF 12
ENDMDL
MODEL 6
REMARK VINA RESULT:    -0.193      1.871      3.095
REMARK INTER + INTRA:          -1.396
REMARK INTER:                  -1.344
REMARK INTRA:                  -0.052
REMARK UNBOUND:                -1.068
REMARK SMILES CCCCCCCCCCCCCC(=O)[O-]
REMARK SMILES IDX 8 1 9 2 10 3 11 4 12 5 13 6 14 7 15 8 16 9 7 10 6 11 5 12
REMARK SMILES IDX 4 13 3 14 2 15 1 16
REMARK H PARENT
REMARK Flexibility Score: inf
ROOT
ATOM      1  C   UNL     1     -15.235 -37.336  27.525  1.00  0.00     0.000 C 
ENDROOT
BRANCH   1   2
ATOM      2  C   UNL     1     -14.183 -36.298  27.092  1.00  0.00     0.000 C 
BRANCH   2   3
ATOM      3  C   UNL     1     -13.835 -35.232  28.151  1.00  0.00     0.000 C 
BRANCH   3   4
ATOM      4  C   UNL     1     -12.365 -34.777  28.164  1.00  0.00     0.000 C 
BRANCH   4   5
ATOM      5  C   UNL     1     -11.659 -35.000  26.816  1.00  0.00     0.006 C 
BRANCH   5   6
ATOM      6  C   UNL     1     -10.794 -36.267  26.819  1.00  0.00     0.053 C 
BRANCH   6   7
ATOM      7  C   UNL     1     -11.074 -37.137  25.632  1.00  0.00     0.041 C 
ATOM      8  O   UNL     1     -11.036 -36.655  24.470  1.00  0.00    -0.550 OA
ATOM      9  O   UNL     1     -11.348 -38.488  25.808  1.00  0.00    -0.550 OA
ENDBRANCH   6   7
ENDBRANCH   5   6
ENDBRANCH   4   5
ENDBRANCH   3   4
ENDBRANCH   2   3
ENDBRANCH   1   2
BRANCH   1  10
ATOM     10  C   UNL     1     -15.050 -38.697  26.833  1.00  0.00     0.000 C 
BRANCH  10  11
ATOM     11  C   UNL     1     -15.408 -38.653  25.339  1.00  0.00    -0.000 C 
BRANCH  11  12
ATOM     12  C   UNL     1     -14.568 -37.627  24.556  1.00  0.00    -0.000 C 
BRANCH  12  13
ATOM     13  C   UNL     1     -15.428 -36.717  23.666  1.00  0.00    -0.000 C 
BRANCH  13  14
ATOM     14  C   UNL     1     -16.805 -36.420  24.279  1.00  0.00    -0.000 C 
BRANCH  14  15
ATOM     15  C   UNL     1     -16.703 -35.335  25.358  1.00  0.00    -0.003 C 
ATOM     16  C   UNL     1     -17.764 -35.529  26.437  1.00  0.00     0.004 C 
ENDBRANCH  14  15
ENDBRANCH  13  14
ENDBRANCH  12  13
ENDBRANCH  11  12
ENDBRANCH  10  11
ENDBRANCH   1  10
TORSDOF 12
ENDMDL
MODEL 7
REMARK VINA RESULT:    -0.087      2.011      4.436
REMARK INTER + INTRA:          -1.217
REMARK INTER:                  -0.675
REMARK INTRA:                  -0.542
REMARK UNBOUND:                -1.068
REMARK SMILES CCCCCCCCCCCCCC(=O)[O-]
REMARK SMILES IDX 8 1 9 2 10 3 11 4 12 5 13 6 14 7 15 8 16 9 7 10 6 11 5 12
REMARK SMILES IDX 4 13 3 14 2 15 1 16
REMARK H PARENT
REMARK Flexibility Score: inf
ROOT
ATOM      1  C   UNL     1     -15.498 -38.446  26.742  1.00  0.00     0.000 C 
ENDROOT
BRANCH   1   2
ATOM      2  C   UNL     1     -14.668 -38.560  25.450  1.00  0.00     0.000 C 
BRANCH   2   3
ATOM      3  C   UNL     1     -15.383 -38.094  24.165  1.00  0.00     0.000 C 
BRANCH   3   4
ATOM      4  C   UNL     1     -15.059 -36.658  23.719  1.00  0.00     0.000 C 
BRANCH   4   5
ATOM      5  C   UNL     1     -15.744 -35.593  24.593  1.00  0.00     0.006 C 
BRANCH   5   6
ATOM      6  C   UNL     1     -17.230 -35.897  24.818  1.00  0.00     0.053 C 
BRANCH   6   7
ATOM      7  C   UNL     1     -17.655 -35.597  26.223  1.00  0.00     0.041 C 
ATOM      8  O   UNL     1     -17.303 -34.523  26.776  1.00  0.00    -0.550 OA
ATOM      9  O   UNL     1     -18.466 -36.492  26.911  1.00  0.00    -0.550 OA
ENDBRANCH   6   7
ENDBRANCH   5   6
ENDBRANCH   4   5
ENDBRANCH   3   4
ENDBRANCH   2   3
ENDBRANCH   1   2
BRANCH   1  10
ATOM     10  C   UNL     1     -14.987 -37.341  27.683  1.00  0.00     0.000 C 
BRANCH  10  11
ATOM     11  C   UNL     1     -14.172 -36.267  26.944  1.00  0.00    -0.000 C 
BRANCH  11  12
ATOM     12  C   UNL     1     -13.288 -35.435  27.890  1.00  0.00    -0.000 C 
BRANCH  12  13
ATOM     13  C   UNL     1     -12.039 -34.878  27.192  1.00  0.00    -0.000 C 
BRANCH  13  14
ATOM     14  C   UNL     1     -10.993 -35.963  26.896  1.00  0.00    -0.000 C 
BRANCH  14  15
ATOM     15  C   UNL     1     -11.276 -36.647  25.553  1.00  0.00    -0.003 C 
ATOM     16  C   UNL     1     -11.195 -38.165  25.680  1.00  0.00     0.004 C 
ENDBRANCH  14  15
ENDBRANCH  13  14
ENDBRANCH  12  13
ENDBRANCH  11  12
ENDBRANCH  10  11
ENDBRANCH   1  10
TORSDOF 12
ENDMDL
MODEL 8
REMARK VINA RESULT:    -0.014      1.814      2.850
REMARK INTER + INTRA:          -1.092
REMARK INTER:                  -1.248
REMARK INTRA:                   0.156
REMARK UNBOUND:                -1.068
REMARK SMILES CCCCCCCCCCCCCC(=O)[O-]
REMARK SMILES IDX 8 1 9 2 10 3 11 4 12 5 13 6 14 7 15 8 16 9 7 10 6 11 5 12
REMARK SMILES IDX 4 13 3 14 2 15 1 16
REMARK H PARENT
REMARK Flexibility Score: inf
ROOT
ATOM      1  C   UNL     1     -16.162 -35.280  26.476  1.00  0.00     0.000 C 
ENDROOT
BRANCH   1   2
ATOM      2  C   UNL     1     -14.623 -35.319  26.499  1.00  0.00     0.000 C 
BRANCH   2   3
ATOM      3  C   UNL     1     -13.992 -35.627  27.872  1.00  0.00     0.000 C 
BRANCH   3   4
ATOM      4  C   UNL     1     -12.647 -34.932  28.146  1.00  0.00     0.000 C 
BRANCH   4   5
ATOM      5  C   UNL     1     -11.748 -34.860  26.901  1.00  0.00     0.006 C 
BRANCH   5   6
ATOM      6  C   UNL     1     -10.770 -36.040  26.823  1.00  0.00     0.053 C 
BRANCH   6   7
ATOM      7  C   UNL     1     -11.165 -37.022  25.764  1.00  0.00     0.041 C 
ATOM      8  O   UNL     1     -11.007 -36.741  24.547  1.00  0.00    -0.550 OA
ATOM      9  O   UNL     1     -11.679 -38.263  26.121  1.00  0.00    -0.550 OA
ENDBRANCH   6   7
ENDBRANCH   5   6
ENDBRANCH   4   5
ENDBRANCH   3   4
ENDBRANCH   2   3
ENDBRANCH   1   2
BRANCH   1  10
ATOM     10  C   UNL     1     -16.794 -36.683  26.463  1.00  0.00     0.000 C 
BRANCH  10  11
ATOM     11  C   UNL     1     -15.936 -37.722  27.203  1.00  0.00    -0.000 C 
BRANCH  11  12
ATOM     12  C   UNL     1     -15.136 -38.623  26.246  1.00  0.00    -0.000 C 
BRANCH  12  13
ATOM     13  C   UNL     1     -15.388 -38.285  24.769  1.00  0.00    -0.000 C 
BRANCH  13  14
ATOM     14  C   UNL     1     -14.415 -37.226  24.230  1.00  0.00    -0.000 C 
BRANCH  14  15
ATOM     15  C   UNL     1     -15.041 -36.445  23.068  1.00  0.00    -0.003 C 
ATOM     16  C   UNL     1     -16.441 -36.961  22.748  1.00  0.00     0.004 C 
ENDBRANCH  14  15
ENDBRANCH  13  14
ENDBRANCH  12  13
ENDBRANCH  11  12
ENDBRANCH  10  11
ENDBRANCH   1  10
TORSDOF 12
ENDMDL
MODEL 9
REMARK VINA RESULT:     0.044      2.385      4.747
REMARK INTER + INTRA:          -0.994
REMARK INTER:                  -1.178
REMARK INTRA:                   0.185
REMARK UNBOUND:                -1.068
REMARK SMILES CCCCCCCCCCCCCC(=O)[O-]
REMARK SMILES IDX 8 1 9 2 10 3 11 4 12 5 13 6 14 7 15 8 16 9 7 10 6 11 5 12
REMARK SMILES IDX 4 13 3 14 2 15 1 16
REMARK H PARENT
REMARK Flexibility Score: inf
ROOT
ATOM      1  C   UNL     1     -16.023 -35.316  26.497  1.00  0.00     0.000 C 
ENDROOT
BRANCH   1   2
ATOM      2  C   UNL     1     -16.605 -36.704  26.822  1.00  0.00     0.000 C 
BRANCH   2   3
ATOM      3  C   UNL     1     -15.571 -37.769  27.243  1.00  0.00     0.000 C 
BRANCH   3   4
ATOM      4  C   UNL     1     -15.437 -38.965  26.283  1.00  0.00     0.000 C 
BRANCH   4   5
ATOM      5  C   UNL     1     -14.863 -38.570  24.913  1.00  0.00     0.006 C 
BRANCH   5   6
ATOM      6  C   UNL     1     -15.864 -37.760  24.078  1.00  0.00     0.053 C 
BRANCH   6   7
ATOM      7  C   UNL     1     -15.177 -36.771  23.188  1.00  0.00     0.041 C 
ATOM      8  O   UNL     1     -14.277 -36.022  23.649  1.00  0.00    -0.550 OA
ATOM      9  O   UNL     1     -15.510 -36.697  21.840  1.00  0.00    -0.550 OA
ENDBRANCH   6   7
ENDBRANCH   5   6
ENDBRANCH   4   5
ENDBRANCH   3   4
ENDBRANCH   2   3
ENDBRANCH   1   2
BRANCH   1  10
ATOM     10  C   UNL     1     -14.485 -35.296  26.511  1.00  0.00     0.000 C 
BRANCH  10  11
ATOM     11  C   UNL     1     -13.903 -35.627  27.895  1.00  0.00    -0.000 C 
BRANCH  11  12
ATOM     12  C   UNL     1     -12.580 -34.892  28.176  1.00  0.00    -0.000 C 
BRANCH  12  13
ATOM     13  C   UNL     1     -11.684 -34.795  26.931  1.00  0.00    -0.000 C 
BRANCH  13  14
ATOM     14  C   UNL     1     -10.862 -36.070  26.693  1.00  0.00    -0.000 C 
BRANCH  14  15
ATOM     15  C   UNL     1     -11.411 -36.863  25.500  1.00  0.00    -0.003 C 
ATOM     16  C   UNL     1     -11.396 -38.362  25.781  1.00  0.00     0.004 C 
ENDBRANCH  14  15
ENDBRANCH  13  14
ENDBRANCH  12  13
ENDBRANCH  11  12
ENDBRANCH  10  11
ENDBRANCH   1  10
TORSDOF 12
ENDMDL
