MODEL 1
REMARK VINA RESULT:     6.547      0.000      0.000
REMARK INTER + INTRA:           6.928
REMARK INTER:                   7.121
REMARK INTRA:                  -0.193
REMARK UNBOUND:                -0.193
REMARK SMILES CC1(C)CC[C@@]2(C(=O)[O-])CC[C@]3(C)C(=CC[C@@H]4[C@]5(C)CC[C@@H](O)C(C)(C)[C@@H]5CC[C@@]43C)[C@H]2C1
REMARK SMILES IDX 6 1 5 2 10 3 32 4 4 5 11 6 14 7 33 8 2 9 12 10 15 11 1 12
REMARK SMILES IDX 3 13 13 14 30 15 16 16 17 17 29 18 31 19 18 20 28 21 27 22
REMARK SMILES IDX 20 23 19 24 24 25 21 26 22 27 25 28 26 29 7 30 8 31 9 32
REMARK SMILES IDX 23 33
REMARK H PARENT 23 34
REMARK Flexibility Score: inf
ROOT
ATOM      1  C   UNL     1     100.091 112.560 116.198  1.00  0.00     0.017 C 
ATOM      2  C   UNL     1      99.880 111.037 116.159  1.00  0.00     0.014 C 
ATOM      3  C   UNL     1      98.804 113.252 116.750  1.00  0.00     0.014 C 
ATOM      4  C   UNL     1     101.300 112.870 117.156  1.00  0.00     0.028 C 
ATOM      5  C   UNL     1      99.483 110.419 117.492  1.00  0.00     0.007 C 
ATOM      6  C   UNL     1      98.929 114.790 116.720  1.00  0.00     0.013 C 
ATOM      7  C   UNL     1     101.313 114.348 117.682  1.00  0.00    -0.064 C 
ATOM      8  C   UNL     1     101.556 111.825 118.296  1.00  0.00     0.015 C 
ATOM      9  C   UNL     1     100.468 110.712 118.646  1.00  0.00    -0.035 C 
ATOM     10  C   UNL     1     100.206 115.406 117.435  1.00  0.00    -0.006 C 
ATOM     11  C   UNL     1     102.483 114.757 118.180  1.00  0.00    -0.027 C 
ATOM     12  C   UNL     1     101.245 109.391 119.002  1.00  0.00     0.011 C 
ATOM     13  C   UNL     1      99.667 111.098 119.921  1.00  0.00     0.011 C 
ATOM     14  C   UNL     1     100.721 116.409 116.352  1.00  0.00     0.017 C 
ATOM     15  C   UNL     1      99.893 116.201 118.797  1.00  0.00    -0.020 C 
ATOM     16  C   UNL     1     102.609 116.073 118.890  1.00  0.00     0.032 C 
ATOM     17  C   UNL     1     101.262 116.542 119.608  1.00  0.00     0.006 C 
ATOM     18  C   UNL     1      98.984 115.392 119.742  1.00  0.00     0.008 C 
ATOM     19  C   UNL     1      99.120 117.523 118.505  1.00  0.00     0.012 C 
ATOM     20  C   UNL     1     101.345 116.239 121.194  1.00  0.00    -0.025 C 
ATOM     21  C   UNL     1      98.773 116.045 121.162  1.00  0.00     0.005 C 
ATOM     22  C   UNL     1     100.074 116.578 121.939  1.00  0.00     0.003 C 
ATOM     23  C   UNL     1     101.671 114.695 121.485  1.00  0.00     0.010 C 
ATOM     24  C   UNL     1     102.511 117.168 121.717  1.00  0.00     0.012 C 
ATOM     25  C   UNL     1     100.092 116.097 123.484  1.00  0.00    -0.006 C 
ATOM     26  C   UNL     1     100.622 113.861 122.330  1.00  0.00     0.033 C 
ATOM     27  C   UNL     1      99.884 114.556 123.547  1.00  0.00     0.120 C 
ATOM     28  C   UNL     1     101.409 116.354 124.310  1.00  0.00     0.014 C 
ATOM     29  C   UNL     1      98.961 116.872 124.217  1.00  0.00     0.014 C 
ENDROOT
BRANCH   1  30
ATOM     30  C   UNL     1     100.422 113.013 114.790  1.00  0.00     0.048 C 
ATOM     31  O   UNL     1     101.553 113.490 114.525  1.00  0.00    -0.550 OA
ATOM     32  O   UNL     1      99.457 113.095 113.812  1.00  0.00    -0.550 OA
ENDBRANCH   1  30
BRANCH  27  33
ATOM     33  O   UNL     1     100.285 114.016 124.774  1.00  0.00    -0.393 OA
ATOM     34  H   UNL     1      99.618 113.357 125.074  1.00  0.00     0.210 HD
ENDBRANCH  27  33
TORSDOF 2
ENDMDL
MODEL 2
REMARK VINA RESULT:     6.874      1.803      4.047
REMARK INTER + INTRA:           7.284
REMARK INTER:                   7.476
REMARK INTRA:                  -0.193
REMARK UNBOUND:                -0.193
REMARK SMILES CC1(C)CC[C@@]2(C(=O)[O-])CC[C@]3(C)C(=CC[C@@H]4[C@]5(C)CC[C@@H](O)C(C)(C)[C@@H]5CC[C@@]43C)[C@H]2C1
REMARK SMILES IDX 6 1 5 2 10 3 32 4 4 5 11 6 14 7 33 8 2 9 12 10 15 11 1 12
REMARK SMILES IDX 3 13 13 14 30 15 16 16 17 17 29 18 31 19 18 20 28 21 27 22
REMARK SMILES IDX 20 23 19 24 24 25 21 26 22 27 25 28 26 29 7 30 8 31 9 32
REMARK SMILES IDX 23 33
REMARK H PARENT 23 34
REMARK Flexibility Score: inf
ROOT
ATOM      1  C   UNL     1     102.226 114.382 116.166  1.00  0.00     0.017 C 
ATOM      2  C   UNL     1     103.570 114.774 115.529  1.00  0.00     0.014 C 
ATOM      3  C   UNL     1     102.478 113.389 117.346  1.00  0.00     0.014 C 
ATOM      4  C   UNL     1     101.539 115.684 116.720  1.00  0.00     0.028 C 
ATOM      5  C   UNL     1     104.584 115.361 116.501  1.00  0.00     0.007 C 
ATOM      6  C   UNL     1     101.153 112.890 117.961  1.00  0.00     0.013 C 
ATOM      7  C   UNL     1     100.448 115.397 117.810  1.00  0.00    -0.064 C 
ATOM      8  C   UNL     1     102.507 116.847 117.133  1.00  0.00     0.015 C 
ATOM      9  C   UNL     1     104.076 116.592 117.283  1.00  0.00    -0.035 C 
ATOM     10  C   UNL     1     100.126 114.009 118.424  1.00  0.00    -0.006 C 
ATOM     11  C   UNL     1      99.599 116.404 118.034  1.00  0.00    -0.027 C 
ATOM     12  C   UNL     1     104.812 117.875 116.750  1.00  0.00     0.011 C 
ATOM     13  C   UNL     1     104.477 116.454 118.778  1.00  0.00     0.011 C 
ATOM     14  C   UNL     1      98.792 113.494 117.794  1.00  0.00     0.017 C 
ATOM     15  C   UNL     1      99.952 114.141 120.016  1.00  0.00    -0.020 C 
ATOM     16  C   UNL     1      98.620 116.356 119.170  1.00  0.00     0.032 C 
ATOM     17  C   UNL     1      99.122 115.484 120.410  1.00  0.00     0.006 C 
ATOM     18  C   UNL     1     101.310 114.207 120.742  1.00  0.00     0.008 C 
ATOM     19  C   UNL     1      99.226 112.892 120.603  1.00  0.00     0.012 C 
ATOM     20  C   UNL     1      99.678 116.451 121.579  1.00  0.00    -0.025 C 
ATOM     21  C   UNL     1     101.210 114.500 122.288  1.00  0.00     0.005 C 
ATOM     22  C   UNL     1     100.252 115.701 122.760  1.00  0.00     0.003 C 
ATOM     23  C   UNL     1     100.825 117.435 121.037  1.00  0.00     0.010 C 
ATOM     24  C   UNL     1      98.414 117.271 122.055  1.00  0.00     0.012 C 
ATOM     25  C   UNL     1     100.979 116.665 123.837  1.00  0.00    -0.006 C 
ATOM     26  C   UNL     1     102.256 117.351 121.713  1.00  0.00     0.033 C 
ATOM     27  C   UNL     1     102.359 117.117 123.276  1.00  0.00     0.120 C 
ATOM     28  C   UNL     1     100.249 118.006 124.222  1.00  0.00     0.014 C 
ATOM     29  C   UNL     1     101.120 115.853 125.155  1.00  0.00     0.014 C 
ENDROOT
BRANCH   1  30
ATOM     30  C   UNL     1     101.365 113.768 115.081  1.00  0.00     0.048 C 
ATOM     31  O   UNL     1     101.822 112.858 114.346  1.00  0.00    -0.550 OA
ATOM     32  O   UNL     1     100.143 114.301 114.741  1.00  0.00    -0.550 OA
ENDBRANCH   1  30
BRANCH  27  33
ATOM     33  O   UNL     1     102.857 118.244 123.938  1.00  0.00    -0.393 OA
ATOM     34  H   UNL     1     102.327 118.404 124.752  1.00  0.00     0.210 HD
ENDBRANCH  27  33
TORSDOF 2
ENDMDL
