MODEL 1
REMARK VINA RESULT:    -6.872      0.000      0.000
REMARK INTER + INTRA:          -8.340
REMARK INTER:                  -8.077
REMARK INTRA:                  -0.263
REMARK UNBOUND:                -0.263
REMARK SMILES O=c1cc(-c2ccc(O)c(O)c2)oc2cc(O)cc(O)c12
REMARK SMILES IDX 4 1 3 2 2 3 1 4 21 5 19 6 18 7 16 8 15 9 14 10 13 11 5 12
REMARK SMILES IDX 6 13 7 14 8 15 12 16 10 17 9 18 11 20 20 22 17 24
REMARK H PARENT 9 19 11 21 20 23 17 25
REMARK Flexibility Score: inf
ROOT
ATOM      1  C   UNL     1      22.351  48.113   3.227  1.00  0.00     0.138 A 
ATOM      2  C   UNL     1      21.628  46.908   3.234  1.00  0.00     0.100 A 
ATOM      3  C   UNL     1      20.960  46.514   4.396  1.00  0.00     0.197 A 
ATOM      4  O   UNL     1      20.315  45.431   4.392  1.00  0.00    -0.289 OA
ATOM      5  C   UNL     1      21.024  47.328   5.544  1.00  0.00     0.107 A 
ATOM      6  C   UNL     1      20.376  47.004   6.760  1.00  0.00     0.134 A 
ATOM      7  C   UNL     1      20.493  47.865   7.861  1.00  0.00     0.093 A 
ATOM      8  C   UNL     1      21.245  49.043   7.767  1.00  0.00     0.123 A 
ATOM      9  C   UNL     1      21.885  49.367   6.570  1.00  0.00     0.094 A 
ATOM     10  C   UNL     1      21.780  48.522   5.462  1.00  0.00     0.146 A 
ATOM     11  O   UNL     1      22.399  48.853   4.332  1.00  0.00    -0.456 OA
ENDROOT
BRANCH   1  12
ATOM     12  C   UNL     1      23.081  48.581   2.022  1.00  0.00     0.021 A 
ATOM     13  C   UNL     1      24.466  48.380   1.872  1.00  0.00     0.016 A 
ATOM     14  C   UNL     1      25.125  48.822   0.722  1.00  0.00     0.051 A 
ATOM     15  C   UNL     1      24.414  49.463  -0.300  1.00  0.00     0.157 A 
ATOM     16  C   UNL     1      22.371  49.213   0.986  1.00  0.00     0.062 A 
ATOM     17  C   UNL     1      23.028  49.657  -0.167  1.00  0.00     0.158 A 
BRANCH  15  18
ATOM     18  O   UNL     1      25.075  49.904  -1.445  1.00  0.00    -0.504 OA
ATOM     19  H   UNL     1      24.589  50.017  -2.328  1.00  0.00     0.293 HD
ENDBRANCH  15  18
BRANCH  17  20
ATOM     20  O   UNL     1      22.291  50.289  -1.167  1.00  0.00    -0.504 OA
ATOM     21  H   UNL     1      21.439  50.799  -0.967  1.00  0.00     0.293 HD
ENDBRANCH  17  20
ENDBRANCH   1  12
BRANCH   6  22
ATOM     22  O   UNL     1      19.621  45.837   6.882  1.00  0.00    -0.507 OA
ATOM     23  H   UNL     1      19.831  45.007   6.340  1.00  0.00     0.293 HD
ENDBRANCH   6  22
BRANCH   8  24
ATOM     24  O   UNL     1      21.361  49.898   8.862  1.00  0.00    -0.508 OA
ATOM     25  H   UNL     1      20.956  50.827   8.855  1.00  0.00     0.293 HD
ENDBRANCH   8  24
TORSDOF 5
ENDMDL
MODEL 2
REMARK VINA RESULT:    -6.766      1.577      2.344
REMARK INTER + INTRA:          -8.216
REMARK INTER:                  -7.953
REMARK INTRA:                  -0.263
REMARK UNBOUND:                -0.263
REMARK SMILES O=c1cc(-c2ccc(O)c(O)c2)oc2cc(O)cc(O)c12
REMARK SMILES IDX 4 1 3 2 2 3 1 4 21 5 19 6 18 7 16 8 15 9 14 10 13 11 5 12
REMARK SMILES IDX 6 13 7 14 8 15 12 16 10 17 9 18 11 20 20 22 17 24
REMARK H PARENT 9 19 11 21 20 23 17 25
REMARK Flexibility Score: inf
ROOT
ATOM      1  C   UNL     1      21.585  47.772   5.157  1.00  0.00     0.138 A 
ATOM      2  C   UNL     1      20.858  46.647   5.582  1.00  0.00     0.100 A 
ATOM      3  C   UNL     1      20.512  46.521   6.929  1.00  0.00     0.197 A 
ATOM      4  O   UNL     1      19.860  45.509   7.301  1.00  0.00    -0.289 OA
ATOM      5  C   UNL     1      20.901  47.521   7.843  1.00  0.00     0.107 A 
ATOM      6  C   UNL     1      20.592  47.473   9.222  1.00  0.00     0.134 A 
ATOM      7  C   UNL     1      21.021  48.507  10.068  1.00  0.00     0.093 A 
ATOM      8  C   UNL     1      21.752  49.586   9.559  1.00  0.00     0.123 A 
ATOM      9  C   UNL     1      22.060  49.639   8.198  1.00  0.00     0.094 A 
ATOM     10  C   UNL     1      21.641  48.619   7.339  1.00  0.00     0.146 A 
ATOM     11  O   UNL     1      21.946  48.693   6.047  1.00  0.00    -0.456 OA
ENDROOT
BRANCH   1  12
ATOM     12  C   UNL     1      21.981  47.957   3.737  1.00  0.00     0.021 A 
ATOM     13  C   UNL     1      23.248  47.562   3.265  1.00  0.00     0.016 A 
ATOM     14  C   UNL     1      23.588  47.739   1.922  1.00  0.00     0.051 A 
ATOM     15  C   UNL     1      22.672  48.304   1.027  1.00  0.00     0.157 A 
ATOM     16  C   UNL     1      21.061  48.510   2.830  1.00  0.00     0.062 A 
ATOM     17  C   UNL     1      21.400  48.689   1.484  1.00  0.00     0.158 A 
BRANCH  15  18
ATOM     18  O   UNL     1      23.016  48.480  -0.312  1.00  0.00    -0.504 OA
ATOM     19  H   UNL     1      22.383  48.922  -0.969  1.00  0.00     0.293 HD
ENDBRANCH  15  18
BRANCH  17  20
ATOM     20  O   UNL     1      20.464  49.251   0.617  1.00  0.00    -0.504 OA
ATOM     21  H   UNL     1      20.136  50.203   0.723  1.00  0.00     0.293 HD
ENDBRANCH  17  20
ENDBRANCH   1  12
BRANCH   6  22
ATOM     22  O   UNL     1      19.865  46.409   9.757  1.00  0.00    -0.507 OA
ATOM     23  H   UNL     1      19.342  46.501  10.621  1.00  0.00     0.293 HD
ENDBRANCH   6  22
BRANCH   8  24
ATOM     24  O   UNL     1      22.179  50.613  10.399  1.00  0.00    -0.508 OA
ATOM     25  H   UNL     1      22.929  51.240  10.132  1.00  0.00     0.293 HD
ENDBRANCH   8  24
TORSDOF 5
ENDMDL
MODEL 3
REMARK VINA RESULT:    -6.623      1.955      3.984
REMARK INTER + INTRA:          -8.047
REMARK INTER:                  -7.768
REMARK INTRA:                  -0.279
REMARK UNBOUND:                -0.263
REMARK SMILES O=c1cc(-c2ccc(O)c(O)c2)oc2cc(O)cc(O)c12
REMARK SMILES IDX 4 1 3 2 2 3 1 4 21 5 19 6 18 7 16 8 15 9 14 10 13 11 5 12
REMARK SMILES IDX 6 13 7 14 8 15 12 16 10 17 9 18 11 20 20 22 17 24
REMARK H PARENT 9 19 11 21 20 23 17 25
REMARK Flexibility Score: inf
ROOT
ATOM      1  C   UNL     1      21.432  47.880   5.800  1.00  0.00     0.138 A 
ATOM      2  C   UNL     1      21.448  49.139   6.423  1.00  0.00     0.100 A 
ATOM      3  C   UNL     1      21.189  49.232   7.792  1.00  0.00     0.197 A 
ATOM      4  O   UNL     1      21.205  50.366   8.341  1.00  0.00    -0.289 OA
ATOM      5  C   UNL     1      20.911  48.063   8.528  1.00  0.00     0.107 A 
ATOM      6  C   UNL     1      20.640  48.069   9.917  1.00  0.00     0.134 A 
ATOM      7  C   UNL     1      20.367  46.861  10.576  1.00  0.00     0.093 A 
ATOM      8  C   UNL     1      20.361  45.650   9.872  1.00  0.00     0.123 A 
ATOM      9  C   UNL     1      20.628  45.640   8.503  1.00  0.00     0.094 A 
ATOM     10  C   UNL     1      20.903  46.833   7.828  1.00  0.00     0.146 A 
ATOM     11  O   UNL     1      21.156  46.797   6.523  1.00  0.00    -0.456 OA
ENDROOT
BRANCH   1  12
ATOM     12  C   UNL     1      21.698  47.721   4.348  1.00  0.00     0.021 A 
ATOM     13  C   UNL     1      20.942  46.843   3.549  1.00  0.00     0.016 A 
ATOM     14  C   UNL     1      21.209  46.722   2.183  1.00  0.00     0.051 A 
ATOM     15  C   UNL     1      22.226  47.479   1.590  1.00  0.00     0.157 A 
ATOM     16  C   UNL     1      22.708  48.489   3.743  1.00  0.00     0.062 A 
ATOM     17  C   UNL     1      22.978  48.369   2.375  1.00  0.00     0.158 A 
BRANCH  15  18
ATOM     18  O   UNL     1      22.490  47.354   0.227  1.00  0.00    -0.504 OA
ATOM     19  H   UNL     1      23.428  47.461  -0.144  1.00  0.00     0.293 HD
ENDBRANCH  15  18
BRANCH  17  20
ATOM     20  O   UNL     1      23.996  49.140   1.814  1.00  0.00    -0.504 OA
ATOM     21  H   UNL     1      24.969  49.011   2.065  1.00  0.00     0.293 HD
ENDBRANCH  17  20
ENDBRANCH   1  12
BRANCH   6  22
ATOM     22  O   UNL     1      20.639  49.260  10.643  1.00  0.00    -0.507 OA
ATOM     23  H   UNL     1      21.500  49.710  10.931  1.00  0.00     0.293 HD
ENDBRANCH   6  22
BRANCH   8  24
ATOM     24  O   UNL     1      20.089  44.451  10.528  1.00  0.00    -0.508 OA
ATOM     25  H   UNL     1      20.076  43.567  10.033  1.00  0.00     0.293 HD
ENDBRANCH   8  24
TORSDOF 5
ENDMDL
MODEL 4
REMARK VINA RESULT:    -5.604      1.572      6.923
REMARK INTER + INTRA:          -6.850
REMARK INTER:                  -6.555
REMARK INTRA:                  -0.295
REMARK UNBOUND:                -0.263
REMARK SMILES O=c1cc(-c2ccc(O)c(O)c2)oc2cc(O)cc(O)c12
REMARK SMILES IDX 4 1 3 2 2 3 1 4 21 5 19 6 18 7 16 8 15 9 14 10 13 11 5 12
REMARK SMILES IDX 6 13 7 14 8 15 12 16 10 17 9 18 11 20 20 22 17 24
REMARK H PARENT 9 19 11 21 20 23 17 25
REMARK Flexibility Score: inf
ROOT
ATOM      1  C   UNL     1      21.396  47.882   5.758  1.00  0.00     0.138 A 
ATOM      2  C   UNL     1      20.619  46.772   5.384  1.00  0.00     0.100 A 
ATOM      3  C   UNL     1      20.637  46.337   4.057  1.00  0.00     0.197 A 
ATOM      4  O   UNL     1      19.936  45.341   3.731  1.00  0.00    -0.289 OA
ATOM      5  C   UNL     1      21.431  47.017   3.113  1.00  0.00     0.107 A 
ATOM      6  C   UNL     1      21.507  46.640   1.751  1.00  0.00     0.134 A 
ATOM      7  C   UNL     1      22.318  47.374   0.872  1.00  0.00     0.093 A 
ATOM      8  C   UNL     1      23.052  48.475   1.330  1.00  0.00     0.123 A 
ATOM      9  C   UNL     1      22.979  48.850   2.672  1.00  0.00     0.094 A 
ATOM     10  C   UNL     1      22.178  48.131   3.564  1.00  0.00     0.146 A 
ATOM     11  O   UNL     1      22.127  48.508   4.838  1.00  0.00    -0.456 OA
ENDROOT
BRANCH   1  12
ATOM     12  C   UNL     1      21.415  48.390   7.153  1.00  0.00     0.021 A 
ATOM     13  C   UNL     1      22.146  49.539   7.512  1.00  0.00     0.016 A 
ATOM     14  C   UNL     1      22.136  50.000   8.831  1.00  0.00     0.051 A 
ATOM     15  C   UNL     1      21.392  49.331   9.810  1.00  0.00     0.157 A 
ATOM     16  C   UNL     1      20.658  47.732   8.138  1.00  0.00     0.062 A 
ATOM     17  C   UNL     1      20.648  48.191   9.460  1.00  0.00     0.158 A 
BRANCH  15  18
ATOM     18  O   UNL     1      21.386  49.793  11.125  1.00  0.00    -0.504 OA
ATOM     19  H   UNL     1      21.393  50.784  11.339  1.00  0.00     0.293 HD
ENDBRANCH  15  18
BRANCH  17  20
ATOM     20  O   UNL     1      19.894  47.504  10.411  1.00  0.00    -0.504 OA
ATOM     21  H   UNL     1      19.777  46.499  10.381  1.00  0.00     0.293 HD
ENDBRANCH  17  20
ENDBRANCH   1  12
BRANCH   6  22
ATOM     22  O   UNL     1      20.787  45.548   1.267  1.00  0.00    -0.507 OA
ATOM     23  H   UNL     1      20.639  45.404   0.275  1.00  0.00     0.293 HD
ENDBRANCH   6  22
BRANCH   8  24
ATOM     24  O   UNL     1      23.856  49.204   0.456  1.00  0.00    -0.508 OA
ATOM     25  H   UNL     1      23.570  49.391  -0.498  1.00  0.00     0.293 HD
ENDBRANCH   8  24
TORSDOF 5
ENDMDL
MODEL 5
REMARK VINA RESULT:    -5.338      1.763      6.930
REMARK INTER + INTRA:          -6.538
REMARK INTER:                  -6.231
REMARK INTRA:                  -0.307
REMARK UNBOUND:                -0.263
REMARK SMILES O=c1cc(-c2ccc(O)c(O)c2)oc2cc(O)cc(O)c12
REMARK SMILES IDX 4 1 3 2 2 3 1 4 21 5 19 6 18 7 16 8 15 9 14 10 13 11 5 12
REMARK SMILES IDX 6 13 7 14 8 15 12 16 10 17 9 18 11 20 20 22 17 24
REMARK H PARENT 9 19 11 21 20 23 17 25
REMARK Flexibility Score: inf
ROOT
ATOM      1  C   UNL     1      21.483  47.271   4.995  1.00  0.00     0.138 A 
ATOM      2  C   UNL     1      20.991  46.443   3.971  1.00  0.00     0.100 A 
ATOM      3  C   UNL     1      21.433  46.634   2.661  1.00  0.00     0.197 A 
ATOM      4  O   UNL     1      20.986  45.888   1.749  1.00  0.00    -0.289 OA
ATOM      5  C   UNL     1      22.363  47.656   2.383  1.00  0.00     0.107 A 
ATOM      6  C   UNL     1      22.863  47.917   1.085  1.00  0.00     0.134 A 
ATOM      7  C   UNL     1      23.783  48.957   0.891  1.00  0.00     0.093 A 
ATOM      8  C   UNL     1      24.211  49.741   1.970  1.00  0.00     0.123 A 
ATOM      9  C   UNL     1      23.721  49.488   3.251  1.00  0.00     0.094 A 
ATOM     10  C   UNL     1      22.803  48.455   3.466  1.00  0.00     0.146 A 
ATOM     11  O   UNL     1      22.352  48.233   4.697  1.00  0.00    -0.456 OA
ENDROOT
BRANCH   1  12
ATOM     12  C   UNL     1      21.047  47.114   6.406  1.00  0.00     0.021 A 
ATOM     13  C   UNL     1      20.658  45.864   6.925  1.00  0.00     0.016 A 
ATOM     14  C   UNL     1      20.262  45.745   8.260  1.00  0.00     0.051 A 
ATOM     15  C   UNL     1      20.256  46.865   9.100  1.00  0.00     0.157 A 
ATOM     16  C   UNL     1      21.052  48.231   7.259  1.00  0.00     0.062 A 
ATOM     17  C   UNL     1      20.655  48.114   8.596  1.00  0.00     0.158 A 
BRANCH  15  18
ATOM     18  O   UNL     1      19.859  46.742  10.430  1.00  0.00    -0.504 OA
ATOM     19  H   UNL     1      19.893  47.529  11.069  1.00  0.00     0.293 HD
ENDBRANCH  15  18
BRANCH  17  20
ATOM     20  O   UNL     1      20.664  49.248   9.407  1.00  0.00    -0.504 OA
ATOM     21  H   UNL     1      21.214  50.068   9.181  1.00  0.00     0.293 HD
ENDBRANCH  17  20
ENDBRANCH   1  12
BRANCH   6  22
ATOM     22  O   UNL     1      22.454  47.153  -0.008  1.00  0.00    -0.507 OA
ATOM     23  H   UNL     1      22.154  47.581  -0.876  1.00  0.00     0.293 HD
ENDBRANCH   6  22
BRANCH   8  24
ATOM     24  O   UNL     1      25.124  50.775   1.776  1.00  0.00    -0.508 OA
ATOM     25  H   UNL     1      26.074  50.595   1.470  1.00  0.00     0.293 HD
ENDBRANCH   8  24
TORSDOF 5
ENDMDL
MODEL 6
REMARK VINA RESULT:    -4.845      2.480      7.015
REMARK INTER + INTRA:          -5.958
REMARK INTER:                  -5.642
REMARK INTRA:                  -0.316
REMARK UNBOUND:                -0.263
REMARK SMILES O=c1cc(-c2ccc(O)c(O)c2)oc2cc(O)cc(O)c12
REMARK SMILES IDX 4 1 3 2 2 3 1 4 21 5 19 6 18 7 16 8 15 9 14 10 13 11 5 12
REMARK SMILES IDX 6 13 7 14 8 15 12 16 10 17 9 18 11 20 20 22 17 24
REMARK H PARENT 9 19 11 21 20 23 17 25
REMARK Flexibility Score: inf
ROOT
ATOM      1  C   UNL     1      21.769  48.366   5.798  1.00  0.00     0.138 A 
ATOM      2  C   UNL     1      22.325  49.075   4.720  1.00  0.00     0.100 A 
ATOM      3  C   UNL     1      22.277  48.525   3.437  1.00  0.00     0.197 A 
ATOM      4  O   UNL     1      22.779  49.168   2.477  1.00  0.00    -0.289 OA
ATOM      5  C   UNL     1      21.675  47.265   3.243  1.00  0.00     0.107 A 
ATOM      6  C   UNL     1      21.583  46.637   1.978  1.00  0.00     0.134 A 
ATOM      7  C   UNL     1      20.973  45.379   1.870  1.00  0.00     0.093 A 
ATOM      8  C   UNL     1      20.454  44.739   3.002  1.00  0.00     0.123 A 
ATOM      9  C   UNL     1      20.543  45.354   4.251  1.00  0.00     0.094 A 
ATOM     10  C   UNL     1      21.146  46.608   4.380  1.00  0.00     0.146 A 
ATOM     11  O   UNL     1      21.217  47.174   5.582  1.00  0.00    -0.456 OA
ENDROOT
BRANCH   1  12
ATOM     12  C   UNL     1      21.792  48.901   7.183  1.00  0.00     0.021 A 
ATOM     13  C   UNL     1      22.584  50.012   7.533  1.00  0.00     0.016 A 
ATOM     14  C   UNL     1      22.578  50.500   8.842  1.00  0.00     0.051 A 
ATOM     15  C   UNL     1      21.778  49.896   9.820  1.00  0.00     0.157 A 
ATOM     16  C   UNL     1      20.982  48.309   8.167  1.00  0.00     0.062 A 
ATOM     17  C   UNL     1      20.975  48.796   9.479  1.00  0.00     0.158 A 
BRANCH  15  18
ATOM     18  O   UNL     1      21.777  50.386  11.125  1.00  0.00    -0.504 OA
ATOM     19  H   UNL     1      21.019  50.961  11.475  1.00  0.00     0.293 HD
ENDBRANCH  15  18
BRANCH  17  20
ATOM     20  O   UNL     1      20.165  48.174  10.428  1.00  0.00    -0.504 OA
ATOM     21  H   UNL     1      20.400  47.275  10.830  1.00  0.00     0.293 HD
ENDBRANCH  17  20
ENDBRANCH   1  12
BRANCH   6  22
ATOM     22  O   UNL     1      22.092  47.252   0.834  1.00  0.00    -0.507 OA
ATOM     23  H   UNL     1      22.527  48.166   0.868  1.00  0.00     0.293 HD
ENDBRANCH   6  22
BRANCH   8  24
ATOM     24  O   UNL     1      19.849  43.488   2.894  1.00  0.00    -0.508 OA
ATOM     25  H   UNL     1      18.844  43.378   2.963  1.00  0.00     0.293 HD
ENDBRANCH   8  24
TORSDOF 5
ENDMDL
