MODEL 1
REMARK VINA RESULT:    -5.541      0.000      0.000
REMARK INTER + INTRA:          -6.732
REMARK INTER:                  -6.674
REMARK INTRA:                  -0.057
REMARK UNBOUND:                -0.057
REMARK SMILES Oc1cc(O)c2cc(O)c(-c3ccc(O)c(O)c3)[o+]c2c1
REMARK SMILES IDX 10 1 19 2 20 3 21 4 2 5 3 6 4 7 6 8 7 9 8 10 11 11 12 12
REMARK SMILES IDX 13 13 14 14 18 15 16 16 15 17 17 19 9 21 1 23 5 25
REMARK H PARENT 15 18 17 20 9 22 1 24 5 26
REMARK Flexibility Score: inf
ROOT
ATOM      1  C   UNL     1     -57.920  17.732 -17.576  1.00  0.00     0.402 A 
ATOM      2  O   UNL     1     -56.761  17.082 -17.646  1.00  0.00    -0.202 OA
ATOM      3  C   UNL     1     -55.634  17.539 -17.111  1.00  0.00     0.368 A 
ATOM      4  C   UNL     1     -54.465  16.782 -17.235  1.00  0.00     0.162 A 
ATOM      5  C   UNL     1     -53.267  17.238 -16.678  1.00  0.00     0.128 A 
ATOM      6  C   UNL     1     -53.236  18.455 -15.995  1.00  0.00     0.093 A 
ATOM      7  C   UNL     1     -54.392  19.232 -15.857  1.00  0.00     0.136 A 
ATOM      8  C   UNL     1     -55.612  18.775 -16.422  1.00  0.00     0.125 A 
ATOM      9  C   UNL     1     -56.816  19.495 -16.344  1.00  0.00     0.078 A 
ATOM     10  C   UNL     1     -57.977  18.981 -16.930  1.00  0.00     0.223 A 
ENDROOT
BRANCH   1  11
ATOM     11  C   UNL     1     -59.109  17.114 -18.204  1.00  0.00     0.087 A 
ATOM     12  C   UNL     1     -59.011  16.592 -19.502  1.00  0.00     0.022 A 
ATOM     13  C   UNL     1     -60.114  15.988 -20.105  1.00  0.00     0.051 A 
ATOM     14  C   UNL     1     -61.331  15.878 -19.423  1.00  0.00     0.157 A 
ATOM     15  C   UNL     1     -60.322  16.986 -17.508  1.00  0.00     0.068 A 
ATOM     16  C   UNL     1     -61.435  16.378 -18.104  1.00  0.00     0.158 A 
BRANCH  14  17
ATOM     17  O   UNL     1     -62.398  15.269 -20.087  1.00  0.00    -0.504 OA
ATOM     18  H   UNL     1     -62.671  15.486 -21.035  1.00  0.00     0.293 HD
ENDBRANCH  14  17
BRANCH  16  19
ATOM     19  O   UNL     1     -62.609  16.286 -17.354  1.00  0.00    -0.504 OA
ATOM     20  H   UNL     1     -63.196  17.075 -17.124  1.00  0.00     0.293 HD
ENDBRANCH  16  19
ENDBRANCH   1  11
BRANCH  10  21
ATOM     21  O   UNL     1     -59.161  19.717 -16.897  1.00  0.00    -0.500 OA
ATOM     22  H   UNL     1     -59.387  20.330 -16.122  1.00  0.00     0.294 HD
ENDBRANCH  10  21
BRANCH   5  23
ATOM     23  O   UNL     1     -52.099  16.487 -16.798  1.00  0.00    -0.507 OA
ATOM     24  H   UNL     1     -52.038  15.699 -17.431  1.00  0.00     0.293 HD
ENDBRANCH   5  23
BRANCH   7  25
ATOM     25  O   UNL     1     -54.279  20.437 -15.156  1.00  0.00    -0.507 OA
ATOM     26  H   UNL     1     -54.096  21.332 -15.585  1.00  0.00     0.293 HD
ENDBRANCH   7  25
TORSDOF 6
ENDMDL
MODEL 2
REMARK VINA RESULT:    -5.308      1.358      2.820
REMARK INTER + INTRA:          -6.451
REMARK INTER:                  -6.168
REMARK INTRA:                  -0.283
REMARK UNBOUND:                -0.057
REMARK SMILES Oc1cc(O)c2cc(O)c(-c3ccc(O)c(O)c3)[o+]c2c1
REMARK SMILES IDX 10 1 19 2 20 3 21 4 2 5 3 6 4 7 6 8 7 9 8 10 11 11 12 12
REMARK SMILES IDX 13 13 14 14 18 15 16 16 15 17 17 19 9 21 1 23 5 25
REMARK H PARENT 15 18 17 20 9 22 1 24 5 26
REMARK Flexibility Score: inf
ROOT
ATOM      1  C   UNL     1     -57.522  18.049 -17.457  1.00  0.00     0.402 A 
ATOM      2  O   UNL     1     -57.452  19.172 -16.746  1.00  0.00    -0.202 OA
ATOM      3  C   UNL     1     -56.346  19.582 -16.135  1.00  0.00     0.368 A 
ATOM      4  C   UNL     1     -56.371  20.778 -15.413  1.00  0.00     0.162 A 
ATOM      5  C   UNL     1     -55.219  21.234 -14.764  1.00  0.00     0.128 A 
ATOM      6  C   UNL     1     -54.040  20.492 -14.837  1.00  0.00     0.093 A 
ATOM      7  C   UNL     1     -53.988  19.290 -15.554  1.00  0.00     0.136 A 
ATOM      8  C   UNL     1     -55.155  18.821 -16.213  1.00  0.00     0.125 A 
ATOM      9  C   UNL     1     -55.199  17.622 -16.943  1.00  0.00     0.078 A 
ATOM     10  C   UNL     1     -56.387  17.223 -17.562  1.00  0.00     0.223 A 
ENDROOT
BRANCH   1  11
ATOM     11  C   UNL     1     -58.811  17.705 -18.099  1.00  0.00     0.087 A 
ATOM     12  C   UNL     1     -58.940  17.819 -19.491  1.00  0.00     0.022 A 
ATOM     13  C   UNL     1     -60.140  17.483 -20.118  1.00  0.00     0.051 A 
ATOM     14  C   UNL     1     -61.228  17.011 -19.375  1.00  0.00     0.157 A 
ATOM     15  C   UNL     1     -59.893  17.211 -17.352  1.00  0.00     0.068 A 
ATOM     16  C   UNL     1     -61.101  16.867 -17.974  1.00  0.00     0.158 A 
BRANCH  14  17
ATOM     17  O   UNL     1     -62.401  16.699 -20.064  1.00  0.00    -0.504 OA
ATOM     18  H   UNL     1     -62.823  15.781 -20.074  1.00  0.00     0.293 HD
ENDBRANCH  14  17
BRANCH  16  19
ATOM     19  O   UNL     1     -62.134  16.384 -17.169  1.00  0.00    -0.504 OA
ATOM     20  H   UNL     1     -62.067  16.273 -16.168  1.00  0.00     0.293 HD
ENDBRANCH  16  19
ENDBRANCH   1  11
BRANCH  10  21
ATOM     21  O   UNL     1     -56.447  16.007 -18.245  1.00  0.00    -0.500 OA
ATOM     22  H   UNL     1     -56.275  15.947 -19.242  1.00  0.00     0.294 HD
ENDBRANCH  10  21
BRANCH   5  23
ATOM     23  O   UNL     1     -55.237  22.426 -14.043  1.00  0.00    -0.507 OA
ATOM     24  H   UNL     1     -55.931  23.144 -14.221  1.00  0.00     0.293 HD
ENDBRANCH   5  23
BRANCH   7  25
ATOM     25  O   UNL     1     -52.768  18.608 -15.582  1.00  0.00    -0.507 OA
ATOM     26  H   UNL     1     -52.517  17.916 -16.272  1.00  0.00     0.293 HD
ENDBRANCH   7  25
TORSDOF 6
ENDMDL
MODEL 3
REMARK VINA RESULT:    -5.291      8.136      9.673
REMARK INTER + INTRA:          -6.431
REMARK INTER:                  -6.172
REMARK INTRA:                  -0.258
REMARK UNBOUND:                -0.057
REMARK SMILES Oc1cc(O)c2cc(O)c(-c3ccc(O)c(O)c3)[o+]c2c1
REMARK SMILES IDX 10 1 19 2 20 3 21 4 2 5 3 6 4 7 6 8 7 9 8 10 11 11 12 12
REMARK SMILES IDX 13 13 14 14 18 15 16 16 15 17 17 19 9 21 1 23 5 25
REMARK H PARENT 15 18 17 20 9 22 1 24 5 26
REMARK Flexibility Score: inf
ROOT
ATOM      1  C   UNL     1     -58.160  24.684 -12.820  1.00  0.00     0.402 A 
ATOM      2  O   UNL     1     -57.946  23.390 -12.595  1.00  0.00    -0.202 OA
ATOM      3  C   UNL     1     -58.381  22.756 -11.511  1.00  0.00     0.368 A 
ATOM      4  C   UNL     1     -58.107  21.394 -11.365  1.00  0.00     0.162 A 
ATOM      5  C   UNL     1     -58.557  20.702 -10.236  1.00  0.00     0.128 A 
ATOM      6  C   UNL     1     -59.282  21.374  -9.251  1.00  0.00     0.093 A 
ATOM      7  C   UNL     1     -59.569  22.739  -9.374  1.00  0.00     0.136 A 
ATOM      8  C   UNL     1     -59.113  23.447 -10.517  1.00  0.00     0.125 A 
ATOM      9  C   UNL     1     -59.343  24.819 -10.717  1.00  0.00     0.078 A 
ATOM     10  C   UNL     1     -58.858  25.448 -11.867  1.00  0.00     0.223 A 
ENDROOT
BRANCH   1  11
ATOM     11  C   UNL     1     -57.632  25.274 -14.072  1.00  0.00     0.087 A 
ATOM     12  C   UNL     1     -56.246  25.336 -14.274  1.00  0.00     0.022 A 
ATOM     13  C   UNL     1     -55.728  25.871 -15.454  1.00  0.00     0.051 A 
ATOM     14  C   UNL     1     -56.579  26.340 -16.461  1.00  0.00     0.157 A 
ATOM     15  C   UNL     1     -58.491  25.723 -15.089  1.00  0.00     0.068 A 
ATOM     16  C   UNL     1     -57.980  26.258 -16.279  1.00  0.00     0.158 A 
BRANCH  14  17
ATOM     17  O   UNL     1     -55.996  26.870 -17.613  1.00  0.00    -0.504 OA
ATOM     18  H   UNL     1     -55.887  27.858 -17.787  1.00  0.00     0.293 HD
ENDBRANCH  14  17
BRANCH  16  19
ATOM     19  O   UNL     1     -58.891  26.686 -17.246  1.00  0.00    -0.504 OA
ATOM     20  H   UNL     1     -58.914  27.621 -17.627  1.00  0.00     0.293 HD
ENDBRANCH  16  19
ENDBRANCH   1  11
BRANCH  10  21
ATOM     21  O   UNL     1     -59.042  26.820 -12.044  1.00  0.00    -0.500 OA
ATOM     22  H   UNL     1     -59.570  27.377 -11.381  1.00  0.00     0.294 HD
ENDBRANCH  10  21
BRANCH   5  23
ATOM     23  O   UNL     1     -58.288  19.343 -10.084  1.00  0.00    -0.507 OA
ATOM     24  H   UNL     1     -59.017  18.645 -10.170  1.00  0.00     0.293 HD
ENDBRANCH   5  23
BRANCH   7  25
ATOM     25  O   UNL     1     -60.303  23.339  -8.346  1.00  0.00    -0.507 OA
ATOM     26  H   UNL     1     -60.758  24.236  -8.418  1.00  0.00     0.293 HD
ENDBRANCH   7  25
TORSDOF 6
ENDMDL
MODEL 4
REMARK VINA RESULT:    -5.196      5.995      9.362
REMARK INTER + INTRA:          -6.317
REMARK INTER:                  -6.032
REMARK INTRA:                  -0.285
REMARK UNBOUND:                -0.057
REMARK SMILES Oc1cc(O)c2cc(O)c(-c3ccc(O)c(O)c3)[o+]c2c1
REMARK SMILES IDX 10 1 19 2 20 3 21 4 2 5 3 6 4 7 6 8 7 9 8 10 11 11 12 12
REMARK SMILES IDX 13 13 14 14 18 15 16 16 15 17 17 19 9 21 1 23 5 25
REMARK H PARENT 15 18 17 20 9 22 1 24 5 26
REMARK Flexibility Score: inf
ROOT
ATOM      1  C   UNL     1     -56.355  23.907 -14.397  1.00  0.00     0.402 A 
ATOM      2  O   UNL     1     -56.506  24.715 -15.444  1.00  0.00    -0.202 OA
ATOM      3  C   UNL     1     -57.431  25.667 -15.504  1.00  0.00     0.368 A 
ATOM      4  C   UNL     1     -57.511  26.467 -16.647  1.00  0.00     0.162 A 
ATOM      5  C   UNL     1     -58.472  27.478 -16.735  1.00  0.00     0.128 A 
ATOM      6  C   UNL     1     -59.357  27.690 -15.676  1.00  0.00     0.093 A 
ATOM      7  C   UNL     1     -59.298  26.902 -14.520  1.00  0.00     0.136 A 
ATOM      8  C   UNL     1     -58.325  25.872 -14.427  1.00  0.00     0.125 A 
ATOM      9  C   UNL     1     -58.202  25.026 -13.312  1.00  0.00     0.078 A 
ATOM     10  C   UNL     1     -57.221  24.030 -13.295  1.00  0.00     0.223 A 
ENDROOT
BRANCH   1  11
ATOM     11  C   UNL     1     -55.279  22.891 -14.446  1.00  0.00     0.087 A 
ATOM     12  C   UNL     1     -53.952  23.280 -14.213  1.00  0.00     0.022 A 
ATOM     13  C   UNL     1     -52.925  22.335 -14.236  1.00  0.00     0.051 A 
ATOM     14  C   UNL     1     -53.201  20.985 -14.475  1.00  0.00     0.157 A 
ATOM     15  C   UNL     1     -55.563  21.533 -14.664  1.00  0.00     0.068 A 
ATOM     16  C   UNL     1     -54.540  20.576 -14.685  1.00  0.00     0.158 A 
BRANCH  14  17
ATOM     17  O   UNL     1     -52.128  20.092 -14.492  1.00  0.00    -0.504 OA
ATOM     18  H   UNL     1     -52.226  19.090 -14.420  1.00  0.00     0.293 HD
ENDBRANCH  14  17
BRANCH  16  19
ATOM     19  O   UNL     1     -54.895  19.245 -14.909  1.00  0.00    -0.504 OA
ATOM     20  H   UNL     1     -54.525  18.466 -14.385  1.00  0.00     0.293 HD
ENDBRANCH  16  19
ENDBRANCH   1  11
BRANCH  10  21
ATOM     21  O   UNL     1     -57.129  23.157 -12.210  1.00  0.00    -0.500 OA
ATOM     22  H   UNL     1     -56.733  22.229 -12.306  1.00  0.00     0.294 HD
ENDBRANCH  10  21
BRANCH   5  23
ATOM     23  O   UNL     1     -58.557  28.279 -17.872  1.00  0.00    -0.507 OA
ATOM     24  H   UNL     1     -57.766  28.403 -18.493  1.00  0.00     0.293 HD
ENDBRANCH   5  23
BRANCH   7  25
ATOM     25  O   UNL     1     -60.217  27.180 -13.503  1.00  0.00    -0.507 OA
ATOM     26  H   UNL     1     -60.052  27.010 -12.522  1.00  0.00     0.293 HD
ENDBRANCH   7  25
TORSDOF 6
ENDMDL
MODEL 5
REMARK VINA RESULT:    -5.120      1.844      2.321
REMARK INTER + INTRA:          -6.225
REMARK INTER:                  -5.875
REMARK INTRA:                  -0.350
REMARK UNBOUND:                -0.057
REMARK SMILES Oc1cc(O)c2cc(O)c(-c3ccc(O)c(O)c3)[o+]c2c1
REMARK SMILES IDX 10 1 19 2 20 3 21 4 2 5 3 6 4 7 6 8 7 9 8 10 11 11 12 12
REMARK SMILES IDX 13 13 14 14 18 15 16 16 15 17 17 19 9 21 1 23 5 25
REMARK H PARENT 15 18 17 20 9 22 1 24 5 26
REMARK Flexibility Score: inf
ROOT
ATOM      1  C   UNL     1     -56.915  17.711 -17.250  1.00  0.00     0.402 A 
ATOM      2  O   UNL     1     -56.224  17.330 -16.178  1.00  0.00    -0.202 OA
ATOM      3  C   UNL     1     -54.925  17.563 -16.026  1.00  0.00     0.368 A 
ATOM      4  C   UNL     1     -54.287  17.125 -14.862  1.00  0.00     0.162 A 
ATOM      5  C   UNL     1     -52.922  17.361 -14.674  1.00  0.00     0.128 A 
ATOM      6  C   UNL     1     -52.192  18.036 -15.654  1.00  0.00     0.093 A 
ATOM      7  C   UNL     1     -52.807  18.485 -16.829  1.00  0.00     0.136 A 
ATOM      8  C   UNL     1     -54.193  18.247 -17.025  1.00  0.00     0.125 A 
ATOM      9  C   UNL     1     -54.890  18.649 -18.177  1.00  0.00     0.078 A 
ATOM     10  C   UNL     1     -56.255  18.374 -18.301  1.00  0.00     0.223 A 
ENDROOT
BRANCH   1  11
ATOM     11  C   UNL     1     -58.362  17.401 -17.298  1.00  0.00     0.087 A 
ATOM     12  C   UNL     1     -58.788  16.182 -17.845  1.00  0.00     0.022 A 
ATOM     13  C   UNL     1     -60.146  15.862 -17.883  1.00  0.00     0.051 A 
ATOM     14  C   UNL     1     -61.103  16.741 -17.365  1.00  0.00     0.157 A 
ATOM     15  C   UNL     1     -59.317  18.277 -16.757  1.00  0.00     0.068 A 
ATOM     16  C   UNL     1     -60.682  17.963 -16.787  1.00  0.00     0.158 A 
BRANCH  14  17
ATOM     17  O   UNL     1     -62.445  16.364 -17.441  1.00  0.00    -0.504 OA
ATOM     18  H   UNL     1     -62.971  16.320 -18.301  1.00  0.00     0.293 HD
ENDBRANCH  14  17
BRANCH  16  19
ATOM     19  O   UNL     1     -61.576  18.880 -16.232  1.00  0.00    -0.504 OA
ATOM     20  H   UNL     1     -61.902  19.710 -16.707  1.00  0.00     0.293 HD
ENDBRANCH  16  19
ENDBRANCH   1  11
BRANCH  10  21
ATOM     21  O   UNL     1     -56.937  18.728 -19.466  1.00  0.00    -0.500 OA
ATOM     22  H   UNL     1     -57.211  19.686 -19.652  1.00  0.00     0.294 HD
ENDBRANCH  10  21
BRANCH   5  23
ATOM     23  O   UNL     1     -52.280  16.927 -13.516  1.00  0.00    -0.507 OA
ATOM     24  H   UNL     1     -52.394  17.412 -12.633  1.00  0.00     0.293 HD
ENDBRANCH   5  23
BRANCH   7  25
ATOM     25  O   UNL     1     -52.008  19.157 -17.759  1.00  0.00    -0.507 OA
ATOM     26  H   UNL     1     -51.190  19.699 -17.522  1.00  0.00     0.293 HD
ENDBRANCH   7  25
TORSDOF 6
ENDMDL
MODEL 6
REMARK VINA RESULT:    -5.106      8.172      9.831
REMARK INTER + INTRA:          -6.209
REMARK INTER:                  -5.910
REMARK INTRA:                  -0.298
REMARK UNBOUND:                -0.057
REMARK SMILES Oc1cc(O)c2cc(O)c(-c3ccc(O)c(O)c3)[o+]c2c1
REMARK SMILES IDX 10 1 19 2 20 3 21 4 2 5 3 6 4 7 6 8 7 9 8 10 11 11 12 12
REMARK SMILES IDX 13 13 14 14 18 15 16 16 15 17 17 19 9 21 1 23 5 25
REMARK H PARENT 15 18 17 20 9 22 1 24 5 26
REMARK Flexibility Score: inf
ROOT
ATOM      1  C   UNL     1     -57.424  25.304 -13.076  1.00  0.00     0.402 A 
ATOM      2  O   UNL     1     -57.933  24.083 -12.929  1.00  0.00    -0.202 OA
ATOM      3  C   UNL     1     -57.757  23.346 -11.837  1.00  0.00     0.368 A 
ATOM      4  C   UNL     1     -58.334  22.075 -11.775  1.00  0.00     0.162 A 
ATOM      5  C   UNL     1     -58.168  21.280 -10.637  1.00  0.00     0.128 A 
ATOM      6  C   UNL     1     -57.422  21.758  -9.558  1.00  0.00     0.093 A 
ATOM      7  C   UNL     1     -56.834  23.028  -9.595  1.00  0.00     0.136 A 
ATOM      8  C   UNL     1     -56.998  23.838 -10.749  1.00  0.00     0.125 A 
ATOM      9  C   UNL     1     -56.433  25.118 -10.880  1.00  0.00     0.078 A 
ATOM     10  C   UNL     1     -56.635  25.856 -12.050  1.00  0.00     0.223 A 
ENDROOT
BRANCH   1  11
ATOM     11  C   UNL     1     -57.699  26.030 -14.337  1.00  0.00     0.087 A 
ATOM     12  C   UNL     1     -58.935  26.671 -14.508  1.00  0.00     0.022 A 
ATOM     13  C   UNL     1     -59.208  27.376 -15.681  1.00  0.00     0.051 A 
ATOM     14  C   UNL     1     -58.252  27.471 -16.698  1.00  0.00     0.157 A 
ATOM     15  C   UNL     1     -56.729  26.141 -15.346  1.00  0.00     0.068 A 
ATOM     16  C   UNL     1     -56.992  26.851 -16.525  1.00  0.00     0.158 A 
BRANCH  14  17
ATOM     17  O   UNL     1     -58.591  28.185 -17.848  1.00  0.00    -0.504 OA
ATOM     18  H   UNL     1     -57.921  28.502 -18.534  1.00  0.00     0.293 HD
ENDBRANCH  14  17
BRANCH  16  19
ATOM     19  O   UNL     1     -55.981  26.918 -17.486  1.00  0.00    -0.504 OA
ATOM     20  H   UNL     1     -55.544  27.777 -17.787  1.00  0.00     0.293 HD
ENDBRANCH  16  19
ENDBRANCH   1  11
BRANCH  10  21
ATOM     21  O   UNL     1     -56.034  27.106 -12.202  1.00  0.00    -0.500 OA
ATOM     22  H   UNL     1     -55.613  27.593 -11.419  1.00  0.00     0.294 HD
ENDBRANCH  10  21
BRANCH   5  23
ATOM     23  O   UNL     1     -58.741  20.011 -10.568  1.00  0.00    -0.507 OA
ATOM     24  H   UNL     1     -58.372  19.233 -11.103  1.00  0.00     0.293 HD
ENDBRANCH   5  23
BRANCH   7  25
ATOM     25  O   UNL     1     -56.106  23.434  -8.473  1.00  0.00    -0.507 OA
ATOM     26  H   UNL     1     -55.326  24.073  -8.500  1.00  0.00     0.293 HD
ENDBRANCH   7  25
TORSDOF 6
ENDMDL
MODEL 7
REMARK VINA RESULT:    -5.104      9.415     11.068
REMARK INTER + INTRA:          -6.206
REMARK INTER:                  -6.623
REMARK INTRA:                   0.417
REMARK UNBOUND:                -0.057
REMARK SMILES Oc1cc(O)c2cc(O)c(-c3ccc(O)c(O)c3)[o+]c2c1
REMARK SMILES IDX 10 1 19 2 20 3 21 4 2 5 3 6 4 7 6 8 7 9 8 10 11 11 12 12
REMARK SMILES IDX 13 13 14 14 18 15 16 16 15 17 17 19 9 21 1 23 5 25
REMARK H PARENT 15 18 17 20 9 22 1 24 5 26
REMARK Flexibility Score: inf
ROOT
ATOM      1  C   UNL     1     -59.465  26.146 -13.372  1.00  0.00     0.402 A 
ATOM      2  O   UNL     1     -59.069  25.317 -12.409  1.00  0.00    -0.202 OA
ATOM      3  C   UNL     1     -59.806  25.034 -11.340  1.00  0.00     0.368 A 
ATOM      4  C   UNL     1     -59.304  24.148 -10.383  1.00  0.00     0.162 A 
ATOM      5  C   UNL     1     -60.060  23.831  -9.250  1.00  0.00     0.128 A 
ATOM      6  C   UNL     1     -61.321  24.401  -9.074  1.00  0.00     0.093 A 
ATOM      7  C   UNL     1     -61.847  25.292 -10.018  1.00  0.00     0.136 A 
ATOM      8  C   UNL     1     -61.083  25.620 -11.169  1.00  0.00     0.125 A 
ATOM      9  C   UNL     1     -61.524  26.512 -12.160  1.00  0.00     0.078 A 
ATOM     10  C   UNL     1     -60.712  26.789 -13.264  1.00  0.00     0.223 A 
ENDROOT
BRANCH   1  11
ATOM     11  C   UNL     1     -58.557  26.372 -14.519  1.00  0.00     0.087 A 
ATOM     12  C   UNL     1     -57.336  25.686 -14.577  1.00  0.00     0.022 A 
ATOM     13  C   UNL     1     -56.473  25.871 -15.659  1.00  0.00     0.051 A 
ATOM     14  C   UNL     1     -56.818  26.728 -16.710  1.00  0.00     0.157 A 
ATOM     15  C   UNL     1     -58.917  27.216 -15.583  1.00  0.00     0.068 A 
ATOM     16  C   UNL     1     -58.060  27.405 -16.675  1.00  0.00     0.158 A 
BRANCH  14  17
ATOM     17  O   UNL     1     -55.908  26.873 -17.758  1.00  0.00    -0.504 OA
ATOM     18  H   UNL     1     -54.939  27.129 -17.633  1.00  0.00     0.293 HD
ENDBRANCH  14  17
BRANCH  16  19
ATOM     19  O   UNL     1     -58.481  28.259 -17.695  1.00  0.00    -0.504 OA
ATOM     20  H   UNL     1     -58.119  28.236 -18.638  1.00  0.00     0.293 HD
ENDBRANCH  16  19
ENDBRANCH   1  11
BRANCH  10  21
ATOM     21  O   UNL     1     -61.127  27.713 -14.223  1.00  0.00    -0.500 OA
ATOM     22  H   UNL     1     -61.801  28.439 -14.007  1.00  0.00     0.294 HD
ENDBRANCH  10  21
BRANCH   5  23
ATOM     23  O   UNL     1     -59.565  22.948  -8.292  1.00  0.00    -0.507 OA
ATOM     24  H   UNL     1     -59.707  23.106  -7.302  1.00  0.00     0.293 HD
ENDBRANCH   5  23
BRANCH   7  25
ATOM     25  O   UNL     1     -63.119  25.818  -9.770  1.00  0.00    -0.507 OA
ATOM     26  H   UNL     1     -63.826  25.959 -10.477  1.00  0.00     0.293 HD
ENDBRANCH   7  25
TORSDOF 6
ENDMDL
MODEL 8
REMARK VINA RESULT:    -5.072      6.267      9.899
REMARK INTER + INTRA:          -6.167
REMARK INTER:                  -5.835
REMARK INTRA:                  -0.332
REMARK UNBOUND:                -0.057
REMARK SMILES Oc1cc(O)c2cc(O)c(-c3ccc(O)c(O)c3)[o+]c2c1
REMARK SMILES IDX 10 1 19 2 20 3 21 4 2 5 3 6 4 7 6 8 7 9 8 10 11 11 12 12
REMARK SMILES IDX 13 13 14 14 18 15 16 16 15 17 17 19 9 21 1 23 5 25
REMARK H PARENT 15 18 17 20 9 22 1 24 5 26
REMARK Flexibility Score: inf
ROOT
ATOM      1  C   UNL     1     -56.229  24.706 -14.933  1.00  0.00     0.402 A 
ATOM      2  O   UNL     1     -57.386  24.939 -14.318  1.00  0.00    -0.202 OA
ATOM      3  C   UNL     1     -58.206  25.928 -14.657  1.00  0.00     0.368 A 
ATOM      4  C   UNL     1     -59.402  26.091 -13.953  1.00  0.00     0.162 A 
ATOM      5  C   UNL     1     -60.285  27.121 -14.291  1.00  0.00     0.128 A 
ATOM      6  C   UNL     1     -59.970  27.991 -15.336  1.00  0.00     0.093 A 
ATOM      7  C   UNL     1     -58.778  27.850 -16.057  1.00  0.00     0.136 A 
ATOM      8  C   UNL     1     -57.878  26.806 -15.717  1.00  0.00     0.125 A 
ATOM      9  C   UNL     1     -56.654  26.597 -16.376  1.00  0.00     0.078 A 
ATOM     10  C   UNL     1     -55.817  25.550 -15.980  1.00  0.00     0.223 A 
ENDROOT
BRANCH   1  11
ATOM     11  C   UNL     1     -55.407  23.565 -14.469  1.00  0.00     0.087 A 
ATOM     12  C   UNL     1     -54.383  23.787 -13.537  1.00  0.00     0.022 A 
ATOM     13  C   UNL     1     -53.608  22.723 -13.073  1.00  0.00     0.051 A 
ATOM     14  C   UNL     1     -53.848  21.417 -13.515  1.00  0.00     0.157 A 
ATOM     15  C   UNL     1     -55.665  22.253 -14.899  1.00  0.00     0.068 A 
ATOM     16  C   UNL     1     -54.896  21.178 -14.436  1.00  0.00     0.158 A 
BRANCH  14  17
ATOM     17  O   UNL     1     -53.033  20.399 -13.017  1.00  0.00    -0.504 OA
ATOM     18  H   UNL     1     -53.305  19.769 -12.277  1.00  0.00     0.293 HD
ENDBRANCH  14  17
BRANCH  16  19
ATOM     19  O   UNL     1     -55.208  19.901 -14.906  1.00  0.00    -0.504 OA
ATOM     20  H   UNL     1     -55.284  19.662 -15.884  1.00  0.00     0.293 HD
ENDBRANCH  16  19
ENDBRANCH   1  11
BRANCH  10  21
ATOM     21  O   UNL     1     -54.580  25.372 -16.600  1.00  0.00    -0.500 OA
ATOM     22  H   UNL     1     -54.111  24.473 -16.606  1.00  0.00     0.294 HD
ENDBRANCH  10  21
BRANCH   5  23
ATOM     23  O   UNL     1     -61.479  27.289 -13.593  1.00  0.00    -0.507 OA
ATOM     24  H   UNL     1     -61.532  27.153 -12.591  1.00  0.00     0.293 HD
ENDBRANCH   5  23
BRANCH   7  25
ATOM     25  O   UNL     1     -58.539  28.759 -17.092  1.00  0.00    -0.507 OA
ATOM     26  H   UNL     1     -59.250  29.123 -17.708  1.00  0.00     0.293 HD
ENDBRANCH   7  25
TORSDOF 6
ENDMDL
MODEL 9
REMARK VINA RESULT:    -5.059      8.051     10.236
REMARK INTER + INTRA:          -6.151
REMARK INTER:                  -6.373
REMARK INTRA:                   0.221
REMARK UNBOUND:                -0.057
REMARK SMILES Oc1cc(O)c2cc(O)c(-c3ccc(O)c(O)c3)[o+]c2c1
REMARK SMILES IDX 10 1 19 2 20 3 21 4 2 5 3 6 4 7 6 8 7 9 8 10 11 11 12 12
REMARK SMILES IDX 13 13 14 14 18 15 16 16 15 17 17 19 9 21 1 23 5 25
REMARK H PARENT 15 18 17 20 9 22 1 24 5 26
REMARK Flexibility Score: inf
ROOT
ATOM      1  C   UNL     1     -58.186  24.856 -13.388  1.00  0.00     0.402 A 
ATOM      2  O   UNL     1     -58.933  25.148 -12.326  1.00  0.00    -0.202 OA
ATOM      3  C   UNL     1     -58.966  24.400 -11.228  1.00  0.00     0.368 A 
ATOM      4  C   UNL     1     -59.781  24.791 -10.162  1.00  0.00     0.162 A 
ATOM      5  C   UNL     1     -59.831  24.024  -8.995  1.00  0.00     0.128 A 
ATOM      6  C   UNL     1     -59.065  22.862  -8.893  1.00  0.00     0.093 A 
ATOM      7  C   UNL     1     -58.240  22.448  -9.946  1.00  0.00     0.136 A 
ATOM      8  C   UNL     1     -58.187  23.222 -11.135  1.00  0.00     0.125 A 
ATOM      9  C   UNL     1     -57.399  22.877 -12.246  1.00  0.00     0.078 A 
ATOM     10  C   UNL     1     -57.402  23.688 -13.384  1.00  0.00     0.223 A 
ENDROOT
BRANCH   1  11
ATOM     11  C   UNL     1     -58.227  25.776 -14.548  1.00  0.00     0.087 A 
ATOM     12  C   UNL     1     -59.358  26.580 -14.750  1.00  0.00     0.022 A 
ATOM     13  C   UNL     1     -59.411  27.466 -15.826  1.00  0.00     0.051 A 
ATOM     14  C   UNL     1     -58.333  27.581 -16.711  1.00  0.00     0.157 A 
ATOM     15  C   UNL     1     -57.135  25.903 -15.421  1.00  0.00     0.068 A 
ATOM     16  C   UNL     1     -57.176  26.793 -16.502  1.00  0.00     0.158 A 
BRANCH  14  17
ATOM     17  O   UNL     1     -58.452  28.481 -17.772  1.00  0.00    -0.504 OA
ATOM     18  H   UNL     1     -59.158  28.416 -18.491  1.00  0.00     0.293 HD
ENDBRANCH  14  17
BRANCH  16  19
ATOM     19  O   UNL     1     -56.055  26.867 -17.330  1.00  0.00    -0.504 OA
ATOM     20  H   UNL     1     -55.119  26.627 -17.037  1.00  0.00     0.293 HD
ENDBRANCH  16  19
ENDBRANCH   1  11
BRANCH  10  21
ATOM     21  O   UNL     1     -56.659  23.320 -14.507  1.00  0.00    -0.500 OA
ATOM     22  H   UNL     1     -55.651  23.222 -14.470  1.00  0.00     0.294 HD
ENDBRANCH  10  21
BRANCH   5  23
ATOM     23  O   UNL     1     -60.642  24.408  -7.928  1.00  0.00    -0.507 OA
ATOM     24  H   UNL     1     -61.649  24.300  -7.961  1.00  0.00     0.293 HD
ENDBRANCH   5  23
BRANCH   7  25
ATOM     25  O   UNL     1     -57.501  21.275  -9.764  1.00  0.00    -0.507 OA
ATOM     26  H   UNL     1     -56.579  21.239  -9.355  1.00  0.00     0.293 HD
ENDBRANCH   7  25
TORSDOF 6
ENDMDL
