MODEL 1
REMARK VINA RESULT:    -5.125      0.000      0.000
REMARK INTER + INTRA:          -5.619
REMARK INTER:                  -5.574
REMARK INTRA:                  -0.045
REMARK UNBOUND:                -0.045
REMARK SMILES COc1cc2ccc(=O)oc2cc1O
REMARK SMILES IDX 3 1 13 2 12 3 11 4 5 5 4 6 6 7 7 8 8 9 9 10 10 11 2 12 1 13
REMARK SMILES IDX 14 14
REMARK H PARENT 14 15
REMARK Flexibility Score: inf
ROOT
ATOM      1  C   UNL     1       7.893  -6.939  -6.607  1.00  0.00     0.161 A 
ATOM      2  C   UNL     1       8.022  -5.603  -7.017  1.00  0.00     0.161 A 
ATOM      3  C   UNL     1       8.117  -5.286  -8.379  1.00  0.00     0.098 A 
ATOM      4  C   UNL     1       8.081  -6.297  -9.342  1.00  0.00     0.142 A 
ATOM      5  C   UNL     1       7.950  -7.643  -8.940  1.00  0.00     0.022 A 
ATOM      6  C   UNL     1       7.856  -7.961  -7.578  1.00  0.00     0.062 A 
ATOM      7  C   UNL     1       7.918  -8.633  -9.927  1.00  0.00     0.019 A 
ATOM      8  C   UNL     1       8.014  -8.266 -11.269  1.00  0.00     0.094 A 
ATOM      9  C   UNL     1       8.142  -6.911 -11.593  1.00  0.00     0.336 A 
ATOM     10  O   UNL     1       8.231  -6.559 -12.798  1.00  0.00    -0.246 OA
ATOM     11  O   UNL     1       8.171  -5.989 -10.634  1.00  0.00    -0.423 OA
ENDROOT
BRANCH   1  12
ATOM     12  O   UNL     1       7.802  -7.211  -5.233  1.00  0.00    -0.493 OA
ATOM     13  C   UNL     1       7.429  -8.470  -4.683  1.00  0.00     0.278 C 
ENDBRANCH   1  12
BRANCH   2  14
ATOM     14  O   UNL     1       8.058  -4.591  -6.058  1.00  0.00    -0.504 OA
ATOM     15  H   UNL     1       8.838  -3.946  -5.996  1.00  0.00     0.293 HD
ENDBRANCH   2  14
TORSDOF 2
ENDMDL
MODEL 2
REMARK VINA RESULT:    -4.907      2.123      2.445
REMARK INTER + INTRA:          -5.382
REMARK INTER:                  -5.336
REMARK INTRA:                  -0.047
REMARK UNBOUND:                -0.045
REMARK SMILES COc1cc2ccc(=O)oc2cc1O
REMARK SMILES IDX 3 1 13 2 12 3 11 4 5 5 4 6 6 7 7 8 8 9 9 10 10 11 2 12 1 13
REMARK SMILES IDX 14 14
REMARK H PARENT 14 15
REMARK Flexibility Score: inf
ROOT
ATOM      1  C   UNL     1       8.138  -5.605  -7.138  1.00  0.00     0.161 A 
ATOM      2  C   UNL     1       7.448  -5.175  -8.281  1.00  0.00     0.161 A 
ATOM      3  C   UNL     1       7.934  -5.485  -9.560  1.00  0.00     0.098 A 
ATOM      4  C   UNL     1       9.109  -6.225  -9.707  1.00  0.00     0.142 A 
ATOM      5  C   UNL     1       9.809  -6.662  -8.563  1.00  0.00     0.022 A 
ATOM      6  C   UNL     1       9.325  -6.353  -7.284  1.00  0.00     0.062 A 
ATOM      7  C   UNL     1      10.983  -7.401  -8.742  1.00  0.00     0.019 A 
ATOM      8  C   UNL     1      11.424  -7.683 -10.034  1.00  0.00     0.094 A 
ATOM      9  C   UNL     1      10.677  -7.217 -11.122  1.00  0.00     0.336 A 
ATOM     10  O   UNL     1      11.059  -7.461 -12.296  1.00  0.00    -0.246 OA
ATOM     11  O   UNL     1       9.564  -6.515 -10.923  1.00  0.00    -0.423 OA
ENDROOT
BRANCH   1  12
ATOM     12  O   UNL     1       7.617  -5.272  -5.878  1.00  0.00    -0.493 OA
ATOM     13  C   UNL     1       8.387  -5.179  -4.684  1.00  0.00     0.278 C 
ENDBRANCH   1  12
BRANCH   2  14
ATOM     14  O   UNL     1       6.275  -4.436  -8.138  1.00  0.00    -0.504 OA
ATOM     15  H   UNL     1       5.549  -4.449  -8.846  1.00  0.00     0.293 HD
ENDBRANCH   2  14
TORSDOF 2
ENDMDL
MODEL 3
REMARK VINA RESULT:    -4.867      1.337      2.431
REMARK INTER + INTRA:          -5.339
REMARK INTER:                  -5.289
REMARK INTRA:                  -0.050
REMARK UNBOUND:                -0.045
REMARK SMILES COc1cc2ccc(=O)oc2cc1O
REMARK SMILES IDX 3 1 13 2 12 3 11 4 5 5 4 6 6 7 7 8 8 9 9 10 10 11 2 12 1 13
REMARK SMILES IDX 14 14
REMARK H PARENT 14 15
REMARK Flexibility Score: inf
ROOT
ATOM      1  C   UNL     1       8.140  -6.794  -6.905  1.00  0.00     0.161 A 
ATOM      2  C   UNL     1       8.456  -8.120  -7.239  1.00  0.00     0.161 A 
ATOM      3  C   UNL     1       8.677  -8.480  -8.576  1.00  0.00     0.098 A 
ATOM      4  C   UNL     1       8.587  -7.522  -9.588  1.00  0.00     0.142 A 
ATOM      5  C   UNL     1       8.271  -6.186  -9.262  1.00  0.00     0.022 A 
ATOM      6  C   UNL     1       8.049  -5.825  -7.926  1.00  0.00     0.062 A 
ATOM      7  C   UNL     1       8.187  -5.250 -10.298  1.00  0.00     0.019 A 
ATOM      8  C   UNL     1       8.417  -5.658 -11.611  1.00  0.00     0.094 A 
ATOM      9  C   UNL     1       8.725  -7.000 -11.859  1.00  0.00     0.336 A 
ATOM     10  O   UNL     1       8.935  -7.388 -13.037  1.00  0.00    -0.246 OA
ATOM     11  O   UNL     1       8.798  -7.871 -10.855  1.00  0.00    -0.423 OA
ENDROOT
BRANCH   1  12
ATOM     12  O   UNL     1       7.926  -6.477  -5.555  1.00  0.00    -0.493 OA
ATOM     13  C   UNL     1       8.347  -5.268  -4.933  1.00  0.00     0.278 C 
ENDBRANCH   1  12
BRANCH   2  14
ATOM     14  O   UNL     1       8.547  -9.078  -6.231  1.00  0.00    -0.504 OA
ATOM     15  H   UNL     1       9.182  -8.967  -5.448  1.00  0.00     0.293 HD
ENDBRANCH   2  14
TORSDOF 2
ENDMDL
MODEL 4
REMARK VINA RESULT:    -4.866      1.221      4.818
REMARK INTER + INTRA:          -5.338
REMARK INTER:                  -5.275
REMARK INTRA:                  -0.063
REMARK UNBOUND:                -0.045
REMARK SMILES COc1cc2ccc(=O)oc2cc1O
REMARK SMILES IDX 3 1 13 2 12 3 11 4 5 5 4 6 6 7 7 8 8 9 9 10 10 11 2 12 1 13
REMARK SMILES IDX 14 14
REMARK H PARENT 14 15
REMARK Flexibility Score: inf
ROOT
ATOM      1  C   UNL     1       8.087  -7.614 -10.489  1.00  0.00     0.161 A 
ATOM      2  C   UNL     1       8.278  -6.228 -10.584  1.00  0.00     0.161 A 
ATOM      3  C   UNL     1       8.320  -5.437  -9.427  1.00  0.00     0.098 A 
ATOM      4  C   UNL     1       8.173  -6.023  -8.168  1.00  0.00     0.142 A 
ATOM      5  C   UNL     1       7.981  -7.417  -8.062  1.00  0.00     0.022 A 
ATOM      6  C   UNL     1       7.938  -8.208  -9.218  1.00  0.00     0.062 A 
ATOM      7  C   UNL     1       7.836  -7.974  -6.787  1.00  0.00     0.019 A 
ATOM      8  C   UNL     1       7.886  -7.146  -5.667  1.00  0.00     0.094 A 
ATOM      9  C   UNL     1       8.080  -5.771  -5.849  1.00  0.00     0.336 A 
ATOM     10  O   UNL     1       8.128  -5.007  -4.851  1.00  0.00    -0.246 OA
ATOM     11  O   UNL     1       8.215  -5.267  -7.073  1.00  0.00    -0.423 OA
ENDROOT
BRANCH   1  12
ATOM     12  O   UNL     1       8.051  -8.367 -11.673  1.00  0.00    -0.493 OA
ATOM     13  C   UNL     1       6.900  -9.049 -12.160  1.00  0.00     0.278 C 
ENDBRANCH   1  12
BRANCH   2  14
ATOM     14  O   UNL     1       8.426  -5.639 -11.840  1.00  0.00    -0.504 OA
ATOM     15  H   UNL     1       9.288  -5.721 -12.366  1.00  0.00     0.293 HD
ENDBRANCH   2  14
TORSDOF 2
ENDMDL
MODEL 5
REMARK VINA RESULT:    -4.810      2.191      5.282
REMARK INTER + INTRA:          -5.277
REMARK INTER:                  -5.227
REMARK INTRA:                  -0.050
REMARK UNBOUND:                -0.045
REMARK SMILES COc1cc2ccc(=O)oc2cc1O
REMARK SMILES IDX 3 1 13 2 12 3 11 4 5 5 4 6 6 7 7 8 8 9 9 10 10 11 2 12 1 13
REMARK SMILES IDX 14 14
REMARK H PARENT 14 15
REMARK Flexibility Score: inf
ROOT
ATOM      1  C   UNL     1       9.991  -6.910 -10.895  1.00  0.00     0.161 A 
ATOM      2  C   UNL     1      11.171  -6.847 -10.138  1.00  0.00     0.161 A 
ATOM      3  C   UNL     1      11.126  -6.488  -8.784  1.00  0.00     0.098 A 
ATOM      4  C   UNL     1       9.905  -6.191  -8.174  1.00  0.00     0.142 A 
ATOM      5  C   UNL     1       8.713  -6.253  -8.926  1.00  0.00     0.022 A 
ATOM      6  C   UNL     1       8.757  -6.611 -10.280  1.00  0.00     0.062 A 
ATOM      7  C   UNL     1       7.506  -5.949  -8.287  1.00  0.00     0.019 A 
ATOM      8  C   UNL     1       7.514  -5.598  -6.938  1.00  0.00     0.094 A 
ATOM      9  C   UNL     1       8.735  -5.558  -6.256  1.00  0.00     0.336 A 
ATOM     10  O   UNL     1       8.764  -5.243  -5.038  1.00  0.00    -0.246 OA
ATOM     11  O   UNL     1       9.870  -5.851  -6.888  1.00  0.00    -0.423 OA
ENDROOT
BRANCH   1  12
ATOM     12  O   UNL     1      10.082  -7.273 -12.247  1.00  0.00    -0.493 OA
ATOM     13  C   UNL     1       9.138  -8.093 -12.928  1.00  0.00     0.278 C 
ENDBRANCH   1  12
BRANCH   2  14
ATOM     14  O   UNL     1      12.391  -7.143 -10.744  1.00  0.00    -0.504 OA
ATOM     15  H   UNL     1      12.609  -8.077 -11.072  1.00  0.00     0.293 HD
ENDBRANCH   2  14
TORSDOF 2
ENDMDL
MODEL 6
REMARK VINA RESULT:    -4.786      2.822      5.383
REMARK INTER + INTRA:          -5.251
REMARK INTER:                  -5.186
REMARK INTRA:                  -0.065
REMARK UNBOUND:                -0.045
REMARK SMILES COc1cc2ccc(=O)oc2cc1O
REMARK SMILES IDX 3 1 13 2 12 3 11 4 5 5 4 6 6 7 7 8 8 9 9 10 10 11 2 12 1 13
REMARK SMILES IDX 14 14
REMARK H PARENT 14 15
REMARK Flexibility Score: inf
ROOT
ATOM      1  C   UNL     1      11.191  -6.791  -9.213  1.00  0.00     0.161 A 
ATOM      2  C   UNL     1      10.925  -8.137  -9.504  1.00  0.00     0.161 A 
ATOM      3  C   UNL     1       9.942  -8.836  -8.789  1.00  0.00     0.098 A 
ATOM      4  C   UNL     1       9.217  -8.197  -7.781  1.00  0.00     0.142 A 
ATOM      5  C   UNL     1       9.476  -6.843  -7.482  1.00  0.00     0.022 A 
ATOM      6  C   UNL     1      10.459  -6.144  -8.195  1.00  0.00     0.062 A 
ATOM      7  C   UNL     1       8.734  -6.231  -6.467  1.00  0.00     0.019 A 
ATOM      8  C   UNL     1       7.766  -6.968  -5.786  1.00  0.00     0.094 A 
ATOM      9  C   UNL     1       7.564  -8.308  -6.137  1.00  0.00     0.336 A 
ATOM     10  O   UNL     1       6.696  -8.990  -5.534  1.00  0.00    -0.246 OA
ATOM     11  O   UNL     1       8.284  -8.866  -7.107  1.00  0.00    -0.423 OA
ENDROOT
BRANCH   1  12
ATOM     12  O   UNL     1      12.184  -6.130  -9.953  1.00  0.00    -0.493 OA
ATOM     13  C   UNL     1      11.927  -5.239 -11.033  1.00  0.00     0.278 C 
ENDBRANCH   1  12
BRANCH   2  14
ATOM     14  O   UNL     1      11.648  -8.778 -10.510  1.00  0.00    -0.504 OA
ATOM     15  H   UNL     1      11.292  -9.607 -10.973  1.00  0.00     0.293 HD
ENDBRANCH   2  14
TORSDOF 2
ENDMDL
MODEL 7
REMARK VINA RESULT:    -4.768     13.301     14.318
REMARK INTER + INTRA:          -5.232
REMARK INTER:                  -5.168
REMARK INTRA:                  -0.064
REMARK UNBOUND:                -0.045
REMARK SMILES COc1cc2ccc(=O)oc2cc1O
REMARK SMILES IDX 3 1 13 2 12 3 11 4 5 5 4 6 6 7 7 8 8 9 9 10 10 11 2 12 1 13
REMARK SMILES IDX 14 14
REMARK H PARENT 14 15
REMARK Flexibility Score: inf
ROOT
ATOM      1  C   UNL     1      19.359  -2.371  -8.221  1.00  0.00     0.161 A 
ATOM      2  C   UNL     1      18.973  -2.785  -6.937  1.00  0.00     0.161 A 
ATOM      3  C   UNL     1      19.939  -3.188  -6.003  1.00  0.00     0.098 A 
ATOM      4  C   UNL     1      21.293  -3.181  -6.342  1.00  0.00     0.142 A 
ATOM      5  C   UNL     1      21.691  -2.766  -7.631  1.00  0.00     0.022 A 
ATOM      6  C   UNL     1      20.727  -2.363  -8.566  1.00  0.00     0.062 A 
ATOM      7  C   UNL     1      23.055  -2.771  -7.941  1.00  0.00     0.019 A 
ATOM      8  C   UNL     1      23.975  -3.180  -6.978  1.00  0.00     0.094 A 
ATOM      9  C   UNL     1      23.508  -3.578  -5.720  1.00  0.00     0.336 A 
ATOM     10  O   UNL     1      24.323  -3.951  -4.837  1.00  0.00    -0.246 OA
ATOM     11  O   UNL     1      22.204  -3.565  -5.451  1.00  0.00    -0.423 OA
ENDROOT
BRANCH   1  12
ATOM     12  O   UNL     1      18.360  -1.977  -9.124  1.00  0.00    -0.493 OA
ATOM     13  C   UNL     1      17.983  -2.713 -10.283  1.00  0.00     0.278 C 
ENDBRANCH   1  12
BRANCH   2  14
ATOM     14  O   UNL     1      17.622  -2.793  -6.595  1.00  0.00    -0.504 OA
ATOM     15  H   UNL     1      17.065  -1.946  -6.610  1.00  0.00     0.293 HD
ENDBRANCH   2  14
TORSDOF 2
ENDMDL
MODEL 8
REMARK VINA RESULT:    -4.744     14.902     16.976
REMARK INTER + INTRA:          -5.206
REMARK INTER:                  -5.142
REMARK INTRA:                  -0.064
REMARK UNBOUND:                -0.045
REMARK SMILES COc1cc2ccc(=O)oc2cc1O
REMARK SMILES IDX 3 1 13 2 12 3 11 4 5 5 4 6 6 7 7 8 8 9 9 10 10 11 2 12 1 13
REMARK SMILES IDX 14 14
REMARK H PARENT 14 15
REMARK Flexibility Score: inf
ROOT
ATOM      1  C   UNL     1      11.100   3.761 -19.722  1.00  0.00     0.161 A 
ATOM      2  C   UNL     1      12.016   3.191 -18.825  1.00  0.00     0.161 A 
ATOM      3  C   UNL     1      12.931   4.000 -18.136  1.00  0.00     0.098 A 
ATOM      4  C   UNL     1      12.938   5.382 -18.335  1.00  0.00     0.142 A 
ATOM      5  C   UNL     1      12.019   5.965 -19.234  1.00  0.00     0.022 A 
ATOM      6  C   UNL     1      11.105   5.157 -19.924  1.00  0.00     0.062 A 
ATOM      7  C   UNL     1      12.052   7.352 -19.413  1.00  0.00     0.019 A 
ATOM      8  C   UNL     1      12.980   8.113 -18.704  1.00  0.00     0.094 A 
ATOM      9  C   UNL     1      13.860   7.466 -17.829  1.00  0.00     0.336 A 
ATOM     10  O   UNL     1      14.705   8.135 -17.180  1.00  0.00    -0.246 OA
ATOM     11  O   UNL     1      13.808   6.144 -17.678  1.00  0.00    -0.423 OA
ENDROOT
BRANCH   1  12
ATOM     12  O   UNL     1      10.203   2.914 -20.390  1.00  0.00    -0.493 OA
ATOM     13  C   UNL     1       8.800   2.870 -20.146  1.00  0.00     0.278 C 
ENDBRANCH   1  12
BRANCH   2  14
ATOM     14  O   UNL     1      12.011   1.811 -18.624  1.00  0.00    -0.504 OA
ATOM     15  H   UNL     1      12.462   1.391 -17.819  1.00  0.00     0.293 HD
ENDBRANCH   2  14
TORSDOF 2
ENDMDL
MODEL 9
REMARK VINA RESULT:    -4.734      1.409      5.348
REMARK INTER + INTRA:          -5.194
REMARK INTER:                  -5.143
REMARK INTRA:                  -0.051
REMARK UNBOUND:                -0.045
REMARK SMILES COc1cc2ccc(=O)oc2cc1O
REMARK SMILES IDX 3 1 13 2 12 3 11 4 5 5 4 6 6 7 7 8 8 9 9 10 10 11 2 12 1 13
REMARK SMILES IDX 14 14
REMARK H PARENT 14 15
REMARK Flexibility Score: inf
ROOT
ATOM      1  C   UNL     1       8.259  -6.488 -10.545  1.00  0.00     0.161 A 
ATOM      2  C   UNL     1       8.080  -7.878 -10.480  1.00  0.00     0.161 A 
ATOM      3  C   UNL     1       7.896  -8.512  -9.243  1.00  0.00     0.098 A 
ATOM      4  C   UNL     1       7.889  -7.765  -8.063  1.00  0.00     0.142 A 
ATOM      5  C   UNL     1       8.067  -6.366  -8.119  1.00  0.00     0.022 A 
ATOM      6  C   UNL     1       8.252  -5.732  -9.355  1.00  0.00     0.062 A 
ATOM      7  C   UNL     1       8.055  -5.645  -6.920  1.00  0.00     0.019 A 
ATOM      8  C   UNL     1       7.868  -6.321  -5.715  1.00  0.00     0.094 A 
ATOM      9  C   UNL     1       7.697  -7.710  -5.738  1.00  0.00     0.336 A 
ATOM     10  O   UNL     1       7.528  -8.338  -4.661  1.00  0.00    -0.246 OA
ATOM     11  O   UNL     1       7.713  -8.372  -6.892  1.00  0.00    -0.423 OA
ENDROOT
BRANCH   1  12
ATOM     12  O   UNL     1       8.440  -5.896 -11.805  1.00  0.00    -0.493 OA
ATOM     13  C   UNL     1       7.852  -4.664 -12.209  1.00  0.00     0.278 C 
ENDBRANCH   1  12
BRANCH   2  14
ATOM     14  O   UNL     1       8.087  -8.627 -11.656  1.00  0.00    -0.504 OA
ATOM     15  H   UNL     1       7.243  -9.059 -12.016  1.00  0.00     0.293 HD
ENDBRANCH   2  14
TORSDOF 2
ENDMDL
