MODEL 1
REMARK VINA RESULT:    -5.425      0.000      0.000
REMARK INTER + INTRA:         -17.809
REMARK INTER:                 -14.306
REMARK INTRA:                  -3.503
REMARK UNBOUND:                -3.503
REMARK SMILES CCCCCCCCCCCCCCCCCCCCCCCCCCCCCC(=O)[O-]
REMARK SMILES IDX 16 1 17 2 18 3 19 4 20 5 21 6 22 7 23 8 24 9 25 10 26 11
REMARK SMILES IDX 27 12 28 13 29 14 30 15 31 16 32 17 15 18 14 19 13 20 12 21
REMARK SMILES IDX 11 22 10 23 9 24 8 25 7 26 6 27 5 28 4 29 3 30 2 31 1 32
REMARK H PARENT
REMARK Flexibility Score: inf
ROOT
ATOM      1  C   UNL     1     -18.497  44.503  84.564  1.00  0.00     0.000 C 
ENDROOT
BRANCH   1   2
ATOM      2  C   UNL     1     -17.639  45.780  84.483  1.00  0.00     0.000 C 
BRANCH   2   3
ATOM      3  C   UNL     1     -18.358  46.939  83.769  1.00  0.00     0.000 C 
BRANCH   3   4
ATOM      4  C   UNL     1     -19.580  46.471  82.956  1.00  0.00     0.000 C 
BRANCH   4   5
ATOM      5  C   UNL     1     -20.923  47.088  83.383  1.00  0.00     0.000 C 
BRANCH   5   6
ATOM      6  C   UNL     1     -21.699  46.201  84.369  1.00  0.00     0.000 C 
BRANCH   6   7
ATOM      7  C   UNL     1     -22.579  47.012  85.333  1.00  0.00     0.000 C 
BRANCH   7   8
ATOM      8  C   UNL     1     -22.068  47.076  86.785  1.00  0.00     0.000 C 
BRANCH   8   9
ATOM      9  C   UNL     1     -23.180  46.918  87.843  1.00  0.00     0.000 C 
BRANCH   9  10
ATOM     10  C   UNL     1     -23.071  45.587  88.606  1.00  0.00     0.000 C 
BRANCH  10  11
ATOM     11  C   UNL     1     -24.270  44.667  88.336  1.00  0.00     0.000 C 
BRANCH  11  12
ATOM     12  C   UNL     1     -25.539  45.137  89.067  1.00  0.00     0.000 C 
BRANCH  12  13
ATOM     13  C   UNL     1     -25.866  44.255  90.283  1.00  0.00     0.006 C 
BRANCH  13  14
ATOM     14  C   UNL     1     -27.324  44.409  90.730  1.00  0.00     0.053 C 
BRANCH  14  15
ATOM     15  C   UNL     1     -28.131  43.216  90.324  1.00  0.00     0.041 C 
ATOM     16  O   UNL     1     -27.941  42.676  89.206  1.00  0.00    -0.550 OA
ATOM     17  O   UNL     1     -29.104  42.704  91.178  1.00  0.00    -0.550 OA
ENDBRANCH  14  15
ENDBRANCH  13  14
ENDBRANCH  12  13
ENDBRANCH  11  12
ENDBRANCH  10  11
ENDBRANCH   9  10
ENDBRANCH   8   9
ENDBRANCH   7   8
ENDBRANCH   6   7
ENDBRANCH   5   6
ENDBRANCH   4   5
ENDBRANCH   3   4
ENDBRANCH   2   3
ENDBRANCH   1   2
BRANCH   1  18
ATOM     18  C   UNL     1     -19.125  44.250  85.949  1.00  0.00     0.000 C 
BRANCH  18  19
ATOM     19  C   UNL     1     -19.880  42.915  86.024  1.00  0.00     0.000 C 
BRANCH  19  20
ATOM     20  C   UNL     1     -21.334  43.124  86.460  1.00  0.00     0.000 C 
BRANCH  20  21
ATOM     21  C   UNL     1     -21.783  42.011  87.414  1.00  0.00     0.000 C 
BRANCH  21  22
ATOM     22  C   UNL     1     -21.413  42.343  88.865  1.00  0.00     0.000 C 
BRANCH  22  23
ATOM     23  C   UNL     1     -20.096  41.685  89.312  1.00  0.00     0.000 C 
BRANCH  23  24
ATOM     24  C   UNL     1     -20.140  41.001  90.693  1.00  0.00    -0.000 C 
BRANCH  24  25
ATOM     25  C   UNL     1     -19.234  39.762  90.839  1.00  0.00    -0.000 C 
BRANCH  25  26
ATOM     26  C   UNL     1     -19.933  38.415  90.572  1.00  0.00    -0.000 C 
BRANCH  26  27
ATOM     27  C   UNL     1     -19.225  37.517  89.537  1.00  0.00    -0.000 C 
BRANCH  27  28
ATOM     28  C   UNL     1     -19.991  37.320  88.213  1.00  0.00    -0.000 C 
BRANCH  28  29
ATOM     29  C   UNL     1     -21.040  38.403  87.893  1.00  0.00    -0.000 C 
BRANCH  29  30
ATOM     30  C   UNL     1     -21.038  38.812  86.410  1.00  0.00    -0.000 C 
BRANCH  30  31
ATOM     31  C   UNL     1     -19.645  38.699  85.771  1.00  0.00    -0.003 C 
ATOM     32  C   UNL     1     -19.612  37.718  84.601  1.00  0.00     0.004 C 
ENDBRANCH  30  31
ENDBRANCH  29  30
ENDBRANCH  28  29
ENDBRANCH  27  28
ENDBRANCH  26  27
ENDBRANCH  25  26
ENDBRANCH  24  25
ENDBRANCH  23  24
ENDBRANCH  22  23
ENDBRANCH  21  22
ENDBRANCH  20  21
ENDBRANCH  19  20
ENDBRANCH  18  19
ENDBRANCH   1  18
TORSDOF 28
ENDMDL
MODEL 2
REMARK VINA RESULT:    -5.422      3.278      9.181
REMARK INTER + INTRA:         -17.798
REMARK INTER:                 -14.688
REMARK INTRA:                  -3.110
REMARK UNBOUND:                -3.503
REMARK SMILES CCCCCCCCCCCCCCCCCCCCCCCCCCCCCC(=O)[O-]
REMARK SMILES IDX 16 1 17 2 18 3 19 4 20 5 21 6 22 7 23 8 24 9 25 10 26 11
REMARK SMILES IDX 27 12 28 13 29 14 30 15 31 16 32 17 15 18 14 19 13 20 12 21
REMARK SMILES IDX 11 22 10 23 9 24 8 25 7 26 6 27 5 28 4 29 3 30 2 31 1 32
REMARK H PARENT
REMARK Flexibility Score: inf
ROOT
ATOM      1  C   UNL     1     -19.918  38.621  86.116  1.00  0.00     0.000 C 
ENDROOT
BRANCH   1   2
ATOM      2  C   UNL     1     -20.179  37.794  84.843  1.00  0.00     0.000 C 
BRANCH   2   3
ATOM      3  C   UNL     1     -18.970  37.764  83.891  1.00  0.00     0.000 C 
BRANCH   3   4
ATOM      4  C   UNL     1     -18.382  36.350  83.720  1.00  0.00     0.000 C 
BRANCH   4   5
ATOM      5  C   UNL     1     -16.862  36.246  83.927  1.00  0.00     0.000 C 
BRANCH   5   6
ATOM      6  C   UNL     1     -16.479  35.248  85.032  1.00  0.00     0.000 C 
BRANCH   6   7
ATOM      7  C   UNL     1     -17.247  35.487  86.341  1.00  0.00     0.000 C 
BRANCH   7   8
ATOM      8  C   UNL     1     -16.931  34.492  87.473  1.00  0.00     0.000 C 
BRANCH   8   9
ATOM      9  C   UNL     1     -17.505  34.907  88.844  1.00  0.00     0.000 C 
BRANCH   9  10
ATOM     10  C   UNL     1     -17.861  36.403  88.897  1.00  0.00     0.000 C 
BRANCH  10  11
ATOM     11  C   UNL     1     -19.359  36.630  89.145  1.00  0.00     0.000 C 
BRANCH  11  12
ATOM     12  C   UNL     1     -19.632  37.955  89.878  1.00  0.00     0.000 C 
BRANCH  12  13
ATOM     13  C   UNL     1     -18.332  38.666  90.291  1.00  0.00     0.006 C 
BRANCH  13  14
ATOM     14  C   UNL     1     -18.408  39.220  91.717  1.00  0.00     0.053 C 
BRANCH  14  15
ATOM     15  C   UNL     1     -18.692  40.690  91.700  1.00  0.00     0.041 C 
ATOM     16  O   UNL     1     -17.757  41.514  91.862  1.00  0.00    -0.550 OA
ATOM     17  O   UNL     1     -19.991  41.152  91.513  1.00  0.00    -0.550 OA
ENDBRANCH  14  15
ENDBRANCH  13  14
ENDBRANCH  12  13
ENDBRANCH  11  12
ENDBRANCH  10  11
ENDBRANCH   9  10
ENDBRANCH   8   9
ENDBRANCH   7   8
ENDBRANCH   6   7
ENDBRANCH   5   6
ENDBRANCH   4   5
ENDBRANCH   3   4
ENDBRANCH   2   3
ENDBRANCH   1   2
BRANCH   1  18
ATOM     18  C   UNL     1     -21.174  39.298  86.700  1.00  0.00     0.000 C 
BRANCH  18  19
ATOM     19  C   UNL     1     -20.873  40.670  87.322  1.00  0.00     0.000 C 
BRANCH  19  20
ATOM     20  C   UNL     1     -19.605  41.285  86.721  1.00  0.00     0.000 C 
BRANCH  20  21
ATOM     21  C   UNL     1     -19.941  42.544  85.911  1.00  0.00     0.000 C 
BRANCH  21  22
ATOM     22  C   UNL     1     -20.227  43.735  86.834  1.00  0.00     0.000 C 
BRANCH  22  23
ATOM     23  C   UNL     1     -21.712  44.140  86.844  1.00  0.00     0.000 C 
BRANCH  23  24
ATOM     24  C   UNL     1     -21.986  45.622  87.172  1.00  0.00    -0.000 C 
BRANCH  24  25
ATOM     25  C   UNL     1     -22.959  46.335  86.212  1.00  0.00    -0.000 C 
BRANCH  25  26
ATOM     26  C   UNL     1     -22.282  47.109  85.064  1.00  0.00    -0.000 C 
BRANCH  26  27
ATOM     27  C   UNL     1     -21.491  46.230  84.076  1.00  0.00    -0.000 C 
BRANCH  27  28
ATOM     28  C   UNL     1     -21.001  46.955  82.805  1.00  0.00    -0.000 C 
BRANCH  28  29
ATOM     29  C   UNL     1     -19.583  46.573  82.337  1.00  0.00    -0.000 C 
BRANCH  29  30
ATOM     30  C   UNL     1     -18.918  45.528  83.248  1.00  0.00    -0.000 C 
BRANCH  30  31
ATOM     31  C   UNL     1     -17.890  46.153  84.205  1.00  0.00    -0.003 C 
ATOM     32  C   UNL     1     -17.255  45.126  85.140  1.00  0.00     0.004 C 
ENDBRANCH  30  31
ENDBRANCH  29  30
ENDBRANCH  28  29
ENDBRANCH  27  28
ENDBRANCH  26  27
ENDBRANCH  25  26
ENDBRANCH  24  25
ENDBRANCH  23  24
ENDBRANCH  22  23
ENDBRANCH  21  22
ENDBRANCH  20  21
ENDBRANCH  19  20
ENDBRANCH  18  19
ENDBRANCH   1  18
TORSDOF 28
ENDMDL
MODEL 3
REMARK VINA RESULT:    -5.406      1.703      4.892
REMARK INTER + INTRA:         -17.757
REMARK INTER:                 -14.838
REMARK INTRA:                  -2.919
REMARK UNBOUND:                -3.503
REMARK SMILES CCCCCCCCCCCCCCCCCCCCCCCCCCCCCC(=O)[O-]
REMARK SMILES IDX 16 1 17 2 18 3 19 4 20 5 21 6 22 7 23 8 24 9 25 10 26 11
REMARK SMILES IDX 27 12 28 13 29 14 30 15 31 16 32 17 15 18 14 19 13 20 12 21
REMARK SMILES IDX 11 22 10 23 9 24 8 25 7 26 6 27 5 28 4 29 3 30 2 31 1 32
REMARK H PARENT
REMARK Flexibility Score: inf
ROOT
ATOM      1  C   UNL     1     -21.287  39.302  86.607  1.00  0.00     0.000 C 
ENDROOT
BRANCH   1   2
ATOM      2  C   UNL     1     -20.530  40.592  86.974  1.00  0.00     0.000 C 
BRANCH   2   3
ATOM      3  C   UNL     1     -21.432  41.646  87.642  1.00  0.00     0.000 C 
BRANCH   3   4
ATOM      4  C   UNL     1     -20.906  43.082  87.461  1.00  0.00     0.000 C 
BRANCH   4   5
ATOM      5  C   UNL     1     -20.283  43.381  86.087  1.00  0.00     0.000 C 
BRANCH   5   6
ATOM      6  C   UNL     1     -20.886  44.626  85.419  1.00  0.00     0.000 C 
BRANCH   6   7
ATOM      7  C   UNL     1     -21.322  45.694  86.434  1.00  0.00     0.000 C 
BRANCH   7   8
ATOM      8  C   UNL     1     -22.781  46.167  86.297  1.00  0.00     0.000 C 
BRANCH   8   9
ATOM      9  C   UNL     1     -23.748  45.503  87.299  1.00  0.00     0.000 C 
BRANCH   9  10
ATOM     10  C   UNL     1     -25.168  46.090  87.213  1.00  0.00     0.000 C 
BRANCH  10  11
ATOM     11  C   UNL     1     -26.095  45.519  88.295  1.00  0.00     0.000 C 
BRANCH  11  12
ATOM     12  C   UNL     1     -25.336  44.647  89.310  1.00  0.00     0.000 C 
BRANCH  12  13
ATOM     13  C   UNL     1     -26.085  44.531  90.647  1.00  0.00     0.006 C 
BRANCH  13  14
ATOM     14  C   UNL     1     -27.604  44.627  90.466  1.00  0.00     0.053 C 
BRANCH  14  15
ATOM     15  C   UNL     1     -28.209  43.264  90.338  1.00  0.00     0.041 C 
ATOM     16  O   UNL     1     -28.633  42.664  91.358  1.00  0.00    -0.550 OA
ATOM     17  O   UNL     1     -28.298  42.650  89.093  1.00  0.00    -0.550 OA
ENDBRANCH  14  15
ENDBRANCH  13  14
ENDBRANCH  12  13
ENDBRANCH  11  12
ENDBRANCH  10  11
ENDBRANCH   9  10
ENDBRANCH   8   9
ENDBRANCH   7   8
ENDBRANCH   6   7
ENDBRANCH   5   6
ENDBRANCH   4   5
ENDBRANCH   3   4
ENDBRANCH   2   3
ENDBRANCH   1   2
BRANCH   1  18
ATOM     18  C   UNL     1     -20.375  38.127  86.201  1.00  0.00     0.000 C 
BRANCH  18  19
ATOM     19  C   UNL     1     -19.509  38.445  84.973  1.00  0.00     0.000 C 
BRANCH  19  20
ATOM     20  C   UNL     1     -19.172  37.172  84.190  1.00  0.00     0.000 C 
BRANCH  20  21
ATOM     21  C   UNL     1     -17.675  37.111  83.866  1.00  0.00     0.000 C 
BRANCH  21  22
ATOM     22  C   UNL     1     -17.152  35.670  83.934  1.00  0.00     0.000 C 
BRANCH  22  23
ATOM     23  C   UNL     1     -16.533  35.322  85.298  1.00  0.00     0.000 C 
BRANCH  23  24
ATOM     24  C   UNL     1     -17.541  35.149  86.453  1.00  0.00    -0.000 C 
BRANCH  24  25
ATOM     25  C   UNL     1     -16.938  35.245  87.868  1.00  0.00    -0.000 C 
BRANCH  25  26
ATOM     26  C   UNL     1     -17.972  35.380  89.003  1.00  0.00    -0.000 C 
BRANCH  26  27
ATOM     27  C   UNL     1     -18.079  36.794  89.610  1.00  0.00    -0.000 C 
BRANCH  27  28
ATOM     28  C   UNL     1     -19.489  37.418  89.565  1.00  0.00    -0.000 C 
BRANCH  28  29
ATOM     29  C   UNL     1     -19.708  38.615  90.511  1.00  0.00    -0.000 C 
BRANCH  29  30
ATOM     30  C   UNL     1     -18.817  39.819  90.161  1.00  0.00    -0.000 C 
BRANCH  30  31
ATOM     31  C   UNL     1     -19.361  41.138  90.733  1.00  0.00    -0.003 C 
ATOM     32  C   UNL     1     -20.816  41.029  91.184  1.00  0.00     0.004 C 
ENDBRANCH  30  31
ENDBRANCH  29  30
ENDBRANCH  28  29
ENDBRANCH  27  28
ENDBRANCH  26  27
ENDBRANCH  25  26
ENDBRANCH  24  25
ENDBRANCH  23  24
ENDBRANCH  22  23
ENDBRANCH  21  22
ENDBRANCH  20  21
ENDBRANCH  19  20
ENDBRANCH  18  19
ENDBRANCH   1  18
TORSDOF 28
ENDMDL
MODEL 4
REMARK VINA RESULT:    -5.390      3.735      9.119
REMARK INTER + INTRA:         -17.715
REMARK INTER:                 -14.469
REMARK INTRA:                  -3.247
REMARK UNBOUND:                -3.503
REMARK SMILES CCCCCCCCCCCCCCCCCCCCCCCCCCCCCC(=O)[O-]
REMARK SMILES IDX 16 1 17 2 18 3 19 4 20 5 21 6 22 7 23 8 24 9 25 10 26 11
REMARK SMILES IDX 27 12 28 13 29 14 30 15 31 16 32 17 15 18 14 19 13 20 12 21
REMARK SMILES IDX 11 22 10 23 9 24 8 25 7 26 6 27 5 28 4 29 3 30 2 31 1 32
REMARK H PARENT
REMARK Flexibility Score: inf
ROOT
ATOM      1  C   UNL     1     -19.416  44.079  86.046  1.00  0.00     0.000 C 
ENDROOT
BRANCH   1   2
ATOM      2  C   UNL     1     -20.318  42.831  85.989  1.00  0.00     0.000 C 
BRANCH   2   3
ATOM      3  C   UNL     1     -19.942  41.774  87.042  1.00  0.00     0.000 C 
BRANCH   3   4
ATOM      4  C   UNL     1     -20.883  41.787  88.262  1.00  0.00     0.000 C 
BRANCH   4   5
ATOM      5  C   UNL     1     -20.189  41.606  89.623  1.00  0.00     0.000 C 
BRANCH   5   6
ATOM      6  C   UNL     1     -20.577  40.291  90.318  1.00  0.00     0.000 C 
BRANCH   6   7
ATOM      7  C   UNL     1     -19.461  39.237  90.258  1.00  0.00     0.000 C 
BRANCH   7   8
ATOM      8  C   UNL     1     -19.916  37.829  89.831  1.00  0.00     0.000 C 
BRANCH   8   9
ATOM      9  C   UNL     1     -19.863  37.592  88.308  1.00  0.00     0.000 C 
BRANCH   9  10
ATOM     10  C   UNL     1     -21.017  38.293  87.570  1.00  0.00     0.000 C 
BRANCH  10  11
ATOM     11  C   UNL     1     -20.724  38.466  86.073  1.00  0.00     0.000 C 
BRANCH  11  12
ATOM     12  C   UNL     1     -19.464  37.700  85.635  1.00  0.00     0.000 C 
BRANCH  12  13
ATOM     13  C   UNL     1     -19.093  37.987  84.170  1.00  0.00     0.006 C 
BRANCH  13  14
ATOM     14  C   UNL     1     -18.503  36.755  83.475  1.00  0.00     0.053 C 
BRANCH  14  15
ATOM     15  C   UNL     1     -17.078  36.548  83.885  1.00  0.00     0.041 C 
ATOM     16  O   UNL     1     -16.806  35.828  84.878  1.00  0.00    -0.550 OA
ATOM     17  O   UNL     1     -16.049  37.158  83.176  1.00  0.00    -0.550 OA
ENDBRANCH  14  15
ENDBRANCH  13  14
ENDBRANCH  12  13
ENDBRANCH  11  12
ENDBRANCH  10  11
ENDBRANCH   9  10
ENDBRANCH   8   9
ENDBRANCH   7   8
ENDBRANCH   6   7
ENDBRANCH   5   6
ENDBRANCH   4   5
ENDBRANCH   3   4
ENDBRANCH   2   3
ENDBRANCH   1   2
BRANCH   1  18
ATOM     18  C   UNL     1     -18.702  44.404  84.719  1.00  0.00     0.000 C 
BRANCH  18  19
ATOM     19  C   UNL     1     -17.908  45.718  84.779  1.00  0.00     0.000 C 
BRANCH  19  20
ATOM     20  C   UNL     1     -18.151  46.569  83.528  1.00  0.00     0.000 C 
BRANCH  20  21
ATOM     21  C   UNL     1     -19.412  46.106  82.789  1.00  0.00     0.000 C 
BRANCH  21  22
ATOM     22  C   UNL     1     -20.579  47.074  83.027  1.00  0.00     0.000 C 
BRANCH  22  23
ATOM     23  C   UNL     1     -21.658  46.493  83.956  1.00  0.00     0.000 C 
BRANCH  23  24
ATOM     24  C   UNL     1     -21.624  47.011  85.408  1.00  0.00    -0.000 C 
BRANCH  24  25
ATOM     25  C   UNL     1     -22.428  46.172  86.422  1.00  0.00    -0.000 C 
BRANCH  25  26
ATOM     26  C   UNL     1     -21.876  46.195  87.861  1.00  0.00    -0.000 C 
BRANCH  26  27
ATOM     27  C   UNL     1     -22.277  44.981  88.722  1.00  0.00    -0.000 C 
BRANCH  27  28
ATOM     28  C   UNL     1     -23.719  44.478  88.508  1.00  0.00    -0.000 C 
BRANCH  28  29
ATOM     29  C   UNL     1     -24.821  45.363  89.122  1.00  0.00    -0.000 C 
BRANCH  29  30
ATOM     30  C   UNL     1     -26.199  44.679  89.127  1.00  0.00    -0.000 C 
BRANCH  30  31
ATOM     31  C   UNL     1     -26.623  44.222  90.532  1.00  0.00    -0.003 C 
ATOM     32  C   UNL     1     -28.112  43.896  90.621  1.00  0.00     0.004 C 
ENDBRANCH  30  31
ENDBRANCH  29  30
ENDBRANCH  28  29
ENDBRANCH  27  28
ENDBRANCH  26  27
ENDBRANCH  25  26
ENDBRANCH  24  25
ENDBRANCH  23  24
ENDBRANCH  22  23
ENDBRANCH  21  22
ENDBRANCH  20  21
ENDBRANCH  19  20
ENDBRANCH  18  19
ENDBRANCH   1  18
TORSDOF 28
ENDMDL
MODEL 5
REMARK VINA RESULT:    -5.354      1.856      5.275
REMARK INTER + INTRA:         -17.619
REMARK INTER:                 -14.249
REMARK INTRA:                  -3.370
REMARK UNBOUND:                -3.503
REMARK SMILES CCCCCCCCCCCCCCCCCCCCCCCCCCCCCC(=O)[O-]
REMARK SMILES IDX 16 1 17 2 18 3 19 4 20 5 21 6 22 7 23 8 24 9 25 10 26 11
REMARK SMILES IDX 27 12 28 13 29 14 30 15 31 16 32 17 15 18 14 19 13 20 12 21
REMARK SMILES IDX 11 22 10 23 9 24 8 25 7 26 6 27 5 28 4 29 3 30 2 31 1 32
REMARK H PARENT
REMARK Flexibility Score: inf
ROOT
ATOM      1  C   UNL     1     -19.597  38.269  85.656  1.00  0.00     0.000 C 
ENDROOT
BRANCH   1   2
ATOM      2  C   UNL     1     -20.605  38.369  86.816  1.00  0.00     0.000 C 
BRANCH   2   3
ATOM      3  C   UNL     1     -21.152  39.794  87.013  1.00  0.00     0.000 C 
BRANCH   3   4
ATOM      4  C   UNL     1     -20.082  40.879  86.787  1.00  0.00     0.000 C 
BRANCH   4   5
ATOM      5  C   UNL     1     -20.626  42.308  86.618  1.00  0.00     0.000 C 
BRANCH   5   6
ATOM      6  C   UNL     1     -19.737  43.181  85.719  1.00  0.00     0.000 C 
BRANCH   6   7
ATOM      7  C   UNL     1     -20.284  44.606  85.545  1.00  0.00     0.000 C 
BRANCH   7   8
ATOM      8  C   UNL     1     -21.197  45.098  86.684  1.00  0.00     0.000 C 
BRANCH   8   9
ATOM      9  C   UNL     1     -22.393  45.944  86.202  1.00  0.00     0.000 C 
BRANCH   9  10
ATOM     10  C   UNL     1     -23.638  45.745  87.084  1.00  0.00     0.000 C 
BRANCH  10  11
ATOM     11  C   UNL     1     -23.294  45.090  88.429  1.00  0.00     0.000 C 
BRANCH  11  12
ATOM     12  C   UNL     1     -24.083  43.790  88.662  1.00  0.00     0.000 C 
BRANCH  12  13
ATOM     13  C   UNL     1     -25.012  43.888  89.883  1.00  0.00     0.006 C 
BRANCH  13  14
ATOM     14  C   UNL     1     -26.430  44.321  89.494  1.00  0.00     0.053 C 
BRANCH  14  15
ATOM     15  C   UNL     1     -27.445  43.377  90.058  1.00  0.00     0.041 C 
ATOM     16  O   UNL     1     -28.106  42.630  89.294  1.00  0.00    -0.550 OA
ATOM     17  O   UNL     1     -27.669  43.327  91.431  1.00  0.00    -0.550 OA
ENDBRANCH  14  15
ENDBRANCH  13  14
ENDBRANCH  12  13
ENDBRANCH  11  12
ENDBRANCH  10  11
ENDBRANCH   9  10
ENDBRANCH   8   9
ENDBRANCH   7   8
ENDBRANCH   6   7
ENDBRANCH   5   6
ENDBRANCH   4   5
ENDBRANCH   3   4
ENDBRANCH   2   3
ENDBRANCH   1   2
BRANCH   1  18
ATOM     18  C   UNL     1     -20.193  37.720  84.345  1.00  0.00     0.000 C 
BRANCH  18  19
ATOM     19  C   UNL     1     -19.135  37.080  83.434  1.00  0.00     0.000 C 
BRANCH  19  20
ATOM     20  C   UNL     1     -17.828  37.879  83.457  1.00  0.00     0.000 C 
BRANCH  20  21
ATOM     21  C   UNL     1     -16.625  36.952  83.669  1.00  0.00     0.000 C 
BRANCH  21  22
ATOM     22  C   UNL     1     -17.077  35.543  84.074  1.00  0.00     0.000 C 
BRANCH  22  23
ATOM     23  C   UNL     1     -16.539  35.115  85.451  1.00  0.00     0.000 C 
BRANCH  23  24
ATOM     24  C   UNL     1     -17.442  35.473  86.649  1.00  0.00    -0.000 C 
BRANCH  24  25
ATOM     25  C   UNL     1     -16.985  34.902  88.007  1.00  0.00    -0.000 C 
BRANCH  25  26
ATOM     26  C   UNL     1     -17.939  35.189  89.183  1.00  0.00    -0.000 C 
BRANCH  26  27
ATOM     27  C   UNL     1     -18.668  36.545  89.102  1.00  0.00    -0.000 C 
BRANCH  27  28
ATOM     28  C   UNL     1     -17.985  37.699  89.864  1.00  0.00    -0.000 C 
BRANCH  28  29
ATOM     29  C   UNL     1     -18.874  38.422  90.895  1.00  0.00    -0.000 C 
BRANCH  29  30
ATOM     30  C   UNL     1     -20.361  38.414  90.507  1.00  0.00    -0.000 C 
BRANCH  30  31
ATOM     31  C   UNL     1     -21.054  39.753  90.804  1.00  0.00    -0.003 C 
ATOM     32  C   UNL     1     -20.170  40.957  90.485  1.00  0.00     0.004 C 
ENDBRANCH  30  31
ENDBRANCH  29  30
ENDBRANCH  28  29
ENDBRANCH  27  28
ENDBRANCH  26  27
ENDBRANCH  25  26
ENDBRANCH  24  25
ENDBRANCH  23  24
ENDBRANCH  22  23
ENDBRANCH  21  22
ENDBRANCH  20  21
ENDBRANCH  19  20
ENDBRANCH  18  19
ENDBRANCH   1  18
TORSDOF 28
ENDMDL
MODEL 6
REMARK VINA RESULT:    -5.352      1.180      2.153
REMARK INTER + INTRA:         -17.615
REMARK INTER:                 -14.266
REMARK INTRA:                  -3.350
REMARK UNBOUND:                -3.503
REMARK SMILES CCCCCCCCCCCCCCCCCCCCCCCCCCCCCC(=O)[O-]
REMARK SMILES IDX 16 1 17 2 18 3 19 4 20 5 21 6 22 7 23 8 24 9 25 10 26 11
REMARK SMILES IDX 27 12 28 13 29 14 30 15 31 16 32 17 15 18 14 19 13 20 12 21
REMARK SMILES IDX 11 22 10 23 9 24 8 25 7 26 6 27 5 28 4 29 3 30 2 31 1 32
REMARK H PARENT
REMARK Flexibility Score: inf
ROOT
ATOM      1  C   UNL     1     -20.065  43.672  86.455  1.00  0.00     0.000 C 
ENDROOT
BRANCH   1   2
ATOM      2  C   UNL     1     -19.127  43.692  85.234  1.00  0.00     0.000 C 
BRANCH   2   3
ATOM      3  C   UNL     1     -18.046  44.785  85.328  1.00  0.00     0.000 C 
BRANCH   3   4
ATOM      4  C   UNL     1     -18.204  45.872  84.248  1.00  0.00     0.000 C 
BRANCH   4   5
ATOM      5  C   UNL     1     -19.555  45.871  83.512  1.00  0.00     0.000 C 
BRANCH   5   6
ATOM      6  C   UNL     1     -20.415  47.100  83.845  1.00  0.00     0.000 C 
BRANCH   6   7
ATOM      7  C   UNL     1     -21.008  47.044  85.261  1.00  0.00     0.000 C 
BRANCH   7   8
ATOM      8  C   UNL     1     -22.467  46.554  85.338  1.00  0.00     0.000 C 
BRANCH   8   9
ATOM      9  C   UNL     1     -22.807  45.816  86.650  1.00  0.00     0.000 C 
BRANCH   9  10
ATOM     10  C   UNL     1     -23.236  46.784  87.766  1.00  0.00     0.000 C 
BRANCH  10  11
ATOM     11  C   UNL     1     -23.943  46.057  88.920  1.00  0.00     0.000 C 
BRANCH  11  12
ATOM     12  C   UNL     1     -24.951  45.010  88.416  1.00  0.00     0.000 C 
BRANCH  12  13
ATOM     13  C   UNL     1     -25.430  44.079  89.542  1.00  0.00     0.006 C 
BRANCH  13  14
ATOM     14  C   UNL     1     -26.952  43.904  89.535  1.00  0.00     0.053 C 
BRANCH  14  15
ATOM     15  C   UNL     1     -27.438  43.439  90.872  1.00  0.00     0.041 C 
ATOM     16  O   UNL     1     -26.657  43.423  91.856  1.00  0.00    -0.550 OA
ATOM     17  O   UNL     1     -28.753  43.013  91.031  1.00  0.00    -0.550 OA
ENDBRANCH  14  15
ENDBRANCH  13  14
ENDBRANCH  12  13
ENDBRANCH  11  12
ENDBRANCH  10  11
ENDBRANCH   9  10
ENDBRANCH   8   9
ENDBRANCH   7   8
ENDBRANCH   6   7
ENDBRANCH   5   6
ENDBRANCH   4   5
ENDBRANCH   3   4
ENDBRANCH   2   3
ENDBRANCH   1   2
BRANCH   1  18
ATOM     18  C   UNL     1     -20.967  42.425  86.540  1.00  0.00     0.000 C 
BRANCH  18  19
ATOM     19  C   UNL     1     -21.932  42.470  87.734  1.00  0.00     0.000 C 
BRANCH  19  20
ATOM     20  C   UNL     1     -21.169  42.451  89.063  1.00  0.00     0.000 C 
BRANCH  20  21
ATOM     21  C   UNL     1     -22.134  42.572  90.248  1.00  0.00     0.000 C 
BRANCH  21  22
ATOM     22  C   UNL     1     -21.731  41.628  91.388  1.00  0.00     0.000 C 
BRANCH  22  23
ATOM     23  C   UNL     1     -20.440  40.846  91.089  1.00  0.00     0.000 C 
BRANCH  23  24
ATOM     24  C   UNL     1     -20.449  39.369  91.531  1.00  0.00    -0.000 C 
BRANCH  24  25
ATOM     25  C   UNL     1     -20.256  38.344  90.395  1.00  0.00    -0.000 C 
BRANCH  25  26
ATOM     26  C   UNL     1     -19.913  38.957  89.023  1.00  0.00    -0.000 C 
BRANCH  26  27
ATOM     27  C   UNL     1     -20.366  38.116  87.813  1.00  0.00    -0.000 C 
BRANCH  27  28
ATOM     28  C   UNL     1     -20.577  38.912  86.508  1.00  0.00    -0.000 C 
BRANCH  28  29
ATOM     29  C   UNL     1     -20.481  38.084  85.212  1.00  0.00    -0.000 C 
BRANCH  29  30
ATOM     30  C   UNL     1     -19.066  38.084  84.610  1.00  0.00    -0.000 C 
BRANCH  30  31
ATOM     31  C   UNL     1     -18.711  36.745  83.944  1.00  0.00    -0.003 C 
ATOM     32  C   UNL     1     -17.590  36.005  84.671  1.00  0.00     0.004 C 
ENDBRANCH  30  31
ENDBRANCH  29  30
ENDBRANCH  28  29
ENDBRANCH  27  28
ENDBRANCH  26  27
ENDBRANCH  25  26
ENDBRANCH  24  25
ENDBRANCH  23  24
ENDBRANCH  22  23
ENDBRANCH  21  22
ENDBRANCH  20  21
ENDBRANCH  19  20
ENDBRANCH  18  19
ENDBRANCH   1  18
TORSDOF 28
ENDMDL
MODEL 7
REMARK VINA RESULT:    -5.325      2.874      9.217
REMARK INTER + INTRA:         -17.543
REMARK INTER:                 -14.034
REMARK INTRA:                  -3.508
REMARK UNBOUND:                -3.503
REMARK SMILES CCCCCCCCCCCCCCCCCCCCCCCCCCCCCC(=O)[O-]
REMARK SMILES IDX 16 1 17 2 18 3 19 4 20 5 21 6 22 7 23 8 24 9 25 10 26 11
REMARK SMILES IDX 27 12 28 13 29 14 30 15 31 16 32 17 15 18 14 19 13 20 12 21
REMARK SMILES IDX 11 22 10 23 9 24 8 25 7 26 6 27 5 28 4 29 3 30 2 31 1 32
REMARK H PARENT
REMARK Flexibility Score: inf
ROOT
ATOM      1  C   UNL     1     -20.910  40.077  87.260  1.00  0.00     0.000 C 
ENDROOT
BRANCH   1   2
ATOM      2  C   UNL     1     -20.928  38.897  86.270  1.00  0.00     0.000 C 
BRANCH   2   3
ATOM      3  C   UNL     1     -19.519  38.483  85.807  1.00  0.00     0.000 C 
BRANCH   3   4
ATOM      4  C   UNL     1     -19.546  37.544  84.586  1.00  0.00     0.000 C 
BRANCH   4   5
ATOM      5  C   UNL     1     -18.187  37.330  83.898  1.00  0.00     0.000 C 
BRANCH   5   6
ATOM      6  C   UNL     1     -17.737  35.860  83.914  1.00  0.00     0.000 C 
BRANCH   6   7
ATOM      7  C   UNL     1     -16.771  35.547  85.066  1.00  0.00     0.000 C 
BRANCH   7   8
ATOM      8  C   UNL     1     -17.425  34.931  86.317  1.00  0.00     0.000 C 
BRANCH   8   9
ATOM      9  C   UNL     1     -16.907  35.521  87.646  1.00  0.00     0.000 C 
BRANCH   9  10
ATOM     10  C   UNL     1     -17.936  35.385  88.781  1.00  0.00     0.000 C 
BRANCH  10  11
ATOM     11  C   UNL     1     -18.111  36.696  89.562  1.00  0.00     0.000 C 
BRANCH  11  12
ATOM     12  C   UNL     1     -19.509  37.308  89.364  1.00  0.00     0.000 C 
BRANCH  12  13
ATOM     13  C   UNL     1     -19.762  38.488  90.317  1.00  0.00     0.006 C 
BRANCH  13  14
ATOM     14  C   UNL     1     -18.458  39.068  90.874  1.00  0.00     0.053 C 
BRANCH  14  15
ATOM     15  C   UNL     1     -18.513  40.563  90.904  1.00  0.00     0.041 C 
ATOM     16  O   UNL     1     -19.352  41.178  90.198  1.00  0.00    -0.550 OA
ATOM     17  O   UNL     1     -17.632  41.282  91.706  1.00  0.00    -0.550 OA
ENDBRANCH  14  15
ENDBRANCH  13  14
ENDBRANCH  12  13
ENDBRANCH  11  12
ENDBRANCH  10  11
ENDBRANCH   9  10
ENDBRANCH   8   9
ENDBRANCH   7   8
ENDBRANCH   6   7
ENDBRANCH   5   6
ENDBRANCH   4   5
ENDBRANCH   3   4
ENDBRANCH   2   3
ENDBRANCH   1   2
BRANCH   1  18
ATOM     18  C   UNL     1     -21.448  41.399  86.678  1.00  0.00     0.000 C 
BRANCH  18  19
ATOM     19  C   UNL     1     -20.499  42.583  86.919  1.00  0.00     0.000 C 
BRANCH  19  20
ATOM     20  C   UNL     1     -19.556  42.787  85.729  1.00  0.00     0.000 C 
BRANCH  20  21
ATOM     21  C   UNL     1     -19.082  44.243  85.652  1.00  0.00     0.000 C 
BRANCH  21  22
ATOM     22  C   UNL     1     -18.280  44.497  84.369  1.00  0.00     0.000 C 
BRANCH  22  23
ATOM     23  C   UNL     1     -17.639  45.895  84.331  1.00  0.00     0.000 C 
BRANCH  23  24
ATOM     24  C   UNL     1     -18.558  47.025  83.822  1.00  0.00    -0.000 C 
BRANCH  24  25
ATOM     25  C   UNL     1     -19.516  46.627  82.681  1.00  0.00    -0.000 C 
BRANCH  25  26
ATOM     26  C   UNL     1     -21.005  46.910  82.959  1.00  0.00    -0.000 C 
BRANCH  26  27
ATOM     27  C   UNL     1     -21.633  46.029  84.057  1.00  0.00    -0.000 C 
BRANCH  27  28
ATOM     28  C   UNL     1     -22.219  46.801  85.257  1.00  0.00    -0.000 C 
BRANCH  28  29
ATOM     29  C   UNL     1     -21.498  46.574  86.600  1.00  0.00    -0.000 C 
BRANCH  29  30
ATOM     30  C   UNL     1     -22.465  46.215  87.740  1.00  0.00    -0.000 C 
BRANCH  30  31
ATOM     31  C   UNL     1     -23.504  45.162  87.321  1.00  0.00    -0.003 C 
ATOM     32  C   UNL     1     -23.596  44.000  88.308  1.00  0.00     0.004 C 
ENDBRANCH  30  31
ENDBRANCH  29  30
ENDBRANCH  28  29
ENDBRANCH  27  28
ENDBRANCH  26  27
ENDBRANCH  25  26
ENDBRANCH  24  25
ENDBRANCH  23  24
ENDBRANCH  22  23
ENDBRANCH  21  22
ENDBRANCH  20  21
ENDBRANCH  19  20
ENDBRANCH  18  19
ENDBRANCH   1  18
TORSDOF 28
ENDMDL
MODEL 8
REMARK VINA RESULT:    -5.322      2.043      5.125
REMARK INTER + INTRA:         -17.535
REMARK INTER:                 -13.994
REMARK INTRA:                  -3.541
REMARK UNBOUND:                -3.503
REMARK SMILES CCCCCCCCCCCCCCCCCCCCCCCCCCCCCC(=O)[O-]
REMARK SMILES IDX 16 1 17 2 18 3 19 4 20 5 21 6 22 7 23 8 24 9 25 10 26 11
REMARK SMILES IDX 27 12 28 13 29 14 30 15 31 16 32 17 15 18 14 19 13 20 12 21
REMARK SMILES IDX 11 22 10 23 9 24 8 25 7 26 6 27 5 28 4 29 3 30 2 31 1 32
REMARK H PARENT
REMARK Flexibility Score: inf
ROOT
ATOM      1  C   UNL     1     -21.452  39.867  86.936  1.00  0.00     0.000 C 
ENDROOT
BRANCH   1   2
ATOM      2  C   UNL     1     -21.096  41.340  87.209  1.00  0.00     0.000 C 
BRANCH   2   3
ATOM      3  C   UNL     1     -19.814  41.791  86.485  1.00  0.00     0.000 C 
BRANCH   3   4
ATOM      4  C   UNL     1     -20.038  43.026  85.592  1.00  0.00     0.000 C 
BRANCH   4   5
ATOM      5  C   UNL     1     -18.955  44.114  85.701  1.00  0.00     0.000 C 
BRANCH   5   6
ATOM      6  C   UNL     1     -18.795  44.924  84.405  1.00  0.00     0.000 C 
BRANCH   6   7
ATOM      7  C   UNL     1     -20.094  45.625  83.977  1.00  0.00     0.000 C 
BRANCH   7   8
ATOM      8  C   UNL     1     -20.599  46.711  84.945  1.00  0.00     0.000 C 
BRANCH   8   9
ATOM      9  C   UNL     1     -22.132  46.729  85.116  1.00  0.00     0.000 C 
BRANCH   9  10
ATOM     10  C   UNL     1     -22.611  45.716  86.171  1.00  0.00     0.000 C 
BRANCH  10  11
ATOM     11  C   UNL     1     -21.834  45.846  87.489  1.00  0.00     0.000 C 
BRANCH  11  12
ATOM     12  C   UNL     1     -22.018  44.616  88.395  1.00  0.00     0.000 C 
BRANCH  12  13
ATOM     13  C   UNL     1     -23.368  43.919  88.157  1.00  0.00     0.006 C 
BRANCH  13  14
ATOM     14  C   UNL     1     -24.177  43.778  89.451  1.00  0.00     0.053 C 
BRANCH  14  15
ATOM     15  C   UNL     1     -25.240  44.829  89.528  1.00  0.00     0.041 C 
ATOM     16  O   UNL     1     -25.294  45.736  88.660  1.00  0.00    -0.550 OA
ATOM     17  O   UNL     1     -26.169  44.813  90.564  1.00  0.00    -0.550 OA
ENDBRANCH  14  15
ENDBRANCH  13  14
ENDBRANCH  12  13
ENDBRANCH  11  12
ENDBRANCH  10  11
ENDBRANCH   9  10
ENDBRANCH   8   9
ENDBRANCH   7   8
ENDBRANCH   6   7
ENDBRANCH   5   6
ENDBRANCH   4   5
ENDBRANCH   3   4
ENDBRANCH   2   3
ENDBRANCH   1   2
BRANCH   1  18
ATOM     18  C   UNL     1     -20.231  38.934  86.808  1.00  0.00     0.000 C 
BRANCH  18  19
ATOM     19  C   UNL     1     -20.290  38.048  85.555  1.00  0.00     0.000 C 
BRANCH  19  20
ATOM     20  C   UNL     1     -19.127  38.352  84.605  1.00  0.00     0.000 C 
BRANCH  20  21
ATOM     21  C   UNL     1     -18.989  37.256  83.543  1.00  0.00     0.000 C 
BRANCH  21  22
ATOM     22  C   UNL     1     -17.518  36.871  83.334  1.00  0.00     0.000 C 
BRANCH  22  23
ATOM     23  C   UNL     1     -17.237  35.392  83.654  1.00  0.00     0.000 C 
BRANCH  23  24
ATOM     24  C   UNL     1     -16.478  35.139  84.973  1.00  0.00    -0.000 C 
BRANCH  24  25
ATOM     25  C   UNL     1     -17.274  35.451  86.257  1.00  0.00    -0.000 C 
BRANCH  25  26
ATOM     26  C   UNL     1     -16.837  34.651  87.499  1.00  0.00    -0.000 C 
BRANCH  26  27
ATOM     27  C   UNL     1     -17.655  34.944  88.772  1.00  0.00    -0.000 C 
BRANCH  27  28
ATOM     28  C   UNL     1     -17.759  36.435  89.152  1.00  0.00    -0.000 C 
BRANCH  28  29
ATOM     29  C   UNL     1     -19.168  36.915  89.550  1.00  0.00    -0.000 C 
BRANCH  29  30
ATOM     30  C   UNL     1     -19.152  38.275  90.268  1.00  0.00    -0.000 C 
BRANCH  30  31
ATOM     31  C   UNL     1     -20.564  38.847  90.476  1.00  0.00    -0.003 C 
ATOM     32  C   UNL     1     -20.709  39.590  91.802  1.00  0.00     0.004 C 
ENDBRANCH  30  31
ENDBRANCH  29  30
ENDBRANCH  28  29
ENDBRANCH  27  28
ENDBRANCH  26  27
ENDBRANCH  25  26
ENDBRANCH  24  25
ENDBRANCH  23  24
ENDBRANCH  22  23
ENDBRANCH  21  22
ENDBRANCH  20  21
ENDBRANCH  19  20
ENDBRANCH  18  19
ENDBRANCH   1  18
TORSDOF 28
ENDMDL
MODEL 9
REMARK VINA RESULT:    -5.273      4.080      9.713
REMARK INTER + INTRA:         -17.408
REMARK INTER:                 -14.505
REMARK INTRA:                  -2.902
REMARK UNBOUND:                -3.503
REMARK SMILES CCCCCCCCCCCCCCCCCCCCCCCCCCCCCC(=O)[O-]
REMARK SMILES IDX 16 1 17 2 18 3 19 4 20 5 21 6 22 7 23 8 24 9 25 10 26 11
REMARK SMILES IDX 27 12 28 13 29 14 30 15 31 16 32 17 15 18 14 19 13 20 12 21
REMARK SMILES IDX 11 22 10 23 9 24 8 25 7 26 6 27 5 28 4 29 3 30 2 31 1 32
REMARK H PARENT
REMARK Flexibility Score: inf
ROOT
ATOM      1  C   UNL     1     -21.393  42.865  88.579  1.00  0.00     0.000 C 
ENDROOT
BRANCH   1   2
ATOM      2  C   UNL     1     -21.351  42.013  89.861  1.00  0.00     0.000 C 
BRANCH   2   3
ATOM      3  C   UNL     1     -19.926  41.569  90.238  1.00  0.00     0.000 C 
BRANCH   3   4
ATOM      4  C   UNL     1     -19.883  40.746  91.540  1.00  0.00     0.000 C 
BRANCH   4   5
ATOM      5  C   UNL     1     -18.539  40.058  91.834  1.00  0.00     0.000 C 
BRANCH   5   6
ATOM      6  C   UNL     1     -18.574  38.545  91.566  1.00  0.00     0.000 C 
BRANCH   6   7
ATOM      7  C   UNL     1     -18.318  38.196  90.092  1.00  0.00     0.000 C 
BRANCH   7   8
ATOM      8  C   UNL     1     -19.500  37.526  89.365  1.00  0.00     0.000 C 
BRANCH   8   9
ATOM      9  C   UNL     1     -20.561  38.523  88.853  1.00  0.00     0.000 C 
BRANCH   9  10
ATOM     10  C   UNL     1     -20.973  38.235  87.399  1.00  0.00     0.000 C 
BRANCH  10  11
ATOM     11  C   UNL     1     -19.800  37.706  86.561  1.00  0.00     0.000 C 
BRANCH  11  12
ATOM     12  C   UNL     1     -19.805  38.274  85.131  1.00  0.00     0.000 C 
BRANCH  12  13
ATOM     13  C   UNL     1     -19.220  37.281  84.113  1.00  0.00     0.006 C 
BRANCH  13  14
ATOM     14  C   UNL     1     -18.064  36.466  84.704  1.00  0.00     0.053 C 
BRANCH  14  15
ATOM     15  C   UNL     1     -17.034  36.172  83.658  1.00  0.00     0.041 C 
ATOM     16  O   UNL     1     -16.884  34.999  83.233  1.00  0.00    -0.550 OA
ATOM     17  O   UNL     1     -16.231  37.192  83.158  1.00  0.00    -0.550 OA
ENDBRANCH  14  15
ENDBRANCH  13  14
ENDBRANCH  12  13
ENDBRANCH  11  12
ENDBRANCH  10  11
ENDBRANCH   9  10
ENDBRANCH   8   9
ENDBRANCH   7   8
ENDBRANCH   6   7
ENDBRANCH   5   6
ENDBRANCH   4   5
ENDBRANCH   3   4
ENDBRANCH   2   3
ENDBRANCH   1   2
BRANCH   1  18
ATOM     18  C   UNL     1     -21.582  42.050  87.284  1.00  0.00     0.000 C 
BRANCH  18  19
ATOM     19  C   UNL     1     -20.251  41.708  86.597  1.00  0.00     0.000 C 
BRANCH  19  20
ATOM     20  C   UNL     1     -19.523  42.976  86.141  1.00  0.00     0.000 C 
BRANCH  20  21
ATOM     21  C   UNL     1     -20.362  43.749  85.116  1.00  0.00     0.000 C 
BRANCH  21  22
ATOM     22  C   UNL     1     -20.401  45.246  85.450  1.00  0.00     0.000 C 
BRANCH  22  23
ATOM     23  C   UNL     1     -21.831  45.813  85.486  1.00  0.00     0.000 C 
BRANCH  23  24
ATOM     24  C   UNL     1     -22.407  46.051  86.897  1.00  0.00    -0.000 C 
BRANCH  24  25
ATOM     25  C   UNL     1     -23.934  45.872  87.019  1.00  0.00    -0.000 C 
BRANCH  25  26
ATOM     26  C   UNL     1     -24.603  46.749  88.095  1.00  0.00    -0.000 C 
BRANCH  26  27
ATOM     27  C   UNL     1     -25.338  45.962  89.199  1.00  0.00    -0.000 C 
BRANCH  27  28
ATOM     28  C   UNL     1     -26.508  46.714  89.866  1.00  0.00    -0.000 C 
BRANCH  28  29
ATOM     29  C   UNL     1     -27.467  45.835  90.693  1.00  0.00    -0.000 C 
BRANCH  29  30
ATOM     30  C   UNL     1     -27.044  44.357  90.720  1.00  0.00    -0.000 C 
BRANCH  30  31
ATOM     31  C   UNL     1     -28.232  43.401  90.527  1.00  0.00    -0.003 C 
ATOM     32  C   UNL     1     -28.160  42.629  89.211  1.00  0.00     0.004 C 
ENDBRANCH  30  31
ENDBRANCH  29  30
ENDBRANCH  28  29
ENDBRANCH  27  28
ENDBRANCH  26  27
ENDBRANCH  25  26
ENDBRANCH  24  25
ENDBRANCH  23  24
ENDBRANCH  22  23
ENDBRANCH  21  22
ENDBRANCH  20  21
ENDBRANCH  19  20
ENDBRANCH  18  19
ENDBRANCH   1  18
TORSDOF 28
ENDMDL
