MODEL 1
REMARK VINA RESULT:    52.604      0.000      0.000
REMARK INTER + INTRA:          57.832
REMARK INTER:                  57.217
REMARK INTRA:                   0.614
REMARK UNBOUND:                 0.614
REMARK SMILES C[C@@H]1[C@H](C)CC[C@@]2(C(=O)[O-])CC[C@@]3(C)C(=CC[C@H]4[C@@]5(C)CC[C@@H](O)C(C)(C)[C@H]5CC[C@]43C)[C@@H]12
REMARK SMILES IDX 7 1 6 2 11 3 33 4 5 5 12 6 15 7 2 8 3 9 13 10 16 11 1 12
REMARK SMILES IDX 4 13 14 14 31 15 17 16 18 17 30 18 32 19 19 20 29 21 28 22
REMARK SMILES IDX 21 23 20 24 25 25 22 26 23 27 26 28 27 29 8 30 9 31 10 32
REMARK SMILES IDX 24 33
REMARK H PARENT 24 34
REMARK Flexibility Score: inf
ROOT
ATOM      1  C   UNL     1     -15.976  -2.929 -12.084  1.00  0.00     0.017 C 
ATOM      2  C   UNL     1     -15.999  -2.627 -10.544  1.00  0.00     0.014 C 
ATOM      3  C   UNL     1     -15.338  -1.709 -12.788  1.00  0.00     0.014 C 
ATOM      4  C   UNL     1     -15.132  -4.219 -12.394  1.00  0.00     0.030 C 
ATOM      5  C   UNL     1     -15.861  -3.893  -9.698  1.00  0.00     0.004 C 
ATOM      6  C   UNL     1     -15.228  -1.890 -14.303  1.00  0.00     0.013 C 
ATOM      7  C   UNL     1     -14.751  -4.349 -13.884  1.00  0.00    -0.063 C 
ATOM      8  C   UNL     1     -13.946  -4.358 -11.384  1.00  0.00    -0.003 C 
ATOM      9  C   UNL     1     -14.496  -4.594  -9.931  1.00  0.00    -0.011 C 
ATOM     10  C   UNL     1     -14.383  -3.137 -14.755  1.00  0.00    -0.006 C 
ATOM     11  C   UNL     1     -14.642  -5.598 -14.371  1.00  0.00    -0.027 C 
ATOM     12  C   UNL     1     -12.875  -5.392 -11.786  1.00  0.00     0.008 C 
ATOM     13  C   UNL     1     -14.631  -6.079  -9.541  1.00  0.00     0.008 C 
ATOM     14  C   UNL     1     -12.884  -2.822 -14.466  1.00  0.00     0.017 C 
ATOM     15  C   UNL     1     -14.615  -3.446 -16.330  1.00  0.00    -0.020 C 
ATOM     16  C   UNL     1     -14.392  -5.952 -15.799  1.00  0.00     0.032 C 
ATOM     17  C   UNL     1     -13.928  -4.804 -16.744  1.00  0.00     0.006 C 
ATOM     18  C   UNL     1     -16.144  -3.569 -16.665  1.00  0.00     0.008 C 
ATOM     19  C   UNL     1     -14.011  -2.257 -17.151  1.00  0.00     0.012 C 
ATOM     20  C   UNL     1     -14.058  -5.183 -18.315  1.00  0.00    -0.025 C 
ATOM     21  C   UNL     1     -16.537  -4.526 -17.821  1.00  0.00     0.005 C 
ATOM     22  C   UNL     1     -15.454  -4.693 -18.925  1.00  0.00     0.003 C 
ATOM     23  C   UNL     1     -13.844  -6.730 -18.521  1.00  0.00     0.010 C 
ATOM     24  C   UNL     1     -12.875  -4.487 -19.076  1.00  0.00     0.012 C 
ATOM     25  C   UNL     1     -15.949  -5.421 -20.264  1.00  0.00    -0.006 C 
ATOM     26  C   UNL     1     -14.177  -7.259 -19.915  1.00  0.00     0.033 C 
ATOM     27  C   UNL     1     -15.625  -6.950 -20.301  1.00  0.00     0.120 C 
ATOM     28  C   UNL     1     -17.475  -5.247 -20.508  1.00  0.00     0.014 C 
ATOM     29  C   UNL     1     -15.277  -4.748 -21.498  1.00  0.00     0.014 C 
ENDROOT
BRANCH   1  30
ATOM     30  C   UNL     1     -17.416  -3.092 -12.571  1.00  0.00     0.048 C 
ATOM     31  O   UNL     1     -17.700  -2.879 -13.780  1.00  0.00    -0.550 OA
ATOM     32  O   UNL     1     -18.432  -3.489 -11.707  1.00  0.00    -0.550 OA
ENDBRANCH   1  30
BRANCH  27  33
ATOM     33  O   UNL     1     -16.521  -7.725 -19.538  1.00  0.00    -0.393 OA
ATOM     34  H   UNL     1     -16.009  -8.424 -19.065  1.00  0.00     0.210 HD
ENDBRANCH  27  33
TORSDOF 2
ENDMDL
