MODEL 1
REMARK VINA RESULT:    -6.732      0.000      0.000
REMARK INTER + INTRA:          -7.975
REMARK INTER:                  -7.913
REMARK INTRA:                  -0.063
REMARK UNBOUND:                -0.063
REMARK SMILES O=c1c(O)c(-c2ccc(O)cc2)oc2cc(O)cc(O)c12
REMARK SMILES IDX 5 1 3 2 2 3 1 4 21 5 19 6 18 7 16 8 15 9 14 10 13 11 6 12
REMARK SMILES IDX 7 13 8 14 9 15 12 16 11 17 10 18 4 20 20 22 17 24
REMARK H PARENT 10 19 4 21 20 23 17 25
REMARK Flexibility Score: inf
ROOT
ATOM      1  C   UNL     1     -21.723 -15.735 -13.840  1.00  0.00     0.180 A 
ATOM      2  C   UNL     1     -22.239 -14.862 -14.813  1.00  0.00     0.208 A 
ATOM      3  C   UNL     1     -23.571 -15.017 -15.230  1.00  0.00     0.238 A 
ATOM      4  O   UNL     1     -24.011 -14.268 -16.140  1.00  0.00    -0.285 OA
ATOM      5  C   UNL     1     -24.374 -16.033 -14.657  1.00  0.00     0.111 A 
ATOM      6  C   UNL     1     -25.747 -16.256 -14.976  1.00  0.00     0.134 A 
ATOM      7  C   UNL     1     -26.407 -17.371 -14.445  1.00  0.00     0.093 A 
ATOM      8  C   UNL     1     -25.762 -18.235 -13.556  1.00  0.00     0.123 A 
ATOM      9  C   UNL     1     -24.440 -17.991 -13.194  1.00  0.00     0.094 A 
ATOM     10  C   UNL     1     -23.744 -16.908 -13.735  1.00  0.00     0.146 A 
ATOM     11  O   UNL     1     -22.482 -16.719 -13.370  1.00  0.00    -0.452 OA
ENDROOT
BRANCH   1  12
ATOM     12  C   UNL     1     -20.337 -15.618 -13.331  1.00  0.00     0.021 A 
ATOM     13  C   UNL     1     -19.918 -14.416 -12.736  1.00  0.00     0.016 A 
ATOM     14  C   UNL     1     -18.608 -14.276 -12.269  1.00  0.00     0.047 A 
ATOM     15  C   UNL     1     -17.696 -15.326 -12.405  1.00  0.00     0.115 A 
ATOM     16  C   UNL     1     -19.409 -16.664 -13.482  1.00  0.00     0.016 A 
ATOM     17  C   UNL     1     -18.099 -16.521 -13.015  1.00  0.00     0.047 A 
BRANCH  15  18
ATOM     18  O   UNL     1     -16.394 -15.173 -11.935  1.00  0.00    -0.508 OA
ATOM     19  H   UNL     1     -16.187 -14.596 -11.128  1.00  0.00     0.293 HD
ENDBRANCH  15  18
ENDBRANCH   1  12
BRANCH   2  20
ATOM     20  O   UNL     1     -21.422 -13.880 -15.381  1.00  0.00    -0.502 OA
ATOM     21  H   UNL     1     -21.445 -13.659 -16.370  1.00  0.00     0.293 HD
ENDBRANCH   2  20
BRANCH   6  22
ATOM     22  O   UNL     1     -26.511 -15.403 -15.779  1.00  0.00    -0.507 OA
ATOM     23  H   UNL     1     -26.426 -14.397 -15.792  1.00  0.00     0.293 HD
ENDBRANCH   6  22
BRANCH   8  24
ATOM     24  O   UNL     1     -26.431 -19.333 -13.021  1.00  0.00    -0.508 OA
ATOM     25  H   UNL     1     -27.405 -19.515 -13.232  1.00  0.00     0.293 HD
ENDBRANCH   8  24
TORSDOF 5
ENDMDL
MODEL 2
REMARK VINA RESULT:    -5.841      1.562      1.736
REMARK INTER + INTRA:          -6.929
REMARK INTER:                  -7.435
REMARK INTRA:                   0.506
REMARK UNBOUND:                -0.063
REMARK SMILES O=c1c(O)c(-c2ccc(O)cc2)oc2cc(O)cc(O)c12
REMARK SMILES IDX 5 1 3 2 2 3 1 4 21 5 19 6 18 7 16 8 15 9 14 10 13 11 6 12
REMARK SMILES IDX 7 13 8 14 9 15 12 16 11 17 10 18 4 20 20 22 17 24
REMARK H PARENT 10 19 4 21 20 23 17 25
REMARK Flexibility Score: inf
ROOT
ATOM      1  C   UNL     1     -21.300 -16.144 -13.382  1.00  0.00     0.180 A 
ATOM      2  C   UNL     1     -22.386 -15.262 -13.523  1.00  0.00     0.208 A 
ATOM      3  C   UNL     1     -23.661 -15.788 -13.784  1.00  0.00     0.238 A 
ATOM      4  O   UNL     1     -24.619 -14.991 -13.962  1.00  0.00    -0.285 OA
ATOM      5  C   UNL     1     -23.838 -17.190 -13.885  1.00  0.00     0.111 A 
ATOM      6  C   UNL     1     -25.092 -17.833 -14.107  1.00  0.00     0.134 A 
ATOM      7  C   UNL     1     -25.129 -19.217 -14.320  1.00  0.00     0.093 A 
ATOM      8  C   UNL     1     -23.966 -19.988 -14.253  1.00  0.00     0.123 A 
ATOM      9  C   UNL     1     -22.746 -19.376 -13.978  1.00  0.00     0.094 A 
ATOM     10  C   UNL     1     -22.671 -17.992 -13.798  1.00  0.00     0.146 A 
ATOM     11  O   UNL     1     -21.487 -17.448 -13.547  1.00  0.00    -0.452 OA
ENDROOT
BRANCH   1  12
ATOM     12  C   UNL     1     -19.931 -15.666 -13.081  1.00  0.00     0.021 A 
ATOM     13  C   UNL     1     -19.744 -14.355 -12.613  1.00  0.00     0.016 A 
ATOM     14  C   UNL     1     -18.458 -13.876 -12.344  1.00  0.00     0.047 A 
ATOM     15  C   UNL     1     -17.344 -14.693 -12.552  1.00  0.00     0.115 A 
ATOM     16  C   UNL     1     -18.805 -16.478 -13.307  1.00  0.00     0.016 A 
ATOM     17  C   UNL     1     -17.520 -15.995 -13.038  1.00  0.00     0.047 A 
BRANCH  15  18
ATOM     18  O   UNL     1     -16.069 -14.204 -12.279  1.00  0.00    -0.508 OA
ATOM     19  H   UNL     1     -15.375 -14.099 -13.009  1.00  0.00     0.293 HD
ENDBRANCH  15  18
ENDBRANCH   1  12
BRANCH   2  20
ATOM     20  O   UNL     1     -22.185 -13.881 -13.441  1.00  0.00    -0.502 OA
ATOM     21  H   UNL     1     -21.473 -13.470 -12.848  1.00  0.00     0.293 HD
ENDBRANCH   2  20
BRANCH   6  22
ATOM     22  O   UNL     1     -26.323 -17.170 -14.100  1.00  0.00    -0.507 OA
ATOM     23  H   UNL     1     -27.154 -17.497 -14.570  1.00  0.00     0.293 HD
ENDBRANCH   6  22
BRANCH   8  24
ATOM     24  O   UNL     1     -24.014 -21.366 -14.451  1.00  0.00    -0.508 OA
ATOM     25  H   UNL     1     -23.597 -22.011 -13.791  1.00  0.00     0.293 HD
ENDBRANCH   8  24
TORSDOF 5
ENDMDL
MODEL 3
REMARK VINA RESULT:    -4.976      1.332      2.789
REMARK INTER + INTRA:          -5.911
REMARK INTER:                  -6.250
REMARK INTRA:                   0.339
REMARK UNBOUND:                -0.063
REMARK SMILES O=c1c(O)c(-c2ccc(O)cc2)oc2cc(O)cc(O)c12
REMARK SMILES IDX 5 1 3 2 2 3 1 4 21 5 19 6 18 7 16 8 15 9 14 10 13 11 6 12
REMARK SMILES IDX 7 13 8 14 9 15 12 16 11 17 10 18 4 20 20 22 17 24
REMARK H PARENT 10 19 4 21 20 23 17 25
REMARK Flexibility Score: inf
ROOT
ATOM      1  C   UNL     1     -21.320 -16.221 -13.540  1.00  0.00     0.180 A 
ATOM      2  C   UNL     1     -21.666 -17.581 -13.465  1.00  0.00     0.208 A 
ATOM      3  C   UNL     1     -22.966 -17.974 -13.823  1.00  0.00     0.238 A 
ATOM      4  O   UNL     1     -23.286 -19.185 -13.702  1.00  0.00    -0.285 OA
ATOM      5  C   UNL     1     -23.898 -17.005 -14.266  1.00  0.00     0.111 A 
ATOM      6  C   UNL     1     -25.228 -17.296 -14.692  1.00  0.00     0.134 A 
ATOM      7  C   UNL     1     -26.105 -16.244 -14.986  1.00  0.00     0.093 A 
ATOM      8  C   UNL     1     -25.679 -14.914 -14.933  1.00  0.00     0.123 A 
ATOM      9  C   UNL     1     -24.365 -14.624 -14.576  1.00  0.00     0.094 A 
ATOM     10  C   UNL     1     -23.477 -15.650 -14.241  1.00  0.00     0.146 A 
ATOM     11  O   UNL     1     -22.236 -15.328 -13.897  1.00  0.00    -0.452 OA
ENDROOT
BRANCH   1  12
ATOM     12  C   UNL     1     -19.963 -15.733 -13.204  1.00  0.00     0.021 A 
ATOM     13  C   UNL     1     -19.780 -14.387 -12.846  1.00  0.00     0.016 A 
ATOM     14  C   UNL     1     -18.505 -13.900 -12.547  1.00  0.00     0.047 A 
ATOM     15  C   UNL     1     -17.395 -14.746 -12.615  1.00  0.00     0.115 A 
ATOM     16  C   UNL     1     -18.839 -16.575 -13.289  1.00  0.00     0.016 A 
ATOM     17  C   UNL     1     -17.564 -16.085 -12.990  1.00  0.00     0.047 A 
BRANCH  15  18
ATOM     18  O   UNL     1     -16.129 -14.248 -12.313  1.00  0.00    -0.508 OA
ATOM     19  H   UNL     1     -15.595 -14.600 -11.528  1.00  0.00     0.293 HD
ENDBRANCH  15  18
ENDBRANCH   1  12
BRANCH   2  20
ATOM     20  O   UNL     1     -20.737 -18.518 -13.003  1.00  0.00    -0.502 OA
ATOM     21  H   UNL     1     -20.902 -19.087 -12.181  1.00  0.00     0.293 HD
ENDBRANCH   2  20
BRANCH   6  22
ATOM     22  O   UNL     1     -25.727 -18.590 -14.868  1.00  0.00    -0.507 OA
ATOM     23  H   UNL     1     -25.494 -19.380 -14.283  1.00  0.00     0.293 HD
ENDBRANCH   6  22
BRANCH   8  24
ATOM     24  O   UNL     1     -26.553 -13.875 -15.242  1.00  0.00    -0.508 OA
ATOM     25  H   UNL     1     -27.117 -13.427 -14.530  1.00  0.00     0.293 HD
ENDBRANCH   8  24
TORSDOF 5
ENDMDL
