MODEL 1
REMARK VINA RESULT:    -3.167      0.000      0.000
REMARK INTER + INTRA:          -8.688
REMARK INTER:                  -6.130
REMARK INTRA:                  -2.558
REMARK UNBOUND:                -2.558
REMARK SMILES CCCCCCCCCCCCCCCC(=O)OCC
REMARK SMILES IDX 10 1 9 2 8 3 7 4 6 5 5 6 4 7 3 8 2 9 1 10 11 11 12 12 13 13
REMARK SMILES IDX 14 14 15 15 16 16 17 17 18 18 19 19 20 20
REMARK H PARENT
REMARK Flexibility Score: inf
ROOT
ATOM      1  C   UNL     1     208.743 212.362 219.985  1.00  0.00     0.000 C 
ENDROOT
BRANCH   1   2
ATOM      2  C   UNL     1     208.904 212.142 218.472  1.00  0.00     0.000 C 
BRANCH   2   3
ATOM      3  C   UNL     1     207.583 211.747 217.786  1.00  0.00     0.000 C 
BRANCH   3   4
ATOM      4  C   UNL     1     206.361 211.968 218.693  1.00  0.00    -0.000 C 
BRANCH   4   5
ATOM      5  C   UNL     1     205.310 210.858 218.544  1.00  0.00    -0.000 C 
BRANCH   5   6
ATOM      6  C   UNL     1     204.814 210.387 219.921  1.00  0.00    -0.000 C 
BRANCH   6   7
ATOM      7  C   UNL     1     205.399 209.025 220.330  1.00  0.00    -0.000 C 
BRANCH   7   8
ATOM      8  C   UNL     1     206.390 208.413 219.322  1.00  0.00    -0.000 C 
BRANCH   8   9
ATOM      9  C   UNL     1     207.817 208.231 219.880  1.00  0.00    -0.003 C 
ATOM     10  C   UNL     1     208.009 208.912 221.237  1.00  0.00     0.004 C 
ENDBRANCH   8   9
ENDBRANCH   7   8
ENDBRANCH   6   7
ENDBRANCH   5   6
ENDBRANCH   4   5
ENDBRANCH   3   4
ENDBRANCH   2   3
ENDBRANCH   1   2
BRANCH   1  11
ATOM     11  C   UNL     1     209.994 211.962 220.782  1.00  0.00     0.000 C 
BRANCH  11  12
ATOM     12  C   UNL     1     210.852 210.965 219.994  1.00  0.00     0.000 C 
BRANCH  12  13
ATOM     13  C   UNL     1     212.044 210.481 220.832  1.00  0.00     0.001 C 
BRANCH  13  14
ATOM     14  C   UNL     1     212.186 208.951 220.832  1.00  0.00     0.012 C 
BRANCH  14  15
ATOM     15  C   UNL     1     211.513 208.296 219.620  1.00  0.00     0.123 C 
BRANCH  15  16
ATOM     16  C   UNL     1     212.548 207.844 218.638  1.00  0.00     0.305 C 
ATOM     17  O   UNL     1     213.293 206.866 218.922  1.00  0.00    -0.252 OA
BRANCH  16  18
ATOM     18  O   UNL     1     212.645 208.484 217.398  1.00  0.00    -0.466 OA
BRANCH  18  19
ATOM     19  C   UNL     1     213.167 209.801 217.234  1.00  0.00     0.229 C 
ATOM     20  C   UNL     1     214.477 209.957 218.000  1.00  0.00     0.049 C 
ENDBRANCH  18  19
ENDBRANCH  16  18
ENDBRANCH  15  16
ENDBRANCH  14  15
ENDBRANCH  13  14
ENDBRANCH  12  13
ENDBRANCH  11  12
ENDBRANCH   1  11
TORSDOF 16
ENDMDL
MODEL 2
REMARK VINA RESULT:    -3.089      2.510      6.763
REMARK INTER + INTRA:          -8.536
REMARK INTER:                  -5.918
REMARK INTRA:                  -2.618
REMARK UNBOUND:                -2.558
REMARK SMILES CCCCCCCCCCCCCCCC(=O)OCC
REMARK SMILES IDX 10 1 9 2 8 3 7 4 6 5 5 6 4 7 3 8 2 9 1 10 11 11 12 12 13 13
REMARK SMILES IDX 14 14 15 15 16 16 17 17 18 18 19 19 20 20
REMARK H PARENT
REMARK Flexibility Score: inf
ROOT
ATOM      1  C   UNL     1     212.178 210.199 221.636  1.00  0.00     0.000 C 
ENDROOT
BRANCH   1   2
ATOM      2  C   UNL     1     213.680 210.519 221.702  1.00  0.00     0.000 C 
BRANCH   2   3
ATOM      3  C   UNL     1     214.557 209.253 221.701  1.00  0.00     0.000 C 
BRANCH   3   4
ATOM      4  C   UNL     1     213.755 207.983 221.370  1.00  0.00    -0.000 C 
BRANCH   4   5
ATOM      5  C   UNL     1     214.326 207.224 220.164  1.00  0.00    -0.000 C 
BRANCH   5   6
ATOM      6  C   UNL     1     213.210 206.851 219.175  1.00  0.00    -0.000 C 
BRANCH   6   7
ATOM      7  C   UNL     1     212.661 208.067 218.410  1.00  0.00    -0.000 C 
BRANCH   7   8
ATOM      8  C   UNL     1     213.711 208.859 217.607  1.00  0.00    -0.000 C 
BRANCH   8   9
ATOM      9  C   UNL     1     213.734 210.368 217.925  1.00  0.00    -0.003 C 
ATOM     10  C   UNL     1     215.124 210.861 218.335  1.00  0.00     0.004 C 
ENDBRANCH   8   9
ENDBRANCH   7   8
ENDBRANCH   6   7
ENDBRANCH   5   6
ENDBRANCH   4   5
ENDBRANCH   3   4
ENDBRANCH   2   3
ENDBRANCH   1   2
BRANCH   1  11
ATOM     11  C   UNL     1     211.423 211.086 220.635  1.00  0.00     0.000 C 
BRANCH  11  12
ATOM     12  C   UNL     1     210.291 210.306 219.954  1.00  0.00     0.000 C 
BRANCH  12  13
ATOM     13  C   UNL     1     209.866 209.100 220.803  1.00  0.00     0.001 C 
BRANCH  13  14
ATOM     14  C   UNL     1     208.886 208.173 220.065  1.00  0.00     0.012 C 
BRANCH  14  15
ATOM     15  C   UNL     1     207.429 208.401 220.485  1.00  0.00     0.123 C 
BRANCH  15  16
ATOM     16  C   UNL     1     206.515 208.160 219.326  1.00  0.00     0.305 C 
ATOM     17  O   UNL     1     205.674 207.222 219.377  1.00  0.00    -0.252 OA
BRANCH  16  18
ATOM     18  O   UNL     1     206.574 209.011 218.216  1.00  0.00    -0.466 OA
BRANCH  18  19
ATOM     19  C   UNL     1     206.399 210.423 218.302  1.00  0.00     0.229 C 
ATOM     20  C   UNL     1     205.035 210.760 218.896  1.00  0.00     0.049 C 
ENDBRANCH  18  19
ENDBRANCH  16  18
ENDBRANCH  15  16
ENDBRANCH  14  15
ENDBRANCH  13  14
ENDBRANCH  12  13
ENDBRANCH  11  12
ENDBRANCH   1  11
TORSDOF 16
ENDMDL
MODEL 3
REMARK VINA RESULT:    -3.013      2.304      6.162
REMARK INTER + INTRA:          -8.388
REMARK INTER:                  -6.445
REMARK INTRA:                  -1.943
REMARK UNBOUND:                -2.558
REMARK SMILES CCCCCCCCCCCCCCCC(=O)OCC
REMARK SMILES IDX 10 1 9 2 8 3 7 4 6 5 5 6 4 7 3 8 2 9 1 10 11 11 12 12 13 13
REMARK SMILES IDX 14 14 15 15 16 16 17 17 18 18 19 19 20 20
REMARK H PARENT
REMARK Flexibility Score: inf
ROOT
ATOM      1  C   UNL     1     210.321 212.351 219.622  1.00  0.00     0.000 C 
ENDROOT
BRANCH   1   2
ATOM      2  C   UNL     1     210.987 211.613 218.450  1.00  0.00     0.000 C 
BRANCH   2   3
ATOM      3  C   UNL     1     212.103 210.656 218.908  1.00  0.00     0.000 C 
BRANCH   3   4
ATOM      4  C   UNL     1     213.247 210.556 217.885  1.00  0.00    -0.000 C 
BRANCH   4   5
ATOM      5  C   UNL     1     213.643 209.103 217.586  1.00  0.00    -0.000 C 
BRANCH   5   6
ATOM      6  C   UNL     1     212.588 208.126 218.129  1.00  0.00    -0.000 C 
BRANCH   6   7
ATOM      7  C   UNL     1     213.180 207.087 219.096  1.00  0.00    -0.000 C 
BRANCH   7   8
ATOM      8  C   UNL     1     214.438 207.548 219.857  1.00  0.00    -0.000 C 
BRANCH   8   9
ATOM      9  C   UNL     1     214.259 207.598 221.388  1.00  0.00    -0.003 C 
ATOM     10  C   UNL     1     213.166 208.578 221.821  1.00  0.00     0.004 C 
ENDBRANCH   8   9
ENDBRANCH   7   8
ENDBRANCH   6   7
ENDBRANCH   5   6
ENDBRANCH   4   5
ENDBRANCH   3   4
ENDBRANCH   2   3
ENDBRANCH   1   2
BRANCH   1  11
ATOM     11  C   UNL     1     208.844 212.682 219.356  1.00  0.00     0.000 C 
BRANCH  11  12
ATOM     12  C   UNL     1     208.498 212.499 217.874  1.00  0.00     0.000 C 
BRANCH  12  13
ATOM     13  C   UNL     1     206.983 212.352 217.676  1.00  0.00     0.001 C 
BRANCH  13  14
ATOM     14  C   UNL     1     206.309 211.577 218.819  1.00  0.00     0.012 C 
BRANCH  14  15
ATOM     15  C   UNL     1     205.592 210.312 218.331  1.00  0.00     0.123 C 
BRANCH  15  16
ATOM     16  C   UNL     1     206.396 209.099 218.676  1.00  0.00     0.305 C 
ATOM     17  O   UNL     1     206.207 208.023 218.044  1.00  0.00    -0.252 OA
BRANCH  16  18
ATOM     18  O   UNL     1     207.382 209.186 219.665  1.00  0.00    -0.466 OA
BRANCH  18  19
ATOM     19  C   UNL     1     208.245 208.103 220.007  1.00  0.00     0.229 C 
ATOM     20  C   UNL     1     209.552 208.624 220.597  1.00  0.00     0.049 C 
ENDBRANCH  18  19
ENDBRANCH  16  18
ENDBRANCH  15  16
ENDBRANCH  14  15
ENDBRANCH  13  14
ENDBRANCH  12  13
ENDBRANCH  11  12
ENDBRANCH   1  11
TORSDOF 16
ENDMDL
MODEL 4
REMARK VINA RESULT:    -3.002      1.295      2.847
REMARK INTER + INTRA:          -8.368
REMARK INTER:                  -6.111
REMARK INTRA:                  -2.257
REMARK UNBOUND:                -2.558
REMARK SMILES CCCCCCCCCCCCCCCC(=O)OCC
REMARK SMILES IDX 10 1 9 2 8 3 7 4 6 5 5 6 4 7 3 8 2 9 1 10 11 11 12 12 13 13
REMARK SMILES IDX 14 14 15 15 16 16 17 17 18 18 19 19 20 20
REMARK H PARENT
REMARK Flexibility Score: inf
ROOT
ATOM      1  C   UNL     1     207.424 211.750 217.684  1.00  0.00     0.000 C 
ENDROOT
BRANCH   1   2
ATOM      2  C   UNL     1     206.367 211.738 218.801  1.00  0.00     0.000 C 
BRANCH   2   3
ATOM      3  C   UNL     1     205.481 210.479 218.766  1.00  0.00     0.000 C 
BRANCH   3   4
ATOM      4  C   UNL     1     206.153 209.308 218.030  1.00  0.00    -0.000 C 
BRANCH   4   5
ATOM      5  C   UNL     1     206.339 208.077 218.930  1.00  0.00    -0.000 C 
BRANCH   5   6
ATOM      6  C   UNL     1     207.655 208.172 219.720  1.00  0.00    -0.000 C 
BRANCH   6   7
ATOM      7  C   UNL     1     207.444 208.087 221.240  1.00  0.00    -0.000 C 
BRANCH   7   8
ATOM      8  C   UNL     1     207.116 209.426 221.928  1.00  0.00    -0.000 C 
BRANCH   8   9
ATOM      9  C   UNL     1     205.636 209.573 222.338  1.00  0.00    -0.003 C 
ATOM     10  C   UNL     1     205.210 208.538 223.382  1.00  0.00     0.004 C 
ENDBRANCH   8   9
ENDBRANCH   7   8
ENDBRANCH   6   7
ENDBRANCH   5   6
ENDBRANCH   4   5
ENDBRANCH   3   4
ENDBRANCH   2   3
ENDBRANCH   1   2
BRANCH   1  11
ATOM     11  C   UNL     1     208.827 212.112 218.195  1.00  0.00     0.000 C 
BRANCH  11  12
ATOM     12  C   UNL     1     209.081 211.507 219.581  1.00  0.00     0.000 C 
BRANCH  12  13
ATOM     13  C   UNL     1     210.466 210.850 219.650  1.00  0.00     0.001 C 
BRANCH  13  14
ATOM     14  C   UNL     1     211.358 211.221 218.454  1.00  0.00     0.012 C 
BRANCH  14  15
ATOM     15  C   UNL     1     212.723 210.524 218.498  1.00  0.00     0.123 C 
BRANCH  15  16
ATOM     16  C   UNL     1     212.695 209.284 217.661  1.00  0.00     0.305 C 
ATOM     17  O   UNL     1     213.191 209.302 216.501  1.00  0.00    -0.252 OA
BRANCH  16  18
ATOM     18  O   UNL     1     212.160 208.106 218.195  1.00  0.00    -0.466 OA
BRANCH  18  19
ATOM     19  C   UNL     1     212.575 207.553 219.442  1.00  0.00     0.229 C 
ATOM     20  C   UNL     1     213.971 206.950 219.324  1.00  0.00     0.049 C 
ENDBRANCH  18  19
ENDBRANCH  16  18
ENDBRANCH  15  16
ENDBRANCH  14  15
ENDBRANCH  13  14
ENDBRANCH  12  13
ENDBRANCH  11  12
ENDBRANCH   1  11
TORSDOF 16
ENDMDL
MODEL 5
REMARK VINA RESULT:    -2.984      2.936      6.707
REMARK INTER + INTRA:          -8.333
REMARK INTER:                  -6.206
REMARK INTRA:                  -2.127
REMARK UNBOUND:                -2.558
REMARK SMILES CCCCCCCCCCCCCCCC(=O)OCC
REMARK SMILES IDX 10 1 9 2 8 3 7 4 6 5 5 6 4 7 3 8 2 9 1 10 11 11 12 12 13 13
REMARK SMILES IDX 14 14 15 15 16 16 17 17 18 18 19 19 20 20
REMARK H PARENT
REMARK Flexibility Score: inf
ROOT
ATOM      1  C   UNL     1     212.191 211.363 221.045  1.00  0.00     0.000 C 
ENDROOT
BRANCH   1   2
ATOM      2  C   UNL     1     213.648 211.070 220.654  1.00  0.00     0.000 C 
BRANCH   2   3
ATOM      3  C   UNL     1     214.187 212.049 219.594  1.00  0.00     0.000 C 
BRANCH   3   4
ATOM      4  C   UNL     1     214.622 211.335 218.304  1.00  0.00    -0.000 C 
BRANCH   4   5
ATOM      5  C   UNL     1     213.441 210.694 217.559  1.00  0.00    -0.000 C 
BRANCH   5   6
ATOM      6  C   UNL     1     213.680 209.191 217.348  1.00  0.00    -0.000 C 
BRANCH   6   7
ATOM      7  C   UNL     1     212.624 208.317 218.046  1.00  0.00    -0.000 C 
BRANCH   7   8
ATOM      8  C   UNL     1     213.192 207.212 218.958  1.00  0.00    -0.000 C 
BRANCH   8   9
ATOM      9  C   UNL     1     214.454 207.634 219.738  1.00  0.00    -0.003 C 
ATOM     10  C   UNL     1     214.729 206.731 220.943  1.00  0.00     0.004 C 
ENDBRANCH   8   9
ENDBRANCH   7   8
ENDBRANCH   6   7
ENDBRANCH   5   6
ENDBRANCH   4   5
ENDBRANCH   3   4
ENDBRANCH   2   3
ENDBRANCH   1   2
BRANCH   1  11
ATOM     11  C   UNL     1     211.239 210.204 220.711  1.00  0.00     0.000 C 
BRANCH  11  12
ATOM     12  C   UNL     1     210.055 210.691 219.867  1.00  0.00     0.000 C 
BRANCH  12  13
ATOM     13  C   UNL     1     210.496 211.769 218.868  1.00  0.00     0.001 C 
BRANCH  13  14
ATOM     14  C   UNL     1     209.386 212.788 218.568  1.00  0.00     0.012 C 
BRANCH  14  15
ATOM     15  C   UNL     1     208.230 212.181 217.764  1.00  0.00     0.123 C 
BRANCH  15  16
ATOM     16  C   UNL     1     206.990 212.136 218.599  1.00  0.00     0.305 C 
ATOM     17  O   UNL     1     206.968 212.719 219.718  1.00  0.00    -0.252 OA
BRANCH  16  18
ATOM     18  O   UNL     1     205.853 211.484 218.108  1.00  0.00    -0.466 OA
BRANCH  18  19
ATOM     19  C   UNL     1     205.303 210.312 218.705  1.00  0.00     0.229 C 
ATOM     20  C   UNL     1     205.968 209.060 218.142  1.00  0.00     0.049 C 
ENDBRANCH  18  19
ENDBRANCH  16  18
ENDBRANCH  15  16
ENDBRANCH  14  15
ENDBRANCH  13  14
ENDBRANCH  12  13
ENDBRANCH  11  12
ENDBRANCH   1  11
TORSDOF 16
ENDMDL
MODEL 6
REMARK VINA RESULT:    -2.950      2.519      6.681
REMARK INTER + INTRA:          -8.267
REMARK INTER:                  -5.816
REMARK INTRA:                  -2.451
REMARK UNBOUND:                -2.558
REMARK SMILES CCCCCCCCCCCCCCCC(=O)OCC
REMARK SMILES IDX 10 1 9 2 8 3 7 4 6 5 5 6 4 7 3 8 2 9 1 10 11 11 12 12 13 13
REMARK SMILES IDX 14 14 15 15 16 16 17 17 18 18 19 19 20 20
REMARK H PARENT
REMARK Flexibility Score: inf
ROOT
ATOM      1  C   UNL     1     212.393 210.129 221.898  1.00  0.00     0.000 C 
ENDROOT
BRANCH   1   2
ATOM      2  C   UNL     1     213.769 209.443 221.888  1.00  0.00     0.000 C 
BRANCH   2   3
ATOM      3  C   UNL     1     213.694 207.968 221.452  1.00  0.00     0.000 C 
BRANCH   3   4
ATOM      4  C   UNL     1     214.323 207.732 220.069  1.00  0.00    -0.000 C 
BRANCH   4   5
ATOM      5  C   UNL     1     213.311 207.192 219.047  1.00  0.00    -0.000 C 
BRANCH   5   6
ATOM      6  C   UNL     1     212.358 208.304 218.581  1.00  0.00    -0.000 C 
BRANCH   6   7
ATOM      7  C   UNL     1     212.795 208.946 217.254  1.00  0.00    -0.000 C 
BRANCH   7   8
ATOM      8  C   UNL     1     212.957 210.478 217.293  1.00  0.00    -0.000 C 
BRANCH   8   9
ATOM      9  C   UNL     1     213.791 210.988 218.486  1.00  0.00    -0.003 C 
ATOM     10  C   UNL     1     213.261 212.307 219.053  1.00  0.00     0.004 C 
ENDBRANCH   8   9
ENDBRANCH   7   8
ENDBRANCH   6   7
ENDBRANCH   5   6
ENDBRANCH   4   5
ENDBRANCH   3   4
ENDBRANCH   2   3
ENDBRANCH   1   2
BRANCH   1  11
ATOM     11  C   UNL     1     211.254 209.175 222.287  1.00  0.00     0.000 C 
BRANCH  11  12
ATOM     12  C   UNL     1     210.195 209.103 221.181  1.00  0.00     0.000 C 
BRANCH  12  13
ATOM     13  C   UNL     1     209.575 210.483 220.921  1.00  0.00     0.001 C 
BRANCH  13  14
ATOM     14  C   UNL     1     209.863 211.005 219.505  1.00  0.00     0.012 C 
BRANCH  14  15
ATOM     15  C   UNL     1     209.024 212.237 219.148  1.00  0.00     0.123 C 
BRANCH  15  16
ATOM     16  C   UNL     1     208.169 211.951 217.954  1.00  0.00     0.305 C 
ATOM     17  O   UNL     1     208.415 212.526 216.858  1.00  0.00    -0.252 OA
BRANCH  16  18
ATOM     18  O   UNL     1     207.137 211.012 218.056  1.00  0.00    -0.466 OA
BRANCH  18  19
ATOM     19  C   UNL     1     205.803 211.353 218.428  1.00  0.00     0.229 C 
ATOM     20  C   UNL     1     205.355 210.532 219.632  1.00  0.00     0.049 C 
ENDBRANCH  18  19
ENDBRANCH  16  18
ENDBRANCH  15  16
ENDBRANCH  14  15
ENDBRANCH  13  14
ENDBRANCH  12  13
ENDBRANCH  11  12
ENDBRANCH   1  11
TORSDOF 16
ENDMDL
MODEL 7
REMARK VINA RESULT:    -2.948     13.094     16.033
REMARK INTER + INTRA:          -8.263
REMARK INTER:                  -5.485
REMARK INTRA:                  -2.778
REMARK UNBOUND:                -2.558
REMARK SMILES CCCCCCCCCCCCCCCC(=O)OCC
REMARK SMILES IDX 10 1 9 2 8 3 7 4 6 5 5 6 4 7 3 8 2 9 1 10 11 11 12 12 13 13
REMARK SMILES IDX 14 14 15 15 16 16 17 17 18 18 19 19 20 20
REMARK H PARENT
REMARK Flexibility Score: inf
ROOT
ATOM      1  C   UNL     1     196.067 197.394 217.819  1.00  0.00     0.000 C 
ENDROOT
BRANCH   1   2
ATOM      2  C   UNL     1     194.875 198.364 217.793  1.00  0.00     0.000 C 
BRANCH   2   3
ATOM      3  C   UNL     1     195.248 199.747 217.228  1.00  0.00     0.000 C 
BRANCH   3   4
ATOM      4  C   UNL     1     195.580 200.763 218.334  1.00  0.00    -0.000 C 
BRANCH   4   5
ATOM      5  C   UNL     1     197.089 200.882 218.590  1.00  0.00    -0.000 C 
BRANCH   5   6
ATOM      6  C   UNL     1     197.442 200.401 220.007  1.00  0.00    -0.000 C 
BRANCH   6   7
ATOM      7  C   UNL     1     196.199 200.073 220.851  1.00  0.00    -0.000 C 
BRANCH   7   8
ATOM      8  C   UNL     1     196.433 199.057 221.986  1.00  0.00    -0.000 C 
BRANCH   8   9
ATOM      9  C   UNL     1     197.901 198.967 222.451  1.00  0.00    -0.003 C 
ATOM     10  C   UNL     1     198.268 197.575 222.973  1.00  0.00     0.004 C 
ENDBRANCH   8   9
ENDBRANCH   7   8
ENDBRANCH   6   7
ENDBRANCH   5   6
ENDBRANCH   4   5
ENDBRANCH   3   4
ENDBRANCH   2   3
ENDBRANCH   1   2
BRANCH   1  11
ATOM     11  C   UNL     1     196.217 196.670 219.166  1.00  0.00     0.000 C 
BRANCH  11  12
ATOM     12  C   UNL     1     197.695 196.436 219.502  1.00  0.00     0.000 C 
BRANCH  12  13
ATOM     13  C   UNL     1     198.602 197.351 218.667  1.00  0.00     0.001 C 
BRANCH  13  14
ATOM     14  C   UNL     1     200.093 197.149 218.977  1.00  0.00     0.012 C 
BRANCH  14  15
ATOM     15  C   UNL     1     200.611 198.121 220.044  1.00  0.00     0.123 C 
BRANCH  15  16
ATOM     16  C   UNL     1     202.079 197.925 220.251  1.00  0.00     0.305 C 
ATOM     17  O   UNL     1     202.485 197.012 221.021  1.00  0.00    -0.252 OA
BRANCH  16  18
ATOM     18  O   UNL     1     202.986 198.728 219.550  1.00  0.00    -0.466 OA
BRANCH  18  19
ATOM     19  C   UNL     1     202.715 200.081 219.188  1.00  0.00     0.229 C 
ATOM     20  C   UNL     1     203.199 200.364 217.769  1.00  0.00     0.049 C 
ENDBRANCH  18  19
ENDBRANCH  16  18
ENDBRANCH  15  16
ENDBRANCH  14  15
ENDBRANCH  13  14
ENDBRANCH  12  13
ENDBRANCH  11  12
ENDBRANCH   1  11
TORSDOF 16
ENDMDL
MODEL 8
REMARK VINA RESULT:    -2.930      2.589      6.635
REMARK INTER + INTRA:          -8.229
REMARK INTER:                  -6.437
REMARK INTRA:                  -1.792
REMARK UNBOUND:                -2.558
REMARK SMILES CCCCCCCCCCCCCCCC(=O)OCC
REMARK SMILES IDX 10 1 9 2 8 3 7 4 6 5 5 6 4 7 3 8 2 9 1 10 11 11 12 12 13 13
REMARK SMILES IDX 14 14 15 15 16 16 17 17 18 18 19 19 20 20
REMARK H PARENT
REMARK Flexibility Score: inf
ROOT
ATOM      1  C   UNL     1     212.160 212.186 219.221  1.00  0.00     0.000 C 
ENDROOT
BRANCH   1   2
ATOM      2  C   UNL     1     213.447 211.512 218.720  1.00  0.00     0.000 C 
BRANCH   2   3
ATOM      3  C   UNL     1     213.244 210.755 217.394  1.00  0.00     0.000 C 
BRANCH   3   4
ATOM      4  C   UNL     1     213.670 209.281 217.489  1.00  0.00    -0.000 C 
BRANCH   4   5
ATOM      5  C   UNL     1     212.528 208.366 217.956  1.00  0.00    -0.000 C 
BRANCH   5   6
ATOM      6  C   UNL     1     212.983 207.480 219.127  1.00  0.00    -0.000 C 
BRANCH   6   7
ATOM      7  C   UNL     1     214.328 207.925 219.724  1.00  0.00    -0.000 C 
BRANCH   7   8
ATOM      8  C   UNL     1     214.250 208.494 221.153  1.00  0.00    -0.000 C 
BRANCH   8   9
ATOM      9  C   UNL     1     212.811 208.748 221.647  1.00  0.00    -0.003 C 
ATOM     10  C   UNL     1     212.613 210.173 222.171  1.00  0.00     0.004 C 
ENDBRANCH   8   9
ENDBRANCH   7   8
ENDBRANCH   6   7
ENDBRANCH   5   6
ENDBRANCH   4   5
ENDBRANCH   3   4
ENDBRANCH   2   3
ENDBRANCH   1   2
BRANCH   1  11
ATOM     11  C   UNL     1     210.887 211.465 218.751  1.00  0.00     0.000 C 
BRANCH  11  12
ATOM     12  C   UNL     1     209.666 212.387 218.846  1.00  0.00     0.000 C 
BRANCH  12  13
ATOM     13  C   UNL     1     208.957 212.504 217.489  1.00  0.00     0.001 C 
BRANCH  13  14
ATOM     14  C   UNL     1     207.425 212.512 217.621  1.00  0.00     0.012 C 
BRANCH  14  15
ATOM     15  C   UNL     1     206.947 211.989 218.980  1.00  0.00     0.123 C 
BRANCH  15  16
ATOM     16  C   UNL     1     206.196 210.707 218.804  1.00  0.00     0.305 C 
ATOM     17  O   UNL     1     204.982 210.736 218.464  1.00  0.00    -0.252 OA
BRANCH  16  18
ATOM     18  O   UNL     1     206.866 209.489 218.973  1.00  0.00    -0.466 OA
BRANCH  18  19
ATOM     19  C   UNL     1     206.199 208.230 219.027  1.00  0.00     0.229 C 
ATOM     20  C   UNL     1     205.835 207.754 217.624  1.00  0.00     0.049 C 
ENDBRANCH  18  19
ENDBRANCH  16  18
ENDBRANCH  15  16
ENDBRANCH  14  15
ENDBRANCH  13  14
ENDBRANCH  12  13
ENDBRANCH  11  12
ENDBRANCH   1  11
TORSDOF 16
ENDMDL
MODEL 9
REMARK VINA RESULT:    -2.901     13.354     16.120
REMARK INTER + INTRA:          -8.172
REMARK INTER:                  -5.271
REMARK INTRA:                  -2.901
REMARK UNBOUND:                -2.558
REMARK SMILES CCCCCCCCCCCCCCCC(=O)OCC
REMARK SMILES IDX 10 1 9 2 8 3 7 4 6 5 5 6 4 7 3 8 2 9 1 10 11 11 12 12 13 13
REMARK SMILES IDX 14 14 15 15 16 16 17 17 18 18 19 19 20 20
REMARK H PARENT
REMARK Flexibility Score: inf
ROOT
ATOM      1  C   UNL     1     197.458 200.856 219.397  1.00  0.00     0.000 C 
ENDROOT
BRANCH   1   2
ATOM      2  C   UNL     1     196.217 201.570 218.837  1.00  0.00     0.000 C 
BRANCH   2   3
ATOM      3  C   UNL     1     195.036 200.610 218.601  1.00  0.00     0.000 C 
BRANCH   3   4
ATOM      4  C   UNL     1     195.234 199.731 217.354  1.00  0.00    -0.000 C 
BRANCH   4   5
ATOM      5  C   UNL     1     195.068 198.235 217.657  1.00  0.00    -0.000 C 
BRANCH   5   6
ATOM      6  C   UNL     1     196.437 197.554 217.815  1.00  0.00    -0.000 C 
BRANCH   6   7
ATOM      7  C   UNL     1     196.494 196.603 219.022  1.00  0.00    -0.000 C 
BRANCH   7   8
ATOM      8  C   UNL     1     195.372 196.800 220.059  1.00  0.00    -0.000 C 
BRANCH   8   9
ATOM      9  C   UNL     1     195.821 196.573 221.517  1.00  0.00    -0.003 C 
ATOM     10  C   UNL     1     197.088 195.721 221.616  1.00  0.00     0.004 C 
ENDBRANCH   8   9
ENDBRANCH   7   8
ENDBRANCH   6   7
ENDBRANCH   5   6
ENDBRANCH   4   5
ENDBRANCH   3   4
ENDBRANCH   2   3
ENDBRANCH   1   2
BRANCH   1  11
ATOM     11  C   UNL     1     197.157 200.043 220.665  1.00  0.00     0.000 C 
BRANCH  11  12
ATOM     12  C   UNL     1     198.370 199.203 221.079  1.00  0.00     0.000 C 
BRANCH  12  13
ATOM     13  C   UNL     1     199.285 198.925 219.879  1.00  0.00     0.001 C 
BRANCH  13  14
ATOM     14  C   UNL     1     199.936 197.534 219.938  1.00  0.00     0.012 C 
BRANCH  14  15
ATOM     15  C   UNL     1     200.686 197.290 221.253  1.00  0.00     0.123 C 
BRANCH  15  16
ATOM     16  C   UNL     1     201.869 198.201 221.349  1.00  0.00     0.305 C 
ATOM     17  O   UNL     1     201.901 199.092 222.242  1.00  0.00    -0.252 OA
BRANCH  16  18
ATOM     18  O   UNL     1     202.946 198.023 220.474  1.00  0.00    -0.466 OA
BRANCH  18  19
ATOM     19  C   UNL     1     203.310 198.974 219.475  1.00  0.00     0.229 C 
ATOM     20  C   UNL     1     202.981 198.444 218.083  1.00  0.00     0.049 C 
ENDBRANCH  18  19
ENDBRANCH  16  18
ENDBRANCH  15  16
ENDBRANCH  14  15
ENDBRANCH  13  14
ENDBRANCH  12  13
ENDBRANCH  11  12
ENDBRANCH   1  11
TORSDOF 16
ENDMDL
