MODEL 1
REMARK VINA RESULT:    19.202      0.000      0.000
REMARK INTER + INTRA:          32.283
REMARK INTER:                  25.376
REMARK INTRA:                   6.907
REMARK UNBOUND:                 6.907
REMARK SMILES CC[C@@H](C=C[C@H](C)[C@H]1CC[C@H]2[C@H]3CC=C4C[C@H](O)CC[C@]4(C)[C@H]3CC[C@]12C)C(C)C
REMARK SMILES IDX 6 1 7 2 5 3 4 4 3 5 2 6 1 7 28 8 29 9 30 10 8 11 9 12 26 13
REMARK SMILES IDX 10 14 11 15 25 16 27 17 12 18 24 19 23 20 13 21 21 22 14 23
REMARK SMILES IDX 15 24 20 25 22 26 16 27 19 28 17 29 18 30
REMARK H PARENT 18 31
REMARK Flexibility Score: inf
ROOT
ATOM      1  C   UNL     1      16.065  -5.233  12.147  1.00  0.00     0.012 C 
ATOM      2  C   UNL     1      14.648  -5.075  12.738  1.00  0.00     0.012 C 
ENDROOT
BRANCH   1   3
ATOM      3  C   UNL     1      17.043  -4.512  13.060  1.00  0.00    -0.028 C 
ATOM      4  C   UNL     1      17.328  -4.853  14.334  1.00  0.00    -0.027 C 
BRANCH   4   5
ATOM      5  C   UNL     1      16.688  -5.992  15.116  1.00  0.00     0.014 C 
BRANCH   5   6
ATOM      6  C   UNL     1      15.334  -5.545  15.729  1.00  0.00     0.004 C 
ATOM      7  C   UNL     1      15.343  -5.262  17.232  1.00  0.00     0.004 C 
ENDBRANCH   5   6
BRANCH   5   8
ATOM      8  C   UNL     1      17.706  -6.696  16.074  1.00  0.00    -0.011 C 
ATOM      9  C   UNL     1      17.245  -6.871  17.533  1.00  0.00     0.008 C 
ATOM     10  C   UNL     1      18.208  -8.034  15.508  1.00  0.00     0.008 C 
ENDBRANCH   5   8
ENDBRANCH   4   5
ENDBRANCH   1   3
BRANCH   1  11
ATOM     11  C   UNL     1      16.532  -6.715  11.917  1.00  0.00     0.002 C 
ATOM     12  C   UNL     1      18.017  -7.044  12.229  1.00  0.00     0.005 C 
ATOM     13  C   UNL     1      15.726  -7.844  12.625  1.00  0.00    -0.026 C 
ATOM     14  C   UNL     1      18.064  -8.537  12.610  1.00  0.00     0.005 C 
ATOM     15  C   UNL     1      16.650  -9.033  12.337  1.00  0.00    -0.001 C 
ATOM     16  C   UNL     1      14.356  -8.160  11.979  1.00  0.00     0.007 C 
ATOM     17  C   UNL     1      15.557  -7.523  14.139  1.00  0.00     0.012 C 
ATOM     18  C   UNL     1      16.194 -10.422  12.838  1.00  0.00     0.000 C 
ATOM     19  C   UNL     1      13.766  -9.484  12.521  1.00  0.00     0.005 C 
ATOM     20  C   UNL     1      14.722 -10.721  12.406  1.00  0.00     0.003 C 
ATOM     21  C   UNL     1      16.418 -10.764  14.316  1.00  0.00     0.031 C 
ATOM     22  C   UNL     1      14.141 -12.079  13.043  1.00  0.00    -0.008 C 
ATOM     23  C   UNL     1      16.205 -12.238  14.478  1.00  0.00    -0.027 C 
ATOM     24  C   UNL     1      15.213 -12.875  13.819  1.00  0.00    -0.065 C 
ATOM     25  C   UNL     1      13.589 -12.957  11.875  1.00  0.00     0.014 C 
ATOM     26  C   UNL     1      12.993 -11.813  14.055  1.00  0.00     0.016 C 
ATOM     27  C   UNL     1      15.008 -14.353  14.094  1.00  0.00     0.063 C 
ATOM     28  C   UNL     1      13.265 -14.405  12.271  1.00  0.00     0.033 C 
ATOM     29  C   UNL     1      14.495 -15.105  12.859  1.00  0.00     0.118 C 
BRANCH  29  30
ATOM     30  O   UNL     1      15.504 -15.190  11.884  1.00  0.00    -0.393 OA
ATOM     31  H   UNL     1      16.163 -14.477  12.091  1.00  0.00     0.210 HD
ENDBRANCH  29  30
ENDBRANCH   1  11
TORSDOF 6
ENDMDL
MODEL 2
REMARK VINA RESULT:    20.353      1.193      2.316
REMARK INTER + INTRA:          33.805
REMARK INTER:                  32.216
REMARK INTRA:                   1.589
REMARK UNBOUND:                 6.907
REMARK SMILES CC[C@@H](C=C[C@H](C)[C@H]1CC[C@H]2[C@H]3CC=C4C[C@H](O)CC[C@]4(C)[C@H]3CC[C@]12C)C(C)C
REMARK SMILES IDX 6 1 7 2 5 3 4 4 3 5 2 6 1 7 28 8 29 9 30 10 8 11 9 12 26 13
REMARK SMILES IDX 10 14 11 15 25 16 27 17 12 18 24 19 23 20 13 21 21 22 14 23
REMARK SMILES IDX 15 24 20 25 22 26 16 27 19 28 17 29 18 30
REMARK H PARENT 18 31
REMARK Flexibility Score: inf
ROOT
ATOM      1  C   UNL     1      17.731  -5.391  13.060  1.00  0.00     0.012 C 
ATOM      2  C   UNL     1      18.936  -4.470  12.772  1.00  0.00     0.012 C 
ENDROOT
BRANCH   1   3
ATOM      3  C   UNL     1      16.531  -4.854  12.298  1.00  0.00    -0.028 C 
ATOM      4  C   UNL     1      15.401  -4.366  12.851  1.00  0.00    -0.027 C 
BRANCH   4   5
ATOM      5  C   UNL     1      15.091  -4.308  14.341  1.00  0.00     0.014 C 
BRANCH   5   6
ATOM      6  C   UNL     1      15.824  -5.448  15.099  1.00  0.00     0.004 C 
ATOM      7  C   UNL     1      16.207  -5.147  16.549  1.00  0.00     0.004 C 
ENDBRANCH   5   6
BRANCH   5   8
ATOM      8  C   UNL     1      13.561  -4.136  14.621  1.00  0.00    -0.011 C 
ATOM      9  C   UNL     1      12.618  -4.974  13.738  1.00  0.00     0.008 C 
ATOM     10  C   UNL     1      13.217  -4.329  16.106  1.00  0.00     0.008 C 
ENDBRANCH   5   8
ENDBRANCH   4   5
ENDBRANCH   1   3
BRANCH   1  11
ATOM     11  C   UNL     1      17.954  -6.909  12.719  1.00  0.00     0.002 C 
ATOM     12  C   UNL     1      19.341  -7.514  13.068  1.00  0.00     0.005 C 
ATOM     13  C   UNL     1      16.927  -7.933  13.285  1.00  0.00    -0.026 C 
ATOM     14  C   UNL     1      19.112  -9.019  13.314  1.00  0.00     0.005 C 
ATOM     15  C   UNL     1      17.653  -9.238  12.933  1.00  0.00    -0.001 C 
ATOM     16  C   UNL     1      15.566  -7.954  12.550  1.00  0.00     0.007 C 
ATOM     17  C   UNL     1      16.724  -7.712  14.812  1.00  0.00     0.012 C 
ATOM     18  C   UNL     1      16.939 -10.562  13.286  1.00  0.00     0.000 C 
ATOM     19  C   UNL     1      14.729  -9.194  12.944  1.00  0.00     0.005 C 
ATOM     20  C   UNL     1      15.467 -10.565  12.762  1.00  0.00     0.003 C 
ATOM     21  C   UNL     1      17.012 -11.056  14.735  1.00  0.00     0.031 C 
ATOM     22  C   UNL     1      14.626 -11.848  13.246  1.00  0.00    -0.008 C 
ATOM     23  C   UNL     1      16.544 -12.479  14.754  1.00  0.00    -0.027 C 
ATOM     24  C   UNL     1      15.499 -12.879  13.996  1.00  0.00    -0.065 C 
ATOM     25  C   UNL     1      14.006 -12.520  11.979  1.00  0.00     0.014 C 
ATOM     26  C   UNL     1      13.481 -11.470  14.224  1.00  0.00     0.016 C 
ATOM     27  C   UNL     1      15.031 -14.316  14.126  1.00  0.00     0.063 C 
ATOM     28  C   UNL     1      13.418 -13.917  12.228  1.00  0.00     0.033 C 
ATOM     29  C   UNL     1      14.474 -14.865  12.806  1.00  0.00     0.118 C 
BRANCH  29  30
ATOM     30  O   UNL     1      15.512 -15.045  11.875  1.00  0.00    -0.393 OA
ATOM     31  H   UNL     1      15.092 -15.052  10.976  1.00  0.00     0.210 HD
ENDBRANCH  29  30
ENDBRANCH   1  11
TORSDOF 6
ENDMDL
MODEL 3
REMARK VINA RESULT:    20.905      1.451      2.557
REMARK INTER + INTRA:          34.534
REMARK INTER:                  34.375
REMARK INTRA:                   0.159
REMARK UNBOUND:                 6.907
REMARK SMILES CC[C@@H](C=C[C@H](C)[C@H]1CC[C@H]2[C@H]3CC=C4C[C@H](O)CC[C@]4(C)[C@H]3CC[C@]12C)C(C)C
REMARK SMILES IDX 6 1 7 2 5 3 4 4 3 5 2 6 1 7 28 8 29 9 30 10 8 11 9 12 26 13
REMARK SMILES IDX 10 14 11 15 25 16 27 17 12 18 24 19 23 20 13 21 21 22 14 23
REMARK SMILES IDX 15 24 20 25 22 26 16 27 19 28 17 29 18 30
REMARK H PARENT 18 31
REMARK Flexibility Score: inf
ROOT
ATOM      1  C   UNL     1      16.578  -5.103  12.621  1.00  0.00     0.012 C 
ATOM      2  C   UNL     1      17.384  -3.887  12.118  1.00  0.00     0.012 C 
ENDROOT
BRANCH   1   3
ATOM      3  C   UNL     1      15.252  -5.133  11.880  1.00  0.00    -0.028 C 
ATOM      4  C   UNL     1      14.049  -5.402  12.429  1.00  0.00    -0.027 C 
BRANCH   4   5
ATOM      5  C   UNL     1      13.797  -5.775  13.884  1.00  0.00     0.014 C 
BRANCH   5   6
ATOM      6  C   UNL     1      12.442  -6.518  14.033  1.00  0.00     0.004 C 
ATOM      7  C   UNL     1      12.284  -7.791  13.200  1.00  0.00     0.004 C 
ENDBRANCH   5   6
BRANCH   5   8
ATOM      8  C   UNL     1      14.064  -4.578  14.857  1.00  0.00    -0.011 C 
ATOM      9  C   UNL     1      12.813  -3.882  15.425  1.00  0.00     0.008 C 
ATOM     10  C   UNL     1      15.028  -4.956  15.992  1.00  0.00     0.008 C 
ENDBRANCH   5   8
ENDBRANCH   4   5
ENDBRANCH   1   3
BRANCH   1  11
ATOM     11  C   UNL     1      17.306  -6.489  12.486  1.00  0.00     0.002 C 
ATOM     12  C   UNL     1      18.737  -6.595  13.078  1.00  0.00     0.005 C 
ATOM     13  C   UNL     1      16.565  -7.748  13.025  1.00  0.00    -0.026 C 
ATOM     14  C   UNL     1      18.943  -8.075  13.460  1.00  0.00     0.005 C 
ATOM     15  C   UNL     1      17.702  -8.773  12.921  1.00  0.00    -0.001 C 
ATOM     16  C   UNL     1      15.410  -8.250  12.128  1.00  0.00     0.007 C 
ATOM     17  C   UNL     1      16.064  -7.503  14.479  1.00  0.00     0.012 C 
ATOM     18  C   UNL     1      17.380 -10.229  13.325  1.00  0.00     0.000 C 
ATOM     19  C   UNL     1      14.941  -9.664  12.547  1.00  0.00     0.005 C 
ATOM     20  C   UNL     1      16.082 -10.737  12.617  1.00  0.00     0.003 C 
ATOM     21  C   UNL     1      17.370 -10.577  14.818  1.00  0.00     0.031 C 
ATOM     22  C   UNL     1      15.609 -12.186  13.131  1.00  0.00    -0.008 C 
ATOM     23  C   UNL     1      17.363 -12.070  14.936  1.00  0.00    -0.027 C 
ATOM     24  C   UNL     1      16.625 -12.832  14.099  1.00  0.00    -0.065 C 
ATOM     25  C   UNL     1      15.433 -13.103  11.878  1.00  0.00     0.014 C 
ATOM     26  C   UNL     1      14.263 -12.130  13.902  1.00  0.00     0.016 C 
ATOM     27  C   UNL     1      16.604 -14.331  14.329  1.00  0.00     0.063 C 
ATOM     28  C   UNL     1      15.270 -14.595  12.205  1.00  0.00     0.033 C 
ATOM     29  C   UNL     1      16.459 -15.116  13.018  1.00  0.00     0.118 C 
BRANCH  29  30
ATOM     30  O   UNL     1      17.636 -15.016  12.255  1.00  0.00    -0.393 OA
ATOM     31  H   UNL     1      17.950 -14.078  12.335  1.00  0.00     0.210 HD
ENDBRANCH  29  30
ENDBRANCH   1  11
TORSDOF 6
ENDMDL
MODEL 4
REMARK VINA RESULT:    21.271      4.467      6.476
REMARK INTER + INTRA:          35.018
REMARK INTER:                  32.067
REMARK INTRA:                   2.950
REMARK UNBOUND:                 6.907
REMARK SMILES CC[C@@H](C=C[C@H](C)[C@H]1CC[C@H]2[C@H]3CC=C4C[C@H](O)CC[C@]4(C)[C@H]3CC[C@]12C)C(C)C
REMARK SMILES IDX 6 1 7 2 5 3 4 4 3 5 2 6 1 7 28 8 29 9 30 10 8 11 9 12 26 13
REMARK SMILES IDX 10 14 11 15 25 16 27 17 12 18 24 19 23 20 13 21 21 22 14 23
REMARK SMILES IDX 15 24 20 25 22 26 16 27 19 28 17 29 18 30
REMARK H PARENT 18 31
REMARK Flexibility Score: inf
ROOT
ATOM      1  C   UNL     1      13.796 -10.191  12.257  1.00  0.00     0.012 C 
ATOM      2  C   UNL     1      13.554  -9.316  13.504  1.00  0.00     0.012 C 
ENDROOT
BRANCH   1   3
ATOM      3  C   UNL     1      15.282 -10.504  12.178  1.00  0.00    -0.028 C 
ATOM      4  C   UNL     1      16.283  -9.645  12.464  1.00  0.00    -0.027 C 
BRANCH   4   5
ATOM      5  C   UNL     1      16.117  -8.186  12.870  1.00  0.00     0.014 C 
BRANCH   5   6
ATOM      6  C   UNL     1      14.989  -7.512  12.045  1.00  0.00     0.004 C 
ATOM      7  C   UNL     1      14.179  -6.438  12.774  1.00  0.00     0.004 C 
ENDBRANCH   5   6
BRANCH   5   8
ATOM      8  C   UNL     1      17.488  -7.435  12.950  1.00  0.00    -0.011 C 
ATOM      9  C   UNL     1      17.408  -5.902  13.077  1.00  0.00     0.008 C 
ATOM     10  C   UNL     1      18.406  -8.015  14.037  1.00  0.00     0.008 C 
ENDBRANCH   5   8
ENDBRANCH   4   5
ENDBRANCH   1   3
BRANCH   1  11
ATOM     11  C   UNL     1      12.961 -11.521  12.200  1.00  0.00     0.002 C 
ATOM     12  C   UNL     1      13.608 -12.788  12.822  1.00  0.00     0.005 C 
ATOM     13  C   UNL     1      11.519 -11.492  12.787  1.00  0.00    -0.026 C 
ATOM     14  C   UNL     1      12.447 -13.694  13.279  1.00  0.00     0.005 C 
ATOM     15  C   UNL     1      11.202 -12.992  12.751  1.00  0.00    -0.001 C 
ATOM     16  C   UNL     1      10.474 -10.782  11.893  1.00  0.00     0.007 C 
ATOM     17  C   UNL     1      11.525 -10.879  14.218  1.00  0.00     0.012 C 
ATOM     18  C   UNL     1       9.795 -13.430  13.219  1.00  0.00     0.000 C 
ATOM     19  C   UNL     1       9.031 -11.070  12.371  1.00  0.00     0.005 C 
ATOM     20  C   UNL     1       8.681 -12.591  12.514  1.00  0.00     0.003 C 
ATOM     21  C   UNL     1       9.538 -13.537  14.726  1.00  0.00     0.031 C 
ATOM     22  C   UNL     1       7.208 -12.890  13.087  1.00  0.00    -0.008 C 
ATOM     23  C   UNL     1       8.249 -14.275  14.916  1.00  0.00    -0.027 C 
ATOM     24  C   UNL     1       7.193 -14.054  14.103  1.00  0.00    -0.065 C 
ATOM     25  C   UNL     1       6.287 -13.247  11.877  1.00  0.00     0.014 C 
ATOM     26  C   UNL     1       6.604 -11.668  13.831  1.00  0.00     0.016 C 
ATOM     27  C   UNL     1       5.895 -14.779  14.404  1.00  0.00     0.063 C 
ATOM     28  C   UNL     1       4.927 -13.841  12.272  1.00  0.00     0.033 C 
ATOM     29  C   UNL     1       5.102 -15.099  13.130  1.00  0.00     0.118 C 
BRANCH  29  30
ATOM     30  O   UNL     1       5.756 -16.096  12.385  1.00  0.00    -0.393 OA
ATOM     31  H   UNL     1       5.257 -16.940  12.537  1.00  0.00     0.210 HD
ENDBRANCH  29  30
ENDBRANCH   1  11
TORSDOF 6
ENDMDL
