MODEL 1
REMARK VINA RESULT:    -5.754      0.000      0.000
REMARK INTER + INTRA:          -7.036
REMARK INTER:                  -6.763
REMARK INTRA:                  -0.273
REMARK UNBOUND:                -0.273
REMARK SMILES O=c1cc(-c2ccc(O)c(O)c2)oc2cc(O)cc(O)c12
REMARK SMILES IDX 4 1 3 2 2 3 1 4 21 5 19 6 18 7 16 8 15 9 14 10 13 11 5 12
REMARK SMILES IDX 6 13 7 14 8 15 12 16 10 17 9 18 11 20 20 22 17 24
REMARK H PARENT 9 19 11 21 20 23 17 25
REMARK Flexibility Score: inf
ROOT
ATOM      1  C   UNL     1      -9.108   8.240  16.451  1.00  0.00     0.138 A 
ATOM      2  C   UNL     1     -10.476   8.299  16.752  1.00  0.00     0.100 A 
ATOM      3  C   UNL     1     -10.889   8.780  17.995  1.00  0.00     0.197 A 
ATOM      4  O   UNL     1     -12.125   8.873  18.214  1.00  0.00    -0.289 OA
ATOM      5  C   UNL     1      -9.924   9.168  18.956  1.00  0.00     0.107 A 
ATOM      6  C   UNL     1     -10.226   9.641  20.268  1.00  0.00     0.134 A 
ATOM      7  C   UNL     1      -9.189  10.090  21.096  1.00  0.00     0.093 A 
ATOM      8  C   UNL     1      -7.857  10.030  20.680  1.00  0.00     0.123 A 
ATOM      9  C   UNL     1      -7.548   9.524  19.419  1.00  0.00     0.094 A 
ATOM     10  C   UNL     1      -8.562   9.100  18.557  1.00  0.00     0.146 A 
ATOM     11  O   UNL     1      -8.224   8.641  17.357  1.00  0.00    -0.456 OA
ENDROOT
BRANCH   1  12
ATOM     12  C   UNL     1      -8.613   7.735  15.144  1.00  0.00     0.021 A 
ATOM     13  C   UNL     1      -8.741   6.383  14.778  1.00  0.00     0.016 A 
ATOM     14  C   UNL     1      -8.275   5.940  13.539  1.00  0.00     0.051 A 
ATOM     15  C   UNL     1      -7.681   6.829  12.638  1.00  0.00     0.157 A 
ATOM     16  C   UNL     1      -8.029   8.631  14.233  1.00  0.00     0.062 A 
ATOM     17  C   UNL     1      -7.559   8.194  12.989  1.00  0.00     0.158 A 
BRANCH  15  18
ATOM     18  O   UNL     1      -7.234   6.321  11.417  1.00  0.00    -0.504 OA
ATOM     19  H   UNL     1      -6.394   6.631  10.949  1.00  0.00     0.293 HD
ENDBRANCH  15  18
BRANCH  17  20
ATOM     20  O   UNL     1      -6.982   9.142  12.141  1.00  0.00    -0.504 OA
ATOM     21  H   UNL     1      -7.374   9.418  11.252  1.00  0.00     0.293 HD
ENDBRANCH  17  20
ENDBRANCH   1  12
BRANCH   6  22
ATOM     22  O   UNL     1     -11.513   9.670  20.814  1.00  0.00    -0.507 OA
ATOM     23  H   UNL     1     -12.364   9.790  20.287  1.00  0.00     0.293 HD
ENDBRANCH   6  22
BRANCH   8  24
ATOM     24  O   UNL     1      -6.831  10.465  21.516  1.00  0.00    -0.508 OA
ATOM     25  H   UNL     1      -6.078   9.847  21.795  1.00  0.00     0.293 HD
ENDBRANCH   8  24
TORSDOF 5
ENDMDL
MODEL 2
REMARK VINA RESULT:    -5.751      3.186      4.702
REMARK INTER + INTRA:          -7.033
REMARK INTER:                  -6.738
REMARK INTRA:                  -0.294
REMARK UNBOUND:                -0.273
REMARK SMILES O=c1cc(-c2ccc(O)c(O)c2)oc2cc(O)cc(O)c12
REMARK SMILES IDX 4 1 3 2 2 3 1 4 21 5 19 6 18 7 16 8 15 9 14 10 13 11 5 12
REMARK SMILES IDX 6 13 7 14 8 15 12 16 10 17 9 18 11 20 20 22 17 24
REMARK H PARENT 9 19 11 21 20 23 17 25
REMARK Flexibility Score: inf
ROOT
ATOM      1  C   UNL     1      -6.157  10.116  17.786  1.00  0.00     0.138 A 
ATOM      2  C   UNL     1      -5.742  10.147  19.124  1.00  0.00     0.100 A 
ATOM      3  C   UNL     1      -6.685  10.004  20.143  1.00  0.00     0.197 A 
ATOM      4  O   UNL     1      -6.275   9.980  21.332  1.00  0.00    -0.289 OA
ATOM      5  C   UNL     1      -8.057   9.868  19.818  1.00  0.00     0.107 A 
ATOM      6  C   UNL     1      -9.111   9.750  20.773  1.00  0.00     0.134 A 
ATOM      7  C   UNL     1     -10.421   9.520  20.330  1.00  0.00     0.093 A 
ATOM      8  C   UNL     1     -10.721   9.462  18.967  1.00  0.00     0.123 A 
ATOM      9  C   UNL     1      -9.706   9.625  18.027  1.00  0.00     0.094 A 
ATOM     10  C   UNL     1      -8.385   9.821  18.437  1.00  0.00     0.146 A 
ATOM     11  O   UNL     1      -7.446   9.955  17.507  1.00  0.00    -0.456 OA
ENDROOT
BRANCH   1  12
ATOM     12  C   UNL     1      -5.196  10.266  16.662  1.00  0.00     0.021 A 
ATOM     13  C   UNL     1      -5.591  10.092  15.324  1.00  0.00     0.016 A 
ATOM     14  C   UNL     1      -4.668  10.249  14.288  1.00  0.00     0.051 A 
ATOM     15  C   UNL     1      -3.339  10.589  14.561  1.00  0.00     0.157 A 
ATOM     16  C   UNL     1      -3.865  10.621  16.934  1.00  0.00     0.062 A 
ATOM     17  C   UNL     1      -2.932  10.779  15.902  1.00  0.00     0.158 A 
BRANCH  15  18
ATOM     18  O   UNL     1      -2.466  10.728  13.480  1.00  0.00    -0.504 OA
ATOM     19  H   UNL     1      -2.741  10.622  12.514  1.00  0.00     0.293 HD
ENDBRANCH  15  18
BRANCH  17  20
ATOM     20  O   UNL     1      -1.625  11.125  16.251  1.00  0.00    -0.504 OA
ATOM     21  H   UNL     1      -0.903  10.454  16.474  1.00  0.00     0.293 HD
ENDBRANCH  17  20
ENDBRANCH   1  12
BRANCH   6  22
ATOM     22  O   UNL     1      -8.935   9.872  22.155  1.00  0.00    -0.507 OA
ATOM     23  H   UNL     1      -8.572   9.151  22.758  1.00  0.00     0.293 HD
ENDBRANCH   6  22
BRANCH   8  24
ATOM     24  O   UNL     1     -12.029   9.248  18.536  1.00  0.00    -0.508 OA
ATOM     25  H   UNL     1     -12.812   9.300  19.177  1.00  0.00     0.293 HD
ENDBRANCH   8  24
TORSDOF 5
ENDMDL
MODEL 3
REMARK VINA RESULT:    -5.713      2.700      8.415
REMARK INTER + INTRA:          -6.988
REMARK INTER:                  -6.713
REMARK INTRA:                  -0.274
REMARK UNBOUND:                -0.273
REMARK SMILES O=c1cc(-c2ccc(O)c(O)c2)oc2cc(O)cc(O)c12
REMARK SMILES IDX 4 1 3 2 2 3 1 4 21 5 19 6 18 7 16 8 15 9 14 10 13 11 5 12
REMARK SMILES IDX 6 13 7 14 8 15 12 16 10 17 9 18 11 20 20 22 17 24
REMARK H PARENT 9 19 11 21 20 23 17 25
REMARK Flexibility Score: inf
ROOT
ATOM      1  C   UNL     1      -9.613   7.362  13.640  1.00  0.00     0.138 A 
ATOM      2  C   UNL     1      -8.264   7.360  13.262  1.00  0.00     0.100 A 
ATOM      3  C   UNL     1      -7.908   6.952  11.975  1.00  0.00     0.197 A 
ATOM      4  O   UNL     1      -6.695   7.014  11.648  1.00  0.00    -0.289 OA
ATOM      5  C   UNL     1      -8.908   6.508  11.076  1.00  0.00     0.107 A 
ATOM      6  C   UNL     1      -8.660   6.037   9.752  1.00  0.00     0.134 A 
ATOM      7  C   UNL     1      -9.741   5.718   8.919  1.00  0.00     0.093 A 
ATOM      8  C   UNL     1     -11.056   5.798   9.383  1.00  0.00     0.123 A 
ATOM      9  C   UNL     1     -11.305   6.209  10.690  1.00  0.00     0.094 A 
ATOM     10  C   UNL     1     -10.251   6.568  11.534  1.00  0.00     0.146 A 
ATOM     11  O   UNL     1     -10.535   6.972  12.767  1.00  0.00    -0.456 OA
ENDROOT
BRANCH   1  12
ATOM     12  C   UNL     1     -10.048   7.784  14.997  1.00  0.00     0.021 A 
ATOM     13  C   UNL     1     -11.121   8.672  15.187  1.00  0.00     0.016 A 
ATOM     14  C   UNL     1     -11.513   9.042  16.475  1.00  0.00     0.051 A 
ATOM     15  C   UNL     1     -10.853   8.533  17.597  1.00  0.00     0.157 A 
ATOM     16  C   UNL     1      -9.394   7.262  16.125  1.00  0.00     0.062 A 
ATOM     17  C   UNL     1      -9.780   7.628  17.420  1.00  0.00     0.158 A 
BRANCH  15  18
ATOM     18  O   UNL     1     -11.293   8.946  18.857  1.00  0.00    -0.504 OA
ATOM     19  H   UNL     1     -11.356   9.912  19.144  1.00  0.00     0.293 HD
ENDBRANCH  15  18
BRANCH  17  20
ATOM     20  O   UNL     1      -9.077   7.074  18.492  1.00  0.00    -0.504 OA
ATOM     21  H   UNL     1      -8.111   7.282  18.703  1.00  0.00     0.293 HD
ENDBRANCH  17  20
ENDBRANCH   1  12
BRANCH   6  22
ATOM     22  O   UNL     1      -7.383   5.843   9.214  1.00  0.00    -0.507 OA
ATOM     23  H   UNL     1      -6.547   5.679   9.752  1.00  0.00     0.293 HD
ENDBRANCH   6  22
BRANCH   8  24
ATOM     24  O   UNL     1     -12.124   5.463   8.552  1.00  0.00    -0.508 OA
ATOM     25  H   UNL     1     -12.086   5.622   7.552  1.00  0.00     0.293 HD
ENDBRANCH   8  24
TORSDOF 5
ENDMDL
MODEL 4
REMARK VINA RESULT:    -5.646      1.619      6.911
REMARK INTER + INTRA:          -6.908
REMARK INTER:                  -6.620
REMARK INTRA:                  -0.289
REMARK UNBOUND:                -0.273
REMARK SMILES O=c1cc(-c2ccc(O)c(O)c2)oc2cc(O)cc(O)c12
REMARK SMILES IDX 4 1 3 2 2 3 1 4 21 5 19 6 18 7 16 8 15 9 14 10 13 11 5 12
REMARK SMILES IDX 6 13 7 14 8 15 12 16 10 17 9 18 11 20 20 22 17 24
REMARK H PARENT 9 19 11 21 20 23 17 25
REMARK Flexibility Score: inf
ROOT
ATOM      1  C   UNL     1      -8.827   8.305  16.905  1.00  0.00     0.138 A 
ATOM      2  C   UNL     1      -9.852   7.354  16.815  1.00  0.00     0.100 A 
ATOM      3  C   UNL     1     -10.181   6.809  15.573  1.00  0.00     0.197 A 
ATOM      4  O   UNL     1     -11.068   5.917  15.532  1.00  0.00    -0.289 OA
ATOM      5  C   UNL     1      -9.504   7.249  14.409  1.00  0.00     0.107 A 
ATOM      6  C   UNL     1      -9.778   6.790  13.086  1.00  0.00     0.134 A 
ATOM      7  C   UNL     1      -8.972   7.225  12.025  1.00  0.00     0.093 A 
ATOM      8  C   UNL     1      -7.942   8.145  12.231  1.00  0.00     0.123 A 
ATOM      9  C   UNL     1      -7.699   8.636  13.512  1.00  0.00     0.094 A 
ATOM     10  C   UNL     1      -8.462   8.196  14.596  1.00  0.00     0.146 A 
ATOM     11  O   UNL     1      -8.185   8.677  15.804  1.00  0.00    -0.456 OA
ENDROOT
BRANCH   1  12
ATOM     12  C   UNL     1      -8.437   8.919  18.201  1.00  0.00     0.021 A 
ATOM     13  C   UNL     1      -7.156   9.460  18.407  1.00  0.00     0.016 A 
ATOM     14  C   UNL     1      -6.822  10.040  19.632  1.00  0.00     0.051 A 
ATOM     15  C   UNL     1      -7.755  10.100  20.673  1.00  0.00     0.157 A 
ATOM     16  C   UNL     1      -9.378   8.992  19.241  1.00  0.00     0.062 A 
ATOM     17  C   UNL     1      -9.051   9.571  20.474  1.00  0.00     0.158 A 
BRANCH  15  18
ATOM     18  O   UNL     1      -7.356  10.691  21.874  1.00  0.00    -0.504 OA
ATOM     19  H   UNL     1      -7.346  11.687  22.038  1.00  0.00     0.293 HD
ENDBRANCH  15  18
BRANCH  17  20
ATOM     20  O   UNL     1     -10.037   9.599  21.463  1.00  0.00    -0.504 OA
ATOM     21  H   UNL     1     -10.013  10.209  22.267  1.00  0.00     0.293 HD
ENDBRANCH  17  20
ENDBRANCH   1  12
BRANCH   6  22
ATOM     22  O   UNL     1     -10.831   5.932  12.755  1.00  0.00    -0.507 OA
ATOM     23  H   UNL     1     -11.408   5.441  13.420  1.00  0.00     0.293 HD
ENDBRANCH   6  22
BRANCH   8  24
ATOM     24  O   UNL     1      -7.157   8.584  11.167  1.00  0.00    -0.508 OA
ATOM     25  H   UNL     1      -6.384   9.223  11.308  1.00  0.00     0.293 HD
ENDBRANCH   8  24
TORSDOF 5
ENDMDL
MODEL 5
REMARK VINA RESULT:    -5.482      1.514      3.234
REMARK INTER + INTRA:          -6.716
REMARK INTER:                  -6.438
REMARK INTRA:                  -0.278
REMARK UNBOUND:                -0.273
REMARK SMILES O=c1cc(-c2ccc(O)c(O)c2)oc2cc(O)cc(O)c12
REMARK SMILES IDX 4 1 3 2 2 3 1 4 21 5 19 6 18 7 16 8 15 9 14 10 13 11 5 12
REMARK SMILES IDX 6 13 7 14 8 15 12 16 10 17 9 18 11 20 20 22 17 24
REMARK H PARENT 9 19 11 21 20 23 17 25
REMARK Flexibility Score: inf
ROOT
ATOM      1  C   UNL     1      -8.129   9.374  17.038  1.00  0.00     0.138 A 
ATOM      2  C   UNL     1      -6.873   9.616  17.611  1.00  0.00     0.100 A 
ATOM      3  C   UNL     1      -6.781   9.931  18.967  1.00  0.00     0.197 A 
ATOM      4  O   UNL     1      -5.635  10.088  19.464  1.00  0.00    -0.289 OA
ATOM      5  C   UNL     1      -7.959  10.040  19.746  1.00  0.00     0.107 A 
ATOM      6  C   UNL     1      -7.991  10.389  21.129  1.00  0.00     0.134 A 
ATOM      7  C   UNL     1      -9.211  10.368  21.818  1.00  0.00     0.093 A 
ATOM      8  C   UNL     1     -10.405  10.067  21.160  1.00  0.00     0.123 A 
ATOM      9  C   UNL     1     -10.391   9.774  19.798  1.00  0.00     0.094 A 
ATOM     10  C   UNL     1      -9.187   9.753  19.091  1.00  0.00     0.146 A 
ATOM     11  O   UNL     1      -9.216   9.451  17.797  1.00  0.00    -0.456 OA
ENDROOT
BRANCH   1  12
ATOM     12  C   UNL     1      -8.284   9.038  15.599  1.00  0.00     0.021 A 
ATOM     13  C   UNL     1      -7.859   9.915  14.585  1.00  0.00     0.016 A 
ATOM     14  C   UNL     1      -8.009   9.567  13.241  1.00  0.00     0.051 A 
ATOM     15  C   UNL     1      -8.576   8.341  12.879  1.00  0.00     0.157 A 
ATOM     16  C   UNL     1      -8.841   7.801  15.235  1.00  0.00     0.062 A 
ATOM     17  C   UNL     1      -8.996   7.445  13.890  1.00  0.00     0.158 A 
BRANCH  15  18
ATOM     18  O   UNL     1      -8.700   8.056  11.517  1.00  0.00    -0.504 OA
ATOM     19  H   UNL     1      -8.504   7.153  11.109  1.00  0.00     0.293 HD
ENDBRANCH  15  18
BRANCH  17  20
ATOM     20  O   UNL     1      -9.566   6.202  13.605  1.00  0.00    -0.504 OA
ATOM     21  H   UNL     1     -10.328   5.796  14.129  1.00  0.00     0.293 HD
ENDBRANCH  17  20
ENDBRANCH   1  12
BRANCH   6  22
ATOM     22  O   UNL     1      -6.869  10.782  21.865  1.00  0.00    -0.507 OA
ATOM     23  H   UNL     1      -6.030  11.180  21.474  1.00  0.00     0.293 HD
ENDBRANCH   6  22
BRANCH   8  24
ATOM     24  O   UNL     1     -11.616  10.064  21.850  1.00  0.00    -0.508 OA
ATOM     25  H   UNL     1     -11.649  10.130  22.861  1.00  0.00     0.293 HD
ENDBRANCH   8  24
TORSDOF 5
ENDMDL
MODEL 6
REMARK VINA RESULT:    -5.478      3.112      7.653
REMARK INTER + INTRA:          -6.711
REMARK INTER:                  -6.422
REMARK INTRA:                  -0.288
REMARK UNBOUND:                -0.273
REMARK SMILES O=c1cc(-c2ccc(O)c(O)c2)oc2cc(O)cc(O)c12
REMARK SMILES IDX 4 1 3 2 2 3 1 4 21 5 19 6 18 7 16 8 15 9 14 10 13 11 5 12
REMARK SMILES IDX 6 13 7 14 8 15 12 16 10 17 9 18 11 20 20 22 17 24
REMARK H PARENT 9 19 11 21 20 23 17 25
REMARK Flexibility Score: inf
ROOT
ATOM      1  C   UNL     1      -6.299  10.036  17.113  1.00  0.00     0.138 A 
ATOM      2  C   UNL     1      -4.994  10.410  17.461  1.00  0.00     0.100 A 
ATOM      3  C   UNL     1      -4.050  10.637  16.459  1.00  0.00     0.197 A 
ATOM      4  O   UNL     1      -2.903  11.026  16.801  1.00  0.00    -0.289 OA
ATOM      5  C   UNL     1      -4.406  10.449  15.101  1.00  0.00     0.107 A 
ATOM      6  C   UNL     1      -3.518  10.616  13.997  1.00  0.00     0.134 A 
ATOM      7  C   UNL     1      -4.012  10.499  12.690  1.00  0.00     0.093 A 
ATOM      8  C   UNL     1      -5.347  10.165  12.452  1.00  0.00     0.123 A 
ATOM      9  C   UNL     1      -6.209   9.951  13.524  1.00  0.00     0.094 A 
ATOM     10  C   UNL     1      -5.756  10.094  14.838  1.00  0.00     0.146 A 
ATOM     11  O   UNL     1      -6.617   9.898  15.831  1.00  0.00    -0.456 OA
ENDROOT
BRANCH   1  12
ATOM     12  C   UNL     1      -7.342   9.780  18.139  1.00  0.00     0.021 A 
ATOM     13  C   UNL     1      -8.433   8.929  17.888  1.00  0.00     0.016 A 
ATOM     14  C   UNL     1      -9.393   8.700  18.876  1.00  0.00     0.051 A 
ATOM     15  C   UNL     1      -9.285   9.304  20.132  1.00  0.00     0.157 A 
ATOM     16  C   UNL     1      -7.226  10.375  19.406  1.00  0.00     0.062 A 
ATOM     17  C   UNL     1      -8.185  10.152  20.402  1.00  0.00     0.158 A 
BRANCH  15  18
ATOM     18  O   UNL     1     -10.280   9.036  21.074  1.00  0.00    -0.504 OA
ATOM     19  H   UNL     1     -10.145   8.454  21.889  1.00  0.00     0.293 HD
ENDBRANCH  15  18
BRANCH  17  20
ATOM     20  O   UNL     1      -8.007  10.786  21.633  1.00  0.00    -0.504 OA
ATOM     21  H   UNL     1      -7.458  11.623  21.764  1.00  0.00     0.293 HD
ENDBRANCH  17  20
ENDBRANCH   1  12
BRANCH   6  22
ATOM     22  O   UNL     1      -2.149  10.874  14.122  1.00  0.00    -0.507 OA
ATOM     23  H   UNL     1      -1.636  11.553  13.582  1.00  0.00     0.293 HD
ENDBRANCH   6  22
BRANCH   8  24
ATOM     24  O   UNL     1      -5.825  10.036  11.149  1.00  0.00    -0.508 OA
ATOM     25  H   UNL     1      -5.274  10.330  10.352  1.00  0.00     0.293 HD
ENDBRANCH   8  24
TORSDOF 5
ENDMDL
MODEL 7
REMARK VINA RESULT:    -5.438      3.504      7.375
REMARK INTER + INTRA:          -6.664
REMARK INTER:                  -6.346
REMARK INTRA:                  -0.318
REMARK UNBOUND:                -0.273
REMARK SMILES O=c1cc(-c2ccc(O)c(O)c2)oc2cc(O)cc(O)c12
REMARK SMILES IDX 4 1 3 2 2 3 1 4 21 5 19 6 18 7 16 8 15 9 14 10 13 11 5 12
REMARK SMILES IDX 6 13 7 14 8 15 12 16 10 17 9 18 11 20 20 22 17 24
REMARK H PARENT 9 19 11 21 20 23 17 25
REMARK Flexibility Score: inf
ROOT
ATOM      1  C   UNL     1      -6.459  10.023  17.006  1.00  0.00     0.138 A 
ATOM      2  C   UNL     1      -7.040   9.841  15.743  1.00  0.00     0.100 A 
ATOM      3  C   UNL     1      -6.255   9.966  14.597  1.00  0.00     0.197 A 
ATOM      4  O   UNL     1      -6.794   9.742  13.481  1.00  0.00    -0.289 OA
ATOM      5  C   UNL     1      -4.887  10.313  14.714  1.00  0.00     0.107 A 
ATOM      6  C   UNL     1      -3.998  10.502  13.614  1.00  0.00     0.134 A 
ATOM      7  C   UNL     1      -2.640  10.747  13.859  1.00  0.00     0.093 A 
ATOM      8  C   UNL     1      -2.152  10.865  15.162  1.00  0.00     0.123 A 
ATOM      9  C   UNL     1      -3.022  10.732  16.242  1.00  0.00     0.094 A 
ATOM     10  C   UNL     1      -4.375  10.453  16.032  1.00  0.00     0.146 A 
ATOM     11  O   UNL     1      -5.166  10.316  17.091  1.00  0.00    -0.456 OA
ENDROOT
BRANCH   1  12
ATOM     12  C   UNL     1      -7.248   9.903  18.258  1.00  0.00     0.021 A 
ATOM     13  C   UNL     1      -8.571   9.428  18.256  1.00  0.00     0.016 A 
ATOM     14  C   UNL     1      -9.285   9.317  19.451  1.00  0.00     0.051 A 
ATOM     15  C   UNL     1      -8.697   9.669  20.670  1.00  0.00     0.157 A 
ATOM     16  C   UNL     1      -6.653  10.243  19.485  1.00  0.00     0.062 A 
ATOM     17  C   UNL     1      -7.362  10.136  20.687  1.00  0.00     0.158 A 
BRANCH  15  18
ATOM     18  O   UNL     1      -9.466   9.537  21.828  1.00  0.00    -0.504 OA
ATOM     19  H   UNL     1     -10.398   9.148  21.846  1.00  0.00     0.293 HD
ENDBRANCH  15  18
BRANCH  17  20
ATOM     20  O   UNL     1      -6.706  10.501  21.865  1.00  0.00    -0.504 OA
ATOM     21  H   UNL     1      -5.832  10.100  22.174  1.00  0.00     0.293 HD
ENDBRANCH  17  20
ENDBRANCH   1  12
BRANCH   6  22
ATOM     22  O   UNL     1      -4.394  10.484  12.273  1.00  0.00    -0.507 OA
ATOM     23  H   UNL     1      -3.838  10.129  11.511  1.00  0.00     0.293 HD
ENDBRANCH   6  22
BRANCH   8  24
ATOM     24  O   UNL     1      -0.803  11.124  15.395  1.00  0.00    -0.508 OA
ATOM     25  H   UNL     1      -0.074  10.589  14.937  1.00  0.00     0.293 HD
ENDBRANCH   8  24
TORSDOF 5
ENDMDL
MODEL 8
REMARK VINA RESULT:    -5.293      4.345      6.079
REMARK INTER + INTRA:          -6.494
REMARK INTER:                  -6.220
REMARK INTRA:                  -0.274
REMARK UNBOUND:                -0.273
REMARK SMILES O=c1cc(-c2ccc(O)c(O)c2)oc2cc(O)cc(O)c12
REMARK SMILES IDX 4 1 3 2 2 3 1 4 21 5 19 6 18 7 16 8 15 9 14 10 13 11 5 12
REMARK SMILES IDX 6 13 7 14 8 15 12 16 10 17 9 18 11 20 20 22 17 24
REMARK H PARENT 9 19 11 21 20 23 17 25
REMARK Flexibility Score: inf
ROOT
ATOM      1  C   UNL     1      -8.056   7.006  11.032  1.00  0.00     0.138 A 
ATOM      2  C   UNL     1      -9.257   7.707  10.864  1.00  0.00     0.100 A 
ATOM      3  C   UNL     1     -10.190   7.737  11.902  1.00  0.00     0.197 A 
ATOM      4  O   UNL     1     -11.235   8.420  11.742  1.00  0.00    -0.289 OA
ATOM      5  C   UNL     1      -9.933   7.027  13.101  1.00  0.00     0.107 A 
ATOM      6  C   UNL     1     -10.825   6.957  14.212  1.00  0.00     0.134 A 
ATOM      7  C   UNL     1     -10.417   6.307  15.384  1.00  0.00     0.093 A 
ATOM      8  C   UNL     1      -9.173   5.676  15.463  1.00  0.00     0.123 A 
ATOM      9  C   UNL     1      -8.316   5.696  14.366  1.00  0.00     0.094 A 
ATOM     10  C   UNL     1      -8.679   6.366  13.195  1.00  0.00     0.146 A 
ATOM     11  O   UNL     1      -7.823   6.375  12.178  1.00  0.00    -0.456 OA
ENDROOT
BRANCH   1  12
ATOM     12  C   UNL     1      -7.029   6.939   9.960  1.00  0.00     0.021 A 
ATOM     13  C   UNL     1      -7.290   6.321   8.724  1.00  0.00     0.016 A 
ATOM     14  C   UNL     1      -6.309   6.283   7.731  1.00  0.00     0.051 A 
ATOM     15  C   UNL     1      -5.055   6.863   7.943  1.00  0.00     0.157 A 
ATOM     16  C   UNL     1      -5.774   7.534  10.167  1.00  0.00     0.062 A 
ATOM     17  C   UNL     1      -4.784   7.499   9.178  1.00  0.00     0.158 A 
BRANCH  15  18
ATOM     18  O   UNL     1      -4.117   6.788   6.911  1.00  0.00    -0.504 OA
ATOM     19  H   UNL     1      -4.191   7.298   6.042  1.00  0.00     0.293 HD
ENDBRANCH  15  18
BRANCH  17  20
ATOM     20  O   UNL     1      -3.558   8.104   9.460  1.00  0.00    -0.504 OA
ATOM     21  H   UNL     1      -2.717   7.597   9.696  1.00  0.00     0.293 HD
ENDBRANCH  17  20
ENDBRANCH   1  12
BRANCH   6  22
ATOM     22  O   UNL     1     -12.120   7.485  14.214  1.00  0.00    -0.507 OA
ATOM     23  H   UNL     1     -12.629   7.767  15.036  1.00  0.00     0.293 HD
ENDBRANCH   6  22
BRANCH   8  24
ATOM     24  O   UNL     1      -8.783   5.017  16.628  1.00  0.00    -0.508 OA
ATOM     25  H   UNL     1      -9.462   4.696  17.307  1.00  0.00     0.293 HD
ENDBRANCH   8  24
TORSDOF 5
ENDMDL
MODEL 9
REMARK VINA RESULT:    -5.172      3.231      4.058
REMARK INTER + INTRA:          -6.352
REMARK INTER:                  -6.057
REMARK INTRA:                  -0.295
REMARK UNBOUND:                -0.273
REMARK SMILES O=c1cc(-c2ccc(O)c(O)c2)oc2cc(O)cc(O)c12
REMARK SMILES IDX 4 1 3 2 2 3 1 4 21 5 19 6 18 7 16 8 15 9 14 10 13 11 5 12
REMARK SMILES IDX 6 13 7 14 8 15 12 16 10 17 9 18 11 20 20 22 17 24
REMARK H PARENT 9 19 11 21 20 23 17 25
REMARK Flexibility Score: inf
ROOT
ATOM      1  C   UNL     1      -6.408  10.002  16.826  1.00  0.00     0.138 A 
ATOM      2  C   UNL     1      -7.544   9.620  16.100  1.00  0.00     0.100 A 
ATOM      3  C   UNL     1      -8.734   9.345  16.774  1.00  0.00     0.197 A 
ATOM      4  O   UNL     1      -9.751   9.060  16.091  1.00  0.00    -0.289 OA
ATOM      5  C   UNL     1      -8.775   9.417  18.188  1.00  0.00     0.107 A 
ATOM      6  C   UNL     1      -9.923   9.125  18.985  1.00  0.00     0.134 A 
ATOM      7  C   UNL     1      -9.870   9.327  20.371  1.00  0.00     0.093 A 
ATOM      8  C   UNL     1      -8.695   9.756  20.992  1.00  0.00     0.123 A 
ATOM      9  C   UNL     1      -7.555   9.996  20.229  1.00  0.00     0.094 A 
ATOM     10  C   UNL     1      -7.585   9.836  18.841  1.00  0.00     0.146 A 
ATOM     11  O   UNL     1      -6.480  10.093  18.149  1.00  0.00    -0.456 OA
ENDROOT
BRANCH   1  12
ATOM     12  C   UNL     1      -5.115  10.303  16.159  1.00  0.00     0.021 A 
ATOM     13  C   UNL     1      -3.948  10.575  16.897  1.00  0.00     0.016 A 
ATOM     14  C   UNL     1      -2.745  10.844  16.242  1.00  0.00     0.051 A 
ATOM     15  C   UNL     1      -2.675  10.843  14.845  1.00  0.00     0.157 A 
ATOM     16  C   UNL     1      -5.040  10.289  14.757  1.00  0.00     0.062 A 
ATOM     17  C   UNL     1      -3.838  10.559  14.092  1.00  0.00     0.158 A 
BRANCH  15  18
ATOM     18  O   UNL     1      -1.442  11.124  14.253  1.00  0.00    -0.504 OA
ATOM     19  H   UNL     1      -1.138  12.052  13.992  1.00  0.00     0.293 HD
ENDBRANCH  15  18
BRANCH  17  20
ATOM     20  O   UNL     1      -3.844  10.535  12.696  1.00  0.00    -0.504 OA
ATOM     21  H   UNL     1      -4.063  11.333  12.117  1.00  0.00     0.293 HD
ENDBRANCH  17  20
ENDBRANCH   1  12
BRANCH   6  22
ATOM     22  O   UNL     1     -11.122   8.617  18.477  1.00  0.00    -0.507 OA
ATOM     23  H   UNL     1     -12.042   8.879  18.794  1.00  0.00     0.293 HD
ENDBRANCH   6  22
BRANCH   8  24
ATOM     24  O   UNL     1      -8.648   9.939  22.373  1.00  0.00    -0.508 OA
ATOM     25  H   UNL     1      -8.906  10.821  22.799  1.00  0.00     0.293 HD
ENDBRANCH   8  24
TORSDOF 5
ENDMDL
