MODEL 1
REMARK VINA RESULT:    11.801      0.000      0.000
REMARK INTER + INTRA:          23.643
REMARK INTER:                  22.840
REMARK INTRA:                   0.804
REMARK UNBOUND:                 0.804
REMARK SMILES CCCCCCCCCCCCCCCCCC(=O)[O-]
REMARK SMILES IDX 10 1 11 2 12 3 13 4 14 5 15 6 16 7 17 8 18 9 19 10 20 11
REMARK SMILES IDX 9 12 8 13 7 14 6 15 5 16 4 17 3 18 2 19 1 20
REMARK H PARENT
REMARK Flexibility Score: inf
ROOT
ATOM      1  C   UNL     1       2.077  -8.592  10.062  1.00  0.00     0.000 C 
ENDROOT
BRANCH   1   2
ATOM      2  C   UNL     1       0.928  -9.494  10.535  1.00  0.00     0.000 C 
BRANCH   2   3
ATOM      3  C   UNL     1      -0.458  -8.911  10.207  1.00  0.00     0.000 C 
BRANCH   3   4
ATOM      4  C   UNL     1      -0.618  -7.453  10.673  1.00  0.00     0.000 C 
BRANCH   4   5
ATOM      5  C   UNL     1      -0.230  -7.192  12.140  1.00  0.00     0.000 C 
BRANCH   5   6
ATOM      6  C   UNL     1       1.288  -7.269  12.379  1.00  0.00     0.000 C 
BRANCH   6   7
ATOM      7  C   UNL     1       1.977  -5.894  12.273  1.00  0.00     0.006 C 
BRANCH   7   8
ATOM      8  C   UNL     1       2.856  -5.734  11.021  1.00  0.00     0.053 C 
BRANCH   8   9
ATOM      9  C   UNL     1       2.258  -4.798  10.015  1.00  0.00     0.041 C 
ATOM     10  O   UNL     1       2.632  -3.597   9.966  1.00  0.00    -0.550 OA
ATOM     11  O   UNL     1       1.281  -5.252   9.137  1.00  0.00    -0.550 OA
ENDBRANCH   8   9
ENDBRANCH   7   8
ENDBRANCH   6   7
ENDBRANCH   5   6
ENDBRANCH   4   5
ENDBRANCH   3   4
ENDBRANCH   2   3
ENDBRANCH   1   2
BRANCH   1  12
ATOM     12  C   UNL     1       3.445  -9.286  10.136  1.00  0.00     0.000 C 
BRANCH  12  13
ATOM     13  C   UNL     1       4.455  -8.428  10.906  1.00  0.00    -0.000 C 
BRANCH  13  14
ATOM     14  C   UNL     1       4.362  -8.688  12.417  1.00  0.00    -0.000 C 
BRANCH  14  15
ATOM     15  C   UNL     1       4.982  -7.554  13.250  1.00  0.00    -0.000 C 
BRANCH  15  16
ATOM     16  C   UNL     1       5.660  -6.484  12.374  1.00  0.00    -0.000 C 
BRANCH  16  17
ATOM     17  C   UNL     1       7.194  -6.612  12.352  1.00  0.00    -0.000 C 
BRANCH  17  18
ATOM     18  C   UNL     1       7.838  -6.956  13.706  1.00  0.00    -0.000 C 
BRANCH  18  19
ATOM     19  C   UNL     1       8.241  -5.712  14.511  1.00  0.00    -0.003 C 
ATOM     20  C   UNL     1       7.021  -5.055  15.151  1.00  0.00     0.004 C 
ENDBRANCH  18  19
ENDBRANCH  17  18
ENDBRANCH  16  17
ENDBRANCH  15  16
ENDBRANCH  14  15
ENDBRANCH  13  14
ENDBRANCH  12  13
ENDBRANCH   1  12
TORSDOF 16
ENDMDL
MODEL 2
REMARK VINA RESULT:    12.225      3.047      4.756
REMARK INTER + INTRA:          24.464
REMARK INTER:                  25.540
REMARK INTRA:                  -1.076
REMARK UNBOUND:                 0.804
REMARK SMILES CCCCCCCCCCCCCCCCCC(=O)[O-]
REMARK SMILES IDX 10 1 11 2 12 3 13 4 14 5 15 6 16 7 17 8 18 9 19 10 20 11
REMARK SMILES IDX 9 12 8 13 7 14 6 15 5 16 4 17 3 18 2 19 1 20
REMARK H PARENT
REMARK Flexibility Score: inf
ROOT
ATOM      1  C   UNL     1       1.050  -6.693  12.021  1.00  0.00     0.000 C 
ENDROOT
BRANCH   1   2
ATOM      2  C   UNL     1       2.153  -5.717  11.587  1.00  0.00     0.000 C 
BRANCH   2   3
ATOM      3  C   UNL     1       2.242  -5.566  10.058  1.00  0.00     0.000 C 
BRANCH   3   4
ATOM      4  C   UNL     1       1.923  -4.138   9.579  1.00  0.00     0.000 C 
BRANCH   4   5
ATOM      5  C   UNL     1       2.664  -3.019  10.333  1.00  0.00     0.000 C 
BRANCH   5   6
ATOM      6  C   UNL     1       2.698  -1.694   9.553  1.00  0.00     0.000 C 
BRANCH   6   7
ATOM      7  C   UNL     1       1.569  -0.730   9.968  1.00  0.00     0.006 C 
BRANCH   7   8
ATOM      8  C   UNL     1       1.454   0.516   9.071  1.00  0.00     0.053 C 
BRANCH   8   9
ATOM      9  C   UNL     1       0.323   1.411   9.474  1.00  0.00     0.041 C 
ATOM     10  O   UNL     1       0.089   2.466   8.828  1.00  0.00    -0.550 OA
ATOM     11  O   UNL     1      -0.468   1.083  10.568  1.00  0.00    -0.550 OA
ENDBRANCH   8   9
ENDBRANCH   7   8
ENDBRANCH   6   7
ENDBRANCH   5   6
ENDBRANCH   4   5
ENDBRANCH   3   4
ENDBRANCH   2   3
ENDBRANCH   1   2
BRANCH   1  12
ATOM     12  C   UNL     1       0.162  -7.142  10.851  1.00  0.00     0.000 C 
BRANCH  12  13
ATOM     13  C   UNL     1       0.359  -8.633  10.552  1.00  0.00    -0.000 C 
BRANCH  13  14
ATOM     14  C   UNL     1       1.686  -9.142  11.137  1.00  0.00    -0.000 C 
BRANCH  14  15
ATOM     15  C   UNL     1       2.860  -8.987  10.156  1.00  0.00    -0.000 C 
BRANCH  15  16
ATOM     16  C   UNL     1       4.144  -8.498  10.849  1.00  0.00    -0.000 C 
BRANCH  16  17
ATOM     17  C   UNL     1       3.996  -8.390  12.377  1.00  0.00    -0.000 C 
BRANCH  17  18
ATOM     18  C   UNL     1       4.935  -7.376  13.054  1.00  0.00    -0.000 C 
BRANCH  18  19
ATOM     19  C   UNL     1       5.983  -6.798  12.092  1.00  0.00    -0.003 C 
ATOM     20  C   UNL     1       7.374  -6.820  12.719  1.00  0.00     0.004 C 
ENDBRANCH  18  19
ENDBRANCH  17  18
ENDBRANCH  16  17
ENDBRANCH  15  16
ENDBRANCH  14  15
ENDBRANCH  13  14
ENDBRANCH  12  13
ENDBRANCH   1  12
TORSDOF 16
ENDMDL
MODEL 3
REMARK VINA RESULT:    12.394      2.493      5.752
REMARK INTER + INTRA:          24.790
REMARK INTER:                  24.877
REMARK INTRA:                  -0.086
REMARK UNBOUND:                 0.804
REMARK SMILES CCCCCCCCCCCCCCCCCC(=O)[O-]
REMARK SMILES IDX 10 1 11 2 12 3 13 4 14 5 15 6 16 7 17 8 18 9 19 10 20 11
REMARK SMILES IDX 9 12 8 13 7 14 6 15 5 16 4 17 3 18 2 19 1 20
REMARK H PARENT
REMARK Flexibility Score: inf
ROOT
ATOM      1  C   UNL     1       2.041  -9.354  10.551  1.00  0.00     0.000 C 
ENDROOT
BRANCH   1   2
ATOM      2  C   UNL     1       3.337  -8.731  10.014  1.00  0.00     0.000 C 
BRANCH   2   3
ATOM      3  C   UNL     1       4.512  -8.866  10.998  1.00  0.00     0.000 C 
BRANCH   3   4
ATOM      4  C   UNL     1       4.156  -8.400  12.421  1.00  0.00     0.000 C 
BRANCH   4   5
ATOM      5  C   UNL     1       5.212  -7.504  13.095  1.00  0.00     0.000 C 
BRANCH   5   6
ATOM      6  C   UNL     1       6.085  -6.744  12.084  1.00  0.00     0.000 C 
BRANCH   6   7
ATOM      7  C   UNL     1       7.541  -6.575  12.563  1.00  0.00     0.006 C 
BRANCH   7   8
ATOM      8  C   UNL     1       7.724  -6.783  14.077  1.00  0.00     0.053 C 
BRANCH   8   9
ATOM      9  C   UNL     1       7.919  -5.495  14.815  1.00  0.00     0.041 C 
ATOM     10  O   UNL     1       9.067  -4.988  14.915  1.00  0.00    -0.550 OA
ATOM     11  O   UNL     1       6.831  -4.857  15.400  1.00  0.00    -0.550 OA
ENDBRANCH   8   9
ENDBRANCH   7   8
ENDBRANCH   6   7
ENDBRANCH   5   6
ENDBRANCH   4   5
ENDBRANCH   3   4
ENDBRANCH   2   3
ENDBRANCH   1   2
BRANCH   1  12
ATOM     12  C   UNL     1       0.813  -8.988   9.704  1.00  0.00     0.000 C 
BRANCH  12  13
ATOM     13  C   UNL     1      -0.471  -9.058  10.539  1.00  0.00    -0.000 C 
BRANCH  13  14
ATOM     14  C   UNL     1      -1.041  -7.654  10.794  1.00  0.00    -0.000 C 
BRANCH  14  15
ATOM     15  C   UNL     1      -0.492  -7.021  12.083  1.00  0.00    -0.000 C 
BRANCH  15  16
ATOM     16  C   UNL     1       0.996  -7.344  12.310  1.00  0.00    -0.000 C 
BRANCH  16  17
ATOM     17  C   UNL     1       1.873  -6.082  12.409  1.00  0.00    -0.000 C 
BRANCH  17  18
ATOM     18  C   UNL     1       2.769  -5.815  11.186  1.00  0.00    -0.000 C 
BRANCH  18  19
ATOM     19  C   UNL     1       2.036  -5.074  10.058  1.00  0.00    -0.003 C 
ATOM     20  C   UNL     1       2.606  -3.672   9.863  1.00  0.00     0.004 C 
ENDBRANCH  18  19
ENDBRANCH  17  18
ENDBRANCH  16  17
ENDBRANCH  15  16
ENDBRANCH  14  15
ENDBRANCH  13  14
ENDBRANCH  12  13
ENDBRANCH   1  12
TORSDOF 16
ENDMDL
MODEL 4
REMARK VINA RESULT:    12.457      3.601      4.857
REMARK INTER + INTRA:          24.913
REMARK INTER:                  25.906
REMARK INTRA:                  -0.993
REMARK UNBOUND:                 0.804
REMARK SMILES CCCCCCCCCCCCCCCCCC(=O)[O-]
REMARK SMILES IDX 10 1 11 2 12 3 13 4 14 5 15 6 16 7 17 8 18 9 19 10 20 11
REMARK SMILES IDX 9 12 8 13 7 14 6 15 5 16 4 17 3 18 2 19 1 20
REMARK H PARENT
REMARK Flexibility Score: inf
ROOT
ATOM      1  C   UNL     1       1.239  -6.585  10.969  1.00  0.00     0.000 C 
ENDROOT
BRANCH   1   2
ATOM      2  C   UNL     1       2.406  -5.608  10.768  1.00  0.00     0.000 C 
BRANCH   2   3
ATOM      3  C   UNL     1       2.184  -4.655   9.580  1.00  0.00     0.000 C 
BRANCH   3   4
ATOM      4  C   UNL     1       2.894  -3.301   9.758  1.00  0.00     0.000 C 
BRANCH   4   5
ATOM      5  C   UNL     1       1.998  -2.160  10.273  1.00  0.00     0.000 C 
BRANCH   5   6
ATOM      6  C   UNL     1       2.181  -0.853   9.485  1.00  0.00     0.000 C 
BRANCH   6   7
ATOM      7  C   UNL     1       1.160   0.231   9.884  1.00  0.00     0.006 C 
BRANCH   7   8
ATOM      8  C   UNL     1       0.700   1.114   8.711  1.00  0.00     0.053 C 
BRANCH   8   9
ATOM      9  C   UNL     1      -0.136   2.274   9.158  1.00  0.00     0.041 C 
ATOM     10  O   UNL     1      -1.047   2.107  10.011  1.00  0.00    -0.550 OA
ATOM     11  O   UNL     1       0.086   3.538   8.626  1.00  0.00    -0.550 OA
ENDBRANCH   8   9
ENDBRANCH   7   8
ENDBRANCH   6   7
ENDBRANCH   5   6
ENDBRANCH   4   5
ENDBRANCH   3   4
ENDBRANCH   2   3
ENDBRANCH   1   2
BRANCH   1  12
ATOM     12  C   UNL     1       1.699  -7.963  11.466  1.00  0.00     0.000 C 
BRANCH  12  13
ATOM     13  C   UNL     1       2.736  -8.572  10.514  1.00  0.00    -0.000 C 
BRANCH  13  14
ATOM     14  C   UNL     1       4.107  -8.695  11.197  1.00  0.00    -0.000 C 
BRANCH  14  15
ATOM     15  C   UNL     1       4.008  -8.642  12.730  1.00  0.00    -0.000 C 
BRANCH  15  16
ATOM     16  C   UNL     1       4.976  -7.615  13.347  1.00  0.00    -0.000 C 
BRANCH  16  17
ATOM     17  C   UNL     1       5.484  -6.584  12.323  1.00  0.00    -0.000 C 
BRANCH  17  18
ATOM     18  C   UNL     1       7.008  -6.572  12.112  1.00  0.00    -0.000 C 
BRANCH  18  19
ATOM     19  C   UNL     1       7.794  -6.829  13.406  1.00  0.00    -0.003 C 
ATOM     20  C   UNL     1       7.518  -5.740  14.440  1.00  0.00     0.004 C 
ENDBRANCH  18  19
ENDBRANCH  17  18
ENDBRANCH  16  17
ENDBRANCH  15  16
ENDBRANCH  14  15
ENDBRANCH  13  14
ENDBRANCH  12  13
ENDBRANCH   1  12
TORSDOF 16
ENDMDL
MODEL 5
REMARK VINA RESULT:    12.666      3.334      4.797
REMARK INTER + INTRA:          25.316
REMARK INTER:                  25.539
REMARK INTRA:                  -0.222
REMARK UNBOUND:                 0.804
REMARK SMILES CCCCCCCCCCCCCCCCCC(=O)[O-]
REMARK SMILES IDX 10 1 11 2 12 3 13 4 14 5 15 6 16 7 17 8 18 9 19 10 20 11
REMARK SMILES IDX 9 12 8 13 7 14 6 15 5 16 4 17 3 18 2 19 1 20
REMARK H PARENT
REMARK Flexibility Score: inf
ROOT
ATOM      1  C   UNL     1       0.761  -6.413  10.502  1.00  0.00     0.000 C 
ENDROOT
BRANCH   1   2
ATOM      2  C   UNL     1       1.940  -5.667  11.143  1.00  0.00     0.000 C 
BRANCH   2   3
ATOM      3  C   UNL     1       2.834  -4.968  10.104  1.00  0.00     0.000 C 
BRANCH   3   4
ATOM      4  C   UNL     1       2.212  -3.672   9.555  1.00  0.00     0.000 C 
BRANCH   4   5
ATOM      5  C   UNL     1       2.772  -2.373  10.164  1.00  0.00     0.000 C 
BRANCH   5   6
ATOM      6  C   UNL     1       2.315  -1.113   9.410  1.00  0.00     0.000 C 
BRANCH   6   7
ATOM      7  C   UNL     1       1.176  -0.368  10.133  1.00  0.00     0.006 C 
BRANCH   7   8
ATOM      8  C   UNL     1       1.223   1.161   9.958  1.00  0.00     0.053 C 
BRANCH   8   9
ATOM      9  C   UNL     1       0.046   1.689   9.198  1.00  0.00     0.041 C 
ATOM     10  O   UNL     1      -0.017   1.547   7.948  1.00  0.00    -0.550 OA
ATOM     11  O   UNL     1      -0.977   2.347   9.869  1.00  0.00    -0.550 OA
ENDBRANCH   8   9
ENDBRANCH   7   8
ENDBRANCH   6   7
ENDBRANCH   5   6
ENDBRANCH   4   5
ENDBRANCH   3   4
ENDBRANCH   2   3
ENDBRANCH   1   2
BRANCH   1  12
ATOM     12  C   UNL     1       0.218  -7.540  11.394  1.00  0.00     0.000 C 
BRANCH  12  13
ATOM     13  C   UNL     1       1.210  -8.708  11.467  1.00  0.00    -0.000 C 
BRANCH  13  14
ATOM     14  C   UNL     1       2.259  -8.611  10.349  1.00  0.00    -0.000 C 
BRANCH  14  15
ATOM     15  C   UNL     1       3.682  -8.401  10.893  1.00  0.00    -0.000 C 
BRANCH  15  16
ATOM     16  C   UNL     1       3.696  -8.100  12.402  1.00  0.00    -0.000 C 
BRANCH  16  17
ATOM     17  C   UNL     1       5.120  -7.983  12.976  1.00  0.00    -0.000 C 
BRANCH  17  18
ATOM     18  C   UNL     1       5.968  -6.840  12.388  1.00  0.00    -0.000 C 
BRANCH  18  19
ATOM     19  C   UNL     1       7.427  -6.871  12.866  1.00  0.00    -0.003 C 
ATOM     20  C   UNL     1       7.648  -5.888  14.012  1.00  0.00     0.004 C 
ENDBRANCH  18  19
ENDBRANCH  17  18
ENDBRANCH  16  17
ENDBRANCH  15  16
ENDBRANCH  14  15
ENDBRANCH  13  14
ENDBRANCH  12  13
ENDBRANCH   1  12
TORSDOF 16
ENDMDL
MODEL 6
REMARK VINA RESULT:    12.681      3.208      5.043
REMARK INTER + INTRA:          25.346
REMARK INTER:                  25.946
REMARK INTRA:                  -0.600
REMARK UNBOUND:                 0.804
REMARK SMILES CCCCCCCCCCCCCCCCCC(=O)[O-]
REMARK SMILES IDX 10 1 11 2 12 3 13 4 14 5 15 6 16 7 17 8 18 9 19 10 20 11
REMARK SMILES IDX 9 12 8 13 7 14 6 15 5 16 4 17 3 18 2 19 1 20
REMARK H PARENT
REMARK Flexibility Score: inf
ROOT
ATOM      1  C   UNL     1       0.962  -6.818  12.094  1.00  0.00     0.000 C 
ENDROOT
BRANCH   1   2
ATOM      2  C   UNL     1       2.022  -5.741  11.817  1.00  0.00     0.000 C 
BRANCH   2   3
ATOM      3  C   UNL     1       2.192  -5.448  10.316  1.00  0.00     0.000 C 
BRANCH   3   4
ATOM      4  C   UNL     1       2.811  -4.066  10.043  1.00  0.00     0.000 C 
BRANCH   4   5
ATOM      5  C   UNL     1       1.801  -2.908   9.943  1.00  0.00     0.000 C 
BRANCH   5   6
ATOM      6  C   UNL     1       2.455  -1.527  10.115  1.00  0.00     0.000 C 
BRANCH   6   7
ATOM      7  C   UNL     1       1.752  -0.430   9.291  1.00  0.00     0.006 C 
BRANCH   7   8
ATOM      8  C   UNL     1       1.223   0.740  10.138  1.00  0.00     0.053 C 
BRANCH   8   9
ATOM      9  C   UNL     1       0.121   1.491   9.456  1.00  0.00     0.041 C 
ATOM     10  O   UNL     1      -1.031   0.990   9.374  1.00  0.00    -0.550 OA
ATOM     11  O   UNL     1       0.369   2.742   8.903  1.00  0.00    -0.550 OA
ENDBRANCH   8   9
ENDBRANCH   7   8
ENDBRANCH   6   7
ENDBRANCH   5   6
ENDBRANCH   4   5
ENDBRANCH   3   4
ENDBRANCH   2   3
ENDBRANCH   1   2
BRANCH   1  12
ATOM     12  C   UNL     1       0.118  -7.150  10.854  1.00  0.00     0.000 C 
BRANCH  12  13
ATOM     13  C   UNL     1       0.316  -8.611  10.431  1.00  0.00    -0.000 C 
BRANCH  13  14
ATOM     14  C   UNL     1       1.670  -9.148  10.919  1.00  0.00    -0.000 C 
BRANCH  14  15
ATOM     15  C   UNL     1       2.844  -8.657  10.057  1.00  0.00    -0.000 C 
BRANCH  15  16
ATOM     16  C   UNL     1       4.187  -8.709  10.807  1.00  0.00    -0.000 C 
BRANCH  16  17
ATOM     17  C   UNL     1       4.424  -7.475  11.697  1.00  0.00    -0.000 C 
BRANCH  17  18
ATOM     18  C   UNL     1       4.877  -7.785  13.134  1.00  0.00    -0.000 C 
BRANCH  18  19
ATOM     19  C   UNL     1       4.558  -9.224  13.565  1.00  0.00    -0.003 C 
ATOM     20  C   UNL     1       3.364  -9.259  14.515  1.00  0.00     0.004 C 
ENDBRANCH  18  19
ENDBRANCH  17  18
ENDBRANCH  16  17
ENDBRANCH  15  16
ENDBRANCH  14  15
ENDBRANCH  13  14
ENDBRANCH  12  13
ENDBRANCH   1  12
TORSDOF 16
ENDMDL
MODEL 7
REMARK VINA RESULT:    12.910      3.960      6.978
REMARK INTER + INTRA:          25.790
REMARK INTER:                  26.335
REMARK INTRA:                  -0.545
REMARK UNBOUND:                 0.804
REMARK SMILES CCCCCCCCCCCCCCCCCC(=O)[O-]
REMARK SMILES IDX 10 1 11 2 12 3 13 4 14 5 15 6 16 7 17 8 18 9 19 10 20 11
REMARK SMILES IDX 9 12 8 13 7 14 6 15 5 16 4 17 3 18 2 19 1 20
REMARK H PARENT
REMARK Flexibility Score: inf
ROOT
ATOM      1  C   UNL     1       1.845  -6.247  11.842  1.00  0.00     0.000 C 
ENDROOT
BRANCH   1   2
ATOM      2  C   UNL     1       1.423  -7.644  11.366  1.00  0.00     0.000 C 
BRANCH   2   3
ATOM      3  C   UNL     1       2.435  -8.269  10.390  1.00  0.00     0.000 C 
BRANCH   3   4
ATOM      4  C   UNL     1       3.769  -8.635  11.065  1.00  0.00     0.000 C 
BRANCH   4   5
ATOM      5  C   UNL     1       3.770  -8.533  12.601  1.00  0.00     0.000 C 
BRANCH   5   6
ATOM      6  C   UNL     1       5.073  -7.939  13.161  1.00  0.00     0.000 C 
BRANCH   6   7
ATOM      7  C   UNL     1       5.911  -7.223  12.083  1.00  0.00     0.006 C 
BRANCH   7   8
ATOM      8  C   UNL     1       6.607  -5.945  12.583  1.00  0.00     0.053 C 
BRANCH   8   9
ATOM      9  C   UNL     1       7.558  -6.212  13.709  1.00  0.00     0.041 C 
ATOM     10  O   UNL     1       7.597  -5.440  14.703  1.00  0.00    -0.550 OA
ATOM     11  O   UNL     1       8.408  -7.311  13.657  1.00  0.00    -0.550 OA
ENDBRANCH   8   9
ENDBRANCH   7   8
ENDBRANCH   6   7
ENDBRANCH   5   6
ENDBRANCH   4   5
ENDBRANCH   3   4
ENDBRANCH   2   3
ENDBRANCH   1   2
BRANCH   1  12
ATOM     12  C   UNL     1       2.831  -5.567  10.880  1.00  0.00     0.000 C 
BRANCH  12  13
ATOM     13  C   UNL     1       2.099  -4.618   9.924  1.00  0.00    -0.000 C 
BRANCH  13  14
ATOM     14  C   UNL     1       2.779  -3.241   9.884  1.00  0.00    -0.000 C 
BRANCH  14  15
ATOM     15  C   UNL     1       1.786  -2.087  10.104  1.00  0.00    -0.000 C 
BRANCH  15  16
ATOM     16  C   UNL     1       2.269  -0.768   9.473  1.00  0.00    -0.000 C 
BRANCH  16  17
ATOM     17  C   UNL     1       1.594   0.471  10.089  1.00  0.00    -0.000 C 
BRANCH  17  18
ATOM     18  C   UNL     1       0.056   0.458  10.059  1.00  0.00    -0.000 C 
BRANCH  18  19
ATOM     19  C   UNL     1      -0.544   1.777   9.550  1.00  0.00    -0.003 C 
ATOM     20  C   UNL     1       0.392   2.456   8.554  1.00  0.00     0.004 C 
ENDBRANCH  18  19
ENDBRANCH  17  18
ENDBRANCH  16  17
ENDBRANCH  15  16
ENDBRANCH  14  15
ENDBRANCH  13  14
ENDBRANCH  12  13
ENDBRANCH   1  12
TORSDOF 16
ENDMDL
MODEL 8
REMARK VINA RESULT:    12.990      2.697      6.125
REMARK INTER + INTRA:          25.943
REMARK INTER:                  25.010
REMARK INTRA:                   0.934
REMARK UNBOUND:                 0.804
REMARK SMILES CCCCCCCCCCCCCCCCCC(=O)[O-]
REMARK SMILES IDX 10 1 11 2 12 3 13 4 14 5 15 6 16 7 17 8 18 9 19 10 20 11
REMARK SMILES IDX 9 12 8 13 7 14 6 15 5 16 4 17 3 18 2 19 1 20
REMARK H PARENT
REMARK Flexibility Score: inf
ROOT
ATOM      1  C   UNL     1       2.226  -8.299  10.879  1.00  0.00     0.000 C 
ENDROOT
BRANCH   1   2
ATOM      2  C   UNL     1       3.727  -8.528  11.107  1.00  0.00     0.000 C 
BRANCH   2   3
ATOM      3  C   UNL     1       4.077  -8.727  12.592  1.00  0.00     0.000 C 
BRANCH   3   4
ATOM      4  C   UNL     1       4.508  -7.422  13.285  1.00  0.00     0.000 C 
BRANCH   4   5
ATOM      5  C   UNL     1       5.193  -6.394  12.367  1.00  0.00     0.000 C 
BRANCH   5   6
ATOM      6  C   UNL     1       6.541  -6.888  11.816  1.00  0.00     0.000 C 
BRANCH   6   7
ATOM      7  C   UNL     1       7.726  -6.538  12.738  1.00  0.00     0.006 C 
BRANCH   7   8
ATOM      8  C   UNL     1       7.378  -6.573  14.237  1.00  0.00     0.053 C 
BRANCH   8   9
ATOM      9  C   UNL     1       7.814  -5.335  14.957  1.00  0.00     0.041 C 
ATOM     10  O   UNL     1       6.974  -4.634  15.580  1.00  0.00    -0.550 OA
ATOM     11  O   UNL     1       9.150  -4.950  14.933  1.00  0.00    -0.550 OA
ENDBRANCH   8   9
ENDBRANCH   7   8
ENDBRANCH   6   7
ENDBRANCH   5   6
ENDBRANCH   4   5
ENDBRANCH   3   4
ENDBRANCH   2   3
ENDBRANCH   1   2
BRANCH   1  12
ATOM     12  C   UNL     1       1.491  -7.868  12.157  1.00  0.00     0.000 C 
BRANCH  12  13
ATOM     13  C   UNL     1      -0.029  -7.898  11.953  1.00  0.00    -0.000 C 
BRANCH  13  14
ATOM     14  C   UNL     1      -0.384  -8.257  10.503  1.00  0.00    -0.000 C 
BRANCH  14  15
ATOM     15  C   UNL     1      -1.125  -7.120   9.780  1.00  0.00    -0.000 C 
BRANCH  15  16
ATOM     16  C   UNL     1      -0.162  -6.093   9.157  1.00  0.00    -0.000 C 
BRANCH  16  17
ATOM     17  C   UNL     1       1.157  -5.959   9.939  1.00  0.00    -0.000 C 
BRANCH  17  18
ATOM     18  C   UNL     1       2.157  -4.941   9.362  1.00  0.00    -0.000 C 
BRANCH  18  19
ATOM     19  C   UNL     1       2.631  -3.914  10.401  1.00  0.00    -0.003 C 
ATOM     20  C   UNL     1       2.671  -2.510   9.805  1.00  0.00     0.004 C 
ENDBRANCH  18  19
ENDBRANCH  17  18
ENDBRANCH  16  17
ENDBRANCH  15  16
ENDBRANCH  14  15
ENDBRANCH  13  14
ENDBRANCH  12  13
ENDBRANCH   1  12
TORSDOF 16
ENDMDL
MODEL 9
REMARK VINA RESULT:    13.459      3.610      6.473
REMARK INTER + INTRA:          26.852
REMARK INTER:                  26.879
REMARK INTRA:                  -0.027
REMARK UNBOUND:                 0.804
REMARK SMILES CCCCCCCCCCCCCCCCCC(=O)[O-]
REMARK SMILES IDX 10 1 11 2 12 3 13 4 14 5 15 6 16 7 17 8 18 9 19 10 20 11
REMARK SMILES IDX 9 12 8 13 7 14 6 15 5 16 4 17 3 18 2 19 1 20
REMARK H PARENT
REMARK Flexibility Score: inf
ROOT
ATOM      1  C   UNL     1       2.148  -5.825  11.933  1.00  0.00     0.000 C 
ENDROOT
BRANCH   1   2
ATOM      2  C   UNL     1       1.433  -7.107  12.384  1.00  0.00     0.000 C 
BRANCH   2   3
ATOM      3  C   UNL     1       0.005  -7.218  11.821  1.00  0.00     0.000 C 
BRANCH   3   4
ATOM      4  C   UNL     1      -0.096  -8.193  10.634  1.00  0.00     0.000 C 
BRANCH   4   5
ATOM      5  C   UNL     1       1.024  -9.248  10.562  1.00  0.00     0.000 C 
BRANCH   5   6
ATOM      6  C   UNL     1       2.320  -8.703   9.938  1.00  0.00     0.000 C 
BRANCH   6   7
ATOM      7  C   UNL     1       3.587  -9.278  10.601  1.00  0.00     0.006 C 
BRANCH   7   8
ATOM      8  C   UNL     1       4.756  -8.280  10.677  1.00  0.00     0.053 C 
BRANCH   8   9
ATOM      9  C   UNL     1       4.961  -7.739  12.058  1.00  0.00     0.041 C 
ATOM     10  O   UNL     1       5.661  -6.709  12.238  1.00  0.00    -0.550 OA
ATOM     11  O   UNL     1       4.385  -8.380  13.149  1.00  0.00    -0.550 OA
ENDBRANCH   8   9
ENDBRANCH   7   8
ENDBRANCH   6   7
ENDBRANCH   5   6
ENDBRANCH   4   5
ENDBRANCH   3   4
ENDBRANCH   2   3
ENDBRANCH   1   2
BRANCH   1  12
ATOM     12  C   UNL     1       2.403  -5.791  10.419  1.00  0.00     0.000 C 
BRANCH  12  13
ATOM     13  C   UNL     1       1.870  -4.492   9.802  1.00  0.00    -0.000 C 
BRANCH  13  14
ATOM     14  C   UNL     1       2.793  -3.308  10.126  1.00  0.00    -0.000 C 
BRANCH  14  15
ATOM     15  C   UNL     1       2.327  -1.999   9.467  1.00  0.00    -0.000 C 
BRANCH  15  16
ATOM     16  C   UNL     1       2.320  -0.815  10.451  1.00  0.00    -0.000 C 
BRANCH  16  17
ATOM     17  C   UNL     1       1.152   0.158  10.208  1.00  0.00    -0.000 C 
BRANCH  17  18
ATOM     18  C   UNL     1       1.371   1.167   9.067  1.00  0.00    -0.000 C 
BRANCH  18  19
ATOM     19  C   UNL     1       0.105   1.967   8.725  1.00  0.00    -0.003 C 
ATOM     20  C   UNL     1      -0.892   1.934   9.880  1.00  0.00     0.004 C 
ENDBRANCH  18  19
ENDBRANCH  17  18
ENDBRANCH  16  17
ENDBRANCH  15  16
ENDBRANCH  14  15
ENDBRANCH  13  14
ENDBRANCH  12  13
ENDBRANCH   1  12
TORSDOF 16
ENDMDL
