MODEL 1
REMARK VINA RESULT:    -5.716      0.000      0.000
REMARK INTER + INTRA:         -15.652
REMARK INTER:                 -12.400
REMARK INTRA:                  -3.252
REMARK UNBOUND:                -3.252
REMARK SMILES CCCCCCCCCCCCCCCCCCCCCC(=O)[O-]
REMARK SMILES IDX 12 1 11 2 10 3 9 4 8 5 7 6 6 7 5 8 4 9 3 10 2 11 1 12 13 13
REMARK SMILES IDX 14 14 15 15 16 16 17 17 18 18 19 19 20 20 21 21 22 22 23 23
REMARK SMILES IDX 24 24
REMARK H PARENT
REMARK Flexibility Score: inf
ROOT
ATOM      1  C   UNL     1      64.124   3.527  23.053  1.00  0.00     0.000 C 
ENDROOT
BRANCH   1   2
ATOM      2  C   UNL     1      62.619   3.232  22.922  1.00  0.00     0.000 C 
BRANCH   2   3
ATOM      3  C   UNL     1      61.845   4.398  22.275  1.00  0.00     0.000 C 
BRANCH   3   4
ATOM      4  C   UNL     1      60.971   3.987  21.073  1.00  0.00    -0.000 C 
BRANCH   4   5
ATOM      5  C   UNL     1      60.938   2.469  20.808  1.00  0.00    -0.000 C 
BRANCH   5   6
ATOM      6  C   UNL     1      61.710   2.077  19.536  1.00  0.00    -0.000 C 
BRANCH   6   7
ATOM      7  C   UNL     1      62.837   1.072  19.811  1.00  0.00    -0.000 C 
BRANCH   7   8
ATOM      8  C   UNL     1      64.226   1.726  19.819  1.00  0.00    -0.000 C 
BRANCH   8   9
ATOM      9  C   UNL     1      64.265   2.944  18.889  1.00  0.00    -0.000 C 
BRANCH   9  10
ATOM     10  C   UNL     1      65.689   3.510  18.783  1.00  0.00    -0.000 C 
BRANCH  10  11
ATOM     11  C   UNL     1      66.089   4.334  20.016  1.00  0.00    -0.003 C 
ATOM     12  C   UNL     1      65.165   5.529  20.254  1.00  0.00     0.004 C 
ENDBRANCH  10  11
ENDBRANCH   9  10
ENDBRANCH   8   9
ENDBRANCH   7   8
ENDBRANCH   6   7
ENDBRANCH   5   6
ENDBRANCH   4   5
ENDBRANCH   3   4
ENDBRANCH   2   3
ENDBRANCH   1   2
BRANCH   1  13
ATOM     13  C   UNL     1      64.955   2.260  23.308  1.00  0.00     0.000 C 
BRANCH  13  14
ATOM     14  C   UNL     1      66.410   2.573  23.685  1.00  0.00     0.000 C 
BRANCH  14  15
ATOM     15  C   UNL     1      66.480   3.739  24.682  1.00  0.00     0.000 C 
BRANCH  15  16
ATOM     16  C   UNL     1      67.607   4.731  24.353  1.00  0.00     0.000 C 
BRANCH  16  17
ATOM     17  C   UNL     1      67.167   5.821  23.360  1.00  0.00     0.000 C 
BRANCH  17  18
ATOM     18  C   UNL     1      68.338   6.383  22.539  1.00  0.00     0.000 C 
BRANCH  18  19
ATOM     19  C   UNL     1      68.190   7.888  22.252  1.00  0.00     0.000 C 
BRANCH  19  20
ATOM     20  C   UNL     1      67.542   8.172  20.886  1.00  0.00     0.006 C 
BRANCH  20  21
ATOM     21  C   UNL     1      66.470   9.273  20.909  1.00  0.00     0.053 C 
BRANCH  21  22
ATOM     22  C   UNL     1      65.894   9.523  19.549  1.00  0.00     0.041 C 
ATOM     23  O   UNL     1      64.985   8.777  19.097  1.00  0.00    -0.550 OA
ATOM     24  O   UNL     1      66.346  10.593  18.789  1.00  0.00    -0.550 OA
ENDBRANCH  21  22
ENDBRANCH  20  21
ENDBRANCH  19  20
ENDBRANCH  18  19
ENDBRANCH  17  18
ENDBRANCH  16  17
ENDBRANCH  15  16
ENDBRANCH  14  15
ENDBRANCH  13  14
ENDBRANCH   1  13
TORSDOF 20
ENDMDL
MODEL 2
REMARK VINA RESULT:    -5.689      1.267      3.820
REMARK INTER + INTRA:         -15.593
REMARK INTER:                 -12.184
REMARK INTRA:                  -3.408
REMARK UNBOUND:                -3.252
REMARK SMILES CCCCCCCCCCCCCCCCCCCCCC(=O)[O-]
REMARK SMILES IDX 12 1 11 2 10 3 9 4 8 5 7 6 6 7 5 8 4 9 3 10 2 11 1 12 13 13
REMARK SMILES IDX 14 14 15 15 16 16 17 17 18 18 19 19 20 20 21 21 22 22 23 23
REMARK SMILES IDX 24 24
REMARK H PARENT
REMARK Flexibility Score: inf
ROOT
ATOM      1  C   UNL     1      62.582   1.757  19.972  1.00  0.00     0.000 C 
ENDROOT
BRANCH   1   2
ATOM      2  C   UNL     1      61.827   3.056  19.634  1.00  0.00     0.000 C 
BRANCH   2   3
ATOM      3  C   UNL     1      61.074   3.632  20.849  1.00  0.00     0.000 C 
BRANCH   3   4
ATOM      4  C   UNL     1      61.932   4.540  21.754  1.00  0.00    -0.000 C 
BRANCH   4   5
ATOM      5  C   UNL     1      62.455   3.846  23.027  1.00  0.00    -0.000 C 
BRANCH   5   6
ATOM      6  C   UNL     1      63.980   3.648  23.004  1.00  0.00    -0.000 C 
BRANCH   6   7
ATOM      7  C   UNL     1      64.415   2.306  23.611  1.00  0.00    -0.000 C 
BRANCH   7   8
ATOM      8  C   UNL     1      65.936   2.101  23.569  1.00  0.00    -0.000 C 
BRANCH   8   9
ATOM      9  C   UNL     1      66.636   3.309  22.935  1.00  0.00    -0.000 C 
BRANCH   9  10
ATOM     10  C   UNL     1      67.681   3.903  23.890  1.00  0.00    -0.000 C 
BRANCH  10  11
ATOM     11  C   UNL     1      67.216   5.221  24.527  1.00  0.00    -0.003 C 
ATOM     12  C   UNL     1      66.530   5.015  25.878  1.00  0.00     0.004 C 
ENDBRANCH  10  11
ENDBRANCH   9  10
ENDBRANCH   8   9
ENDBRANCH   7   8
ENDBRANCH   6   7
ENDBRANCH   5   6
ENDBRANCH   4   5
ENDBRANCH   3   4
ENDBRANCH   2   3
ENDBRANCH   1   2
BRANCH   1  13
ATOM     13  C   UNL     1      64.079   1.839  19.637  1.00  0.00     0.000 C 
BRANCH  13  14
ATOM     14  C   UNL     1      64.438   3.101  18.841  1.00  0.00     0.000 C 
BRANCH  14  15
ATOM     15  C   UNL     1      65.432   3.977  19.618  1.00  0.00     0.000 C 
BRANCH  15  16
ATOM     16  C   UNL     1      65.068   5.469  19.572  1.00  0.00     0.000 C 
BRANCH  16  17
ATOM     17  C   UNL     1      65.372   6.196  20.893  1.00  0.00     0.000 C 
BRANCH  17  18
ATOM     18  C   UNL     1      66.867   6.513  21.064  1.00  0.00     0.000 C 
BRANCH  18  19
ATOM     19  C   UNL     1      67.273   7.827  20.373  1.00  0.00     0.000 C 
BRANCH  19  20
ATOM     20  C   UNL     1      66.363   9.007  20.756  1.00  0.00     0.006 C 
BRANCH  20  21
ATOM     21  C   UNL     1      65.298   9.354  19.705  1.00  0.00     0.053 C 
BRANCH  21  22
ATOM     22  C   UNL     1      64.240  10.261  20.256  1.00  0.00     0.041 C 
ATOM     23  O   UNL     1      64.351  10.731  21.419  1.00  0.00    -0.550 OA
ATOM     24  O   UNL     1      63.144  10.603  19.477  1.00  0.00    -0.550 OA
ENDBRANCH  21  22
ENDBRANCH  20  21
ENDBRANCH  19  20
ENDBRANCH  18  19
ENDBRANCH  17  18
ENDBRANCH  16  17
ENDBRANCH  15  16
ENDBRANCH  14  15
ENDBRANCH  13  14
ENDBRANCH   1  13
TORSDOF 20
ENDMDL
MODEL 3
REMARK VINA RESULT:    -5.674      2.080      3.110
REMARK INTER + INTRA:         -15.560
REMARK INTER:                 -12.104
REMARK INTRA:                  -3.456
REMARK UNBOUND:                -3.252
REMARK SMILES CCCCCCCCCCCCCCCCCCCCCC(=O)[O-]
REMARK SMILES IDX 12 1 11 2 10 3 9 4 8 5 7 6 6 7 5 8 4 9 3 10 2 11 1 12 13 13
REMARK SMILES IDX 14 14 15 15 16 16 17 17 18 18 19 19 20 20 21 21 22 22 23 23
REMARK SMILES IDX 24 24
REMARK H PARENT
REMARK Flexibility Score: inf
ROOT
ATOM      1  C   UNL     1      62.744   4.378  22.129  1.00  0.00     0.000 C 
ENDROOT
BRANCH   1   2
ATOM      2  C   UNL     1      61.688   3.277  21.924  1.00  0.00     0.000 C 
BRANCH   2   3
ATOM      3  C   UNL     1      60.934   3.428  20.588  1.00  0.00     0.000 C 
BRANCH   3   4
ATOM      4  C   UNL     1      61.223   2.306  19.569  1.00  0.00    -0.000 C 
BRANCH   4   5
ATOM      5  C   UNL     1      62.209   1.235  20.075  1.00  0.00    -0.000 C 
BRANCH   5   6
ATOM      6  C   UNL     1      63.480   1.151  19.210  1.00  0.00    -0.000 C 
BRANCH   6   7
ATOM      7  C   UNL     1      64.567   2.139  19.656  1.00  0.00    -0.000 C 
BRANCH   7   8
ATOM      8  C   UNL     1      64.999   3.092  18.532  1.00  0.00    -0.000 C 
BRANCH   8   9
ATOM      9  C   UNL     1      65.252   4.504  19.074  1.00  0.00    -0.000 C 
BRANCH   9  10
ATOM     10  C   UNL     1      66.091   4.457  20.359  1.00  0.00    -0.000 C 
BRANCH  10  11
ATOM     11  C   UNL     1      66.180   5.824  21.055  1.00  0.00    -0.003 C 
ATOM     12  C   UNL     1      65.486   6.935  20.267  1.00  0.00     0.004 C 
ENDBRANCH  10  11
ENDBRANCH   9  10
ENDBRANCH   8   9
ENDBRANCH   7   8
ENDBRANCH   6   7
ENDBRANCH   5   6
ENDBRANCH   4   5
ENDBRANCH   3   4
ENDBRANCH   2   3
ENDBRANCH   1   2
BRANCH   1  13
ATOM     13  C   UNL     1      63.806   3.993  23.171  1.00  0.00     0.000 C 
BRANCH  13  14
ATOM     14  C   UNL     1      64.160   2.499  23.129  1.00  0.00     0.000 C 
BRANCH  14  15
ATOM     15  C   UNL     1      65.642   2.277  23.464  1.00  0.00     0.000 C 
BRANCH  15  16
ATOM     16  C   UNL     1      66.098   3.077  24.694  1.00  0.00     0.000 C 
BRANCH  16  17
ATOM     17  C   UNL     1      67.277   4.017  24.387  1.00  0.00     0.000 C 
BRANCH  17  18
ATOM     18  C   UNL     1      68.146   3.516  23.222  1.00  0.00     0.000 C 
BRANCH  18  19
ATOM     19  C   UNL     1      69.457   4.310  23.081  1.00  0.00     0.000 C 
BRANCH  19  20
ATOM     20  C   UNL     1      69.627   4.934  21.684  1.00  0.00     0.006 C 
BRANCH  20  21
ATOM     21  C   UNL     1      70.755   5.973  21.587  1.00  0.00     0.053 C 
BRANCH  21  22
ATOM     22  C   UNL     1      70.590   6.870  20.398  1.00  0.00     0.041 C 
ATOM     23  O   UNL     1      71.482   6.917  19.510  1.00  0.00    -0.550 OA
ATOM     24  O   UNL     1      69.442   7.638  20.262  1.00  0.00    -0.550 OA
ENDBRANCH  21  22
ENDBRANCH  20  21
ENDBRANCH  19  20
ENDBRANCH  18  19
ENDBRANCH  17  18
ENDBRANCH  16  17
ENDBRANCH  15  16
ENDBRANCH  14  15
ENDBRANCH  13  14
ENDBRANCH   1  13
TORSDOF 20
ENDMDL
MODEL 4
REMARK VINA RESULT:    -5.656      3.092      5.106
REMARK INTER + INTRA:         -15.520
REMARK INTER:                 -12.175
REMARK INTRA:                  -3.344
REMARK UNBOUND:                -3.252
REMARK SMILES CCCCCCCCCCCCCCCCCCCCCC(=O)[O-]
REMARK SMILES IDX 12 1 11 2 10 3 9 4 8 5 7 6 6 7 5 8 4 9 3 10 2 11 1 12 13 13
REMARK SMILES IDX 14 14 15 15 16 16 17 17 18 18 19 19 20 20 21 21 22 22 23 23
REMARK SMILES IDX 24 24
REMARK H PARENT
REMARK Flexibility Score: inf
ROOT
ATOM      1  C   UNL     1      64.411   1.588  19.779  1.00  0.00     0.000 C 
ENDROOT
BRANCH   1   2
ATOM      2  C   UNL     1      63.086   1.270  19.060  1.00  0.00     0.000 C 
BRANCH   2   3
ATOM      3  C   UNL     1      61.860   1.468  19.973  1.00  0.00     0.000 C 
BRANCH   3   4
ATOM      4  C   UNL     1      61.258   2.887  19.925  1.00  0.00    -0.000 C 
BRANCH   4   5
ATOM      5  C   UNL     1      61.483   3.709  21.210  1.00  0.00    -0.000 C 
BRANCH   5   6
ATOM      6  C   UNL     1      61.331   2.860  22.485  1.00  0.00    -0.000 C 
BRANCH   6   7
ATOM      7  C   UNL     1      62.397   3.181  23.542  1.00  0.00    -0.000 C 
BRANCH   7   8
ATOM      8  C   UNL     1      63.762   3.518  22.925  1.00  0.00    -0.000 C 
BRANCH   8   9
ATOM      9  C   UNL     1      64.806   2.455  23.284  1.00  0.00    -0.000 C 
BRANCH   9  10
ATOM     10  C   UNL     1      65.982   3.076  24.053  1.00  0.00    -0.000 C 
BRANCH  10  11
ATOM     11  C   UNL     1      65.764   4.566  24.360  1.00  0.00    -0.003 C 
ATOM     12  C   UNL     1      66.572   5.045  25.567  1.00  0.00     0.004 C 
ENDBRANCH  10  11
ENDBRANCH   9  10
ENDBRANCH   8   9
ENDBRANCH   7   8
ENDBRANCH   6   7
ENDBRANCH   5   6
ENDBRANCH   4   5
ENDBRANCH   3   4
ENDBRANCH   2   3
ENDBRANCH   1   2
BRANCH   1  13
ATOM     13  C   UNL     1      65.236   2.659  19.051  1.00  0.00     0.000 C 
BRANCH  13  14
ATOM     14  C   UNL     1      64.465   3.972  18.861  1.00  0.00     0.000 C 
BRANCH  14  15
ATOM     15  C   UNL     1      65.318   5.177  19.286  1.00  0.00     0.000 C 
BRANCH  15  16
ATOM     16  C   UNL     1      65.939   4.999  20.681  1.00  0.00     0.000 C 
BRANCH  16  17
ATOM     17  C   UNL     1      67.096   5.978  20.944  1.00  0.00     0.000 C 
BRANCH  17  18
ATOM     18  C   UNL     1      68.368   5.272  21.439  1.00  0.00     0.000 C 
BRANCH  18  19
ATOM     19  C   UNL     1      68.867   5.829  22.785  1.00  0.00     0.000 C 
BRANCH  19  20
ATOM     20  C   UNL     1      69.735   4.823  23.560  1.00  0.00     0.006 C 
BRANCH  20  21
ATOM     21  C   UNL     1      70.059   3.535  22.786  1.00  0.00     0.053 C 
BRANCH  21  22
ATOM     22  C   UNL     1      71.471   3.520  22.288  1.00  0.00     0.041 C 
ATOM     23  O   UNL     1      72.259   2.603  22.641  1.00  0.00    -0.550 OA
ATOM     24  O   UNL     1      71.911   4.507  21.417  1.00  0.00    -0.550 OA
ENDBRANCH  21  22
ENDBRANCH  20  21
ENDBRANCH  19  20
ENDBRANCH  18  19
ENDBRANCH  17  18
ENDBRANCH  16  17
ENDBRANCH  15  16
ENDBRANCH  14  15
ENDBRANCH  13  14
ENDBRANCH   1  13
TORSDOF 20
ENDMDL
MODEL 5
REMARK VINA RESULT:    -5.654      2.656      3.317
REMARK INTER + INTRA:         -15.516
REMARK INTER:                 -12.134
REMARK INTRA:                  -3.382
REMARK UNBOUND:                -3.252
REMARK SMILES CCCCCCCCCCCCCCCCCCCCCC(=O)[O-]
REMARK SMILES IDX 12 1 11 2 10 3 9 4 8 5 7 6 6 7 5 8 4 9 3 10 2 11 1 12 13 13
REMARK SMILES IDX 14 14 15 15 16 16 17 17 18 18 19 19 20 20 21 21 22 22 23 23
REMARK SMILES IDX 24 24
REMARK H PARENT
REMARK Flexibility Score: inf
ROOT
ATOM      1  C   UNL     1      64.073   4.089  23.009  1.00  0.00     0.000 C 
ENDROOT
BRANCH   1   2
ATOM      2  C   UNL     1      62.558   4.233  22.776  1.00  0.00     0.000 C 
BRANCH   2   3
ATOM      3  C   UNL     1      61.802   2.906  22.984  1.00  0.00     0.000 C 
BRANCH   3   4
ATOM      4  C   UNL     1      61.061   2.398  21.731  1.00  0.00    -0.000 C 
BRANCH   4   5
ATOM      5  C   UNL     1      61.704   2.832  20.399  1.00  0.00    -0.000 C 
BRANCH   5   6
ATOM      6  C   UNL     1      62.341   1.653  19.642  1.00  0.00    -0.000 C 
BRANCH   6   7
ATOM      7  C   UNL     1      63.816   1.900  19.293  1.00  0.00    -0.000 C 
BRANCH   7   8
ATOM      8  C   UNL     1      64.207   3.381  19.384  1.00  0.00    -0.000 C 
BRANCH   8   9
ATOM      9  C   UNL     1      65.700   3.574  19.094  1.00  0.00    -0.000 C 
BRANCH   9  10
ATOM     10  C   UNL     1      66.403   4.273  20.267  1.00  0.00    -0.000 C 
BRANCH  10  11
ATOM     11  C   UNL     1      65.932   5.722  20.458  1.00  0.00    -0.003 C 
ATOM     12  C   UNL     1      66.801   6.501  21.447  1.00  0.00     0.004 C 
ENDBRANCH  10  11
ENDBRANCH   9  10
ENDBRANCH   8   9
ENDBRANCH   7   8
ENDBRANCH   6   7
ENDBRANCH   5   6
ENDBRANCH   4   5
ENDBRANCH   3   4
ENDBRANCH   2   3
ENDBRANCH   1   2
BRANCH   1  13
ATOM     13  C   UNL     1      64.507   2.627  23.190  1.00  0.00     0.000 C 
BRANCH  13  14
ATOM     14  C   UNL     1      65.879   2.497  23.867  1.00  0.00     0.000 C 
BRANCH  14  15
ATOM     15  C   UNL     1      66.217   3.760  24.673  1.00  0.00     0.000 C 
BRANCH  15  16
ATOM     16  C   UNL     1      67.623   4.300  24.367  1.00  0.00     0.000 C 
BRANCH  16  17
ATOM     17  C   UNL     1      68.346   3.487  23.279  1.00  0.00     0.000 C 
BRANCH  17  18
ATOM     18  C   UNL     1      69.705   4.092  22.893  1.00  0.00     0.000 C 
BRANCH  18  19
ATOM     19  C   UNL     1      69.851   5.554  23.351  1.00  0.00     0.000 C 
BRANCH  19  20
ATOM     20  C   UNL     1      70.954   6.309  22.588  1.00  0.00     0.006 C 
BRANCH  20  21
ATOM     21  C   UNL     1      70.795   6.290  21.060  1.00  0.00     0.053 C 
BRANCH  21  22
ATOM     22  C   UNL     1      72.033   6.764  20.362  1.00  0.00     0.041 C 
ATOM     23  O   UNL     1      72.061   7.901  19.821  1.00  0.00    -0.550 OA
ATOM     24  O   UNL     1      73.163   5.958  20.327  1.00  0.00    -0.550 OA
ENDBRANCH  21  22
ENDBRANCH  20  21
ENDBRANCH  19  20
ENDBRANCH  18  19
ENDBRANCH  17  18
ENDBRANCH  16  17
ENDBRANCH  15  16
ENDBRANCH  14  15
ENDBRANCH  13  14
ENDBRANCH   1  13
TORSDOF 20
ENDMDL
MODEL 6
REMARK VINA RESULT:    -5.634      1.369      4.264
REMARK INTER + INTRA:         -15.473
REMARK INTER:                 -12.361
REMARK INTRA:                  -3.112
REMARK UNBOUND:                -3.252
REMARK SMILES CCCCCCCCCCCCCCCCCCCCCC(=O)[O-]
REMARK SMILES IDX 12 1 11 2 10 3 9 4 8 5 7 6 6 7 5 8 4 9 3 10 2 11 1 12 13 13
REMARK SMILES IDX 14 14 15 15 16 16 17 17 18 18 19 19 20 20 21 21 22 22 23 23
REMARK SMILES IDX 24 24
REMARK H PARENT
REMARK Flexibility Score: inf
ROOT
ATOM      1  C   UNL     1      61.361   1.542  19.930  1.00  0.00     0.000 C 
ENDROOT
BRANCH   1   2
ATOM      2  C   UNL     1      61.234   3.063  19.729  1.00  0.00     0.000 C 
BRANCH   2   3
ATOM      3  C   UNL     1      61.381   3.844  21.050  1.00  0.00     0.000 C 
BRANCH   3   4
ATOM      4  C   UNL     1      60.975   3.047  22.305  1.00  0.00    -0.000 C 
BRANCH   4   5
ATOM      5  C   UNL     1      62.118   2.843  23.319  1.00  0.00    -0.000 C 
BRANCH   5   6
ATOM      6  C   UNL     1      63.482   3.290  22.763  1.00  0.00    -0.000 C 
BRANCH   6   7
ATOM      7  C   UNL     1      64.570   2.219  22.928  1.00  0.00    -0.000 C 
BRANCH   7   8
ATOM      8  C   UNL     1      65.564   2.551  24.051  1.00  0.00    -0.000 C 
BRANCH   8   9
ATOM      9  C   UNL     1      66.980   2.735  23.494  1.00  0.00    -0.000 C 
BRANCH   9  10
ATOM     10  C   UNL     1      67.509   4.146  23.790  1.00  0.00    -0.000 C 
BRANCH  10  11
ATOM     11  C   UNL     1      66.656   4.889  24.829  1.00  0.00    -0.003 C 
ATOM     12  C   UNL     1      67.191   4.735  26.253  1.00  0.00     0.004 C 
ENDBRANCH  10  11
ENDBRANCH   9  10
ENDBRANCH   8   9
ENDBRANCH   7   8
ENDBRANCH   6   7
ENDBRANCH   5   6
ENDBRANCH   4   5
ENDBRANCH   3   4
ENDBRANCH   2   3
ENDBRANCH   1   2
BRANCH   1  13
ATOM     13  C   UNL     1      62.810   1.047  19.803  1.00  0.00     0.000 C 
BRANCH  13  14
ATOM     14  C   UNL     1      63.642   1.897  18.832  1.00  0.00     0.000 C 
BRANCH  14  15
ATOM     15  C   UNL     1      65.012   2.239  19.437  1.00  0.00     0.000 C 
BRANCH  15  16
ATOM     16  C   UNL     1      65.747   3.338  18.653  1.00  0.00     0.000 C 
BRANCH  16  17
ATOM     17  C   UNL     1      64.978   4.672  18.639  1.00  0.00     0.000 C 
BRANCH  17  18
ATOM     18  C   UNL     1      64.632   5.170  20.051  1.00  0.00     0.000 C 
BRANCH  18  19
ATOM     19  C   UNL     1      65.871   5.649  20.829  1.00  0.00     0.000 C 
BRANCH  19  20
ATOM     20  C   UNL     1      66.226   7.118  20.536  1.00  0.00     0.006 C 
BRANCH  20  21
ATOM     21  C   UNL     1      67.336   7.692  21.430  1.00  0.00     0.053 C 
BRANCH  21  22
ATOM     22  C   UNL     1      67.154   9.158  21.677  1.00  0.00     0.041 C 
ATOM     23  O   UNL     1      67.453   9.655  22.796  1.00  0.00    -0.550 OA
ATOM     24  O   UNL     1      66.676   9.980  20.666  1.00  0.00    -0.550 OA
ENDBRANCH  21  22
ENDBRANCH  20  21
ENDBRANCH  19  20
ENDBRANCH  18  19
ENDBRANCH  17  18
ENDBRANCH  16  17
ENDBRANCH  15  16
ENDBRANCH  14  15
ENDBRANCH  13  14
ENDBRANCH   1  13
TORSDOF 20
ENDMDL
MODEL 7
REMARK VINA RESULT:    -5.610      3.579      4.557
REMARK INTER + INTRA:         -15.421
REMARK INTER:                 -12.312
REMARK INTRA:                  -3.109
REMARK UNBOUND:                -3.252
REMARK SMILES CCCCCCCCCCCCCCCCCCCCCC(=O)[O-]
REMARK SMILES IDX 12 1 11 2 10 3 9 4 8 5 7 6 6 7 5 8 4 9 3 10 2 11 1 12 13 13
REMARK SMILES IDX 14 14 15 15 16 16 17 17 18 18 19 19 20 20 21 21 22 22 23 23
REMARK SMILES IDX 24 24
REMARK H PARENT
REMARK Flexibility Score: inf
ROOT
ATOM      1  C   UNL     1      62.496   4.435  22.263  1.00  0.00     0.000 C 
ENDROOT
BRANCH   1   2
ATOM      2  C   UNL     1      61.885   3.077  21.871  1.00  0.00     0.000 C 
BRANCH   2   3
ATOM      3  C   UNL     1      60.904   3.193  20.687  1.00  0.00     0.000 C 
BRANCH   3   4
ATOM      4  C   UNL     1      61.156   2.177  19.555  1.00  0.00    -0.000 C 
BRANCH   4   5
ATOM      5  C   UNL     1      62.136   1.047  19.929  1.00  0.00    -0.000 C 
BRANCH   5   6
ATOM      6  C   UNL     1      63.419   1.077  19.080  1.00  0.00    -0.000 C 
BRANCH   6   7
ATOM      7  C   UNL     1      64.510   1.974  19.683  1.00  0.00    -0.000 C 
BRANCH   7   8
ATOM      8  C   UNL     1      64.973   3.075  18.718  1.00  0.00    -0.000 C 
BRANCH   8   9
ATOM      9  C   UNL     1      65.047   4.432  19.428  1.00  0.00    -0.000 C 
BRANCH   9  10
ATOM     10  C   UNL     1      66.354   4.567  20.223  1.00  0.00    -0.000 C 
BRANCH  10  11
ATOM     11  C   UNL     1      66.462   5.913  20.955  1.00  0.00    -0.003 C 
ATOM     12  C   UNL     1      65.410   6.923  20.495  1.00  0.00     0.004 C 
ENDBRANCH  10  11
ENDBRANCH   9  10
ENDBRANCH   8   9
ENDBRANCH   7   8
ENDBRANCH   6   7
ENDBRANCH   5   6
ENDBRANCH   4   5
ENDBRANCH   3   4
ENDBRANCH   2   3
ENDBRANCH   1   2
BRANCH   1  13
ATOM     13  C   UNL     1      63.690   4.292  23.218  1.00  0.00     0.000 C 
BRANCH  13  14
ATOM     14  C   UNL     1      64.496   3.009  22.970  1.00  0.00     0.000 C 
BRANCH  14  15
ATOM     15  C   UNL     1      65.928   3.146  23.509  1.00  0.00     0.000 C 
BRANCH  15  16
ATOM     16  C   UNL     1      66.104   4.375  24.414  1.00  0.00     0.000 C 
BRANCH  16  17
ATOM     17  C   UNL     1      67.556   4.884  24.446  1.00  0.00     0.000 C 
BRANCH  17  18
ATOM     18  C   UNL     1      68.502   4.031  23.587  1.00  0.00     0.000 C 
BRANCH  18  19
ATOM     19  C   UNL     1      69.970   4.481  23.700  1.00  0.00     0.000 C 
BRANCH  19  20
ATOM     20  C   UNL     1      70.780   4.196  22.424  1.00  0.00     0.006 C 
BRANCH  20  21
ATOM     21  C   UNL     1      71.742   3.003  22.536  1.00  0.00     0.053 C 
BRANCH  21  22
ATOM     22  C   UNL     1      73.056   3.277  21.871  1.00  0.00     0.041 C 
ATOM     23  O   UNL     1      73.750   2.327  21.422  1.00  0.00    -0.550 OA
ATOM     24  O   UNL     1      73.503   4.583  21.728  1.00  0.00    -0.550 OA
ENDBRANCH  21  22
ENDBRANCH  20  21
ENDBRANCH  19  20
ENDBRANCH  18  19
ENDBRANCH  17  18
ENDBRANCH  16  17
ENDBRANCH  15  16
ENDBRANCH  14  15
ENDBRANCH  13  14
ENDBRANCH   1  13
TORSDOF 20
ENDMDL
MODEL 8
REMARK VINA RESULT:    -5.609      1.457      3.775
REMARK INTER + INTRA:         -15.420
REMARK INTER:                 -12.090
REMARK INTRA:                  -3.330
REMARK UNBOUND:                -3.252
REMARK SMILES CCCCCCCCCCCCCCCCCCCCCC(=O)[O-]
REMARK SMILES IDX 12 1 11 2 10 3 9 4 8 5 7 6 6 7 5 8 4 9 3 10 2 11 1 12 13 13
REMARK SMILES IDX 14 14 15 15 16 16 17 17 18 18 19 19 20 20 21 21 22 22 23 23
REMARK SMILES IDX 24 24
REMARK H PARENT
REMARK Flexibility Score: inf
ROOT
ATOM      1  C   UNL     1      64.632   2.837  18.861  1.00  0.00     0.000 C 
ENDROOT
BRANCH   1   2
ATOM      2  C   UNL     1      64.275   1.529  19.591  1.00  0.00     0.000 C 
BRANCH   2   3
ATOM      3  C   UNL     1      62.756   1.363  19.791  1.00  0.00     0.000 C 
BRANCH   3   4
ATOM      4  C   UNL     1      62.008   2.681  20.079  1.00  0.00    -0.000 C 
BRANCH   4   5
ATOM      5  C   UNL     1      61.687   2.909  21.569  1.00  0.00    -0.000 C 
BRANCH   5   6
ATOM      6  C   UNL     1      62.291   4.219  22.106  1.00  0.00    -0.000 C 
BRANCH   6   7
ATOM      7  C   UNL     1      63.597   3.996  22.882  1.00  0.00    -0.000 C 
BRANCH   7   8
ATOM      8  C   UNL     1      63.829   2.522  23.240  1.00  0.00    -0.000 C 
BRANCH   8   9
ATOM      9  C   UNL     1      65.187   2.330  23.927  1.00  0.00    -0.000 C 
BRANCH   9  10
ATOM     10  C   UNL     1      66.300   3.055  23.157  1.00  0.00    -0.000 C 
BRANCH  10  11
ATOM     11  C   UNL     1      67.233   3.853  24.081  1.00  0.00    -0.003 C 
ATOM     12  C   UNL     1      66.498   4.937  24.870  1.00  0.00     0.004 C 
ENDBRANCH  10  11
ENDBRANCH   9  10
ENDBRANCH   8   9
ENDBRANCH   7   8
ENDBRANCH   6   7
ENDBRANCH   5   6
ENDBRANCH   4   5
ENDBRANCH   3   4
ENDBRANCH   2   3
ENDBRANCH   1   2
BRANCH   1  13
ATOM     13  C   UNL     1      65.524   3.760  19.705  1.00  0.00     0.000 C 
BRANCH  13  14
ATOM     14  C   UNL     1      65.214   5.248  19.483  1.00  0.00     0.000 C 
BRANCH  14  15
ATOM     15  C   UNL     1      65.495   6.063  20.753  1.00  0.00     0.000 C 
BRANCH  15  16
ATOM     16  C   UNL     1      66.983   6.067  21.137  1.00  0.00     0.000 C 
BRANCH  16  17
ATOM     17  C   UNL     1      67.476   7.454  21.586  1.00  0.00     0.000 C 
BRANCH  17  18
ATOM     18  C   UNL     1      67.570   8.454  20.422  1.00  0.00     0.000 C 
BRANCH  18  19
ATOM     19  C   UNL     1      66.593   9.633  20.578  1.00  0.00     0.000 C 
BRANCH  19  20
ATOM     20  C   UNL     1      65.659   9.796  19.365  1.00  0.00     0.006 C 
BRANCH  20  21
ATOM     21  C   UNL     1      64.172   9.939  19.725  1.00  0.00     0.053 C 
BRANCH  21  22
ATOM     22  C   UNL     1      63.911  11.154  20.560  1.00  0.00     0.041 C 
ATOM     23  O   UNL     1      64.058  12.305  20.070  1.00  0.00    -0.550 OA
ATOM     24  O   UNL     1      63.485  11.015  21.874  1.00  0.00    -0.550 OA
ENDBRANCH  21  22
ENDBRANCH  20  21
ENDBRANCH  19  20
ENDBRANCH  18  19
ENDBRANCH  17  18
ENDBRANCH  16  17
ENDBRANCH  15  16
ENDBRANCH  14  15
ENDBRANCH  13  14
ENDBRANCH   1  13
TORSDOF 20
ENDMDL
MODEL 9
REMARK VINA RESULT:    -5.533      8.968     12.387
REMARK INTER + INTRA:         -15.254
REMARK INTER:                 -11.508
REMARK INTRA:                  -3.746
REMARK UNBOUND:                -3.252
REMARK SMILES CCCCCCCCCCCCCCCCCCCCCC(=O)[O-]
REMARK SMILES IDX 12 1 11 2 10 3 9 4 8 5 7 6 6 7 5 8 4 9 3 10 2 11 1 12 13 13
REMARK SMILES IDX 14 14 15 15 16 16 17 17 18 18 19 19 20 20 21 21 22 22 23 23
REMARK SMILES IDX 24 24
REMARK H PARENT
REMARK Flexibility Score: inf
ROOT
ATOM      1  C   UNL     1      77.095   6.452  23.332  1.00  0.00     0.000 C 
ENDROOT
BRANCH   1   2
ATOM      2  C   UNL     1      77.833   7.002  22.098  1.00  0.00     0.000 C 
BRANCH   2   3
ATOM      3  C   UNL     1      78.091   5.916  21.034  1.00  0.00     0.000 C 
BRANCH   3   4
ATOM      4  C   UNL     1      79.273   4.980  21.360  1.00  0.00    -0.000 C 
BRANCH   4   5
ATOM      5  C   UNL     1      78.867   3.679  22.079  1.00  0.00    -0.000 C 
BRANCH   5   6
ATOM      6  C   UNL     1      77.672   2.983  21.403  1.00  0.00    -0.000 C 
BRANCH   6   7
ATOM      7  C   UNL     1      76.435   2.912  22.311  1.00  0.00    -0.000 C 
BRANCH   7   8
ATOM      8  C   UNL     1      75.119   3.033  21.530  1.00  0.00    -0.000 C 
BRANCH   8   9
ATOM      9  C   UNL     1      74.451   4.389  21.786  1.00  0.00    -0.000 C 
BRANCH   9  10
ATOM     10  C   UNL     1      74.701   5.355  20.619  1.00  0.00    -0.000 C 
BRANCH  10  11
ATOM     11  C   UNL     1      73.888   6.653  20.743  1.00  0.00    -0.003 C 
ATOM     12  C   UNL     1      72.512   6.430  21.372  1.00  0.00     0.004 C 
ENDBRANCH  10  11
ENDBRANCH   9  10
ENDBRANCH   8   9
ENDBRANCH   7   8
ENDBRANCH   6   7
ENDBRANCH   5   6
ENDBRANCH   4   5
ENDBRANCH   3   4
ENDBRANCH   2   3
ENDBRANCH   1   2
BRANCH   1  13
ATOM     13  C   UNL     1      77.897   6.633  24.630  1.00  0.00     0.000 C 
BRANCH  13  14
ATOM     14  C   UNL     1      79.327   7.133  24.377  1.00  0.00     0.000 C 
BRANCH  14  15
ATOM     15  C   UNL     1      79.598   8.434  25.146  1.00  0.00     0.000 C 
BRANCH  15  16
ATOM     16  C   UNL     1      79.505   9.681  24.253  1.00  0.00     0.000 C 
BRANCH  16  17
ATOM     17  C   UNL     1      78.534  10.738  24.808  1.00  0.00     0.000 C 
BRANCH  17  18
ATOM     18  C   UNL     1      77.116  10.600  24.231  1.00  0.00     0.000 C 
BRANCH  18  19
ATOM     19  C   UNL     1      76.170   9.826  25.167  1.00  0.00     0.000 C 
BRANCH  19  20
ATOM     20  C   UNL     1      74.944   9.254  24.435  1.00  0.00     0.006 C 
BRANCH  20  21
ATOM     21  C   UNL     1      74.956   9.470  22.913  1.00  0.00     0.053 C 
BRANCH  21  22
ATOM     22  C   UNL     1      73.846  10.371  22.466  1.00  0.00     0.041 C 
ATOM     23  O   UNL     1      73.075  10.015  21.536  1.00  0.00    -0.550 OA
ATOM     24  O   UNL     1      73.650  11.595  23.092  1.00  0.00    -0.550 OA
ENDBRANCH  21  22
ENDBRANCH  20  21
ENDBRANCH  19  20
ENDBRANCH  18  19
ENDBRANCH  17  18
ENDBRANCH  16  17
ENDBRANCH  15  16
ENDBRANCH  14  15
ENDBRANCH  13  14
ENDBRANCH   1  13
TORSDOF 20
ENDMDL
