MODEL 1
REMARK VINA RESULT:    -7.732      0.000      0.000
REMARK INTER + INTRA:          -9.371
REMARK INTER:                  -9.088
REMARK INTRA:                  -0.283
REMARK UNBOUND:                -0.283
REMARK SMILES O=c1cc(-c2ccc(O)c(O)c2)oc2cc(O)cc(O)c12
REMARK SMILES IDX 4 1 3 2 2 3 1 4 21 5 19 6 18 7 16 8 15 9 14 10 13 11 5 12
REMARK SMILES IDX 6 13 7 14 8 15 12 16 10 17 9 18 11 20 20 22 17 24
REMARK H PARENT 9 19 11 21 20 23 17 25
REMARK Flexibility Score: inf
ROOT
ATOM      1  C   UNL     1      42.014  -9.113  11.840  1.00  0.00     0.138 A 
ATOM      2  C   UNL     1      41.571 -10.436  11.972  1.00  0.00     0.100 A 
ATOM      3  C   UNL     1      41.755 -11.107  13.182  1.00  0.00     0.197 A 
ATOM      4  O   UNL     1      41.396 -12.311  13.253  1.00  0.00    -0.289 OA
ATOM      5  C   UNL     1      42.355 -10.437  14.275  1.00  0.00     0.107 A 
ATOM      6  C   UNL     1      42.563 -11.009  15.567  1.00  0.00     0.134 A 
ATOM      7  C   UNL     1      43.256 -10.279  16.541  1.00  0.00     0.093 A 
ATOM      8  C   UNL     1      43.698  -8.978  16.289  1.00  0.00     0.123 A 
ATOM      9  C   UNL     1      43.456  -8.394  15.050  1.00  0.00     0.094 A 
ATOM     10  C   UNL     1      42.798  -9.107  14.045  1.00  0.00     0.146 A 
ATOM     11  O   UNL     1      42.603  -8.517  12.871  1.00  0.00    -0.456 OA
ENDROOT
BRANCH   1  12
ATOM     12  C   UNL     1      41.842  -8.350  10.576  1.00  0.00     0.021 A 
ATOM     13  C   UNL     1      41.596  -6.965  10.576  1.00  0.00     0.016 A 
ATOM     14  C   UNL     1      41.429  -6.275   9.373  1.00  0.00     0.051 A 
ATOM     15  C   UNL     1      41.495  -6.957   8.152  1.00  0.00     0.157 A 
ATOM     16  C   UNL     1      41.893  -9.030   9.347  1.00  0.00     0.062 A 
ATOM     17  C   UNL     1      41.727  -8.342   8.140  1.00  0.00     0.158 A 
BRANCH  15  18
ATOM     18  O   UNL     1      41.329  -6.265   6.952  1.00  0.00    -0.504 OA
ATOM     19  H   UNL     1      41.925  -6.440   6.152  1.00  0.00     0.293 HD
ENDBRANCH  15  18
BRANCH  17  20
ATOM     20  O   UNL     1      41.795  -9.050   6.940  1.00  0.00    -0.504 OA
ATOM     21  H   UNL     1      42.673  -9.377   6.556  1.00  0.00     0.293 HD
ENDBRANCH  17  20
ENDBRANCH   1  12
BRANCH   6  22
ATOM     22  O   UNL     1      42.094 -12.269  15.951  1.00  0.00    -0.507 OA
ATOM     23  H   UNL     1      42.624 -13.125  15.900  1.00  0.00     0.293 HD
ENDBRANCH   6  22
BRANCH   8  24
ATOM     24  O   UNL     1      44.374  -8.256  17.270  1.00  0.00    -0.508 OA
ATOM     25  H   UNL     1      44.961  -7.464  17.037  1.00  0.00     0.293 HD
ENDBRANCH   8  24
TORSDOF 5
ENDMDL
MODEL 2
REMARK VINA RESULT:    -7.247      1.009      2.695
REMARK INTER + INTRA:          -8.801
REMARK INTER:                  -8.498
REMARK INTRA:                  -0.302
REMARK UNBOUND:                -0.283
REMARK SMILES O=c1cc(-c2ccc(O)c(O)c2)oc2cc(O)cc(O)c12
REMARK SMILES IDX 4 1 3 2 2 3 1 4 21 5 19 6 18 7 16 8 15 9 14 10 13 11 5 12
REMARK SMILES IDX 6 13 7 14 8 15 12 16 10 17 9 18 11 20 20 22 17 24
REMARK H PARENT 9 19 11 21 20 23 17 25
REMARK Flexibility Score: inf
ROOT
ATOM      1  C   UNL     1      42.440  -7.921  12.229  1.00  0.00     0.138 A 
ATOM      2  C   UNL     1      43.129  -7.059  13.092  1.00  0.00     0.100 A 
ATOM      3  C   UNL     1      43.426  -7.476  14.391  1.00  0.00     0.197 A 
ATOM      4  O   UNL     1      43.997  -6.660  15.160  1.00  0.00    -0.289 OA
ATOM      5  C   UNL     1      43.062  -8.778  14.813  1.00  0.00     0.107 A 
ATOM      6  C   UNL     1      43.343  -9.325  16.102  1.00  0.00     0.134 A 
ATOM      7  C   UNL     1      42.846 -10.590  16.438  1.00  0.00     0.093 A 
ATOM      8  C   UNL     1      42.128 -11.352  15.513  1.00  0.00     0.123 A 
ATOM      9  C   UNL     1      41.891 -10.848  14.238  1.00  0.00     0.094 A 
ATOM     10  C   UNL     1      42.344  -9.575  13.882  1.00  0.00     0.146 A 
ATOM     11  O   UNL     1      42.082  -9.127  12.660  1.00  0.00    -0.456 OA
ENDROOT
BRANCH   1  12
ATOM     12  C   UNL     1      42.100  -7.531  10.836  1.00  0.00     0.021 A 
ATOM     13  C   UNL     1      41.739  -6.212  10.505  1.00  0.00     0.016 A 
ATOM     14  C   UNL     1      41.415  -5.876   9.188  1.00  0.00     0.051 A 
ATOM     15  C   UNL     1      41.438  -6.850   8.183  1.00  0.00     0.157 A 
ATOM     16  C   UNL     1      42.107  -8.507   9.824  1.00  0.00     0.062 A 
ATOM     17  C   UNL     1      41.784  -8.173   8.504  1.00  0.00     0.158 A 
BRANCH  15  18
ATOM     18  O   UNL     1      41.115  -6.511   6.869  1.00  0.00    -0.504 OA
ATOM     19  H   UNL     1      40.934  -5.551   6.598  1.00  0.00     0.293 HD
ENDBRANCH  15  18
BRANCH  17  20
ATOM     20  O   UNL     1      41.812  -9.167   7.527  1.00  0.00    -0.504 OA
ATOM     21  H   UNL     1      42.499  -9.173   6.783  1.00  0.00     0.293 HD
ENDBRANCH  17  20
ENDBRANCH   1  12
BRANCH   6  22
ATOM     22  O   UNL     1      44.119  -8.684  17.073  1.00  0.00    -0.507 OA
ATOM     23  H   UNL     1      44.818  -7.981  16.886  1.00  0.00     0.293 HD
ENDBRANCH   6  22
BRANCH   8  24
ATOM     24  O   UNL     1      41.650 -12.616  15.853  1.00  0.00    -0.508 OA
ATOM     25  H   UNL     1      41.927 -13.074  16.713  1.00  0.00     0.293 HD
ENDBRANCH   8  24
TORSDOF 5
ENDMDL
MODEL 3
REMARK VINA RESULT:    -7.233      1.248      1.552
REMARK INTER + INTRA:          -8.785
REMARK INTER:                  -8.477
REMARK INTRA:                  -0.308
REMARK UNBOUND:                -0.283
REMARK SMILES O=c1cc(-c2ccc(O)c(O)c2)oc2cc(O)cc(O)c12
REMARK SMILES IDX 4 1 3 2 2 3 1 4 21 5 19 6 18 7 16 8 15 9 14 10 13 11 5 12
REMARK SMILES IDX 6 13 7 14 8 15 12 16 10 17 9 18 11 20 20 22 17 24
REMARK H PARENT 9 19 11 21 20 23 17 25
REMARK Flexibility Score: inf
ROOT
ATOM      1  C   UNL     1      42.568  -9.138  11.701  1.00  0.00     0.138 A 
ATOM      2  C   UNL     1      41.966 -10.400  11.791  1.00  0.00     0.100 A 
ATOM      3  C   UNL     1      41.934 -11.063  13.018  1.00  0.00     0.197 A 
ATOM      4  O   UNL     1      41.435 -12.218  13.056  1.00  0.00    -0.289 OA
ATOM      5  C   UNL     1      42.478 -10.443  14.168  1.00  0.00     0.107 A 
ATOM      6  C   UNL     1      42.472 -11.008  15.480  1.00  0.00     0.134 A 
ATOM      7  C   UNL     1      43.129 -10.342  16.522  1.00  0.00     0.093 A 
ATOM      8  C   UNL     1      43.742  -9.103  16.313  1.00  0.00     0.123 A 
ATOM      9  C   UNL     1      43.710  -8.520  15.050  1.00  0.00     0.094 A 
ATOM     10  C   UNL     1      43.092  -9.175  13.981  1.00  0.00     0.146 A 
ATOM     11  O   UNL     1      43.100  -8.590  12.789  1.00  0.00    -0.456 OA
ENDROOT
BRANCH   1  12
ATOM     12  C   UNL     1      42.628  -8.386  10.421  1.00  0.00     0.021 A 
ATOM     13  C   UNL     1      41.670  -8.574   9.407  1.00  0.00     0.016 A 
ATOM     14  C   UNL     1      41.757  -7.859   8.209  1.00  0.00     0.051 A 
ATOM     15  C   UNL     1      42.804  -6.953   8.000  1.00  0.00     0.157 A 
ATOM     16  C   UNL     1      43.684  -7.485  10.198  1.00  0.00     0.062 A 
ATOM     17  C   UNL     1      43.773  -6.767   9.000  1.00  0.00     0.158 A 
BRANCH  15  18
ATOM     18  O   UNL     1      42.887  -6.241   6.804  1.00  0.00    -0.504 OA
ATOM     19  H   UNL     1      42.653  -6.667   5.916  1.00  0.00     0.293 HD
ENDBRANCH  15  18
BRANCH  17  20
ATOM     20  O   UNL     1      44.830  -5.875   8.821  1.00  0.00    -0.504 OA
ATOM     21  H   UNL     1      44.761  -5.074   8.204  1.00  0.00     0.293 HD
ENDBRANCH  17  20
ENDBRANCH   1  12
BRANCH   6  22
ATOM     22  O   UNL     1      41.823 -12.200  15.816  1.00  0.00    -0.507 OA
ATOM     23  H   UNL     1      41.399 -12.835  15.158  1.00  0.00     0.293 HD
ENDBRANCH   6  22
BRANCH   8  24
ATOM     24  O   UNL     1      44.379  -8.442  17.360  1.00  0.00    -0.508 OA
ATOM     25  H   UNL     1      44.316  -8.775  18.315  1.00  0.00     0.293 HD
ENDBRANCH   8  24
TORSDOF 5
ENDMDL
MODEL 4
REMARK VINA RESULT:    -7.111     20.831     22.626
REMARK INTER + INTRA:          -8.641
REMARK INTER:                  -8.326
REMARK INTRA:                  -0.315
REMARK UNBOUND:                -0.283
REMARK SMILES O=c1cc(-c2ccc(O)c(O)c2)oc2cc(O)cc(O)c12
REMARK SMILES IDX 4 1 3 2 2 3 1 4 21 5 19 6 18 7 16 8 15 9 14 10 13 11 5 12
REMARK SMILES IDX 6 13 7 14 8 15 12 16 10 17 9 18 11 20 20 22 17 24
REMARK H PARENT 9 19 11 21 20 23 17 25
REMARK Flexibility Score: inf
ROOT
ATOM      1  C   UNL     1      58.072 -24.184  10.291  1.00  0.00     0.138 A 
ATOM      2  C   UNL     1      58.579 -25.269   9.564  1.00  0.00     0.100 A 
ATOM      3  C   UNL     1      58.889 -25.109   8.212  1.00  0.00     0.197 A 
ATOM      4  O   UNL     1      59.290 -26.115   7.573  1.00  0.00    -0.289 OA
ATOM      5  C   UNL     1      58.722 -23.845   7.597  1.00  0.00     0.107 A 
ATOM      6  C   UNL     1      59.037 -23.554   6.234  1.00  0.00     0.134 A 
ATOM      7  C   UNL     1      58.737 -22.290   5.712  1.00  0.00     0.093 A 
ATOM      8  C   UNL     1      58.186 -21.289   6.516  1.00  0.00     0.123 A 
ATOM      9  C   UNL     1      57.922 -21.547   7.858  1.00  0.00     0.094 A 
ATOM     10  C   UNL     1      58.179 -22.808   8.401  1.00  0.00     0.146 A 
ATOM     11  O   UNL     1      57.895 -23.016   9.682  1.00  0.00    -0.456 OA
ENDROOT
BRANCH   1  12
ATOM     12  C   UNL     1      57.728 -24.297  11.732  1.00  0.00     0.021 A 
ATOM     13  C   UNL     1      58.168 -25.381  12.515  1.00  0.00     0.016 A 
ATOM     14  C   UNL     1      57.821 -25.465  13.866  1.00  0.00     0.051 A 
ATOM     15  C   UNL     1      57.024 -24.477  14.455  1.00  0.00     0.157 A 
ATOM     16  C   UNL     1      56.916 -23.316  12.327  1.00  0.00     0.062 A 
ATOM     17  C   UNL     1      56.567 -23.398  13.680  1.00  0.00     0.158 A 
BRANCH  15  18
ATOM     18  O   UNL     1      56.680 -24.564  15.804  1.00  0.00    -0.504 OA
ATOM     19  H   UNL     1      57.382 -24.523  16.534  1.00  0.00     0.293 HD
ENDBRANCH  15  18
BRANCH  17  20
ATOM     20  O   UNL     1      55.768 -22.400  14.237  1.00  0.00    -0.504 OA
ATOM     21  H   UNL     1      54.760 -22.397  14.135  1.00  0.00     0.293 HD
ENDBRANCH  17  20
ENDBRANCH   1  12
BRANCH   6  22
ATOM     22  O   UNL     1      59.661 -24.454   5.365  1.00  0.00    -0.507 OA
ATOM     23  H   UNL     1      60.454 -25.031   5.599  1.00  0.00     0.293 HD
ENDBRANCH   6  22
BRANCH   8  24
ATOM     24  O   UNL     1      57.906 -20.030   5.989  1.00  0.00    -0.508 OA
ATOM     25  H   UNL     1      57.327 -19.363   6.487  1.00  0.00     0.293 HD
ENDBRANCH   8  24
TORSDOF 5
ENDMDL
MODEL 5
REMARK VINA RESULT:    -6.914     20.191     20.972
REMARK INTER + INTRA:          -8.409
REMARK INTER:                  -8.099
REMARK INTRA:                  -0.310
REMARK UNBOUND:                -0.283
REMARK SMILES O=c1cc(-c2ccc(O)c(O)c2)oc2cc(O)cc(O)c12
REMARK SMILES IDX 4 1 3 2 2 3 1 4 21 5 19 6 18 7 16 8 15 9 14 10 13 11 5 12
REMARK SMILES IDX 6 13 7 14 8 15 12 16 10 17 9 18 11 20 20 22 17 24
REMARK H PARENT 9 19 11 21 20 23 17 25
REMARK Flexibility Score: inf
ROOT
ATOM      1  C   UNL     1      57.720 -22.048   9.453  1.00  0.00     0.138 A 
ATOM      2  C   UNL     1      56.642 -21.535  10.187  1.00  0.00     0.100 A 
ATOM      3  C   UNL     1      56.452 -21.942  11.508  1.00  0.00     0.197 A 
ATOM      4  O   UNL     1      55.445 -21.506  12.123  1.00  0.00    -0.289 OA
ATOM      5  C   UNL     1      57.368 -22.840  12.107  1.00  0.00     0.107 A 
ATOM      6  C   UNL     1      57.295 -23.298  13.458  1.00  0.00     0.134 A 
ATOM      7  C   UNL     1      58.203 -24.264  13.909  1.00  0.00     0.093 A 
ATOM      8  C   UNL     1      59.217 -24.745  13.077  1.00  0.00     0.123 A 
ATOM      9  C   UNL     1      59.327 -24.268  11.775  1.00  0.00     0.094 A 
ATOM     10  C   UNL     1      58.416 -23.330  11.283  1.00  0.00     0.146 A 
ATOM     11  O   UNL     1      58.548 -22.914  10.028  1.00  0.00    -0.456 OA
ENDROOT
BRANCH   1  12
ATOM     12  C   UNL     1      57.972 -21.648   8.044  1.00  0.00     0.021 A 
ATOM     13  C   UNL     1      57.491 -20.433   7.522  1.00  0.00     0.016 A 
ATOM     14  C   UNL     1      57.735 -20.088   6.191  1.00  0.00     0.051 A 
ATOM     15  C   UNL     1      58.455 -20.951   5.356  1.00  0.00     0.157 A 
ATOM     16  C   UNL     1      58.682 -22.517   7.196  1.00  0.00     0.062 A 
ATOM     17  C   UNL     1      58.929 -22.173   5.862  1.00  0.00     0.158 A 
BRANCH  15  18
ATOM     18  O   UNL     1      58.697 -20.603   4.028  1.00  0.00    -0.504 OA
ATOM     19  H   UNL     1      57.949 -20.307   3.412  1.00  0.00     0.293 HD
ENDBRANCH  15  18
BRANCH  17  20
ATOM     20  O   UNL     1      59.645 -23.057   5.055  1.00  0.00    -0.504 OA
ATOM     21  H   UNL     1      60.265 -23.758   5.442  1.00  0.00     0.293 HD
ENDBRANCH  17  20
ENDBRANCH   1  12
BRANCH   6  22
ATOM     22  O   UNL     1      56.373 -22.825  14.397  1.00  0.00    -0.507 OA
ATOM     23  H   UNL     1      56.422 -21.929  14.858  1.00  0.00     0.293 HD
ENDBRANCH   6  22
BRANCH   8  24
ATOM     24  O   UNL     1      60.125 -25.695  13.541  1.00  0.00    -0.508 OA
ATOM     25  H   UNL     1      60.798 -26.132  12.923  1.00  0.00     0.293 HD
ENDBRANCH   8  24
TORSDOF 5
ENDMDL
MODEL 6
REMARK VINA RESULT:    -6.827      3.300      4.669
REMARK INTER + INTRA:          -8.307
REMARK INTER:                  -8.041
REMARK INTRA:                  -0.266
REMARK UNBOUND:                -0.283
REMARK SMILES O=c1cc(-c2ccc(O)c(O)c2)oc2cc(O)cc(O)c12
REMARK SMILES IDX 4 1 3 2 2 3 1 4 21 5 19 6 18 7 16 8 15 9 14 10 13 11 5 12
REMARK SMILES IDX 6 13 7 14 8 15 12 16 10 17 9 18 11 20 20 22 17 24
REMARK H PARENT 9 19 11 21 20 23 17 25
REMARK Flexibility Score: inf
ROOT
ATOM      1  C   UNL     1      43.569 -10.736  11.748  1.00  0.00     0.138 A 
ATOM      2  C   UNL     1      42.557  -9.860  11.333  1.00  0.00     0.100 A 
ATOM      3  C   UNL     1      42.066  -8.903  12.222  1.00  0.00     0.197 A 
ATOM      4  O   UNL     1      41.120  -8.167  11.839  1.00  0.00    -0.289 OA
ATOM      5  C   UNL     1      42.618  -8.800  13.522  1.00  0.00     0.107 A 
ATOM      6  C   UNL     1      42.223  -7.840  14.502  1.00  0.00     0.134 A 
ATOM      7  C   UNL     1      42.773  -7.900  15.788  1.00  0.00     0.093 A 
ATOM      8  C   UNL     1      43.748  -8.848  16.112  1.00  0.00     0.123 A 
ATOM      9  C   UNL     1      44.177  -9.756  15.149  1.00  0.00     0.094 A 
ATOM     10  C   UNL     1      43.622  -9.745  13.867  1.00  0.00     0.146 A 
ATOM     11  O   UNL     1      44.049 -10.640  12.983  1.00  0.00    -0.456 OA
ENDROOT
BRANCH   1  12
ATOM     12  C   UNL     1      44.130 -11.773  10.842  1.00  0.00     0.021 A 
ATOM     13  C   UNL     1      45.472 -11.739  10.421  1.00  0.00     0.016 A 
ATOM     14  C   UNL     1      45.969 -12.722   9.562  1.00  0.00     0.051 A 
ATOM     15  C   UNL     1      45.135 -13.749   9.102  1.00  0.00     0.157 A 
ATOM     16  C   UNL     1      43.294 -12.798  10.366  1.00  0.00     0.062 A 
ATOM     17  C   UNL     1      43.790 -13.785   9.506  1.00  0.00     0.158 A 
BRANCH  15  18
ATOM     18  O   UNL     1      45.635 -14.728   8.245  1.00  0.00    -0.504 OA
ATOM     19  H   UNL     1      46.055 -15.580   8.601  1.00  0.00     0.293 HD
ENDBRANCH  15  18
BRANCH  17  20
ATOM     20  O   UNL     1      42.933 -14.791   9.062  1.00  0.00    -0.504 OA
ATOM     21  H   UNL     1      42.995 -15.742   9.404  1.00  0.00     0.293 HD
ENDBRANCH  17  20
ENDBRANCH   1  12
BRANCH   6  22
ATOM     22  O   UNL     1      41.317  -6.802  14.262  1.00  0.00    -0.507 OA
ATOM     23  H   UNL     1      40.584  -6.821  13.570  1.00  0.00     0.293 HD
ENDBRANCH   6  22
BRANCH   8  24
ATOM     24  O   UNL     1      44.300  -8.889  17.391  1.00  0.00    -0.508 OA
ATOM     25  H   UNL     1      43.958  -8.294  18.136  1.00  0.00     0.293 HD
ENDBRANCH   8  24
TORSDOF 5
ENDMDL
MODEL 7
REMARK VINA RESULT:    -6.805      2.177      7.279
REMARK INTER + INTRA:          -8.281
REMARK INTER:                  -7.975
REMARK INTRA:                  -0.306
REMARK UNBOUND:                -0.283
REMARK SMILES O=c1cc(-c2ccc(O)c(O)c2)oc2cc(O)cc(O)c12
REMARK SMILES IDX 4 1 3 2 2 3 1 4 21 5 19 6 18 7 16 8 15 9 14 10 13 11 5 12
REMARK SMILES IDX 6 13 7 14 8 15 12 16 10 17 9 18 11 20 20 22 17 24
REMARK H PARENT 9 19 11 21 20 23 17 25
REMARK Flexibility Score: inf
ROOT
ATOM      1  C   UNL     1      43.006  -7.565  11.981  1.00  0.00     0.138 A 
ATOM      2  C   UNL     1      41.863  -6.846  11.607  1.00  0.00     0.100 A 
ATOM      3  C   UNL     1      41.631  -6.570  10.259  1.00  0.00     0.197 A 
ATOM      4  O   UNL     1      40.625  -5.876   9.961  1.00  0.00    -0.289 OA
ATOM      5  C   UNL     1      42.532  -7.048   9.277  1.00  0.00     0.107 A 
ATOM      6  C   UNL     1      42.381  -6.858   7.870  1.00  0.00     0.134 A 
ATOM      7  C   UNL     1      43.390  -7.293   7.002  1.00  0.00     0.093 A 
ATOM      8  C   UNL     1      44.517  -7.963   7.485  1.00  0.00     0.123 A 
ATOM      9  C   UNL     1      44.650  -8.197   8.850  1.00  0.00     0.094 A 
ATOM     10  C   UNL     1      43.678  -7.746   9.746  1.00  0.00     0.146 A 
ATOM     11  O   UNL     1      43.854  -7.976  11.042  1.00  0.00    -0.456 OA
ENDROOT
BRANCH   1  12
ATOM     12  C   UNL     1      43.302  -7.889  13.400  1.00  0.00     0.021 A 
ATOM     13  C   UNL     1      42.913  -7.037  14.450  1.00  0.00     0.016 A 
ATOM     14  C   UNL     1      43.213  -7.363  15.775  1.00  0.00     0.051 A 
ATOM     15  C   UNL     1      43.911  -8.539  16.074  1.00  0.00     0.157 A 
ATOM     16  C   UNL     1      44.015  -9.061  13.707  1.00  0.00     0.062 A 
ATOM     17  C   UNL     1      44.316  -9.392  15.033  1.00  0.00     0.158 A 
BRANCH  15  18
ATOM     18  O   UNL     1      44.208  -8.862  17.398  1.00  0.00    -0.504 OA
ATOM     19  H   UNL     1      43.877  -9.722  17.821  1.00  0.00     0.293 HD
ENDBRANCH  15  18
BRANCH  17  20
ATOM     20  O   UNL     1      45.017 -10.568  15.297  1.00  0.00    -0.504 OA
ATOM     21  H   UNL     1      45.952 -10.562  15.688  1.00  0.00     0.293 HD
ENDBRANCH  17  20
ENDBRANCH   1  12
BRANCH   6  22
ATOM     22  O   UNL     1      41.258  -6.274   7.275  1.00  0.00    -0.507 OA
ATOM     23  H   UNL     1      41.083  -6.235   6.282  1.00  0.00     0.293 HD
ENDBRANCH   6  22
BRANCH   8  24
ATOM     24  O   UNL     1      45.508  -8.405   6.611  1.00  0.00    -0.508 OA
ATOM     25  H   UNL     1      46.378  -8.797   6.950  1.00  0.00     0.293 HD
ENDBRANCH   8  24
TORSDOF 5
ENDMDL
MODEL 8
REMARK VINA RESULT:    -6.753      1.355      2.108
REMARK INTER + INTRA:          -8.220
REMARK INTER:                  -7.927
REMARK INTRA:                  -0.293
REMARK UNBOUND:                -0.283
REMARK SMILES O=c1cc(-c2ccc(O)c(O)c2)oc2cc(O)cc(O)c12
REMARK SMILES IDX 4 1 3 2 2 3 1 4 21 5 19 6 18 7 16 8 15 9 14 10 13 11 5 12
REMARK SMILES IDX 6 13 7 14 8 15 12 16 10 17 9 18 11 20 20 22 17 24
REMARK H PARENT 9 19 11 21 20 23 17 25
REMARK Flexibility Score: inf
ROOT
ATOM      1  C   UNL     1      42.363  -9.535  10.650  1.00  0.00     0.138 A 
ATOM      2  C   UNL     1      42.002 -10.787  11.165  1.00  0.00     0.100 A 
ATOM      3  C   UNL     1      41.995 -10.989  12.546  1.00  0.00     0.197 A 
ATOM      4  O   UNL     1      41.720 -12.138  12.976  1.00  0.00    -0.289 OA
ATOM      5  C   UNL     1      42.318  -9.919  13.416  1.00  0.00     0.107 A 
ATOM      6  C   UNL     1      42.311  -9.997  14.842  1.00  0.00     0.134 A 
ATOM      7  C   UNL     1      42.745  -8.899  15.595  1.00  0.00     0.093 A 
ATOM      8  C   UNL     1      43.129  -7.707  14.977  1.00  0.00     0.123 A 
ATOM      9  C   UNL     1      43.092  -7.604  13.589  1.00  0.00     0.094 A 
ATOM     10  C   UNL     1      42.697  -8.692  12.808  1.00  0.00     0.146 A 
ATOM     11  O   UNL     1      42.692  -8.556  11.486  1.00  0.00    -0.456 OA
ENDROOT
BRANCH   1  12
ATOM     12  C   UNL     1      42.385  -9.264   9.189  1.00  0.00     0.021 A 
ATOM     13  C   UNL     1      42.968 -10.164   8.278  1.00  0.00     0.016 A 
ATOM     14  C   UNL     1      42.982  -9.877   6.910  1.00  0.00     0.051 A 
ATOM     15  C   UNL     1      42.423  -8.686   6.431  1.00  0.00     0.157 A 
ATOM     16  C   UNL     1      41.839  -8.063   8.702  1.00  0.00     0.062 A 
ATOM     17  C   UNL     1      41.850  -7.774   7.332  1.00  0.00     0.158 A 
BRANCH  15  18
ATOM     18  O   UNL     1      42.439  -8.404   5.065  1.00  0.00    -0.504 OA
ATOM     19  H   UNL     1      41.779  -7.756   4.650  1.00  0.00     0.293 HD
ENDBRANCH  15  18
BRANCH  17  20
ATOM     20  O   UNL     1      41.290  -6.578   6.887  1.00  0.00    -0.504 OA
ATOM     21  H   UNL     1      40.343  -6.526   6.530  1.00  0.00     0.293 HD
ENDBRANCH  17  20
ENDBRANCH   1  12
BRANCH   6  22
ATOM     22  O   UNL     1      41.871 -11.111  15.563  1.00  0.00    -0.507 OA
ATOM     23  H   UNL     1      40.906 -11.376  15.688  1.00  0.00     0.293 HD
ENDBRANCH   6  22
BRANCH   8  24
ATOM     24  O   UNL     1      43.544  -6.615  15.737  1.00  0.00    -0.508 OA
ATOM     25  H   UNL     1      44.502  -6.286  15.713  1.00  0.00     0.293 HD
ENDBRANCH   8  24
TORSDOF 5
ENDMDL
