MODEL 1
REMARK VINA RESULT:    -3.727      0.000      0.000
REMARK INTER + INTRA:         -15.226
REMARK INTER:                  -9.393
REMARK INTRA:                  -5.833
REMARK UNBOUND:                -5.833
REMARK SMILES CCCCCCCCCCCCCCCCCCCCCCCCCCCC(=O)[O-]
REMARK SMILES IDX 15 1 16 2 17 3 18 4 19 5 20 6 21 7 22 8 23 9 24 10 25 11
REMARK SMILES IDX 26 12 27 13 28 14 29 15 30 16 14 17 13 18 12 19 11 20 10 21
REMARK SMILES IDX 9 22 8 23 7 24 6 25 5 26 4 27 3 28 2 29 1 30
REMARK H PARENT
REMARK Flexibility Score: inf
ROOT
ATOM      1  C   UNL     1      -7.119   4.610  55.527  1.00  0.00     0.000 C 
ENDROOT
BRANCH   1   2
ATOM      2  C   UNL     1      -5.835   4.196  54.790  1.00  0.00     0.000 C 
BRANCH   2   3
ATOM      3  C   UNL     1      -6.113   3.265  53.596  1.00  0.00     0.000 C 
BRANCH   3   4
ATOM      4  C   UNL     1      -6.602   4.019  52.345  1.00  0.00     0.000 C 
BRANCH   4   5
ATOM      5  C   UNL     1      -7.639   3.269  51.484  1.00  0.00     0.000 C 
BRANCH   5   6
ATOM      6  C   UNL     1      -8.877   4.120  51.152  1.00  0.00     0.000 C 
BRANCH   6   7
ATOM      7  C   UNL     1      -8.716   5.598  51.552  1.00  0.00     0.000 C 
BRANCH   7   8
ATOM      8  C   UNL     1      -9.627   6.071  52.700  1.00  0.00     0.000 C 
BRANCH   8   9
ATOM      9  C   UNL     1     -10.767   5.085  53.009  1.00  0.00     0.000 C 
BRANCH   9  10
ATOM     10  C   UNL     1     -10.693   4.536  54.450  1.00  0.00     0.000 C 
BRANCH  10  11
ATOM     11  C   UNL     1     -10.087   3.127  54.549  1.00  0.00     0.000 C 
BRANCH  11  12
ATOM     12  C   UNL     1     -10.262   2.495  55.937  1.00  0.00     0.006 C 
BRANCH  12  13
ATOM     13  C   UNL     1     -10.420   3.571  57.016  1.00  0.00     0.053 C 
BRANCH  13  14
ATOM     14  C   UNL     1     -10.648   2.948  58.358  1.00  0.00     0.041 C 
ATOM     15  O   UNL     1     -10.630   3.658  59.400  1.00  0.00    -0.550 OA
ATOM     16  O   UNL     1     -10.909   1.587  58.459  1.00  0.00    -0.550 OA
ENDBRANCH  13  14
ENDBRANCH  12  13
ENDBRANCH  11  12
ENDBRANCH  10  11
ENDBRANCH   9  10
ENDBRANCH   8   9
ENDBRANCH   7   8
ENDBRANCH   6   7
ENDBRANCH   5   6
ENDBRANCH   4   5
ENDBRANCH   3   4
ENDBRANCH   2   3
ENDBRANCH   1   2
BRANCH   1  17
ATOM     17  C   UNL     1      -7.168   6.111  55.850  1.00  0.00     0.000 C 
BRANCH  17  18
ATOM     18  C   UNL     1      -7.816   6.406  57.215  1.00  0.00     0.000 C 
BRANCH  18  19
ATOM     19  C   UNL     1      -7.500   5.346  58.292  1.00  0.00     0.000 C 
BRANCH  19  20
ATOM     20  C   UNL     1      -6.715   5.937  59.479  1.00  0.00     0.000 C 
BRANCH  20  21
ATOM     21  C   UNL     1      -5.189   5.801  59.295  1.00  0.00     0.000 C 
BRANCH  21  22
ATOM     22  C   UNL     1      -4.762   4.469  58.657  1.00  0.00    -0.000 C 
BRANCH  22  23
ATOM     23  C   UNL     1      -4.168   3.484  59.674  1.00  0.00    -0.000 C 
BRANCH  23  24
ATOM     24  C   UNL     1      -3.440   2.334  58.963  1.00  0.00    -0.000 C 
BRANCH  24  25
ATOM     25  C   UNL     1      -3.635   2.356  57.437  1.00  0.00    -0.000 C 
BRANCH  25  26
ATOM     26  C   UNL     1      -3.954   0.988  56.799  1.00  0.00    -0.000 C 
BRANCH  26  27
ATOM     27  C   UNL     1      -5.404   0.814  56.310  1.00  0.00    -0.000 C 
BRANCH  27  28
ATOM     28  C   UNL     1      -6.378   0.454  57.447  1.00  0.00    -0.000 C 
BRANCH  28  29
ATOM     29  C   UNL     1      -7.222   1.657  57.900  1.00  0.00    -0.003 C 
ATOM     30  C   UNL     1      -7.387   1.725  59.419  1.00  0.00     0.004 C 
ENDBRANCH  28  29
ENDBRANCH  27  28
ENDBRANCH  26  27
ENDBRANCH  25  26
ENDBRANCH  24  25
ENDBRANCH  23  24
ENDBRANCH  22  23
ENDBRANCH  21  22
ENDBRANCH  20  21
ENDBRANCH  19  20
ENDBRANCH  18  19
ENDBRANCH  17  18
ENDBRANCH   1  17
TORSDOF 26
ENDMDL
MODEL 2
REMARK VINA RESULT:    -3.720      8.426     11.803
REMARK INTER + INTRA:         -15.207
REMARK INTER:                  -9.278
REMARK INTRA:                  -5.929
REMARK UNBOUND:                -5.833
REMARK SMILES CCCCCCCCCCCCCCCCCCCCCCCCCCCC(=O)[O-]
REMARK SMILES IDX 15 1 16 2 17 3 18 4 19 5 20 6 21 7 22 8 23 9 24 10 25 11
REMARK SMILES IDX 26 12 27 13 28 14 29 15 30 16 14 17 13 18 12 19 11 20 10 21
REMARK SMILES IDX 9 22 8 23 7 24 6 25 5 26 4 27 3 28 2 29 1 30
REMARK H PARENT
REMARK Flexibility Score: inf
ROOT
ATOM      1  C   UNL     1       2.552  -0.046  53.223  1.00  0.00     0.000 C 
ENDROOT
BRANCH   1   2
ATOM      2  C   UNL     1       2.461   1.217  54.093  1.00  0.00     0.000 C 
BRANCH   2   3
ATOM      3  C   UNL     1       2.093   0.903  55.555  1.00  0.00     0.000 C 
BRANCH   3   4
ATOM      4  C   UNL     1       1.072   1.894  56.145  1.00  0.00     0.000 C 
BRANCH   4   5
ATOM      5  C   UNL     1      -0.197   1.256  56.745  1.00  0.00     0.000 C 
BRANCH   5   6
ATOM      6  C   UNL     1      -0.415  -0.197  56.288  1.00  0.00     0.000 C 
BRANCH   6   7
ATOM      7  C   UNL     1      -1.073  -1.075  57.367  1.00  0.00     0.000 C 
BRANCH   7   8
ATOM      8  C   UNL     1      -0.471  -2.483  57.526  1.00  0.00     0.000 C 
BRANCH   8   9
ATOM      9  C   UNL     1       1.053  -2.513  57.320  1.00  0.00     0.000 C 
BRANCH   9  10
ATOM     10  C   UNL     1       1.828  -2.298  58.638  1.00  0.00     0.000 C 
BRANCH  10  11
ATOM     11  C   UNL     1       2.905  -1.205  58.555  1.00  0.00     0.000 C 
BRANCH  11  12
ATOM     12  C   UNL     1       2.441   0.140  59.133  1.00  0.00     0.006 C 
BRANCH  12  13
ATOM     13  C   UNL     1       1.329  -0.061  60.168  1.00  0.00     0.053 C 
BRANCH  13  14
ATOM     14  C   UNL     1       0.612   1.226  60.433  1.00  0.00     0.041 C 
ATOM     15  O   UNL     1       1.243   2.229  60.865  1.00  0.00    -0.550 OA
ATOM     16  O   UNL     1      -0.750   1.330  60.175  1.00  0.00    -0.550 OA
ENDBRANCH  13  14
ENDBRANCH  12  13
ENDBRANCH  11  12
ENDBRANCH  10  11
ENDBRANCH   9  10
ENDBRANCH   8   9
ENDBRANCH   7   8
ENDBRANCH   6   7
ENDBRANCH   5   6
ENDBRANCH   4   5
ENDBRANCH   3   4
ENDBRANCH   2   3
ENDBRANCH   1   2
BRANCH   1  17
ATOM     17  C   UNL     1       1.996  -1.297  53.922  1.00  0.00     0.000 C 
BRANCH  17  18
ATOM     18  C   UNL     1       3.053  -2.402  54.096  1.00  0.00     0.000 C 
BRANCH  18  19
ATOM     19  C   UNL     1       4.068  -2.116  55.224  1.00  0.00     0.000 C 
BRANCH  19  20
ATOM     20  C   UNL     1       4.593  -3.408  55.879  1.00  0.00     0.000 C 
BRANCH  20  21
ATOM     21  C   UNL     1       3.973  -4.674  55.251  1.00  0.00     0.000 C 
BRANCH  21  22
ATOM     22  C   UNL     1       4.364  -5.973  55.974  1.00  0.00    -0.000 C 
BRANCH  22  23
ATOM     23  C   UNL     1       3.154  -6.719  56.554  1.00  0.00    -0.000 C 
BRANCH  23  24
ATOM     24  C   UNL     1       1.907  -5.823  56.558  1.00  0.00    -0.000 C 
BRANCH  24  25
ATOM     25  C   UNL     1       0.619  -6.590  56.211  1.00  0.00    -0.000 C 
BRANCH  25  26
ATOM     26  C   UNL     1      -0.227  -5.969  55.079  1.00  0.00    -0.000 C 
BRANCH  26  27
ATOM     27  C   UNL     1       0.573  -5.464  53.864  1.00  0.00    -0.000 C 
BRANCH  27  28
ATOM     28  C   UNL     1      -0.013  -4.176  53.259  1.00  0.00    -0.000 C 
BRANCH  28  29
ATOM     29  C   UNL     1      -1.167  -3.604  54.097  1.00  0.00    -0.003 C 
ATOM     30  C   UNL     1      -1.836  -2.397  53.437  1.00  0.00     0.004 C 
ENDBRANCH  28  29
ENDBRANCH  27  28
ENDBRANCH  26  27
ENDBRANCH  25  26
ENDBRANCH  24  25
ENDBRANCH  23  24
ENDBRANCH  22  23
ENDBRANCH  21  22
ENDBRANCH  20  21
ENDBRANCH  19  20
ENDBRANCH  18  19
ENDBRANCH  17  18
ENDBRANCH   1  17
TORSDOF 26
ENDMDL
MODEL 3
REMARK VINA RESULT:    -3.658      5.808     10.209
REMARK INTER + INTRA:         -15.050
REMARK INTER:                 -10.006
REMARK INTRA:                  -5.044
REMARK UNBOUND:                -5.833
REMARK SMILES CCCCCCCCCCCCCCCCCCCCCCCCCCCC(=O)[O-]
REMARK SMILES IDX 15 1 16 2 17 3 18 4 19 5 20 6 21 7 22 8 23 9 24 10 25 11
REMARK SMILES IDX 26 12 27 13 28 14 29 15 30 16 14 17 13 18 12 19 11 20 10 21
REMARK SMILES IDX 9 22 8 23 7 24 6 25 5 26 4 27 3 28 2 29 1 30
REMARK H PARENT
REMARK Flexibility Score: inf
ROOT
ATOM      1  C   UNL     1       1.730   0.998  56.044  1.00  0.00     0.000 C 
ENDROOT
BRANCH   1   2
ATOM      2  C   UNL     1       0.351   1.359  56.618  1.00  0.00     0.000 C 
BRANCH   2   3
ATOM      3  C   UNL     1       0.428   1.859  58.072  1.00  0.00     0.000 C 
BRANCH   3   4
ATOM      4  C   UNL     1       1.215   0.909  58.995  1.00  0.00     0.000 C 
BRANCH   4   5
ATOM      5  C   UNL     1       0.915   1.050  60.501  1.00  0.00     0.000 C 
BRANCH   5   6
ATOM      6  C   UNL     1       0.142  -0.149  61.077  1.00  0.00     0.000 C 
BRANCH   6   7
ATOM      7  C   UNL     1      -0.075  -1.275  60.051  1.00  0.00     0.000 C 
BRANCH   7   8
ATOM      8  C   UNL     1      -1.369  -2.089  60.232  1.00  0.00     0.000 C 
BRANCH   8   9
ATOM      9  C   UNL     1      -2.320  -1.983  59.027  1.00  0.00     0.000 C 
BRANCH   9  10
ATOM     10  C   UNL     1      -2.305  -0.578  58.389  1.00  0.00     0.000 C 
BRANCH  10  11
ATOM     11  C   UNL     1      -3.466   0.323  58.841  1.00  0.00     0.000 C 
BRANCH  11  12
ATOM     12  C   UNL     1      -3.014   1.744  59.207  1.00  0.00     0.006 C 
BRANCH  12  13
ATOM     13  C   UNL     1      -3.805   2.793  58.419  1.00  0.00     0.053 C 
BRANCH  13  14
ATOM     14  C   UNL     1      -4.688   3.587  59.329  1.00  0.00     0.041 C 
ATOM     15  O   UNL     1      -5.684   3.045  59.882  1.00  0.00    -0.550 OA
ATOM     16  O   UNL     1      -4.397   4.920  59.595  1.00  0.00    -0.550 OA
ENDBRANCH  13  14
ENDBRANCH  12  13
ENDBRANCH  11  12
ENDBRANCH  10  11
ENDBRANCH   9  10
ENDBRANCH   8   9
ENDBRANCH   7   8
ENDBRANCH   6   7
ENDBRANCH   5   6
ENDBRANCH   4   5
ENDBRANCH   3   4
ENDBRANCH   2   3
ENDBRANCH   1   2
BRANCH   1  17
ATOM     17  C   UNL     1       2.005   1.658  54.684  1.00  0.00     0.000 C 
BRANCH  17  18
ATOM     18  C   UNL     1       2.757   0.730  53.713  1.00  0.00     0.000 C 
BRANCH  18  19
ATOM     19  C   UNL     1       2.036  -0.612  53.454  1.00  0.00     0.000 C 
BRANCH  19  20
ATOM     20  C   UNL     1       3.005  -1.809  53.477  1.00  0.00     0.000 C 
BRANCH  20  21
ATOM     21  C   UNL     1       3.603  -2.049  54.879  1.00  0.00     0.000 C 
BRANCH  21  22
ATOM     22  C   UNL     1       3.602  -3.527  55.303  1.00  0.00    -0.000 C 
BRANCH  22  23
ATOM     23  C   UNL     1       2.574  -3.830  56.403  1.00  0.00    -0.000 C 
BRANCH  23  24
ATOM     24  C   UNL     1       1.975  -2.533  56.966  1.00  0.00    -0.000 C 
BRANCH  24  25
ATOM     25  C   UNL     1       0.463  -2.411  56.706  1.00  0.00    -0.000 C 
BRANCH  25  26
ATOM     26  C   UNL     1      -0.049  -3.164  55.460  1.00  0.00    -0.000 C 
BRANCH  26  27
ATOM     27  C   UNL     1      -1.035  -2.378  54.577  1.00  0.00    -0.000 C 
BRANCH  27  28
ATOM     28  C   UNL     1      -1.067  -2.883  53.123  1.00  0.00    -0.000 C 
BRANCH  28  29
ATOM     29  C   UNL     1       0.128  -3.791  52.790  1.00  0.00    -0.003 C 
ATOM     30  C   UNL     1      -0.299  -5.148  52.228  1.00  0.00     0.004 C 
ENDBRANCH  28  29
ENDBRANCH  27  28
ENDBRANCH  26  27
ENDBRANCH  25  26
ENDBRANCH  24  25
ENDBRANCH  23  24
ENDBRANCH  22  23
ENDBRANCH  21  22
ENDBRANCH  20  21
ENDBRANCH  19  20
ENDBRANCH  18  19
ENDBRANCH  17  18
ENDBRANCH   1  17
TORSDOF 26
ENDMDL
MODEL 4
REMARK VINA RESULT:    -3.648      4.826      9.299
REMARK INTER + INTRA:         -15.025
REMARK INTER:                 -11.350
REMARK INTRA:                  -3.675
REMARK UNBOUND:                -5.833
REMARK SMILES CCCCCCCCCCCCCCCCCCCCCCCCCCCC(=O)[O-]
REMARK SMILES IDX 15 1 16 2 17 3 18 4 19 5 20 6 21 7 22 8 23 9 24 10 25 11
REMARK SMILES IDX 26 12 27 13 28 14 29 15 30 16 14 17 13 18 12 19 11 20 10 21
REMARK SMILES IDX 9 22 8 23 7 24 6 25 5 26 4 27 3 28 2 29 1 30
REMARK H PARENT
REMARK Flexibility Score: inf
ROOT
ATOM      1  C   UNL     1      -4.761   2.003  58.756  1.00  0.00     0.000 C 
ENDROOT
BRANCH   1   2
ATOM      2  C   UNL     1      -3.906   2.475  57.569  1.00  0.00     0.000 C 
BRANCH   2   3
ATOM      3  C   UNL     1      -2.549   1.753  57.495  1.00  0.00     0.000 C 
BRANCH   3   4
ATOM      4  C   UNL     1      -2.131   1.116  58.833  1.00  0.00     0.000 C 
BRANCH   4   5
ATOM      5  C   UNL     1      -1.255   2.002  59.742  1.00  0.00     0.000 C 
BRANCH   5   6
ATOM      6  C   UNL     1       0.159   2.231  59.180  1.00  0.00     0.000 C 
BRANCH   6   7
ATOM      7  C   UNL     1       1.261   1.590  60.042  1.00  0.00     0.000 C 
BRANCH   7   8
ATOM      8  C   UNL     1       1.236   0.052  60.103  1.00  0.00     0.000 C 
BRANCH   8   9
ATOM      9  C   UNL     1       2.414  -0.599  59.356  1.00  0.00     0.000 C 
BRANCH   9  10
ATOM     10  C   UNL     1       2.451  -0.206  57.864  1.00  0.00     0.000 C 
BRANCH  10  11
ATOM     11  C   UNL     1       1.267  -0.751  57.047  1.00  0.00     0.000 C 
BRANCH  11  12
ATOM     12  C   UNL     1       0.613   0.314  56.155  1.00  0.00     0.006 C 
BRANCH  12  13
ATOM     13  C   UNL     1       1.598   1.443  55.834  1.00  0.00     0.053 C 
BRANCH  13  14
ATOM     14  C   UNL     1       2.149   1.290  54.451  1.00  0.00     0.041 C 
ATOM     15  O   UNL     1       2.171   2.273  53.662  1.00  0.00    -0.550 OA
ATOM     16  O   UNL     1       2.669   0.068  54.040  1.00  0.00    -0.550 OA
ENDBRANCH  13  14
ENDBRANCH  12  13
ENDBRANCH  11  12
ENDBRANCH  10  11
ENDBRANCH   9  10
ENDBRANCH   8   9
ENDBRANCH   7   8
ENDBRANCH   6   7
ENDBRANCH   5   6
ENDBRANCH   4   5
ENDBRANCH   3   4
ENDBRANCH   2   3
ENDBRANCH   1   2
BRANCH   1  17
ATOM     17  C   UNL     1      -5.271   3.161  59.627  1.00  0.00     0.000 C 
BRANCH  17  18
ATOM     18  C   UNL     1      -4.344   4.390  59.586  1.00  0.00     0.000 C 
BRANCH  18  19
ATOM     19  C   UNL     1      -5.100   5.737  59.599  1.00  0.00     0.000 C 
BRANCH  19  20
ATOM     20  C   UNL     1      -6.519   5.604  60.182  1.00  0.00     0.000 C 
BRANCH  20  21
ATOM     21  C   UNL     1      -7.596   6.170  59.232  1.00  0.00     0.000 C 
BRANCH  21  22
ATOM     22  C   UNL     1      -7.399   5.758  57.764  1.00  0.00    -0.000 C 
BRANCH  22  23
ATOM     23  C   UNL     1      -7.924   4.347  57.465  1.00  0.00    -0.000 C 
BRANCH  23  24
ATOM     24  C   UNL     1      -7.710   3.983  55.989  1.00  0.00    -0.000 C 
BRANCH  24  25
ATOM     25  C   UNL     1      -6.508   4.711  55.362  1.00  0.00    -0.000 C 
BRANCH  25  26
ATOM     26  C   UNL     1      -5.579   3.823  54.508  1.00  0.00    -0.000 C 
BRANCH  26  27
ATOM     27  C   UNL     1      -6.229   3.205  53.257  1.00  0.00    -0.000 C 
BRANCH  27  28
ATOM     28  C   UNL     1      -6.696   4.264  52.242  1.00  0.00    -0.000 C 
BRANCH  28  29
ATOM     29  C   UNL     1      -8.227   4.322  52.117  1.00  0.00    -0.003 C 
ATOM     30  C   UNL     1      -8.712   5.560  51.361  1.00  0.00     0.004 C 
ENDBRANCH  28  29
ENDBRANCH  27  28
ENDBRANCH  26  27
ENDBRANCH  25  26
ENDBRANCH  24  25
ENDBRANCH  23  24
ENDBRANCH  22  23
ENDBRANCH  21  22
ENDBRANCH  20  21
ENDBRANCH  19  20
ENDBRANCH  18  19
ENDBRANCH  17  18
ENDBRANCH   1  17
TORSDOF 26
ENDMDL
MODEL 5
REMARK VINA RESULT:    -3.635      8.454     11.579
REMARK INTER + INTRA:         -14.993
REMARK INTER:                  -9.548
REMARK INTRA:                  -5.445
REMARK UNBOUND:                -5.833
REMARK SMILES CCCCCCCCCCCCCCCCCCCCCCCCCCCC(=O)[O-]
REMARK SMILES IDX 15 1 16 2 17 3 18 4 19 5 20 6 21 7 22 8 23 9 24 10 25 11
REMARK SMILES IDX 26 12 27 13 28 14 29 15 30 16 14 17 13 18 12 19 11 20 10 21
REMARK SMILES IDX 9 22 8 23 7 24 6 25 5 26 4 27 3 28 2 29 1 30
REMARK H PARENT
REMARK Flexibility Score: inf
ROOT
ATOM      1  C   UNL     1       2.222   1.241  54.504  1.00  0.00     0.000 C 
ENDROOT
BRANCH   1   2
ATOM      2  C   UNL     1       2.794   0.131  53.608  1.00  0.00     0.000 C 
BRANCH   2   3
ATOM      3  C   UNL     1       1.736  -0.915  53.214  1.00  0.00     0.000 C 
BRANCH   3   4
ATOM      4  C   UNL     1       2.076  -2.333  53.712  1.00  0.00     0.000 C 
BRANCH   4   5
ATOM      5  C   UNL     1       3.517  -2.526  54.224  1.00  0.00     0.000 C 
BRANCH   5   6
ATOM      6  C   UNL     1       3.675  -3.758  55.132  1.00  0.00     0.000 C 
BRANCH   6   7
ATOM      7  C   UNL     1       3.226  -3.499  56.581  1.00  0.00     0.000 C 
BRANCH   7   8
ATOM      8  C   UNL     1       4.013  -2.408  57.329  1.00  0.00     0.000 C 
BRANCH   8   9
ATOM      9  C   UNL     1       3.440  -2.101  58.724  1.00  0.00     0.000 C 
BRANCH   9  10
ATOM     10  C   UNL     1       3.345  -0.585  58.998  1.00  0.00     0.000 C 
BRANCH  10  11
ATOM     11  C   UNL     1       2.360  -0.216  60.119  1.00  0.00     0.000 C 
BRANCH  11  12
ATOM     12  C   UNL     1       1.391   0.907  59.722  1.00  0.00     0.006 C 
BRANCH  12  13
ATOM     13  C   UNL     1       0.342   1.140  60.814  1.00  0.00     0.053 C 
BRANCH  13  14
ATOM     14  C   UNL     1      -0.658   2.165  60.378  1.00  0.00     0.041 C 
ATOM     15  O   UNL     1      -1.394   1.950  59.376  1.00  0.00    -0.550 OA
ATOM     16  O   UNL     1      -0.802   3.347  61.095  1.00  0.00    -0.550 OA
ENDBRANCH  13  14
ENDBRANCH  12  13
ENDBRANCH  11  12
ENDBRANCH  10  11
ENDBRANCH   9  10
ENDBRANCH   8   9
ENDBRANCH   7   8
ENDBRANCH   6   7
ENDBRANCH   5   6
ENDBRANCH   4   5
ENDBRANCH   3   4
ENDBRANCH   2   3
ENDBRANCH   1   2
BRANCH   1  17
ATOM     17  C   UNL     1       1.869   0.749  55.916  1.00  0.00     0.000 C 
BRANCH  17  18
ATOM     18  C   UNL     1       0.429   1.107  56.328  1.00  0.00     0.000 C 
BRANCH  18  19
ATOM     19  C   UNL     1      -0.451  -0.124  56.636  1.00  0.00     0.000 C 
BRANCH  19  20
ATOM     20  C   UNL     1       0.363  -1.432  56.662  1.00  0.00     0.000 C 
BRANCH  20  21
ATOM     21  C   UNL     1      -0.364  -2.557  57.427  1.00  0.00     0.000 C 
BRANCH  21  22
ATOM     22  C   UNL     1      -0.132  -2.516  58.947  1.00  0.00    -0.000 C 
BRANCH  22  23
ATOM     23  C   UNL     1      -1.345  -1.981  59.720  1.00  0.00    -0.000 C 
BRANCH  23  24
ATOM     24  C   UNL     1      -1.184  -2.222  61.228  1.00  0.00    -0.000 C 
BRANCH  24  25
ATOM     25  C   UNL     1       0.192  -2.805  61.596  1.00  0.00    -0.000 C 
BRANCH  25  26
ATOM     26  C   UNL     1       0.512  -2.824  63.105  1.00  0.00    -0.000 C 
BRANCH  26  27
ATOM     27  C   UNL     1       2.010  -2.864  63.459  1.00  0.00    -0.000 C 
BRANCH  27  28
ATOM     28  C   UNL     1       2.904  -3.141  62.237  1.00  0.00    -0.000 C 
BRANCH  28  29
ATOM     29  C   UNL     1       4.278  -2.459  62.348  1.00  0.00    -0.003 C 
ATOM     30  C   UNL     1       5.433  -3.461  62.395  1.00  0.00     0.004 C 
ENDBRANCH  28  29
ENDBRANCH  27  28
ENDBRANCH  26  27
ENDBRANCH  25  26
ENDBRANCH  24  25
ENDBRANCH  23  24
ENDBRANCH  22  23
ENDBRANCH  21  22
ENDBRANCH  20  21
ENDBRANCH  19  20
ENDBRANCH  18  19
ENDBRANCH  17  18
ENDBRANCH   1  17
TORSDOF 26
ENDMDL
MODEL 6
REMARK VINA RESULT:    -3.610      2.421      4.875
REMARK INTER + INTRA:         -14.930
REMARK INTER:                  -9.324
REMARK INTRA:                  -5.606
REMARK UNBOUND:                -5.833
REMARK SMILES CCCCCCCCCCCCCCCCCCCCCCCCCCCC(=O)[O-]
REMARK SMILES IDX 15 1 16 2 17 3 18 4 19 5 20 6 21 7 22 8 23 9 24 10 25 11
REMARK SMILES IDX 26 12 27 13 28 14 29 15 30 16 14 17 13 18 12 19 11 20 10 21
REMARK SMILES IDX 9 22 8 23 7 24 6 25 5 26 4 27 3 28 2 29 1 30
REMARK H PARENT
REMARK Flexibility Score: inf
ROOT
ATOM      1  C   UNL     1      -7.140   2.451  52.783  1.00  0.00     0.000 C 
ENDROOT
BRANCH   1   2
ATOM      2  C   UNL     1      -7.708   3.222  51.581  1.00  0.00     0.000 C 
BRANCH   2   3
ATOM      3  C   UNL     1      -7.116   4.637  51.453  1.00  0.00     0.000 C 
BRANCH   3   4
ATOM      4  C   UNL     1      -8.130   5.748  51.788  1.00  0.00     0.000 C 
BRANCH   4   5
ATOM      5  C   UNL     1      -9.310   5.317  52.683  1.00  0.00     0.000 C 
BRANCH   5   6
ATOM      6  C   UNL     1      -9.348   6.061  54.030  1.00  0.00     0.000 C 
BRANCH   6   7
ATOM      7  C   UNL     1     -10.088   5.278  55.129  1.00  0.00     0.000 C 
BRANCH   7   8
ATOM      8  C   UNL     1      -9.669   3.805  55.281  1.00  0.00     0.000 C 
BRANCH   8   9
ATOM      9  C   UNL     1      -9.967   3.236  56.680  1.00  0.00     0.000 C 
BRANCH   9  10
ATOM     10  C   UNL     1      -8.843   3.546  57.691  1.00  0.00     0.000 C 
BRANCH  10  11
ATOM     11  C   UNL     1      -8.608   2.430  58.722  1.00  0.00     0.000 C 
BRANCH  11  12
ATOM     12  C   UNL     1      -7.234   1.761  58.579  1.00  0.00     0.006 C 
BRANCH  12  13
ATOM     13  C   UNL     1      -6.228   2.352  59.572  1.00  0.00     0.053 C 
BRANCH  13  14
ATOM     14  C   UNL     1      -4.824   2.061  59.142  1.00  0.00     0.041 C 
ATOM     15  O   UNL     1      -3.862   2.721  59.621  1.00  0.00    -0.550 OA
ATOM     16  O   UNL     1      -4.571   1.041  58.233  1.00  0.00    -0.550 OA
ENDBRANCH  13  14
ENDBRANCH  12  13
ENDBRANCH  11  12
ENDBRANCH  10  11
ENDBRANCH   9  10
ENDBRANCH   8   9
ENDBRANCH   7   8
ENDBRANCH   6   7
ENDBRANCH   5   6
ENDBRANCH   4   5
ENDBRANCH   3   4
ENDBRANCH   2   3
ENDBRANCH   1   2
BRANCH   1  17
ATOM     17  C   UNL     1      -6.163   3.287  53.625  1.00  0.00     0.000 C 
BRANCH  17  18
ATOM     18  C   UNL     1      -6.049   2.787  55.076  1.00  0.00     0.000 C 
BRANCH  18  19
ATOM     19  C   UNL     1      -5.527   3.857  56.060  1.00  0.00     0.000 C 
BRANCH  19  20
ATOM     20  C   UNL     1      -6.252   5.206  55.895  1.00  0.00     0.000 C 
BRANCH  20  21
ATOM     21  C   UNL     1      -6.279   6.019  57.206  1.00  0.00     0.000 C 
BRANCH  21  22
ATOM     22  C   UNL     1      -5.105   5.706  58.148  1.00  0.00    -0.000 C 
BRANCH  22  23
ATOM     23  C   UNL     1      -5.468   5.881  59.630  1.00  0.00    -0.000 C 
BRANCH  23  24
ATOM     24  C   UNL     1      -6.982   6.065  59.805  1.00  0.00    -0.000 C 
BRANCH  24  25
ATOM     25  C   UNL     1      -7.430   5.961  61.274  1.00  0.00    -0.000 C 
BRANCH  25  26
ATOM     26  C   UNL     1      -8.652   5.052  61.522  1.00  0.00    -0.000 C 
BRANCH  26  27
ATOM     27  C   UNL     1     -10.022   5.737  61.364  1.00  0.00    -0.000 C 
BRANCH  27  28
ATOM     28  C   UNL     1     -10.691   5.427  60.012  1.00  0.00    -0.000 C 
BRANCH  28  29
ATOM     29  C   UNL     1     -10.535   6.575  59.002  1.00  0.00    -0.003 C 
ATOM     30  C   UNL     1     -11.775   6.766  58.127  1.00  0.00     0.004 C 
ENDBRANCH  28  29
ENDBRANCH  27  28
ENDBRANCH  26  27
ENDBRANCH  25  26
ENDBRANCH  24  25
ENDBRANCH  23  24
ENDBRANCH  22  23
ENDBRANCH  21  22
ENDBRANCH  20  21
ENDBRANCH  19  20
ENDBRANCH  18  19
ENDBRANCH  17  18
ENDBRANCH   1  17
TORSDOF 26
ENDMDL
MODEL 7
REMARK VINA RESULT:    -3.609      3.479      8.170
REMARK INTER + INTRA:         -14.927
REMARK INTER:                 -10.500
REMARK INTRA:                  -4.427
REMARK UNBOUND:                -5.833
REMARK SMILES CCCCCCCCCCCCCCCCCCCCCCCCCCCC(=O)[O-]
REMARK SMILES IDX 15 1 16 2 17 3 18 4 19 5 20 6 21 7 22 8 23 9 24 10 25 11
REMARK SMILES IDX 26 12 27 13 28 14 29 15 30 16 14 17 13 18 12 19 11 20 10 21
REMARK SMILES IDX 9 22 8 23 7 24 6 25 5 26 4 27 3 28 2 29 1 30
REMARK H PARENT
REMARK Flexibility Score: inf
ROOT
ATOM      1  C   UNL     1      -6.201   5.756  57.094  1.00  0.00     0.000 C 
ENDROOT
BRANCH   1   2
ATOM      2  C   UNL     1      -7.413   5.788  58.038  1.00  0.00     0.000 C 
BRANCH   2   3
ATOM      3  C   UNL     1      -7.090   5.220  59.432  1.00  0.00     0.000 C 
BRANCH   3   4
ATOM      4  C   UNL     1      -5.599   4.876  59.613  1.00  0.00     0.000 C 
BRANCH   4   5
ATOM      5  C   UNL     1      -5.290   3.387  59.864  1.00  0.00     0.000 C 
BRANCH   5   6
ATOM      6  C   UNL     1      -3.785   3.097  59.998  1.00  0.00     0.000 C 
BRANCH   6   7
ATOM      7  C   UNL     1      -3.176   2.479  58.727  1.00  0.00     0.000 C 
BRANCH   7   8
ATOM      8  C   UNL     1      -2.720   1.015  58.861  1.00  0.00     0.000 C 
BRANCH   8   9
ATOM      9  C   UNL     1      -2.130   0.447  57.558  1.00  0.00     0.000 C 
BRANCH   9  10
ATOM     10  C   UNL     1      -0.948   1.289  57.033  1.00  0.00     0.000 C 
BRANCH  10  11
ATOM     11  C   UNL     1       0.360   1.079  57.813  1.00  0.00     0.000 C 
BRANCH  11  12
ATOM     12  C   UNL     1       0.898   2.372  58.441  1.00  0.00     0.006 C 
BRANCH  12  13
ATOM     13  C   UNL     1       1.491   2.105  59.828  1.00  0.00     0.053 C 
BRANCH  13  14
ATOM     14  C   UNL     1       0.412   1.785  60.815  1.00  0.00     0.041 C 
ATOM     15  O   UNL     1      -0.271   2.710  61.333  1.00  0.00    -0.550 OA
ATOM     16  O   UNL     1       0.136   0.463  61.142  1.00  0.00    -0.550 OA
ENDBRANCH  13  14
ENDBRANCH  12  13
ENDBRANCH  11  12
ENDBRANCH  10  11
ENDBRANCH   9  10
ENDBRANCH   8   9
ENDBRANCH   7   8
ENDBRANCH   6   7
ENDBRANCH   5   6
ENDBRANCH   4   5
ENDBRANCH   3   4
ENDBRANCH   2   3
ENDBRANCH   1   2
BRANCH   1  17
ATOM     17  C   UNL     1      -6.576   5.389  55.649  1.00  0.00     0.000 C 
BRANCH  17  18
ATOM     18  C   UNL     1      -5.743   4.219  55.096  1.00  0.00     0.000 C 
BRANCH  18  19
ATOM     19  C   UNL     1      -5.320   3.196  56.173  1.00  0.00     0.000 C 
BRANCH  19  20
ATOM     20  C   UNL     1      -5.594   1.744  55.738  1.00  0.00     0.000 C 
BRANCH  20  21
ATOM     21  C   UNL     1      -6.839   1.152  56.432  1.00  0.00     0.000 C 
BRANCH  21  22
ATOM     22  C   UNL     1      -7.638   2.182  57.246  1.00  0.00    -0.000 C 
BRANCH  22  23
ATOM     23  C   UNL     1      -8.935   2.615  56.549  1.00  0.00    -0.000 C 
BRANCH  23  24
ATOM     24  C   UNL     1      -9.112   1.880  55.213  1.00  0.00    -0.000 C 
BRANCH  24  25
ATOM     25  C   UNL     1      -8.866   2.788  53.995  1.00  0.00    -0.000 C 
BRANCH  25  26
ATOM     26  C   UNL     1      -7.962   2.183  52.901  1.00  0.00    -0.000 C 
BRANCH  26  27
ATOM     27  C   UNL     1      -7.239   3.207  52.006  1.00  0.00    -0.000 C 
BRANCH  27  28
ATOM     28  C   UNL     1      -8.181   3.890  50.999  1.00  0.00    -0.000 C 
BRANCH  28  29
ATOM     29  C   UNL     1      -8.382   5.384  51.301  1.00  0.00    -0.003 C 
ATOM     30  C   UNL     1      -9.817   5.850  51.052  1.00  0.00     0.004 C 
ENDBRANCH  28  29
ENDBRANCH  27  28
ENDBRANCH  26  27
ENDBRANCH  25  26
ENDBRANCH  24  25
ENDBRANCH  23  24
ENDBRANCH  22  23
ENDBRANCH  21  22
ENDBRANCH  20  21
ENDBRANCH  19  20
ENDBRANCH  18  19
ENDBRANCH  17  18
ENDBRANCH   1  17
TORSDOF 26
ENDMDL
MODEL 8
REMARK VINA RESULT:    -3.605      7.977     11.498
REMARK INTER + INTRA:         -14.917
REMARK INTER:                  -9.051
REMARK INTRA:                  -5.866
REMARK UNBOUND:                -5.833
REMARK SMILES CCCCCCCCCCCCCCCCCCCCCCCCCCCC(=O)[O-]
REMARK SMILES IDX 15 1 16 2 17 3 18 4 19 5 20 6 21 7 22 8 23 9 24 10 25 11
REMARK SMILES IDX 26 12 27 13 28 14 29 15 30 16 14 17 13 18 12 19 11 20 10 21
REMARK SMILES IDX 9 22 8 23 7 24 6 25 5 26 4 27 3 28 2 29 1 30
REMARK H PARENT
REMARK Flexibility Score: inf
ROOT
ATOM      1  C   UNL     1       3.942  -2.130  56.942  1.00  0.00     0.000 C 
ENDROOT
BRANCH   1   2
ATOM      2  C   UNL     1       3.053  -1.602  58.079  1.00  0.00     0.000 C 
BRANCH   2   3
ATOM      3  C   UNL     1       2.445  -0.224  57.762  1.00  0.00     0.000 C 
BRANCH   3   4
ATOM      4  C   UNL     1       2.182  -0.013  56.258  1.00  0.00     0.000 C 
BRANCH   4   5
ATOM      5  C   UNL     1       1.341   1.229  55.903  1.00  0.00     0.000 C 
BRANCH   5   6
ATOM      6  C   UNL     1       0.643   1.856  57.123  1.00  0.00     0.000 C 
BRANCH   6   7
ATOM      7  C   UNL     1      -0.829   1.430  57.259  1.00  0.00     0.000 C 
BRANCH   7   8
ATOM      8  C   UNL     1      -1.330   1.246  58.703  1.00  0.00     0.000 C 
BRANCH   8   9
ATOM      9  C   UNL     1      -0.267   1.602  59.759  1.00  0.00     0.000 C 
BRANCH   9  10
ATOM     10  C   UNL     1       0.159   0.379  60.597  1.00  0.00     0.000 C 
BRANCH  10  11
ATOM     11  C   UNL     1      -0.649  -0.894  60.296  1.00  0.00     0.000 C 
BRANCH  11  12
ATOM     12  C   UNL     1       0.078  -2.179  60.718  1.00  0.00     0.006 C 
BRANCH  12  13
ATOM     13  C   UNL     1       1.389  -1.858  61.442  1.00  0.00     0.053 C 
BRANCH  13  14
ATOM     14  C   UNL     1       1.400  -2.460  62.813  1.00  0.00     0.041 C 
ATOM     15  O   UNL     1       0.320  -2.808  63.363  1.00  0.00    -0.550 OA
ATOM     16  O   UNL     1       2.605  -2.666  63.473  1.00  0.00    -0.550 OA
ENDBRANCH  13  14
ENDBRANCH  12  13
ENDBRANCH  11  12
ENDBRANCH  10  11
ENDBRANCH   9  10
ENDBRANCH   8   9
ENDBRANCH   7   8
ENDBRANCH   6   7
ENDBRANCH   5   6
ENDBRANCH   4   5
ENDBRANCH   3   4
ENDBRANCH   2   3
ENDBRANCH   1   2
BRANCH   1  17
ATOM     17  C   UNL     1       3.948  -3.664  56.849  1.00  0.00     0.000 C 
BRANCH  17  18
ATOM     18  C   UNL     1       3.823  -4.173  55.402  1.00  0.00     0.000 C 
BRANCH  18  19
ATOM     19  C   UNL     1       3.307  -3.106  54.411  1.00  0.00     0.000 C 
BRANCH  19  20
ATOM     20  C   UNL     1       1.846  -3.355  53.994  1.00  0.00     0.000 C 
BRANCH  20  21
ATOM     21  C   UNL     1       1.172  -2.082  53.441  1.00  0.00     0.000 C 
BRANCH  21  22
ATOM     22  C   UNL     1      -0.090  -2.366  52.610  1.00  0.00    -0.000 C 
BRANCH  22  23
ATOM     23  C   UNL     1      -0.513  -3.841  52.654  1.00  0.00    -0.000 C 
BRANCH  23  24
ATOM     24  C   UNL     1      -1.754  -4.029  53.537  1.00  0.00    -0.000 C 
BRANCH  24  25
ATOM     25  C   UNL     1      -2.724  -2.836  53.468  1.00  0.00    -0.000 C 
BRANCH  25  26
ATOM     26  C   UNL     1      -3.093  -2.214  54.831  1.00  0.00    -0.000 C 
BRANCH  26  27
ATOM     27  C   UNL     1      -1.922  -1.578  55.602  1.00  0.00    -0.000 C 
BRANCH  27  28
ATOM     28  C   UNL     1      -1.618  -2.301  56.927  1.00  0.00    -0.000 C 
BRANCH  28  29
ATOM     29  C   UNL     1      -0.150  -2.747  57.030  1.00  0.00    -0.003 C 
ATOM     30  C   UNL     1       0.008  -4.268  57.022  1.00  0.00     0.004 C 
ENDBRANCH  28  29
ENDBRANCH  27  28
ENDBRANCH  26  27
ENDBRANCH  25  26
ENDBRANCH  24  25
ENDBRANCH  23  24
ENDBRANCH  22  23
ENDBRANCH  21  22
ENDBRANCH  20  21
ENDBRANCH  19  20
ENDBRANCH  18  19
ENDBRANCH  17  18
ENDBRANCH   1  17
TORSDOF 26
ENDMDL
MODEL 9
REMARK VINA RESULT:    -3.567      1.877      3.218
REMARK INTER + INTRA:         -14.822
REMARK INTER:                  -9.187
REMARK INTRA:                  -5.635
REMARK UNBOUND:                -5.833
REMARK SMILES CCCCCCCCCCCCCCCCCCCCCCCCCCCC(=O)[O-]
REMARK SMILES IDX 15 1 16 2 17 3 18 4 19 5 20 6 21 7 22 8 23 9 24 10 25 11
REMARK SMILES IDX 26 12 27 13 28 14 29 15 30 16 14 17 13 18 12 19 11 20 10 21
REMARK SMILES IDX 9 22 8 23 7 24 6 25 5 26 4 27 3 28 2 29 1 30
REMARK H PARENT
REMARK Flexibility Score: inf
ROOT
ATOM      1  C   UNL     1      -7.438   5.500  56.266  1.00  0.00     0.000 C 
ENDROOT
BRANCH   1   2
ATOM      2  C   UNL     1      -6.261   4.987  55.422  1.00  0.00     0.000 C 
BRANCH   2   3
ATOM      3  C   UNL     1      -6.561   3.636  54.748  1.00  0.00     0.000 C 
BRANCH   3   4
ATOM      4  C   UNL     1      -6.092   3.576  53.282  1.00  0.00     0.000 C 
BRANCH   4   5
ATOM      5  C   UNL     1      -7.173   3.175  52.258  1.00  0.00     0.000 C 
BRANCH   5   6
ATOM      6  C   UNL     1      -7.361   4.215  51.139  1.00  0.00     0.000 C 
BRANCH   6   7
ATOM      7  C   UNL     1      -7.719   5.613  51.672  1.00  0.00     0.000 C 
BRANCH   7   8
ATOM      8  C   UNL     1      -9.210   5.834  51.987  1.00  0.00     0.000 C 
BRANCH   8   9
ATOM      9  C   UNL     1      -9.503   5.903  53.496  1.00  0.00     0.000 C 
BRANCH   9  10
ATOM     10  C   UNL     1     -10.589   4.896  53.929  1.00  0.00     0.000 C 
BRANCH  10  11
ATOM     11  C   UNL     1     -11.043   3.950  52.806  1.00  0.00     0.000 C 
BRANCH  11  12
ATOM     12  C   UNL     1     -10.672   2.484  53.070  1.00  0.00     0.006 C 
BRANCH  12  13
ATOM     13  C   UNL     1     -10.056   2.314  54.463  1.00  0.00     0.053 C 
BRANCH  13  14
ATOM     14  C   UNL     1      -9.444   0.956  54.611  1.00  0.00     0.041 C 
ATOM     15  O   UNL     1      -8.453   0.785  55.371  1.00  0.00    -0.550 OA
ATOM     16  O   UNL     1      -9.986  -0.130  53.935  1.00  0.00    -0.550 OA
ENDBRANCH  13  14
ENDBRANCH  12  13
ENDBRANCH  11  12
ENDBRANCH  10  11
ENDBRANCH   9  10
ENDBRANCH   8   9
ENDBRANCH   7   8
ENDBRANCH   6   7
ENDBRANCH   5   6
ENDBRANCH   4   5
ENDBRANCH   3   4
ENDBRANCH   2   3
ENDBRANCH   1   2
BRANCH   1  17
ATOM     17  C   UNL     1      -8.156   4.382  57.036  1.00  0.00     0.000 C 
BRANCH  17  18
ATOM     18  C   UNL     1      -9.524   4.822  57.588  1.00  0.00     0.000 C 
BRANCH  18  19
ATOM     19  C   UNL     1      -9.999   3.993  58.801  1.00  0.00     0.000 C 
BRANCH  19  20
ATOM     20  C   UNL     1     -10.492   4.882  59.958  1.00  0.00     0.000 C 
BRANCH  20  21
ATOM     21  C   UNL     1      -9.544   4.835  61.175  1.00  0.00     0.000 C 
BRANCH  21  22
ATOM     22  C   UNL     1      -8.885   6.186  61.494  1.00  0.00    -0.000 C 
BRANCH  22  23
ATOM     23  C   UNL     1      -7.839   6.600  60.450  1.00  0.00    -0.000 C 
BRANCH  23  24
ATOM     24  C   UNL     1      -6.645   5.635  60.457  1.00  0.00    -0.000 C 
BRANCH  24  25
ATOM     25  C   UNL     1      -5.606   5.961  59.369  1.00  0.00    -0.000 C 
BRANCH  25  26
ATOM     26  C   UNL     1      -4.785   4.755  58.867  1.00  0.00    -0.000 C 
BRANCH  26  27
ATOM     27  C   UNL     1      -4.918   3.473  59.710  1.00  0.00    -0.000 C 
BRANCH  27  28
ATOM     28  C   UNL     1      -5.701   2.363  58.988  1.00  0.00    -0.000 C 
BRANCH  28  29
ATOM     29  C   UNL     1      -7.017   2.012  59.701  1.00  0.00    -0.003 C 
ATOM     30  C   UNL     1      -7.867   1.011  58.916  1.00  0.00     0.004 C 
ENDBRANCH  28  29
ENDBRANCH  27  28
ENDBRANCH  26  27
ENDBRANCH  25  26
ENDBRANCH  24  25
ENDBRANCH  23  24
ENDBRANCH  22  23
ENDBRANCH  21  22
ENDBRANCH  20  21
ENDBRANCH  19  20
ENDBRANCH  18  19
ENDBRANCH  17  18
ENDBRANCH   1  17
TORSDOF 26
ENDMDL
