MODEL 1
REMARK VINA RESULT:    -5.619      0.000      0.000
REMARK INTER + INTRA:         -17.577
REMARK INTER:                 -14.161
REMARK INTRA:                  -3.417
REMARK UNBOUND:                -3.417
REMARK SMILES CCCCCCCCCCCCCCCCCCCCCCCCCCCC(=O)[O-]
REMARK SMILES IDX 15 1 16 2 17 3 18 4 19 5 20 6 21 7 22 8 23 9 24 10 25 11
REMARK SMILES IDX 26 12 27 13 28 14 29 15 30 16 14 17 13 18 12 19 11 20 10 21
REMARK SMILES IDX 9 22 8 23 7 24 6 25 5 26 4 27 3 28 2 29 1 30
REMARK H PARENT
REMARK Flexibility Score: inf
ROOT
ATOM      1  C   UNL     1      -6.652 -14.503  26.589  1.00  0.00     0.000 C 
ENDROOT
BRANCH   1   2
ATOM      2  C   UNL     1      -5.889 -14.207  27.892  1.00  0.00     0.000 C 
BRANCH   2   3
ATOM      3  C   UNL     1      -6.759 -14.381  29.150  1.00  0.00     0.000 C 
BRANCH   3   4
ATOM      4  C   UNL     1      -6.043 -14.083  30.480  1.00  0.00     0.000 C 
BRANCH   4   5
ATOM      5  C   UNL     1      -6.878 -13.201  31.424  1.00  0.00     0.000 C 
BRANCH   5   6
ATOM      6  C   UNL     1      -6.137 -11.924  31.848  1.00  0.00     0.000 C 
BRANCH   6   7
ATOM      7  C   UNL     1      -5.131 -11.446  30.787  1.00  0.00     0.000 C 
BRANCH   7   8
ATOM      8  C   UNL     1      -3.761 -11.088  31.385  1.00  0.00     0.000 C 
BRANCH   8   9
ATOM      9  C   UNL     1      -2.591 -11.708  30.601  1.00  0.00     0.000 C 
BRANCH   9  10
ATOM     10  C   UNL     1      -3.036 -12.304  29.256  1.00  0.00     0.000 C 
BRANCH  10  11
ATOM     11  C   UNL     1      -2.486 -13.722  29.023  1.00  0.00     0.000 C 
BRANCH  11  12
ATOM     12  C   UNL     1      -1.878 -13.910  27.621  1.00  0.00     0.006 C 
BRANCH  12  13
ATOM     13  C   UNL     1      -2.058 -15.327  27.049  1.00  0.00     0.053 C 
BRANCH  13  14
ATOM     14  C   UNL     1      -1.186 -15.584  25.858  1.00  0.00     0.041 C 
ATOM     15  O   UNL     1      -1.051 -16.755  25.415  1.00  0.00    -0.550 OA
ATOM     16  O   UNL     1      -0.496 -14.538  25.257  1.00  0.00    -0.550 OA
ENDBRANCH  13  14
ENDBRANCH  12  13
ENDBRANCH  11  12
ENDBRANCH  10  11
ENDBRANCH   9  10
ENDBRANCH   8   9
ENDBRANCH   7   8
ENDBRANCH   6   7
ENDBRANCH   5   6
ENDBRANCH   4   5
ENDBRANCH   3   4
ENDBRANCH   2   3
ENDBRANCH   1   2
BRANCH   1  17
ATOM     17  C   UNL     1      -8.083 -15.015  26.855  1.00  0.00     0.000 C 
BRANCH  17  18
ATOM     18  C   UNL     1      -9.138 -14.417  25.907  1.00  0.00     0.000 C 
BRANCH  18  19
ATOM     19  C   UNL     1     -10.485 -15.154  25.974  1.00  0.00     0.000 C 
BRANCH  19  20
ATOM     20  C   UNL     1     -10.800 -15.680  27.384  1.00  0.00     0.000 C 
BRANCH  20  21
ATOM     21  C   UNL     1     -12.085 -16.522  27.427  1.00  0.00     0.000 C 
BRANCH  21  22
ATOM     22  C   UNL     1     -12.737 -16.451  28.815  1.00  0.00    -0.000 C 
BRANCH  22  23
ATOM     23  C   UNL     1     -12.619 -17.768  29.604  1.00  0.00    -0.000 C 
BRANCH  23  24
ATOM     24  C   UNL     1     -11.590 -18.775  29.050  1.00  0.00    -0.000 C 
BRANCH  24  25
ATOM     25  C   UNL     1     -10.220 -18.755  29.749  1.00  0.00    -0.000 C 
BRANCH  25  26
ATOM     26  C   UNL     1     -10.306 -19.106  31.243  1.00  0.00    -0.000 C 
BRANCH  26  27
ATOM     27  C   UNL     1     -10.175 -17.871  32.148  1.00  0.00    -0.000 C 
BRANCH  27  28
ATOM     28  C   UNL     1      -8.960 -17.002  31.789  1.00  0.00    -0.000 C 
BRANCH  28  29
ATOM     29  C   UNL     1      -9.383 -15.554  31.513  1.00  0.00    -0.003 C 
ATOM     30  C   UNL     1     -10.857 -15.338  31.847  1.00  0.00     0.004 C 
ENDBRANCH  28  29
ENDBRANCH  27  28
ENDBRANCH  26  27
ENDBRANCH  25  26
ENDBRANCH  24  25
ENDBRANCH  23  24
ENDBRANCH  22  23
ENDBRANCH  21  22
ENDBRANCH  20  21
ENDBRANCH  19  20
ENDBRANCH  18  19
ENDBRANCH  17  18
ENDBRANCH   1  17
TORSDOF 26
ENDMDL
MODEL 2
REMARK VINA RESULT:    -5.469      1.015      2.357
REMARK INTER + INTRA:         -17.199
REMARK INTER:                 -13.897
REMARK INTRA:                  -3.302
REMARK UNBOUND:                -3.417
REMARK SMILES CCCCCCCCCCCCCCCCCCCCCCCCCCCC(=O)[O-]
REMARK SMILES IDX 15 1 16 2 17 3 18 4 19 5 20 6 21 7 22 8 23 9 24 10 25 11
REMARK SMILES IDX 26 12 27 13 28 14 29 15 30 16 14 17 13 18 12 19 11 20 10 21
REMARK SMILES IDX 9 22 8 23 7 24 6 25 5 26 4 27 3 28 2 29 1 30
REMARK H PARENT
REMARK Flexibility Score: inf
ROOT
ATOM      1  C   UNL     1      -6.806 -14.138  29.149  1.00  0.00     0.000 C 
ENDROOT
BRANCH   1   2
ATOM      2  C   UNL     1      -6.103 -14.222  30.516  1.00  0.00     0.000 C 
BRANCH   2   3
ATOM      3  C   UNL     1      -6.722 -13.283  31.567  1.00  0.00     0.000 C 
BRANCH   3   4
ATOM      4  C   UNL     1      -6.260 -11.817  31.479  1.00  0.00     0.000 C 
BRANCH   4   5
ATOM      5  C   UNL     1      -5.091 -11.501  32.428  1.00  0.00     0.000 C 
BRANCH   5   6
ATOM      6  C   UNL     1      -3.726 -11.561  31.725  1.00  0.00     0.000 C 
BRANCH   6   7
ATOM      7  C   UNL     1      -3.793 -11.070  30.268  1.00  0.00     0.000 C 
BRANCH   7   8
ATOM      8  C   UNL     1      -3.345 -12.140  29.259  1.00  0.00     0.000 C 
BRANCH   8   9
ATOM      9  C   UNL     1      -2.224 -13.040  29.808  1.00  0.00     0.000 C 
BRANCH   9  10
ATOM     10  C   UNL     1      -1.789 -14.117  28.801  1.00  0.00     0.000 C 
BRANCH  10  11
ATOM     11  C   UNL     1      -1.828 -13.620  27.346  1.00  0.00     0.000 C 
BRANCH  11  12
ATOM     12  C   UNL     1      -2.540 -14.598  26.393  1.00  0.00     0.006 C 
BRANCH  12  13
ATOM     13  C   UNL     1      -1.714 -14.969  25.150  1.00  0.00     0.053 C 
BRANCH  13  14
ATOM     14  C   UNL     1      -0.867 -16.186  25.361  1.00  0.00     0.041 C 
ATOM     15  O   UNL     1      -1.218 -17.063  26.194  1.00  0.00    -0.550 OA
ATOM     16  O   UNL     1       0.327 -16.338  24.666  1.00  0.00    -0.550 OA
ENDBRANCH  13  14
ENDBRANCH  12  13
ENDBRANCH  11  12
ENDBRANCH  10  11
ENDBRANCH   9  10
ENDBRANCH   8   9
ENDBRANCH   7   8
ENDBRANCH   6   7
ENDBRANCH   5   6
ENDBRANCH   4   5
ENDBRANCH   3   4
ENDBRANCH   2   3
ENDBRANCH   1   2
BRANCH   1  17
ATOM     17  C   UNL     1      -5.886 -14.579  27.992  1.00  0.00     0.000 C 
BRANCH  17  18
ATOM     18  C   UNL     1      -6.586 -14.602  26.622  1.00  0.00     0.000 C 
BRANCH  18  19
ATOM     19  C   UNL     1      -8.001 -15.201  26.685  1.00  0.00     0.000 C 
BRANCH  19  20
ATOM     20  C   UNL     1      -9.029 -14.368  25.903  1.00  0.00     0.000 C 
BRANCH  20  21
ATOM     21  C   UNL     1     -10.450 -14.943  25.997  1.00  0.00     0.000 C 
BRANCH  21  22
ATOM     22  C   UNL     1     -10.638 -15.723  27.306  1.00  0.00    -0.000 C 
BRANCH  22  23
ATOM     23  C   UNL     1     -11.901 -16.604  27.308  1.00  0.00    -0.000 C 
BRANCH  23  24
ATOM     24  C   UNL     1     -12.848 -16.391  28.507  1.00  0.00    -0.000 C 
BRANCH  24  25
ATOM     25  C   UNL     1     -12.922 -17.570  29.493  1.00  0.00    -0.000 C 
BRANCH  25  26
ATOM     26  C   UNL     1     -12.986 -17.118  30.961  1.00  0.00    -0.000 C 
BRANCH  26  27
ATOM     27  C   UNL     1     -11.732 -16.343  31.395  1.00  0.00    -0.000 C 
BRANCH  27  28
ATOM     28  C   UNL     1     -10.538 -17.265  31.684  1.00  0.00    -0.000 C 
BRANCH  28  29
ATOM     29  C   UNL     1      -9.239 -16.674  31.121  1.00  0.00    -0.003 C 
ATOM     30  C   UNL     1      -8.063 -16.938  32.058  1.00  0.00     0.004 C 
ENDBRANCH  28  29
ENDBRANCH  27  28
ENDBRANCH  26  27
ENDBRANCH  25  26
ENDBRANCH  24  25
ENDBRANCH  23  24
ENDBRANCH  22  23
ENDBRANCH  21  22
ENDBRANCH  20  21
ENDBRANCH  19  20
ENDBRANCH  18  19
ENDBRANCH  17  18
ENDBRANCH   1  17
TORSDOF 26
ENDMDL
MODEL 3
REMARK VINA RESULT:    -5.417      1.225      2.348
REMARK INTER + INTRA:         -17.068
REMARK INTER:                 -13.171
REMARK INTRA:                  -3.897
REMARK UNBOUND:                -3.417
REMARK SMILES CCCCCCCCCCCCCCCCCCCCCCCCCCCC(=O)[O-]
REMARK SMILES IDX 15 1 16 2 17 3 18 4 19 5 20 6 21 7 22 8 23 9 24 10 25 11
REMARK SMILES IDX 26 12 27 13 28 14 29 15 30 16 14 17 13 18 12 19 11 20 10 21
REMARK SMILES IDX 9 22 8 23 7 24 6 25 5 26 4 27 3 28 2 29 1 30
REMARK H PARENT
REMARK Flexibility Score: inf
ROOT
ATOM      1  C   UNL     1      -8.560 -15.129  27.100  1.00  0.00     0.000 C 
ENDROOT
BRANCH   1   2
ATOM      2  C   UNL     1      -7.221 -14.889  26.379  1.00  0.00     0.000 C 
BRANCH   2   3
ATOM      3  C   UNL     1      -6.087 -14.484  27.339  1.00  0.00     0.000 C 
BRANCH   3   4
ATOM      4  C   UNL     1      -6.535 -14.175  28.778  1.00  0.00     0.000 C 
BRANCH   4   5
ATOM      5  C   UNL     1      -5.410 -13.572  29.637  1.00  0.00     0.000 C 
BRANCH   5   6
ATOM      6  C   UNL     1      -5.700 -12.123  30.057  1.00  0.00     0.000 C 
BRANCH   6   7
ATOM      7  C   UNL     1      -5.316 -11.847  31.522  1.00  0.00     0.000 C 
BRANCH   7   8
ATOM      8  C   UNL     1      -3.833 -11.475  31.688  1.00  0.00     0.000 C 
BRANCH   8   9
ATOM      9  C   UNL     1      -3.260 -10.762  30.451  1.00  0.00     0.000 C 
BRANCH   9  10
ATOM     10  C   UNL     1      -1.818 -11.194  30.140  1.00  0.00     0.000 C 
BRANCH  10  11
ATOM     11  C   UNL     1      -1.591 -12.701  30.346  1.00  0.00     0.000 C 
BRANCH  11  12
ATOM     12  C   UNL     1      -1.993 -13.545  29.122  1.00  0.00     0.006 C 
BRANCH  12  13
ATOM     13  C   UNL     1      -1.815 -12.817  27.778  1.00  0.00     0.053 C 
BRANCH  13  14
ATOM     14  C   UNL     1      -0.571 -13.236  27.055  1.00  0.00     0.041 C 
ATOM     15  O   UNL     1       0.561 -12.959  27.534  1.00  0.00    -0.550 OA
ATOM     16  O   UNL     1      -0.658 -13.899  25.837  1.00  0.00    -0.550 OA
ENDBRANCH  13  14
ENDBRANCH  12  13
ENDBRANCH  11  12
ENDBRANCH  10  11
ENDBRANCH   9  10
ENDBRANCH   8   9
ENDBRANCH   7   8
ENDBRANCH   6   7
ENDBRANCH   5   6
ENDBRANCH   4   5
ENDBRANCH   3   4
ENDBRANCH   2   3
ENDBRANCH   1   2
BRANCH   1  17
ATOM     17  C   UNL     1      -9.770 -14.935  26.163  1.00  0.00     0.000 C 
BRANCH  17  18
ATOM     18  C   UNL     1     -11.044 -15.648  26.647  1.00  0.00     0.000 C 
BRANCH  18  19
ATOM     19  C   UNL     1     -10.974 -16.056  28.127  1.00  0.00     0.000 C 
BRANCH  19  20
ATOM     20  C   UNL     1     -12.359 -16.368  28.719  1.00  0.00     0.000 C 
BRANCH  20  21
ATOM     21  C   UNL     1     -12.456 -17.799  29.271  1.00  0.00     0.000 C 
BRANCH  21  22
ATOM     22  C   UNL     1     -11.166 -18.582  28.989  1.00  0.00    -0.000 C 
BRANCH  22  23
ATOM     23  C   UNL     1     -10.390 -18.946  30.269  1.00  0.00    -0.000 C 
BRANCH  23  24
ATOM     24  C   UNL     1     -11.150 -18.698  31.589  1.00  0.00    -0.000 C 
BRANCH  24  25
ATOM     25  C   UNL     1     -10.491 -17.679  32.535  1.00  0.00    -0.000 C 
BRANCH  25  26
ATOM     26  C   UNL     1     -11.293 -16.372  32.656  1.00  0.00    -0.000 C 
BRANCH  26  27
ATOM     27  C   UNL     1     -10.672 -15.222  31.849  1.00  0.00    -0.000 C 
BRANCH  27  28
ATOM     28  C   UNL     1      -9.224 -15.513  31.423  1.00  0.00    -0.000 C 
BRANCH  28  29
ATOM     29  C   UNL     1      -8.275 -14.417  31.921  1.00  0.00    -0.003 C 
ATOM     30  C   UNL     1      -6.989 -15.017  32.484  1.00  0.00     0.004 C 
ENDBRANCH  28  29
ENDBRANCH  27  28
ENDBRANCH  26  27
ENDBRANCH  25  26
ENDBRANCH  24  25
ENDBRANCH  23  24
ENDBRANCH  22  23
ENDBRANCH  21  22
ENDBRANCH  20  21
ENDBRANCH  19  20
ENDBRANCH  18  19
ENDBRANCH  17  18
ENDBRANCH   1  17
TORSDOF 26
ENDMDL
MODEL 4
REMARK VINA RESULT:    -5.399      0.825      3.778
REMARK INTER + INTRA:         -17.021
REMARK INTER:                 -13.657
REMARK INTRA:                  -3.364
REMARK UNBOUND:                -3.417
REMARK SMILES CCCCCCCCCCCCCCCCCCCCCCCCCCCC(=O)[O-]
REMARK SMILES IDX 15 1 16 2 17 3 18 4 19 5 20 6 21 7 22 8 23 9 24 10 25 11
REMARK SMILES IDX 26 12 27 13 28 14 29 15 30 16 14 17 13 18 12 19 11 20 10 21
REMARK SMILES IDX 9 22 8 23 7 24 6 25 5 26 4 27 3 28 2 29 1 30
REMARK H PARENT
REMARK Flexibility Score: inf
ROOT
ATOM      1  C   UNL     1      -8.615 -14.849  31.440  1.00  0.00     0.000 C 
ENDROOT
BRANCH   1   2
ATOM      2  C   UNL     1      -7.258 -15.226  32.061  1.00  0.00     0.000 C 
BRANCH   2   3
ATOM      3  C   UNL     1      -6.350 -14.006  32.305  1.00  0.00     0.000 C 
BRANCH   3   4
ATOM      4  C   UNL     1      -7.019 -12.641  32.060  1.00  0.00     0.000 C 
BRANCH   4   5
ATOM      5  C   UNL     1      -6.013 -11.547  31.662  1.00  0.00     0.000 C 
BRANCH   5   6
ATOM      6  C   UNL     1      -4.781 -11.514  32.580  1.00  0.00     0.000 C 
BRANCH   6   7
ATOM      7  C   UNL     1      -3.510 -11.058  31.842  1.00  0.00     0.000 C 
BRANCH   7   8
ATOM      8  C   UNL     1      -2.942 -12.141  30.912  1.00  0.00     0.000 C 
BRANCH   8   9
ATOM      9  C   UNL     1      -3.148 -11.812  29.423  1.00  0.00     0.000 C 
BRANCH   9  10
ATOM     10  C   UNL     1      -2.570 -12.894  28.497  1.00  0.00     0.000 C 
BRANCH  10  11
ATOM     11  C   UNL     1      -3.109 -14.299  28.816  1.00  0.00     0.000 C 
BRANCH  11  12
ATOM     12  C   UNL     1      -2.857 -15.313  27.685  1.00  0.00     0.006 C 
BRANCH  12  13
ATOM     13  C   UNL     1      -2.489 -14.667  26.338  1.00  0.00     0.053 C 
BRANCH  13  14
ATOM     14  C   UNL     1      -1.193 -15.178  25.788  1.00  0.00     0.041 C 
ATOM     15  O   UNL     1      -0.834 -16.364  26.014  1.00  0.00    -0.550 OA
ATOM     16  O   UNL     1      -0.363 -14.337  25.055  1.00  0.00    -0.550 OA
ENDBRANCH  13  14
ENDBRANCH  12  13
ENDBRANCH  11  12
ENDBRANCH  10  11
ENDBRANCH   9  10
ENDBRANCH   8   9
ENDBRANCH   7   8
ENDBRANCH   6   7
ENDBRANCH   5   6
ENDBRANCH   4   5
ENDBRANCH   3   4
ENDBRANCH   2   3
ENDBRANCH   1   2
BRANCH   1  17
ATOM     17  C   UNL     1      -9.353 -16.075  30.863  1.00  0.00     0.000 C 
BRANCH  17  18
ATOM     18  C   UNL     1      -9.514 -17.227  31.869  1.00  0.00     0.000 C 
BRANCH  18  19
ATOM     19  C   UNL     1     -10.456 -18.332  31.365  1.00  0.00     0.000 C 
BRANCH  19  20
ATOM     20  C   UNL     1     -10.138 -18.766  29.925  1.00  0.00     0.000 C 
BRANCH  20  21
ATOM     21  C   UNL     1     -11.376 -18.748  29.015  1.00  0.00     0.000 C 
BRANCH  21  22
ATOM     22  C   UNL     1     -12.461 -17.824  29.586  1.00  0.00    -0.000 C 
BRANCH  22  23
ATOM     23  C   UNL     1     -12.497 -16.444  28.905  1.00  0.00    -0.000 C 
BRANCH  23  24
ATOM     24  C   UNL     1     -11.891 -16.397  27.487  1.00  0.00    -0.000 C 
BRANCH  24  25
ATOM     25  C   UNL     1     -10.531 -15.685  27.385  1.00  0.00    -0.000 C 
BRANCH  25  26
ATOM     26  C   UNL     1     -10.327 -14.978  26.035  1.00  0.00    -0.000 C 
BRANCH  26  27
ATOM     27  C   UNL     1      -8.912 -14.400  25.879  1.00  0.00    -0.000 C 
BRANCH  27  28
ATOM     28  C   UNL     1      -7.830 -15.318  26.470  1.00  0.00    -0.000 C 
BRANCH  28  29
ATOM     29  C   UNL     1      -6.608 -14.509  26.919  1.00  0.00    -0.003 C 
ATOM     30  C   UNL     1      -6.656 -14.226  28.418  1.00  0.00     0.004 C 
ENDBRANCH  28  29
ENDBRANCH  27  28
ENDBRANCH  26  27
ENDBRANCH  25  26
ENDBRANCH  24  25
ENDBRANCH  23  24
ENDBRANCH  22  23
ENDBRANCH  21  22
ENDBRANCH  20  21
ENDBRANCH  19  20
ENDBRANCH  18  19
ENDBRANCH  17  18
ENDBRANCH   1  17
TORSDOF 26
ENDMDL
MODEL 5
REMARK VINA RESULT:    -5.342      1.926      4.358
REMARK INTER + INTRA:         -16.879
REMARK INTER:                 -14.001
REMARK INTRA:                  -2.878
REMARK UNBOUND:                -3.417
REMARK SMILES CCCCCCCCCCCCCCCCCCCCCCCCCCCC(=O)[O-]
REMARK SMILES IDX 15 1 16 2 17 3 18 4 19 5 20 6 21 7 22 8 23 9 24 10 25 11
REMARK SMILES IDX 26 12 27 13 28 14 29 15 30 16 14 17 13 18 12 19 11 20 10 21
REMARK SMILES IDX 9 22 8 23 7 24 6 25 5 26 4 27 3 28 2 29 1 30
REMARK H PARENT
REMARK Flexibility Score: inf
ROOT
ATOM      1  C   UNL     1      -9.644 -15.021  31.713  1.00  0.00     0.000 C 
ENDROOT
BRANCH   1   2
ATOM      2  C   UNL     1      -8.374 -14.165  31.866  1.00  0.00     0.000 C 
BRANCH   2   3
ATOM      3  C   UNL     1      -7.174 -14.726  31.083  1.00  0.00     0.000 C 
BRANCH   3   4
ATOM      4  C   UNL     1      -6.078 -13.697  30.751  1.00  0.00     0.000 C 
BRANCH   4   5
ATOM      5  C   UNL     1      -6.537 -12.245  30.968  1.00  0.00     0.000 C 
BRANCH   5   6
ATOM      6  C   UNL     1      -5.710 -11.518  32.040  1.00  0.00     0.000 C 
BRANCH   6   7
ATOM      7  C   UNL     1      -4.255 -11.282  31.600  1.00  0.00     0.000 C 
BRANCH   7   8
ATOM      8  C   UNL     1      -3.282 -11.199  32.787  1.00  0.00     0.000 C 
BRANCH   8   9
ATOM      9  C   UNL     1      -1.983 -10.450  32.438  1.00  0.00     0.000 C 
BRANCH   9  10
ATOM     10  C   UNL     1      -0.728 -11.192  32.925  1.00  0.00     0.000 C 
BRANCH  10  11
ATOM     11  C   UNL     1      -0.641 -12.629  32.385  1.00  0.00     0.000 C 
BRANCH  11  12
ATOM     12  C   UNL     1      -0.242 -12.692  30.899  1.00  0.00     0.006 C 
BRANCH  12  13
ATOM     13  C   UNL     1      -1.037 -13.726  30.083  1.00  0.00     0.053 C 
BRANCH  13  14
ATOM     14  C   UNL     1      -2.106 -13.099  29.241  1.00  0.00     0.041 C 
ATOM     15  O   UNL     1      -2.022 -11.885  28.915  1.00  0.00    -0.550 OA
ATOM     16  O   UNL     1      -3.212 -13.841  28.846  1.00  0.00    -0.550 OA
ENDBRANCH  13  14
ENDBRANCH  12  13
ENDBRANCH  11  12
ENDBRANCH  10  11
ENDBRANCH   9  10
ENDBRANCH   8   9
ENDBRANCH   7   8
ENDBRANCH   6   7
ENDBRANCH   5   6
ENDBRANCH   4   5
ENDBRANCH   3   4
ENDBRANCH   2   3
ENDBRANCH   1   2
BRANCH   1  17
ATOM     17  C   UNL     1      -9.369 -16.344  30.969  1.00  0.00     0.000 C 
BRANCH  17  18
ATOM     18  C   UNL     1      -9.392 -17.582  31.883  1.00  0.00     0.000 C 
BRANCH  18  19
ATOM     19  C   UNL     1     -10.008 -18.815  31.202  1.00  0.00     0.000 C 
BRANCH  19  20
ATOM     20  C   UNL     1     -10.758 -18.460  29.907  1.00  0.00     0.000 C 
BRANCH  20  21
ATOM     21  C   UNL     1     -12.281 -18.599  30.050  1.00  0.00     0.000 C 
BRANCH  21  22
ATOM     22  C   UNL     1     -12.903 -17.293  30.565  1.00  0.00    -0.000 C 
BRANCH  22  23
ATOM     23  C   UNL     1     -12.760 -16.125  29.572  1.00  0.00    -0.000 C 
BRANCH  23  24
ATOM     24  C   UNL     1     -13.378 -16.367  28.180  1.00  0.00    -0.000 C 
BRANCH  24  25
ATOM     25  C   UNL     1     -12.543 -15.844  26.998  1.00  0.00    -0.000 C 
BRANCH  25  26
ATOM     26  C   UNL     1     -11.030 -16.020  27.212  1.00  0.00    -0.000 C 
BRANCH  26  27
ATOM     27  C   UNL     1     -10.194 -15.179  26.234  1.00  0.00    -0.000 C 
BRANCH  27  28
ATOM     28  C   UNL     1      -8.717 -15.088  26.647  1.00  0.00    -0.000 C 
BRANCH  28  29
ATOM     29  C   UNL     1      -8.031 -13.895  25.972  1.00  0.00    -0.003 C 
ATOM     30  C   UNL     1      -9.020 -13.097  25.127  1.00  0.00     0.004 C 
ENDBRANCH  28  29
ENDBRANCH  27  28
ENDBRANCH  26  27
ENDBRANCH  25  26
ENDBRANCH  24  25
ENDBRANCH  23  24
ENDBRANCH  22  23
ENDBRANCH  21  22
ENDBRANCH  20  21
ENDBRANCH  19  20
ENDBRANCH  18  19
ENDBRANCH  17  18
ENDBRANCH   1  17
TORSDOF 26
ENDMDL
MODEL 6
REMARK VINA RESULT:    -5.318      3.365      9.031
REMARK INTER + INTRA:         -16.819
REMARK INTER:                 -13.682
REMARK INTRA:                  -3.137
REMARK UNBOUND:                -3.417
REMARK SMILES CCCCCCCCCCCCCCCCCCCCCCCCCCCC(=O)[O-]
REMARK SMILES IDX 15 1 16 2 17 3 18 4 19 5 20 6 21 7 22 8 23 9 24 10 25 11
REMARK SMILES IDX 26 12 27 13 28 14 29 15 30 16 14 17 13 18 12 19 11 20 10 21
REMARK SMILES IDX 9 22 8 23 7 24 6 25 5 26 4 27 3 28 2 29 1 30
REMARK H PARENT
REMARK Flexibility Score: inf
ROOT
ATOM      1  C   UNL     1      -7.127 -14.490  29.153  1.00  0.00     0.000 C 
ENDROOT
BRANCH   1   2
ATOM      2  C   UNL     1      -5.936 -14.463  28.178  1.00  0.00     0.000 C 
BRANCH   2   3
ATOM      3  C   UNL     1      -6.361 -14.614  26.706  1.00  0.00     0.000 C 
BRANCH   3   4
ATOM      4  C   UNL     1      -7.785 -15.160  26.496  1.00  0.00     0.000 C 
BRANCH   4   5
ATOM      5  C   UNL     1      -8.697 -14.176  25.742  1.00  0.00     0.000 C 
BRANCH   5   6
ATOM      6  C   UNL     1     -10.184 -14.543  25.856  1.00  0.00     0.000 C 
BRANCH   6   7
ATOM      7  C   UNL     1     -10.437 -15.667  26.876  1.00  0.00     0.000 C 
BRANCH   7   8
ATOM      8  C   UNL     1     -11.928 -16.009  27.026  1.00  0.00     0.000 C 
BRANCH   8   9
ATOM      9  C   UNL     1     -12.195 -17.009  28.164  1.00  0.00     0.000 C 
BRANCH   9  10
ATOM     10  C   UNL     1     -10.899 -17.531  28.804  1.00  0.00     0.000 C 
BRANCH  10  11
ATOM     11  C   UNL     1     -11.135 -18.185  30.176  1.00  0.00     0.000 C 
BRANCH  11  12
ATOM     12  C   UNL     1      -9.838 -18.384  30.981  1.00  0.00     0.006 C 
BRANCH  12  13
ATOM     13  C   UNL     1      -9.546 -17.254  31.983  1.00  0.00     0.053 C 
BRANCH  13  14
ATOM     14  C   UNL     1     -10.754 -16.422  32.284  1.00  0.00     0.041 C 
ATOM     15  O   UNL     1     -11.576 -16.795  33.162  1.00  0.00    -0.550 OA
ATOM     16  O   UNL     1     -10.995 -15.253  31.570  1.00  0.00    -0.550 OA
ENDBRANCH  13  14
ENDBRANCH  12  13
ENDBRANCH  11  12
ENDBRANCH  10  11
ENDBRANCH   9  10
ENDBRANCH   8   9
ENDBRANCH   7   8
ENDBRANCH   6   7
ENDBRANCH   5   6
ENDBRANCH   4   5
ENDBRANCH   3   4
ENDBRANCH   2   3
ENDBRANCH   1   2
BRANCH   1  17
ATOM     17  C   UNL     1      -6.682 -14.725  30.611  1.00  0.00     0.000 C 
BRANCH  17  18
ATOM     18  C   UNL     1      -7.632 -14.106  31.652  1.00  0.00     0.000 C 
BRANCH  18  19
ATOM     19  C   UNL     1      -6.917 -13.140  32.611  1.00  0.00     0.000 C 
BRANCH  19  20
ATOM     20  C   UNL     1      -6.228 -11.980  31.874  1.00  0.00     0.000 C 
BRANCH  20  21
ATOM     21  C   UNL     1      -4.798 -11.728  32.375  1.00  0.00     0.000 C 
BRANCH  21  22
ATOM     22  C   UNL     1      -3.953 -11.040  31.294  1.00  0.00    -0.000 C 
BRANCH  22  23
ATOM     23  C   UNL     1      -4.343 -11.461  29.865  1.00  0.00    -0.000 C 
BRANCH  23  24
ATOM     24  C   UNL     1      -3.242 -12.197  29.074  1.00  0.00    -0.000 C 
BRANCH  24  25
ATOM     25  C   UNL     1      -2.779 -13.528  29.691  1.00  0.00    -0.000 C 
BRANCH  25  26
ATOM     26  C   UNL     1      -1.296 -13.514  30.099  1.00  0.00    -0.000 C 
BRANCH  26  27
ATOM     27  C   UNL     1      -0.420 -14.369  29.170  1.00  0.00    -0.000 C 
BRANCH  27  28
ATOM     28  C   UNL     1      -1.237 -15.097  28.092  1.00  0.00    -0.000 C 
BRANCH  28  29
ATOM     29  C   UNL     1      -0.906 -14.560  26.695  1.00  0.00    -0.003 C 
ATOM     30  C   UNL     1      -2.117 -14.650  25.770  1.00  0.00     0.004 C 
ENDBRANCH  28  29
ENDBRANCH  27  28
ENDBRANCH  26  27
ENDBRANCH  25  26
ENDBRANCH  24  25
ENDBRANCH  23  24
ENDBRANCH  22  23
ENDBRANCH  21  22
ENDBRANCH  20  21
ENDBRANCH  19  20
ENDBRANCH  18  19
ENDBRANCH  17  18
ENDBRANCH   1  17
TORSDOF 26
ENDMDL
MODEL 7
REMARK VINA RESULT:    -5.317      1.517      2.468
REMARK INTER + INTRA:         -16.816
REMARK INTER:                 -13.499
REMARK INTRA:                  -3.317
REMARK UNBOUND:                -3.417
REMARK SMILES CCCCCCCCCCCCCCCCCCCCCCCCCCCC(=O)[O-]
REMARK SMILES IDX 15 1 16 2 17 3 18 4 19 5 20 6 21 7 22 8 23 9 24 10 25 11
REMARK SMILES IDX 26 12 27 13 28 14 29 15 30 16 14 17 13 18 12 19 11 20 10 21
REMARK SMILES IDX 9 22 8 23 7 24 6 25 5 26 4 27 3 28 2 29 1 30
REMARK H PARENT
REMARK Flexibility Score: inf
ROOT
ATOM      1  C   UNL     1      -8.023 -15.160  26.331  1.00  0.00     0.000 C 
ENDROOT
BRANCH   1   2
ATOM      2  C   UNL     1      -7.300 -14.371  27.437  1.00  0.00     0.000 C 
BRANCH   2   3
ATOM      3  C   UNL     1      -5.793 -14.676  27.504  1.00  0.00     0.000 C 
BRANCH   3   4
ATOM      4  C   UNL     1      -5.151 -14.473  28.889  1.00  0.00     0.000 C 
BRANCH   4   5
ATOM      5  C   UNL     1      -5.331 -13.043  29.426  1.00  0.00     0.000 C 
BRANCH   5   6
ATOM      6  C   UNL     1      -4.070 -12.183  29.252  1.00  0.00     0.000 C 
BRANCH   6   7
ATOM      7  C   UNL     1      -2.794 -12.910  29.714  1.00  0.00     0.000 C 
BRANCH   7   8
ATOM      8  C   UNL     1      -1.660 -12.833  28.680  1.00  0.00     0.000 C 
BRANCH   8   9
ATOM      9  C   UNL     1      -0.898 -14.162  28.537  1.00  0.00     0.000 C 
BRANCH   9  10
ATOM     10  C   UNL     1      -1.616 -15.155  27.609  1.00  0.00     0.000 C 
BRANCH  10  11
ATOM     11  C   UNL     1      -2.293 -14.466  26.413  1.00  0.00     0.000 C 
BRANCH  11  12
ATOM     12  C   UNL     1      -1.638 -14.816  25.064  1.00  0.00     0.006 C 
BRANCH  12  13
ATOM     13  C   UNL     1      -0.267 -15.501  25.197  1.00  0.00     0.053 C 
BRANCH  13  14
ATOM     14  C   UNL     1       0.873 -14.530  25.137  1.00  0.00     0.041 C 
ATOM     15  O   UNL     1       0.673 -13.345  24.761  1.00  0.00    -0.550 OA
ATOM     16  O   UNL     1       2.160 -14.941  25.461  1.00  0.00    -0.550 OA
ENDBRANCH  13  14
ENDBRANCH  12  13
ENDBRANCH  11  12
ENDBRANCH  10  11
ENDBRANCH   9  10
ENDBRANCH   8   9
ENDBRANCH   7   8
ENDBRANCH   6   7
ENDBRANCH   5   6
ENDBRANCH   4   5
ENDBRANCH   3   4
ENDBRANCH   2   3
ENDBRANCH   1   2
BRANCH   1  17
ATOM     17  C   UNL     1      -9.337 -14.479  25.893  1.00  0.00     0.000 C 
BRANCH  17  18
ATOM     18  C   UNL     1     -10.598 -15.285  26.252  1.00  0.00     0.000 C 
BRANCH  18  19
ATOM     19  C   UNL     1     -10.469 -16.028  27.591  1.00  0.00     0.000 C 
BRANCH  19  20
ATOM     20  C   UNL     1     -11.695 -16.903  27.900  1.00  0.00     0.000 C 
BRANCH  20  21
ATOM     21  C   UNL     1     -12.676 -16.223  28.869  1.00  0.00     0.000 C 
BRANCH  21  22
ATOM     22  C   UNL     1     -13.389 -17.264  29.743  1.00  0.00    -0.000 C 
BRANCH  22  23
ATOM     23  C   UNL     1     -12.827 -17.337  31.175  1.00  0.00    -0.000 C 
BRANCH  23  24
ATOM     24  C   UNL     1     -12.451 -18.752  31.661  1.00  0.00    -0.000 C 
BRANCH  24  25
ATOM     25  C   UNL     1     -11.024 -18.889  32.219  1.00  0.00    -0.000 C 
BRANCH  25  26
ATOM     26  C   UNL     1      -9.943 -18.508  31.194  1.00  0.00    -0.000 C 
BRANCH  26  27
ATOM     27  C   UNL     1      -9.019 -17.389  31.699  1.00  0.00    -0.000 C 
BRANCH  27  28
ATOM     28  C   UNL     1      -9.344 -16.026  31.069  1.00  0.00    -0.000 C 
BRANCH  28  29
ATOM     29  C   UNL     1      -8.122 -15.099  31.104  1.00  0.00    -0.003 C 
ATOM     30  C   UNL     1      -6.978 -15.727  31.896  1.00  0.00     0.004 C 
ENDBRANCH  28  29
ENDBRANCH  27  28
ENDBRANCH  26  27
ENDBRANCH  25  26
ENDBRANCH  24  25
ENDBRANCH  23  24
ENDBRANCH  22  23
ENDBRANCH  21  22
ENDBRANCH  20  21
ENDBRANCH  19  20
ENDBRANCH  18  19
ENDBRANCH  17  18
ENDBRANCH   1  17
TORSDOF 26
ENDMDL
MODEL 8
REMARK VINA RESULT:    -5.302      1.578      3.456
REMARK INTER + INTRA:         -16.778
REMARK INTER:                 -13.794
REMARK INTRA:                  -2.985
REMARK UNBOUND:                -3.417
REMARK SMILES CCCCCCCCCCCCCCCCCCCCCCCCCCCC(=O)[O-]
REMARK SMILES IDX 15 1 16 2 17 3 18 4 19 5 20 6 21 7 22 8 23 9 24 10 25 11
REMARK SMILES IDX 26 12 27 13 28 14 29 15 30 16 14 17 13 18 12 19 11 20 10 21
REMARK SMILES IDX 9 22 8 23 7 24 6 25 5 26 4 27 3 28 2 29 1 30
REMARK H PARENT
REMARK Flexibility Score: inf
ROOT
ATOM      1  C   UNL     1      -9.715 -15.256  26.869  1.00  0.00     0.000 C 
ENDROOT
BRANCH   1   2
ATOM      2  C   UNL     1      -8.682 -14.913  25.781  1.00  0.00     0.000 C 
BRANCH   2   3
ATOM      3  C   UNL     1      -7.594 -13.940  26.273  1.00  0.00     0.000 C 
BRANCH   3   4
ATOM      4  C   UNL     1      -6.396 -14.606  26.972  1.00  0.00     0.000 C 
BRANCH   4   5
ATOM      5  C   UNL     1      -6.407 -14.406  28.497  1.00  0.00     0.000 C 
BRANCH   5   6
ATOM      6  C   UNL     1      -5.033 -14.657  29.136  1.00  0.00     0.000 C 
BRANCH   6   7
ATOM      7  C   UNL     1      -4.051 -13.497  28.894  1.00  0.00     0.000 C 
BRANCH   7   8
ATOM      8  C   UNL     1      -2.585 -13.957  28.858  1.00  0.00     0.000 C 
BRANCH   8   9
ATOM      9  C   UNL     1      -1.905 -13.664  27.509  1.00  0.00     0.000 C 
BRANCH   9  10
ATOM     10  C   UNL     1      -2.523 -14.466  26.353  1.00  0.00     0.000 C 
BRANCH  10  11
ATOM     11  C   UNL     1      -1.493 -14.842  25.274  1.00  0.00     0.000 C 
BRANCH  11  12
ATOM     12  C   UNL     1      -0.852 -16.223  25.506  1.00  0.00     0.006 C 
BRANCH  12  13
ATOM     13  C   UNL     1      -0.529 -16.987  24.211  1.00  0.00     0.053 C 
BRANCH  13  14
ATOM     14  C   UNL     1      -0.256 -18.440  24.450  1.00  0.00     0.041 C 
ATOM     15  O   UNL     1       0.387 -18.802  25.471  1.00  0.00    -0.550 OA
ATOM     16  O   UNL     1      -0.679 -19.393  23.531  1.00  0.00    -0.550 OA
ENDBRANCH  13  14
ENDBRANCH  12  13
ENDBRANCH  11  12
ENDBRANCH  10  11
ENDBRANCH   9  10
ENDBRANCH   8   9
ENDBRANCH   7   8
ENDBRANCH   6   7
ENDBRANCH   5   6
ENDBRANCH   4   5
ENDBRANCH   3   4
ENDBRANCH   2   3
ENDBRANCH   1   2
BRANCH   1  17
ATOM     17  C   UNL     1     -11.124 -15.486  26.284  1.00  0.00     0.000 C 
BRANCH  17  18
ATOM     18  C   UNL     1     -12.049 -16.301  27.204  1.00  0.00     0.000 C 
BRANCH  18  19
ATOM     19  C   UNL     1     -11.352 -16.758  28.496  1.00  0.00     0.000 C 
BRANCH  19  20
ATOM     20  C   UNL     1     -11.617 -18.239  28.816  1.00  0.00     0.000 C 
BRANCH  20  21
ATOM     21  C   UNL     1     -12.861 -18.439  29.695  1.00  0.00     0.000 C 
BRANCH  21  22
ATOM     22  C   UNL     1     -12.582 -18.012  31.143  1.00  0.00    -0.000 C 
BRANCH  22  23
ATOM     23  C   UNL     1     -11.350 -18.709  31.750  1.00  0.00    -0.000 C 
BRANCH  23  24
ATOM     24  C   UNL     1     -10.386 -17.783  32.520  1.00  0.00    -0.000 C 
BRANCH  24  25
ATOM     25  C   UNL     1     -10.536 -16.284  32.207  1.00  0.00    -0.000 C 
BRANCH  25  26
ATOM     26  C   UNL     1      -9.415 -15.747  31.302  1.00  0.00    -0.000 C 
BRANCH  26  27
ATOM     27  C   UNL     1      -8.034 -16.306  31.677  1.00  0.00    -0.000 C 
BRANCH  27  28
ATOM     28  C   UNL     1      -7.072 -15.217  32.178  1.00  0.00    -0.000 C 
BRANCH  28  29
ATOM     29  C   UNL     1      -7.664 -13.819  31.959  1.00  0.00    -0.003 C 
ATOM     30  C   UNL     1      -6.569 -12.756  31.937  1.00  0.00     0.004 C 
ENDBRANCH  28  29
ENDBRANCH  27  28
ENDBRANCH  26  27
ENDBRANCH  25  26
ENDBRANCH  24  25
ENDBRANCH  23  24
ENDBRANCH  22  23
ENDBRANCH  21  22
ENDBRANCH  20  21
ENDBRANCH  19  20
ENDBRANCH  18  19
ENDBRANCH  17  18
ENDBRANCH   1  17
TORSDOF 26
ENDMDL
MODEL 9
REMARK VINA RESULT:    -5.279      2.299      7.646
REMARK INTER + INTRA:         -16.721
REMARK INTER:                 -13.523
REMARK INTRA:                  -3.198
REMARK UNBOUND:                -3.417
REMARK SMILES CCCCCCCCCCCCCCCCCCCCCCCCCCCC(=O)[O-]
REMARK SMILES IDX 15 1 16 2 17 3 18 4 19 5 20 6 21 7 22 8 23 9 24 10 25 11
REMARK SMILES IDX 26 12 27 13 28 14 29 15 30 16 14 17 13 18 12 19 11 20 10 21
REMARK SMILES IDX 9 22 8 23 7 24 6 25 5 26 4 27 3 28 2 29 1 30
REMARK H PARENT
REMARK Flexibility Score: inf
ROOT
ATOM      1  C   UNL     1     -11.967 -16.374  27.580  1.00  0.00     0.000 C 
ENDROOT
BRANCH   1   2
ATOM      2  C   UNL     1     -12.286 -16.189  29.074  1.00  0.00     0.000 C 
BRANCH   2   3
ATOM      3  C   UNL     1     -13.169 -17.315  29.643  1.00  0.00     0.000 C 
BRANCH   3   4
ATOM      4  C   UNL     1     -12.562 -18.073  30.839  1.00  0.00     0.000 C 
BRANCH   4   5
ATOM      5  C   UNL     1     -11.028 -18.163  30.772  1.00  0.00     0.000 C 
BRANCH   5   6
ATOM      6  C   UNL     1     -10.353 -17.724  32.081  1.00  0.00     0.000 C 
BRANCH   6   7
ATOM      7  C   UNL     1      -8.997 -17.036  31.841  1.00  0.00     0.000 C 
BRANCH   7   8
ATOM      8  C   UNL     1      -9.048 -16.003  30.704  1.00  0.00     0.000 C 
BRANCH   8   9
ATOM      9  C   UNL     1      -7.817 -15.080  30.685  1.00  0.00     0.000 C 
BRANCH   9  10
ATOM     10  C   UNL     1      -7.330 -14.722  32.098  1.00  0.00     0.000 C 
BRANCH  10  11
ATOM     11  C   UNL     1      -6.858 -13.262  32.211  1.00  0.00     0.000 C 
BRANCH  11  12
ATOM     12  C   UNL     1      -6.307 -12.702  30.887  1.00  0.00     0.006 C 
BRANCH  12  13
ATOM     13  C   UNL     1      -5.786 -11.258  30.989  1.00  0.00     0.053 C 
BRANCH  13  14
ATOM     14  C   UNL     1      -4.300 -11.192  31.173  1.00  0.00     0.041 C 
ATOM     15  O   UNL     1      -3.793 -11.418  32.303  1.00  0.00    -0.550 OA
ATOM     16  O   UNL     1      -3.478 -10.846  30.107  1.00  0.00    -0.550 OA
ENDBRANCH  13  14
ENDBRANCH  12  13
ENDBRANCH  11  12
ENDBRANCH  10  11
ENDBRANCH   9  10
ENDBRANCH   8   9
ENDBRANCH   7   8
ENDBRANCH   6   7
ENDBRANCH   5   6
ENDBRANCH   4   5
ENDBRANCH   3   4
ENDBRANCH   2   3
ENDBRANCH   1   2
BRANCH   1  17
ATOM     17  C   UNL     1     -10.519 -15.966  27.238  1.00  0.00     0.000 C 
BRANCH  17  18
ATOM     18  C   UNL     1     -10.420 -14.970  26.069  1.00  0.00     0.000 C 
BRANCH  18  19
ATOM     19  C   UNL     1      -8.986 -14.469  25.833  1.00  0.00     0.000 C 
BRANCH  19  20
ATOM     20  C   UNL     1      -8.022 -14.890  26.955  1.00  0.00     0.000 C 
BRANCH  20  21
ATOM     21  C   UNL     1      -6.560 -14.540  26.640  1.00  0.00     0.000 C 
BRANCH  21  22
ATOM     22  C   UNL     1      -5.647 -14.888  27.824  1.00  0.00    -0.000 C 
BRANCH  22  23
ATOM     23  C   UNL     1      -4.446 -13.935  27.960  1.00  0.00    -0.000 C 
BRANCH  23  24
ATOM     24  C   UNL     1      -3.401 -14.343  29.020  1.00  0.00    -0.000 C 
BRANCH  24  25
ATOM     25  C   UNL     1      -2.038 -14.779  28.454  1.00  0.00    -0.000 C 
BRANCH  25  26
ATOM     26  C   UNL     1      -2.155 -15.497  27.100  1.00  0.00    -0.000 C 
BRANCH  26  27
ATOM     27  C   UNL     1      -1.207 -14.917  26.039  1.00  0.00    -0.000 C 
BRANCH  27  28
ATOM     28  C   UNL     1      -1.522 -13.451  25.704  1.00  0.00    -0.000 C 
BRANCH  28  29
ATOM     29  C   UNL     1      -0.243 -12.607  25.673  1.00  0.00    -0.003 C 
ATOM     30  C   UNL     1       0.895 -13.357  24.984  1.00  0.00     0.004 C 
ENDBRANCH  28  29
ENDBRANCH  27  28
ENDBRANCH  26  27
ENDBRANCH  25  26
ENDBRANCH  24  25
ENDBRANCH  23  24
ENDBRANCH  22  23
ENDBRANCH  21  22
ENDBRANCH  20  21
ENDBRANCH  19  20
ENDBRANCH  18  19
ENDBRANCH  17  18
ENDBRANCH   1  17
TORSDOF 26
ENDMDL
