MODEL 1
REMARK VINA RESULT:    -5.623      0.000      0.000
REMARK INTER + INTRA:          -5.787
REMARK INTER:                  -5.787
REMARK INTRA:                   0.000
REMARK UNBOUND:                 0.000
REMARK SMILES O=c1ccc2ccc(O)cc2o1
REMARK SMILES IDX 6 1 7 2 8 3 10 4 11 5 5 6 4 7 3 8 2 9 1 10 12 11 9 12
REMARK H PARENT 9 13
REMARK Flexibility Score: inf
ROOT
ATOM      1  C   UNL     1      32.538  31.564  15.927  1.00  0.00     0.016 A 
ATOM      2  C   UNL     1      31.454  32.273  15.401  1.00  0.00     0.047 A 
ATOM      3  C   UNL     1      30.429  31.596  14.720  1.00  0.00     0.119 A 
ATOM      4  C   UNL     1      30.493  30.207  14.568  1.00  0.00     0.094 A 
ATOM      5  C   UNL     1      31.573  29.489  15.092  1.00  0.00     0.142 A 
ATOM      6  C   UNL     1      32.603  30.171  15.775  1.00  0.00     0.018 A 
ATOM      7  C   UNL     1      33.671  29.428  16.287  1.00  0.00     0.019 A 
ATOM      8  C   UNL     1      33.689  28.044  16.110  1.00  0.00     0.094 A 
ATOM      9  C   UNL     1      32.633  27.436  15.422  1.00  0.00     0.336 A 
ATOM     10  O   UNL     1      32.631  26.189  15.251  1.00  0.00    -0.246 OA
ATOM     11  O   UNL     1      31.629  28.167  14.944  1.00  0.00    -0.423 OA
ENDROOT
BRANCH   3  12
ATOM     12  O   UNL     1      29.346  32.296  14.194  1.00  0.00    -0.508 OA
ATOM     13  H   UNL     1      28.678  31.850  13.576  1.00  0.00     0.293 HD
ENDBRANCH   3  12
TORSDOF 1
ENDMDL
MODEL 2
REMARK VINA RESULT:    -5.565      2.907      3.604
REMARK INTER + INTRA:          -5.727
REMARK INTER:                  -5.727
REMARK INTRA:                   0.000
REMARK UNBOUND:                 0.000
REMARK SMILES O=c1ccc2ccc(O)cc2o1
REMARK SMILES IDX 6 1 7 2 8 3 10 4 11 5 5 6 4 7 3 8 2 9 1 10 12 11 9 12
REMARK H PARENT 9 13
REMARK Flexibility Score: inf
ROOT
ATOM      1  C   UNL     1      30.478  31.384  13.059  1.00  0.00     0.016 A 
ATOM      2  C   UNL     1      29.311  30.821  12.535  1.00  0.00     0.047 A 
ATOM      3  C   UNL     1      28.389  30.186  13.382  1.00  0.00     0.119 A 
ATOM      4  C   UNL     1      28.640  30.115  14.757  1.00  0.00     0.094 A 
ATOM      5  C   UNL     1      29.806  30.676  15.290  1.00  0.00     0.142 A 
ATOM      6  C   UNL     1      30.732  31.314  14.436  1.00  0.00     0.018 A 
ATOM      7  C   UNL     1      31.888  31.865  14.997  1.00  0.00     0.019 A 
ATOM      8  C   UNL     1      32.093  31.770  16.373  1.00  0.00     0.094 A 
ATOM      9  C   UNL     1      31.132  31.122  17.158  1.00  0.00     0.336 A 
ATOM     10  O   UNL     1      31.299  31.026  18.402  1.00  0.00    -0.246 OA
ATOM     11  O   UNL     1      30.040  30.606  16.599  1.00  0.00    -0.423 OA
ENDROOT
BRANCH   3  12
ATOM     12  O   UNL     1      27.224  29.623  12.867  1.00  0.00    -0.508 OA
ATOM     13  H   UNL     1      26.952  29.760  11.901  1.00  0.00     0.293 HD
ENDBRANCH   3  12
TORSDOF 1
ENDMDL
MODEL 3
REMARK VINA RESULT:    -5.454      2.933      4.073
REMARK INTER + INTRA:          -5.614
REMARK INTER:                  -5.614
REMARK INTRA:                   0.000
REMARK UNBOUND:                 0.000
REMARK SMILES O=c1ccc2ccc(O)cc2o1
REMARK SMILES IDX 6 1 7 2 8 3 10 4 11 5 5 6 4 7 3 8 2 9 1 10 12 11 9 12
REMARK H PARENT 9 13
REMARK Flexibility Score: inf
ROOT
ATOM      1  C   UNL     1      31.406  32.123  15.018  1.00  0.00     0.016 A 
ATOM      2  C   UNL     1      31.731  32.006  16.373  1.00  0.00     0.047 A 
ATOM      3  C   UNL     1      31.028  31.109  17.193  1.00  0.00     0.119 A 
ATOM      4  C   UNL     1      29.999  30.330  16.653  1.00  0.00     0.094 A 
ATOM      5  C   UNL     1      29.668  30.441  15.298  1.00  0.00     0.142 A 
ATOM      6  C   UNL     1      30.375  31.344  14.475  1.00  0.00     0.018 A 
ATOM      7  C   UNL     1      30.022  31.434  13.125  1.00  0.00     0.019 A 
ATOM      8  C   UNL     1      28.989  30.635  12.633  1.00  0.00     0.094 A 
ATOM      9  C   UNL     1      28.332  29.764  13.508  1.00  0.00     0.336 A 
ATOM     10  O   UNL     1      27.396  29.035  13.084  1.00  0.00    -0.246 OA
ATOM     11  O   UNL     1      28.687  29.698  14.789  1.00  0.00    -0.423 OA
ENDROOT
BRANCH   3  12
ATOM     12  O   UNL     1      31.346  30.986  18.544  1.00  0.00    -0.508 OA
ATOM     13  H   UNL     1      30.748  30.475  19.183  1.00  0.00     0.293 HD
ENDBRANCH   3  12
TORSDOF 1
ENDMDL
MODEL 4
REMARK VINA RESULT:    -5.424      2.050      4.084
REMARK INTER + INTRA:          -5.583
REMARK INTER:                  -5.583
REMARK INTRA:                   0.000
REMARK UNBOUND:                 0.000
REMARK SMILES O=c1ccc2ccc(O)cc2o1
REMARK SMILES IDX 6 1 7 2 8 3 10 4 11 5 5 6 4 7 3 8 2 9 1 10 12 11 9 12
REMARK H PARENT 9 13
REMARK Flexibility Score: inf
ROOT
ATOM      1  C   UNL     1      31.140  31.467  16.241  1.00  0.00     0.016 A 
ATOM      2  C   UNL     1      32.189  30.854  16.933  1.00  0.00     0.047 A 
ATOM      3  C   UNL     1      33.010  29.916  16.286  1.00  0.00     0.119 A 
ATOM      4  C   UNL     1      32.778  29.595  14.944  1.00  0.00     0.094 A 
ATOM      5  C   UNL     1      31.732  30.205  14.244  1.00  0.00     0.142 A 
ATOM      6  C   UNL     1      30.906  31.147  14.897  1.00  0.00     0.018 A 
ATOM      7  C   UNL     1      29.867  31.739  14.172  1.00  0.00     0.019 A 
ATOM      8  C   UNL     1      29.677  31.386  12.836  1.00  0.00     0.094 A 
ATOM      9  C   UNL     1      30.534  30.445  12.256  1.00  0.00     0.336 A 
ATOM     10  O   UNL     1      30.378  30.113  11.051  1.00  0.00    -0.246 OA
ATOM     11  O   UNL     1      31.515  29.896  12.968  1.00  0.00    -0.423 OA
ENDROOT
BRANCH   3  12
ATOM     12  O   UNL     1      34.057  29.301  16.969  1.00  0.00    -0.508 OA
ATOM     13  H   UNL     1      34.581  29.790  17.685  1.00  0.00     0.293 HD
ENDBRANCH   3  12
TORSDOF 1
ENDMDL
MODEL 5
REMARK VINA RESULT:    -5.112      2.424      2.798
REMARK INTER + INTRA:          -5.262
REMARK INTER:                  -5.262
REMARK INTRA:                   0.000
REMARK UNBOUND:                 0.000
REMARK SMILES O=c1ccc2ccc(O)cc2o1
REMARK SMILES IDX 6 1 7 2 8 3 10 4 11 5 5 6 4 7 3 8 2 9 1 10 12 11 9 12
REMARK H PARENT 9 13
REMARK Flexibility Score: inf
ROOT
ATOM      1  C   UNL     1      30.933  30.597  16.854  1.00  0.00     0.016 A 
ATOM      2  C   UNL     1      31.614  31.807  16.690  1.00  0.00     0.047 A 
ATOM      3  C   UNL     1      32.052  32.205  15.418  1.00  0.00     0.119 A 
ATOM      4  C   UNL     1      31.806  31.388  14.308  1.00  0.00     0.094 A 
ATOM      5  C   UNL     1      31.125  30.177  14.463  1.00  0.00     0.142 A 
ATOM      6  C   UNL     1      30.685  29.778  15.744  1.00  0.00     0.018 A 
ATOM      7  C   UNL     1      30.007  28.561  15.869  1.00  0.00     0.019 A 
ATOM      8  C   UNL     1      29.786  27.782  14.733  1.00  0.00     0.094 A 
ATOM      9  C   UNL     1      30.250  28.241  13.495  1.00  0.00     0.336 A 
ATOM     10  O   UNL     1      30.061  27.552  12.458  1.00  0.00    -0.246 OA
ATOM     11  O   UNL     1      30.893  29.403  13.405  1.00  0.00    -0.423 OA
ENDROOT
BRANCH   3  12
ATOM     12  O   UNL     1      32.731  33.409  15.246  1.00  0.00    -0.508 OA
ATOM     13  H   UNL     1      33.499  33.675  15.852  1.00  0.00     0.293 HD
ENDBRANCH   3  12
TORSDOF 1
ENDMDL
MODEL 6
REMARK VINA RESULT:    -5.078      2.544      3.865
REMARK INTER + INTRA:          -5.226
REMARK INTER:                  -5.226
REMARK INTRA:                   0.000
REMARK UNBOUND:                 0.000
REMARK SMILES O=c1ccc2ccc(O)cc2o1
REMARK SMILES IDX 6 1 7 2 8 3 10 4 11 5 5 6 4 7 3 8 2 9 1 10 12 11 9 12
REMARK H PARENT 9 13
REMARK Flexibility Score: inf
ROOT
ATOM      1  C   UNL     1      29.971  28.520  15.333  1.00  0.00     0.016 A 
ATOM      2  C   UNL     1      28.817  28.400  14.553  1.00  0.00     0.047 A 
ATOM      3  C   UNL     1      28.326  29.506  13.842  1.00  0.00     0.119 A 
ATOM      4  C   UNL     1      28.994  30.734  13.914  1.00  0.00     0.094 A 
ATOM      5  C   UNL     1      30.150  30.862  14.691  1.00  0.00     0.142 A 
ATOM      6  C   UNL     1      30.642  29.748  15.406  1.00  0.00     0.018 A 
ATOM      7  C   UNL     1      31.799  29.907  16.176  1.00  0.00     0.019 A 
ATOM      8  C   UNL     1      32.430  31.150  16.214  1.00  0.00     0.094 A 
ATOM      9  C   UNL     1      31.885  32.209  15.480  1.00  0.00     0.336 A 
ATOM     10  O   UNL     1      32.439  33.340  15.503  1.00  0.00    -0.246 OA
ATOM     11  O   UNL     1      30.782  32.032  14.756  1.00  0.00    -0.423 OA
ENDROOT
BRANCH   3  12
ATOM     12  O   UNL     1      27.177  29.395  13.062  1.00  0.00    -0.508 OA
ATOM     13  H   UNL     1      27.145  29.749  12.113  1.00  0.00     0.293 HD
ENDBRANCH   3  12
TORSDOF 1
ENDMDL
MODEL 7
REMARK VINA RESULT:    -4.891      2.353      3.241
REMARK INTER + INTRA:          -5.034
REMARK INTER:                  -5.034
REMARK INTRA:                   0.000
REMARK UNBOUND:                 0.000
REMARK SMILES O=c1ccc2ccc(O)cc2o1
REMARK SMILES IDX 6 1 7 2 8 3 10 4 11 5 5 6 4 7 3 8 2 9 1 10 12 11 9 12
REMARK H PARENT 9 13
REMARK Flexibility Score: inf
ROOT
ATOM      1  C   UNL     1      32.333  29.724  12.808  1.00  0.00     0.016 A 
ATOM      2  C   UNL     1      31.447  30.136  11.808  1.00  0.00     0.047 A 
ATOM      3  C   UNL     1      30.355  30.959  12.125  1.00  0.00     0.119 A 
ATOM      4  C   UNL     1      30.152  31.368  13.448  1.00  0.00     0.094 A 
ATOM      5  C   UNL     1      31.033  30.960  14.455  1.00  0.00     0.142 A 
ATOM      6  C   UNL     1      32.131  30.132  14.133  1.00  0.00     0.018 A 
ATOM      7  C   UNL     1      32.995  29.740  15.161  1.00  0.00     0.019 A 
ATOM      8  C   UNL     1      32.750  30.175  16.463  1.00  0.00     0.094 A 
ATOM      9  C   UNL     1      31.642  30.993  16.708  1.00  0.00     0.336 A 
ATOM     10  O   UNL     1      31.404  31.396  17.877  1.00  0.00    -0.246 OA
ATOM     11  O   UNL     1      30.835  31.352  15.712  1.00  0.00    -0.423 OA
ENDROOT
BRANCH   3  12
ATOM     12  O   UNL     1      29.468  31.374  11.134  1.00  0.00    -0.508 OA
ATOM     13  H   UNL     1      28.677  31.970  11.349  1.00  0.00     0.293 HD
ENDBRANCH   3  12
TORSDOF 1
ENDMDL
MODEL 8
REMARK VINA RESULT:    -4.888      0.782      4.222
REMARK INTER + INTRA:          -5.031
REMARK INTER:                  -5.031
REMARK INTRA:                   0.000
REMARK UNBOUND:                 0.000
REMARK SMILES O=c1ccc2ccc(O)cc2o1
REMARK SMILES IDX 6 1 7 2 8 3 10 4 11 5 5 6 4 7 3 8 2 9 1 10 12 11 9 12
REMARK H PARENT 9 13
REMARK Flexibility Score: inf
ROOT
ATOM      1  C   UNL     1      33.669  29.341  16.324  1.00  0.00     0.016 A 
ATOM      2  C   UNL     1      33.727  27.964  16.086  1.00  0.00     0.047 A 
ATOM      3  C   UNL     1      32.741  27.339  15.306  1.00  0.00     0.119 A 
ATOM      4  C   UNL     1      31.696  28.096  14.765  1.00  0.00     0.094 A 
ATOM      5  C   UNL     1      31.630  29.474  14.998  1.00  0.00     0.142 A 
ATOM      6  C   UNL     1      32.622  30.101  15.783  1.00  0.00     0.018 A 
ATOM      7  C   UNL     1      32.530  31.480  16.000  1.00  0.00     0.019 A 
ATOM      8  C   UNL     1      31.470  32.191  15.438  1.00  0.00     0.094 A 
ATOM      9  C   UNL     1      30.523  31.503  14.671  1.00  0.00     0.336 A 
ATOM     10  O   UNL     1      29.558  32.127  14.157  1.00  0.00    -0.246 OA
ATOM     11  O   UNL     1      30.634  30.190  14.481  1.00  0.00    -0.423 OA
ENDROOT
BRANCH   3  12
ATOM     12  O   UNL     1      32.793  25.968  15.064  1.00  0.00    -0.508 OA
ATOM     13  H   UNL     1      32.743  25.295  15.820  1.00  0.00     0.293 HD
ENDBRANCH   3  12
TORSDOF 1
ENDMDL
MODEL 9
REMARK VINA RESULT:    -4.818      1.459      2.241
REMARK INTER + INTRA:          -4.958
REMARK INTER:                  -4.958
REMARK INTRA:                   0.000
REMARK UNBOUND:                 0.000
REMARK SMILES O=c1ccc2ccc(O)cc2o1
REMARK SMILES IDX 6 1 7 2 8 3 10 4 11 5 5 6 4 7 3 8 2 9 1 10 12 11 9 12
REMARK H PARENT 9 13
REMARK Flexibility Score: inf
ROOT
ATOM      1  C   UNL     1      30.033  30.256  15.378  1.00  0.00     0.016 A 
ATOM      2  C   UNL     1      30.517  31.568  15.390  1.00  0.00     0.047 A 
ATOM      3  C   UNL     1      31.894  31.813  15.510  1.00  0.00     0.119 A 
ATOM      4  C   UNL     1      32.786  30.740  15.619  1.00  0.00     0.094 A 
ATOM      5  C   UNL     1      32.310  29.424  15.608  1.00  0.00     0.142 A 
ATOM      6  C   UNL     1      30.925  29.180  15.487  1.00  0.00     0.018 A 
ATOM      7  C   UNL     1      30.478  27.855  15.479  1.00  0.00     0.019 A 
ATOM      8  C   UNL     1      31.407  26.820  15.590  1.00  0.00     0.094 A 
ATOM      9  C   UNL     1      32.764  27.137  15.707  1.00  0.00     0.336 A 
ATOM     10  O   UNL     1      33.618  26.217  15.808  1.00  0.00    -0.246 OA
ATOM     11  O   UNL     1      33.162  28.407  15.712  1.00  0.00    -0.423 OA
ENDROOT
BRANCH   3  12
ATOM     12  O   UNL     1      32.384  33.116  15.523  1.00  0.00    -0.508 OA
ATOM     13  H   UNL     1      32.979  33.465  14.780  1.00  0.00     0.293 HD
ENDBRANCH   3  12
TORSDOF 1
ENDMDL
