MODEL 1
REMARK VINA RESULT:    -5.135      0.000      0.000
REMARK INTER + INTRA:         -11.488
REMARK INTER:                  -9.938
REMARK INTRA:                  -1.550
REMARK UNBOUND:                -1.550
REMARK SMILES CCCCCCCCCCCCCCCCCC(=O)[O-]
REMARK SMILES IDX 10 1 11 2 12 3 13 4 14 5 15 6 16 7 17 8 18 9 19 10 20 11
REMARK SMILES IDX 9 12 8 13 7 14 6 15 5 16 4 17 3 18 2 19 1 20
REMARK H PARENT
REMARK Flexibility Score: inf
ROOT
ATOM      1  C   UNL     1      79.964  59.383  10.309  1.00  0.00     0.000 C 
ENDROOT
BRANCH   1   2
ATOM      2  C   UNL     1      81.369  59.999  10.381  1.00  0.00     0.000 C 
BRANCH   2   3
ATOM      3  C   UNL     1      82.405  59.051  11.013  1.00  0.00     0.000 C 
BRANCH   3   4
ATOM      4  C   UNL     1      83.750  58.964  10.264  1.00  0.00     0.000 C 
BRANCH   4   5
ATOM      5  C   UNL     1      84.535  60.285  10.176  1.00  0.00     0.000 C 
BRANCH   5   6
ATOM      6  C   UNL     1      84.754  60.942  11.547  1.00  0.00     0.000 C 
BRANCH   6   7
ATOM      7  C   UNL     1      85.552  60.021  12.478  1.00  0.00     0.006 C 
BRANCH   7   8
ATOM      8  C   UNL     1      84.787  59.758  13.778  1.00  0.00     0.053 C 
BRANCH   8   9
ATOM      9  C   UNL     1      84.987  60.885  14.742  1.00  0.00     0.041 C 
ATOM     10  O   UNL     1      86.057  61.548  14.729  1.00  0.00    -0.550 OA
ATOM     11  O   UNL     1      83.970  61.236  15.621  1.00  0.00    -0.550 OA
ENDBRANCH   8   9
ENDBRANCH   7   8
ENDBRANCH   6   7
ENDBRANCH   5   6
ENDBRANCH   4   5
ENDBRANCH   3   4
ENDBRANCH   2   3
ENDBRANCH   1   2
BRANCH   1  12
ATOM     12  C   UNL     1      80.033  57.851  10.402  1.00  0.00     0.000 C 
BRANCH  12  13
ATOM     13  C   UNL     1      78.713  57.215  10.874  1.00  0.00    -0.000 C 
BRANCH  13  14
ATOM     14  C   UNL     1      78.069  56.229   9.881  1.00  0.00    -0.000 C 
BRANCH  14  15
ATOM     15  C   UNL     1      77.958  56.798   8.458  1.00  0.00    -0.000 C 
BRANCH  15  16
ATOM     16  C   UNL     1      77.925  55.698   7.384  1.00  0.00    -0.000 C 
BRANCH  16  17
ATOM     17  C   UNL     1      78.176  54.295   7.966  1.00  0.00    -0.000 C 
BRANCH  17  18
ATOM     18  C   UNL     1      79.610  53.803   7.718  1.00  0.00    -0.000 C 
BRANCH  18  19
ATOM     19  C   UNL     1      80.411  53.639   9.018  1.00  0.00    -0.003 C 
ATOM     20  C   UNL     1      81.501  54.700   9.130  1.00  0.00     0.004 C 
ENDBRANCH  18  19
ENDBRANCH  17  18
ENDBRANCH  16  17
ENDBRANCH  15  16
ENDBRANCH  14  15
ENDBRANCH  13  14
ENDBRANCH  12  13
ENDBRANCH   1  12
TORSDOF 16
ENDMDL
MODEL 2
REMARK VINA RESULT:    -5.101      1.120      2.349
REMARK INTER + INTRA:         -11.423
REMARK INTER:                  -9.759
REMARK INTRA:                  -1.664
REMARK UNBOUND:                -1.550
REMARK SMILES CCCCCCCCCCCCCCCCCC(=O)[O-]
REMARK SMILES IDX 10 1 11 2 12 3 13 4 14 5 15 6 16 7 17 8 18 9 19 10 20 11
REMARK SMILES IDX 9 12 8 13 7 14 6 15 5 16 4 17 3 18 2 19 1 20
REMARK H PARENT
REMARK Flexibility Score: inf
ROOT
ATOM      1  C   UNL     1      80.804  59.212  10.292  1.00  0.00     0.000 C 
ENDROOT
BRANCH   1   2
ATOM      2  C   UNL     1      81.801  59.723  11.341  1.00  0.00     0.000 C 
BRANCH   2   3
ATOM      3  C   UNL     1      82.965  60.517  10.722  1.00  0.00     0.000 C 
BRANCH   3   4
ATOM      4  C   UNL     1      84.036  59.662  10.015  1.00  0.00     0.000 C 
BRANCH   4   5
ATOM      5  C   UNL     1      84.871  58.764  10.945  1.00  0.00     0.000 C 
BRANCH   5   6
ATOM      6  C   UNL     1      85.796  59.563  11.875  1.00  0.00     0.000 C 
BRANCH   6   7
ATOM      7  C   UNL     1      85.268  59.559  13.314  1.00  0.00     0.006 C 
BRANCH   7   8
ATOM      8  C   UNL     1      85.412  60.942  13.956  1.00  0.00     0.053 C 
BRANCH   8   9
ATOM      9  C   UNL     1      84.685  60.991  15.263  1.00  0.00     0.041 C 
ATOM     10  O   UNL     1      83.429  60.921  15.293  1.00  0.00    -0.550 OA
ATOM     11  O   UNL     1      85.400  61.064  16.453  1.00  0.00    -0.550 OA
ENDBRANCH   8   9
ENDBRANCH   7   8
ENDBRANCH   6   7
ENDBRANCH   5   6
ENDBRANCH   4   5
ENDBRANCH   3   4
ENDBRANCH   2   3
ENDBRANCH   1   2
BRANCH   1  12
ATOM     12  C   UNL     1      80.190  57.873  10.727  1.00  0.00     0.000 C 
BRANCH  12  13
ATOM     13  C   UNL     1      81.095  56.665  10.420  1.00  0.00    -0.000 C 
BRANCH  13  14
ATOM     14  C   UNL     1      80.652  55.336  11.058  1.00  0.00    -0.000 C 
BRANCH  14  15
ATOM     15  C   UNL     1      80.404  54.227  10.023  1.00  0.00    -0.000 C 
BRANCH  15  16
ATOM     16  C   UNL     1      80.759  54.665   8.593  1.00  0.00    -0.000 C 
BRANCH  16  17
ATOM     17  C   UNL     1      79.545  54.637   7.647  1.00  0.00    -0.000 C 
BRANCH  17  18
ATOM     18  C   UNL     1      78.225  54.940   8.374  1.00  0.00    -0.000 C 
BRANCH  18  19
ATOM     19  C   UNL     1      77.782  56.402   8.208  1.00  0.00    -0.003 C 
ATOM     20  C   UNL     1      77.810  56.822   6.742  1.00  0.00     0.004 C 
ENDBRANCH  18  19
ENDBRANCH  17  18
ENDBRANCH  16  17
ENDBRANCH  15  16
ENDBRANCH  14  15
ENDBRANCH  13  14
ENDBRANCH  12  13
ENDBRANCH   1  12
TORSDOF 16
ENDMDL
MODEL 3
REMARK VINA RESULT:    -4.963      1.658      3.865
REMARK INTER + INTRA:         -11.154
REMARK INTER:                  -9.570
REMARK INTRA:                  -1.584
REMARK UNBOUND:                -1.550
REMARK SMILES CCCCCCCCCCCCCCCCCC(=O)[O-]
REMARK SMILES IDX 10 1 11 2 12 3 13 4 14 5 15 6 16 7 17 8 18 9 19 10 20 11
REMARK SMILES IDX 9 12 8 13 7 14 6 15 5 16 4 17 3 18 2 19 1 20
REMARK H PARENT
REMARK Flexibility Score: inf
ROOT
ATOM      1  C   UNL     1      84.449  62.586   9.521  1.00  0.00     0.000 C 
ENDROOT
BRANCH   1   2
ATOM      2  C   UNL     1      84.985  61.545   8.528  1.00  0.00     0.000 C 
BRANCH   2   3
ATOM      3  C   UNL     1      86.368  60.998   8.926  1.00  0.00     0.000 C 
BRANCH   3   4
ATOM      4  C   UNL     1      86.570  59.489   8.675  1.00  0.00     0.000 C 
BRANCH   4   5
ATOM      5  C   UNL     1      86.743  58.635   9.943  1.00  0.00     0.000 C 
BRANCH   5   6
ATOM      6  C   UNL     1      85.486  58.615  10.826  1.00  0.00     0.000 C 
BRANCH   6   7
ATOM      7  C   UNL     1      85.820  59.013  12.268  1.00  0.00     0.006 C 
BRANCH   7   8
ATOM      8  C   UNL     1      85.483  60.484  12.525  1.00  0.00     0.053 C 
BRANCH   8   9
ATOM      9  C   UNL     1      84.707  60.631  13.796  1.00  0.00     0.041 C 
ATOM     10  O   UNL     1      85.244  61.148  14.811  1.00  0.00    -0.550 OA
ATOM     11  O   UNL     1      83.374  60.241  13.846  1.00  0.00    -0.550 OA
ENDBRANCH   8   9
ENDBRANCH   7   8
ENDBRANCH   6   7
ENDBRANCH   5   6
ENDBRANCH   4   5
ENDBRANCH   3   4
ENDBRANCH   2   3
ENDBRANCH   1   2
BRANCH   1  12
ATOM     12  C   UNL     1      82.955  62.361   9.796  1.00  0.00     0.000 C 
BRANCH  12  13
ATOM     13  C   UNL     1      82.646  60.953  10.339  1.00  0.00    -0.000 C 
BRANCH  13  14
ATOM     14  C   UNL     1      81.218  60.446  10.069  1.00  0.00    -0.000 C 
BRANCH  14  15
ATOM     15  C   UNL     1      80.934  59.080  10.716  1.00  0.00    -0.000 C 
BRANCH  15  16
ATOM     16  C   UNL     1      79.555  58.521  10.331  1.00  0.00    -0.000 C 
BRANCH  16  17
ATOM     17  C   UNL     1      79.369  57.055  10.764  1.00  0.00    -0.000 C 
BRANCH  17  18
ATOM     18  C   UNL     1      78.200  56.371  10.037  1.00  0.00    -0.000 C 
BRANCH  18  19
ATOM     19  C   UNL     1      77.999  56.905   8.610  1.00  0.00    -0.003 C 
ATOM     20  C   UNL     1      77.765  55.765   7.624  1.00  0.00     0.004 C 
ENDBRANCH  18  19
ENDBRANCH  17  18
ENDBRANCH  16  17
ENDBRANCH  15  16
ENDBRANCH  14  15
ENDBRANCH  13  14
ENDBRANCH  12  13
ENDBRANCH   1  12
TORSDOF 16
ENDMDL
MODEL 4
REMARK VINA RESULT:    -4.948      2.810      3.201
REMARK INTER + INTRA:         -11.126
REMARK INTER:                  -9.813
REMARK INTRA:                  -1.313
REMARK UNBOUND:                -1.550
REMARK SMILES CCCCCCCCCCCCCCCCCC(=O)[O-]
REMARK SMILES IDX 10 1 11 2 12 3 13 4 14 5 15 6 16 7 17 8 18 9 19 10 20 11
REMARK SMILES IDX 9 12 8 13 7 14 6 15 5 16 4 17 3 18 2 19 1 20
REMARK H PARENT
REMARK Flexibility Score: inf
ROOT
ATOM      1  C   UNL     1      80.557  59.640  10.387  1.00  0.00     0.000 C 
ENDROOT
BRANCH   1   2
ATOM      2  C   UNL     1      81.791  58.808  10.767  1.00  0.00     0.000 C 
BRANCH   2   3
ATOM      3  C   UNL     1      82.959  59.671  11.278  1.00  0.00     0.000 C 
BRANCH   3   4
ATOM      4  C   UNL     1      83.229  60.953  10.463  1.00  0.00     0.000 C 
BRANCH   4   5
ATOM      5  C   UNL     1      84.487  60.909   9.577  1.00  0.00     0.000 C 
BRANCH   5   6
ATOM      6  C   UNL     1      84.928  59.478   9.237  1.00  0.00     0.000 C 
BRANCH   6   7
ATOM      7  C   UNL     1      86.398  59.253   9.607  1.00  0.00     0.006 C 
BRANCH   7   8
ATOM      8  C   UNL     1      86.526  58.286  10.788  1.00  0.00     0.053 C 
BRANCH   8   9
ATOM      9  C   UNL     1      87.568  57.250  10.509  1.00  0.00     0.041 C 
ATOM     10  O   UNL     1      87.373  56.050  10.834  1.00  0.00    -0.550 OA
ATOM     11  O   UNL     1      88.736  57.602   9.842  1.00  0.00    -0.550 OA
ENDBRANCH   8   9
ENDBRANCH   7   8
ENDBRANCH   6   7
ENDBRANCH   5   6
ENDBRANCH   4   5
ENDBRANCH   3   4
ENDBRANCH   2   3
ENDBRANCH   1   2
BRANCH   1  12
ATOM     12  C   UNL     1      79.377  58.730  10.019  1.00  0.00     0.000 C 
BRANCH  12  13
ATOM     13  C   UNL     1      79.399  57.381  10.762  1.00  0.00    -0.000 C 
BRANCH  13  14
ATOM     14  C   UNL     1      78.475  56.296  10.178  1.00  0.00    -0.000 C 
BRANCH  14  15
ATOM     15  C   UNL     1      77.545  56.830   9.077  1.00  0.00    -0.000 C 
BRANCH  15  16
ATOM     16  C   UNL     1      77.781  56.143   7.722  1.00  0.00    -0.000 C 
BRANCH  16  17
ATOM     17  C   UNL     1      78.936  55.126   7.767  1.00  0.00    -0.000 C 
BRANCH  17  18
ATOM     18  C   UNL     1      78.465  53.688   7.503  1.00  0.00    -0.000 C 
BRANCH  18  19
ATOM     19  C   UNL     1      79.283  52.646   8.281  1.00  0.00    -0.003 C 
ATOM     20  C   UNL     1      80.602  53.236   8.770  1.00  0.00     0.004 C 
ENDBRANCH  18  19
ENDBRANCH  17  18
ENDBRANCH  16  17
ENDBRANCH  15  16
ENDBRANCH  14  15
ENDBRANCH  13  14
ENDBRANCH  12  13
ENDBRANCH   1  12
TORSDOF 16
ENDMDL
MODEL 5
REMARK VINA RESULT:    -4.936      3.723      7.892
REMARK INTER + INTRA:         -11.102
REMARK INTER:                  -9.686
REMARK INTRA:                  -1.416
REMARK UNBOUND:                -1.550
REMARK SMILES CCCCCCCCCCCCCCCCCC(=O)[O-]
REMARK SMILES IDX 10 1 11 2 12 3 13 4 14 5 15 6 16 7 17 8 18 9 19 10 20 11
REMARK SMILES IDX 9 12 8 13 7 14 6 15 5 16 4 17 3 18 2 19 1 20
REMARK H PARENT
REMARK Flexibility Score: inf
ROOT
ATOM      1  C   UNL     1      78.202  56.608   9.975  1.00  0.00     0.000 C 
ENDROOT
BRANCH   1   2
ATOM      2  C   UNL     1      77.732  57.026   8.575  1.00  0.00     0.000 C 
BRANCH   2   3
ATOM      3  C   UNL     1      78.101  55.997   7.490  1.00  0.00     0.000 C 
BRANCH   3   4
ATOM      4  C   UNL     1      77.824  54.527   7.864  1.00  0.00     0.000 C 
BRANCH   4   5
ATOM      5  C   UNL     1      79.015  53.571   7.674  1.00  0.00     0.000 C 
BRANCH   5   6
ATOM      6  C   UNL     1      80.360  54.305   7.572  1.00  0.00     0.000 C 
BRANCH   6   7
ATOM      7  C   UNL     1      81.040  54.403   8.942  1.00  0.00     0.006 C 
BRANCH   7   8
ATOM      8  C   UNL     1      82.030  53.252   9.147  1.00  0.00     0.053 C 
BRANCH   8   9
ATOM      9  C   UNL     1      81.515  52.294  10.175  1.00  0.00     0.041 C 
ATOM     10  O   UNL     1      81.066  51.171   9.827  1.00  0.00    -0.550 OA
ATOM     11  O   UNL     1      81.578  52.623  11.524  1.00  0.00    -0.550 OA
ENDBRANCH   8   9
ENDBRANCH   7   8
ENDBRANCH   6   7
ENDBRANCH   5   6
ENDBRANCH   4   5
ENDBRANCH   3   4
ENDBRANCH   2   3
ENDBRANCH   1   2
BRANCH   1  12
ATOM     12  C   UNL     1      79.477  57.366  10.374  1.00  0.00     0.000 C 
BRANCH  12  13
ATOM     13  C   UNL     1      79.346  58.892  10.215  1.00  0.00    -0.000 C 
BRANCH  13  14
ATOM     14  C   UNL     1      80.658  59.682  10.376  1.00  0.00    -0.000 C 
BRANCH  14  15
ATOM     15  C   UNL     1      81.870  58.779  10.660  1.00  0.00    -0.000 C 
BRANCH  15  16
ATOM     16  C   UNL     1      83.207  59.528  10.526  1.00  0.00    -0.000 C 
BRANCH  16  17
ATOM     17  C   UNL     1      83.018  61.040  10.304  1.00  0.00    -0.000 C 
BRANCH  17  18
ATOM     18  C   UNL     1      84.343  61.815  10.380  1.00  0.00    -0.000 C 
BRANCH  18  19
ATOM     19  C   UNL     1      84.272  63.176   9.672  1.00  0.00    -0.003 C 
ATOM     20  C   UNL     1      84.292  63.010   8.156  1.00  0.00     0.004 C 
ENDBRANCH  18  19
ENDBRANCH  17  18
ENDBRANCH  16  17
ENDBRANCH  15  16
ENDBRANCH  14  15
ENDBRANCH  13  14
ENDBRANCH  12  13
ENDBRANCH   1  12
TORSDOF 16
ENDMDL
MODEL 6
REMARK VINA RESULT:    -4.923      2.640      3.214
REMARK INTER + INTRA:         -11.078
REMARK INTER:                  -9.685
REMARK INTRA:                  -1.393
REMARK UNBOUND:                -1.550
REMARK SMILES CCCCCCCCCCCCCCCCCC(=O)[O-]
REMARK SMILES IDX 10 1 11 2 12 3 13 4 14 5 15 6 16 7 17 8 18 9 19 10 20 11
REMARK SMILES IDX 9 12 8 13 7 14 6 15 5 16 4 17 3 18 2 19 1 20
REMARK H PARENT
REMARK Flexibility Score: inf
ROOT
ATOM      1  C   UNL     1      80.046  59.562  10.305  1.00  0.00     0.000 C 
ENDROOT
BRANCH   1   2
ATOM      2  C   UNL     1      81.436  60.213  10.270  1.00  0.00     0.000 C 
BRANCH   2   3
ATOM      3  C   UNL     1      82.438  59.532  11.221  1.00  0.00     0.000 C 
BRANCH   3   4
ATOM      4  C   UNL     1      83.738  59.040  10.555  1.00  0.00     0.000 C 
BRANCH   4   5
ATOM      5  C   UNL     1      84.421  60.058   9.625  1.00  0.00     0.000 C 
BRANCH   5   6
ATOM      6  C   UNL     1      85.131  61.184  10.391  1.00  0.00     0.000 C 
BRANCH   6   7
ATOM      7  C   UNL     1      84.484  62.543  10.096  1.00  0.00     0.006 C 
BRANCH   7   8
ATOM      8  C   UNL     1      84.881  63.050   8.707  1.00  0.00     0.053 C 
BRANCH   8   9
ATOM      9  C   UNL     1      86.324  63.448   8.686  1.00  0.00     0.041 C 
ATOM     10  O   UNL     1      86.689  64.535   9.204  1.00  0.00    -0.550 OA
ATOM     11  O   UNL     1      87.272  62.592   8.139  1.00  0.00    -0.550 OA
ENDBRANCH   8   9
ENDBRANCH   7   8
ENDBRANCH   6   7
ENDBRANCH   5   6
ENDBRANCH   4   5
ENDBRANCH   3   4
ENDBRANCH   2   3
ENDBRANCH   1   2
BRANCH   1  12
ATOM     12  C   UNL     1      80.159  58.034  10.410  1.00  0.00     0.000 C 
BRANCH  12  13
ATOM     13  C   UNL     1      78.857  57.364  10.888  1.00  0.00    -0.000 C 
BRANCH  13  14
ATOM     14  C   UNL     1      78.338  56.226   9.989  1.00  0.00    -0.000 C 
BRANCH  14  15
ATOM     15  C   UNL     1      77.651  56.737   8.712  1.00  0.00    -0.000 C 
BRANCH  15  16
ATOM     16  C   UNL     1      77.945  55.850   7.490  1.00  0.00    -0.000 C 
BRANCH  16  17
ATOM     17  C   UNL     1      78.206  54.382   7.874  1.00  0.00    -0.000 C 
BRANCH  17  18
ATOM     18  C   UNL     1      79.664  53.962   7.631  1.00  0.00    -0.000 C 
BRANCH  18  19
ATOM     19  C   UNL     1      80.320  53.355   8.880  1.00  0.00    -0.003 C 
ATOM     20  C   UNL     1      81.430  54.256   9.412  1.00  0.00     0.004 C 
ENDBRANCH  18  19
ENDBRANCH  17  18
ENDBRANCH  16  17
ENDBRANCH  15  16
ENDBRANCH  14  15
ENDBRANCH  13  14
ENDBRANCH  12  13
ENDBRANCH   1  12
TORSDOF 16
ENDMDL
MODEL 7
REMARK VINA RESULT:    -4.906      1.676      3.702
REMARK INTER + INTRA:         -11.046
REMARK INTER:                  -9.045
REMARK INTRA:                  -2.001
REMARK UNBOUND:                -1.550
REMARK SMILES CCCCCCCCCCCCCCCCCC(=O)[O-]
REMARK SMILES IDX 10 1 11 2 12 3 13 4 14 5 15 6 16 7 17 8 18 9 19 10 20 11
REMARK SMILES IDX 9 12 8 13 7 14 6 15 5 16 4 17 3 18 2 19 1 20
REMARK H PARENT
REMARK Flexibility Score: inf
ROOT
ATOM      1  C   UNL     1      77.755  56.760   9.135  1.00  0.00     0.000 C 
ENDROOT
BRANCH   1   2
ATOM      2  C   UNL     1      78.459  56.434  10.459  1.00  0.00     0.000 C 
BRANCH   2   3
ATOM      3  C   UNL     1      79.645  57.372  10.752  1.00  0.00     0.000 C 
BRANCH   3   4
ATOM      4  C   UNL     1      79.513  58.792  10.166  1.00  0.00     0.000 C 
BRANCH   4   5
ATOM      5  C   UNL     1      80.735  59.702  10.381  1.00  0.00     0.000 C 
BRANCH   5   6
ATOM      6  C   UNL     1      82.003  58.921  10.758  1.00  0.00     0.000 C 
BRANCH   6   7
ATOM      7  C   UNL     1      83.241  59.822  10.707  1.00  0.00     0.006 C 
BRANCH   7   8
ATOM      8  C   UNL     1      83.801  60.068  12.111  1.00  0.00     0.053 C 
BRANCH   8   9
ATOM      9  C   UNL     1      85.197  59.539  12.219  1.00  0.00     0.041 C 
ATOM     10  O   UNL     1      85.675  58.818  11.305  1.00  0.00    -0.550 OA
ATOM     11  O   UNL     1      85.988  59.885  13.308  1.00  0.00    -0.550 OA
ENDBRANCH   8   9
ENDBRANCH   7   8
ENDBRANCH   6   7
ENDBRANCH   5   6
ENDBRANCH   4   5
ENDBRANCH   3   4
ENDBRANCH   2   3
ENDBRANCH   1   2
BRANCH   1  12
ATOM     12  C   UNL     1      78.441  56.047   7.960  1.00  0.00     0.000 C 
BRANCH  12  13
ATOM     13  C   UNL     1      77.891  54.630   7.710  1.00  0.00    -0.000 C 
BRANCH  13  14
ATOM     14  C   UNL     1      78.858  53.482   8.055  1.00  0.00    -0.000 C 
BRANCH  14  15
ATOM     15  C   UNL     1      80.286  53.970   8.354  1.00  0.00    -0.000 C 
BRANCH  15  16
ATOM     16  C   UNL     1      80.843  53.393   9.666  1.00  0.00    -0.000 C 
BRANCH  16  17
ATOM     17  C   UNL     1      81.695  54.411  10.445  1.00  0.00    -0.000 C 
BRANCH  17  18
ATOM     18  C   UNL     1      82.467  55.363   9.519  1.00  0.00    -0.000 C 
BRANCH  18  19
ATOM     19  C   UNL     1      83.940  54.960   9.353  1.00  0.00    -0.003 C 
ATOM     20  C   UNL     1      84.772  55.409  10.550  1.00  0.00     0.004 C 
ENDBRANCH  18  19
ENDBRANCH  17  18
ENDBRANCH  16  17
ENDBRANCH  15  16
ENDBRANCH  14  15
ENDBRANCH  13  14
ENDBRANCH  12  13
ENDBRANCH   1  12
TORSDOF 16
ENDMDL
MODEL 8
REMARK VINA RESULT:    -4.832      2.699      5.754
REMARK INTER + INTRA:         -10.903
REMARK INTER:                  -8.673
REMARK INTRA:                  -2.229
REMARK UNBOUND:                -1.550
REMARK SMILES CCCCCCCCCCCCCCCCCC(=O)[O-]
REMARK SMILES IDX 10 1 11 2 12 3 13 4 14 5 15 6 16 7 17 8 18 9 19 10 20 11
REMARK SMILES IDX 9 12 8 13 7 14 6 15 5 16 4 17 3 18 2 19 1 20
REMARK H PARENT
REMARK Flexibility Score: inf
ROOT
ATOM      1  C   UNL     1      79.025  53.615   7.736  1.00  0.00     0.000 C 
ENDROOT
BRANCH   1   2
ATOM      2  C   UNL     1      77.768  54.496   7.769  1.00  0.00     0.000 C 
BRANCH   2   3
ATOM      3  C   UNL     1      78.050  55.955   7.369  1.00  0.00     0.000 C 
BRANCH   3   4
ATOM      4  C   UNL     1      77.827  56.993   8.487  1.00  0.00     0.000 C 
BRANCH   4   5
ATOM      5  C   UNL     1      78.021  56.463   9.918  1.00  0.00     0.000 C 
BRANCH   5   6
ATOM      6  C   UNL     1      78.920  57.368  10.774  1.00  0.00     0.000 C 
BRANCH   6   7
ATOM      7  C   UNL     1      79.630  58.415   9.909  1.00  0.00     0.006 C 
BRANCH   7   8
ATOM      8  C   UNL     1      80.479  59.355  10.770  1.00  0.00     0.053 C 
BRANCH   8   9
ATOM      9  C   UNL     1      81.907  58.909  10.781  1.00  0.00     0.041 C 
ATOM     10  O   UNL     1      82.812  59.690  11.175  1.00  0.00    -0.550 OA
ATOM     11  O   UNL     1      82.233  57.612  10.405  1.00  0.00    -0.550 OA
ENDBRANCH   8   9
ENDBRANCH   7   8
ENDBRANCH   6   7
ENDBRANCH   5   6
ENDBRANCH   4   5
ENDBRANCH   3   4
ENDBRANCH   2   3
ENDBRANCH   1   2
BRANCH   1  12
ATOM     12  C   UNL     1      80.293  54.476   7.631  1.00  0.00     0.000 C 
BRANCH  12  13
ATOM     13  C   UNL     1      81.320  54.176   8.739  1.00  0.00    -0.000 C 
BRANCH  13  14
ATOM     14  C   UNL     1      80.746  54.127  10.168  1.00  0.00    -0.000 C 
BRANCH  14  15
ATOM     15  C   UNL     1      81.572  53.243  11.116  1.00  0.00    -0.000 C 
BRANCH  15  16
ATOM     16  C   UNL     1      82.284  52.095  10.382  1.00  0.00    -0.000 C 
BRANCH  16  17
ATOM     17  C   UNL     1      81.533  50.757  10.507  1.00  0.00    -0.000 C 
BRANCH  17  18
ATOM     18  C   UNL     1      81.503  49.974   9.185  1.00  0.00    -0.000 C 
BRANCH  18  19
ATOM     19  C   UNL     1      80.230  50.242   8.369  1.00  0.00    -0.003 C 
ATOM     20  C   UNL     1      80.556  50.446   6.893  1.00  0.00     0.004 C 
ENDBRANCH  18  19
ENDBRANCH  17  18
ENDBRANCH  16  17
ENDBRANCH  15  16
ENDBRANCH  14  15
ENDBRANCH  13  14
ENDBRANCH  12  13
ENDBRANCH   1  12
TORSDOF 16
ENDMDL
MODEL 9
REMARK VINA RESULT:    -4.790      5.476      7.422
REMARK INTER + INTRA:         -10.819
REMARK INTER:                  -8.125
REMARK INTRA:                  -2.695
REMARK UNBOUND:                -1.550
REMARK SMILES CCCCCCCCCCCCCCCCCC(=O)[O-]
REMARK SMILES IDX 10 1 11 2 12 3 13 4 14 5 15 6 16 7 17 8 18 9 19 10 20 11
REMARK SMILES IDX 9 12 8 13 7 14 6 15 5 16 4 17 3 18 2 19 1 20
REMARK H PARENT
REMARK Flexibility Score: inf
ROOT
ATOM      1  C   UNL     1      84.787  60.572  10.981  1.00  0.00     0.000 C 
ENDROOT
BRANCH   1   2
ATOM      2  C   UNL     1      83.282  60.601  10.682  1.00  0.00     0.000 C 
BRANCH   2   3
ATOM      3  C   UNL     1      82.841  61.886   9.958  1.00  0.00     0.000 C 
BRANCH   3   4
ATOM      4  C   UNL     1      83.984  62.856   9.596  1.00  0.00     0.000 C 
BRANCH   4   5
ATOM      5  C   UNL     1      84.155  63.130   8.091  1.00  0.00     0.000 C 
BRANCH   5   6
ATOM      6  C   UNL     1      85.625  63.294   7.678  1.00  0.00     0.000 C 
BRANCH   6   7
ATOM      7  C   UNL     1      86.486  63.735   8.867  1.00  0.00     0.006 C 
BRANCH   7   8
ATOM      8  C   UNL     1      87.976  63.687   8.515  1.00  0.00     0.053 C 
BRANCH   8   9
ATOM      9  C   UNL     1      88.600  65.035   8.692  1.00  0.00     0.041 C 
ATOM     10  O   UNL     1      88.239  66.001   7.970  1.00  0.00    -0.550 OA
ATOM     11  O   UNL     1      89.545  65.237   9.691  1.00  0.00    -0.550 OA
ENDBRANCH   8   9
ENDBRANCH   7   8
ENDBRANCH   6   7
ENDBRANCH   5   6
ENDBRANCH   4   5
ENDBRANCH   3   4
ENDBRANCH   2   3
ENDBRANCH   1   2
BRANCH   1  12
ATOM     12  C   UNL     1      85.432  59.297  10.419  1.00  0.00     0.000 C 
BRANCH  12  13
ATOM     13  C   UNL     1      85.001  58.989   8.973  1.00  0.00    -0.000 C 
BRANCH  13  14
ATOM     14  C   UNL     1      85.931  59.547   7.880  1.00  0.00    -0.000 C 
BRANCH  14  15
ATOM     15  C   UNL     1      87.256  60.091   8.439  1.00  0.00    -0.000 C 
BRANCH  15  16
ATOM     16  C   UNL     1      88.483  59.507   7.721  1.00  0.00    -0.000 C 
BRANCH  16  17
ATOM     17  C   UNL     1      88.272  58.047   7.282  1.00  0.00    -0.000 C 
BRANCH  17  18
ATOM     18  C   UNL     1      88.957  57.044   8.223  1.00  0.00    -0.000 C 
BRANCH  18  19
ATOM     19  C   UNL     1      88.012  56.518   9.314  1.00  0.00    -0.003 C 
ATOM     20  C   UNL     1      88.293  57.188  10.655  1.00  0.00     0.004 C 
ENDBRANCH  18  19
ENDBRANCH  17  18
ENDBRANCH  16  17
ENDBRANCH  15  16
ENDBRANCH  14  15
ENDBRANCH  13  14
ENDBRANCH  12  13
ENDBRANCH   1  12
TORSDOF 16
ENDMDL
