MODEL 1
REMARK VINA RESULT:    -6.952      0.000      0.000
REMARK INTER + INTRA:         -11.800
REMARK INTER:                 -10.204
REMARK INTRA:                  -1.597
REMARK UNBOUND:                -1.597
REMARK SMILES O=c1c(O[C@H]2O[C@@H](CO)[C@H](O)[C@H](O)[C@H]2O)c(-c2ccc(O)c(O)c2)oc2cc(O)cc(O)c12
REMARK SMILES IDX 4 1 3 2 16 3 25 4 2 5 26 6 1 7 33 8 27 9 31 10 28 11 30 12
REMARK SMILES IDX 17 13 18 14 19 15 20 16 24 17 22 18 21 19 23 21 32 23 29 25
REMARK SMILES IDX 5 27 14 28 6 29 12 30 7 31 10 32 15 33 13 35 8 37 9 38 11 40
REMARK H PARENT 21 20 23 22 32 24 29 26 15 34 13 36 9 39 11 41
REMARK Flexibility Score: inf
ROOT
ATOM      1  O   UNL     1     121.596 115.642 114.726  1.00  0.00    -0.454 OA
ENDROOT
BRANCH   1   2
ATOM      2  C   UNL     1     122.412 114.681 114.113  1.00  0.00     0.214 A 
ATOM      3  C   UNL     1     123.409 113.988 114.826  1.00  0.00     0.180 A 
ATOM      4  O   UNL     1     124.115 113.043 114.217  1.00  0.00    -0.452 OA
ATOM      5  C   UNL     1     122.237 114.409 112.752  1.00  0.00     0.239 A 
ATOM      6  C   UNL     1     123.954 112.719 112.940  1.00  0.00     0.146 A 
ATOM      7  O   UNL     1     121.415 115.109 112.105  1.00  0.00    -0.285 OA
ATOM      8  C   UNL     1     122.985 113.376 112.137  1.00  0.00     0.111 A 
ATOM      9  C   UNL     1     124.773 111.727 112.396  1.00  0.00     0.094 A 
ATOM     10  C   UNL     1     122.844 112.972 110.773  1.00  0.00     0.134 A 
ATOM     11  C   UNL     1     124.661 111.376 111.051  1.00  0.00     0.123 A 
ATOM     12  C   UNL     1     123.705 112.001 110.249  1.00  0.00     0.093 A 
BRANCH   3  13
ATOM     13  C   UNL     1     123.729 114.292 116.238  1.00  0.00     0.025 A 
ATOM     14  C   UNL     1     124.753 115.193 116.570  1.00  0.00     0.016 A 
ATOM     15  C   UNL     1     125.044 115.466 117.907  1.00  0.00     0.051 A 
ATOM     16  C   UNL     1     124.331 114.840 118.935  1.00  0.00     0.157 A 
ATOM     17  C   UNL     1     123.028 113.645 117.265  1.00  0.00     0.062 A 
ATOM     18  C   UNL     1     123.311 113.914 118.610  1.00  0.00     0.158 A 
BRANCH  16  19
ATOM     19  O   UNL     1     124.667 115.161 120.252  1.00  0.00    -0.504 OA
ATOM     20  H   UNL     1     124.379 114.623 121.056  1.00  0.00     0.293 HD
ENDBRANCH  16  19
BRANCH  18  21
ATOM     21  O   UNL     1     122.562 113.245 119.580  1.00  0.00    -0.504 OA
ATOM     22  H   UNL     1     122.761 113.280 120.569  1.00  0.00     0.293 HD
ENDBRANCH  18  21
ENDBRANCH   3  13
BRANCH  10  23
ATOM     23  O   UNL     1     121.868 113.470 109.904  1.00  0.00    -0.507 OA
ATOM     24  H   UNL     1     120.898 113.611 110.141  1.00  0.00     0.293 HD
ENDBRANCH  10  23
BRANCH  11  25
ATOM     25  O   UNL     1     125.489 110.402 110.499  1.00  0.00    -0.508 OA
ATOM     26  H   UNL     1     125.722 109.555 111.005  1.00  0.00     0.293 HD
ENDBRANCH  11  25
ENDBRANCH   1   2
BRANCH   1  27
ATOM     27  C   UNL     1     120.412 115.317 115.462  1.00  0.00     0.339 C 
ATOM     28  C   UNL     1     119.153 115.900 114.793  1.00  0.00     0.214 C 
ATOM     29  O   UNL     1     120.536 115.718 116.819  1.00  0.00    -0.332 OA
ATOM     30  C   UNL     1     119.159 117.430 114.895  1.00  0.00     0.180 C 
ATOM     31  C   UNL     1     120.574 117.130 117.011  1.00  0.00     0.179 C 
ATOM     32  C   UNL     1     119.375 117.869 116.358  1.00  0.00     0.177 C 
BRANCH  28  33
ATOM     33  O   UNL     1     119.109 115.503 113.447  1.00  0.00    -0.384 OA
ATOM     34  H   UNL     1     118.381 114.833 113.365  1.00  0.00     0.211 HD
ENDBRANCH  28  33
BRANCH  30  35
ATOM     35  O   UNL     1     117.942 117.937 114.412  1.00  0.00    -0.387 OA
ATOM     36  H   UNL     1     117.237 117.291 114.679  1.00  0.00     0.211 HD
ENDBRANCH  30  35
BRANCH  31  37
ATOM     37  C   UNL     1     121.940 117.740 116.639  1.00  0.00     0.191 C 
BRANCH  37  38
ATOM     38  O   UNL     1     122.641 118.083 117.803  1.00  0.00    -0.394 OA
ATOM     39  H   UNL     1     122.540 119.065 117.908  1.00  0.00     0.210 HD
ENDBRANCH  37  38
ENDBRANCH  31  37
BRANCH  32  40
ATOM     40  O   UNL     1     118.202 117.692 117.116  1.00  0.00    -0.387 OA
ATOM     41  H   UNL     1     117.442 118.076 116.607  1.00  0.00     0.211 HD
ENDBRANCH  32  40
ENDBRANCH   1  27
TORSDOF 12
ENDMDL
MODEL 2
REMARK VINA RESULT:    -6.695      3.651      7.035
REMARK INTER + INTRA:         -11.423
REMARK INTER:                  -9.877
REMARK INTRA:                  -1.545
REMARK UNBOUND:                -1.597
REMARK SMILES O=c1c(O[C@H]2O[C@@H](CO)[C@H](O)[C@H](O)[C@H]2O)c(-c2ccc(O)c(O)c2)oc2cc(O)cc(O)c12
REMARK SMILES IDX 4 1 3 2 16 3 25 4 2 5 26 6 1 7 33 8 27 9 31 10 28 11 30 12
REMARK SMILES IDX 17 13 18 14 19 15 20 16 24 17 22 18 21 19 23 21 32 23 29 25
REMARK SMILES IDX 5 27 14 28 6 29 12 30 7 31 10 32 15 33 13 35 8 37 9 38 11 40
REMARK H PARENT 21 20 23 22 32 24 29 26 15 34 13 36 9 39 11 41
REMARK Flexibility Score: inf
ROOT
ATOM      1  O   UNL     1     126.381 113.343 114.402  1.00  0.00    -0.454 OA
ENDROOT
BRANCH   1   2
ATOM      2  C   UNL     1     127.221 112.483 113.681  1.00  0.00     0.214 A 
ATOM      3  C   UNL     1     126.898 112.046 112.382  1.00  0.00     0.180 A 
ATOM      4  O   UNL     1     127.755 111.281 111.716  1.00  0.00    -0.452 OA
ATOM      5  C   UNL     1     128.409 112.039 114.272  1.00  0.00     0.239 A 
ATOM      6  C   UNL     1     128.914 110.872 112.218  1.00  0.00     0.146 A 
ATOM      7  O   UNL     1     128.632 112.354 115.470  1.00  0.00    -0.285 OA
ATOM      8  C   UNL     1     129.316 111.248 113.527  1.00  0.00     0.111 A 
ATOM      9  C   UNL     1     129.724 110.046 111.435  1.00  0.00     0.094 A 
ATOM     10  C   UNL     1     130.582 110.793 114.006  1.00  0.00     0.134 A 
ATOM     11  C   UNL     1     130.936 109.567 111.934  1.00  0.00     0.123 A 
ATOM     12  C   UNL     1     131.354 109.936 113.212  1.00  0.00     0.093 A 
BRANCH   3  13
ATOM     13  C   UNL     1     125.615 112.382 111.730  1.00  0.00     0.025 A 
ATOM     14  C   UNL     1     125.463 113.572 111.001  1.00  0.00     0.016 A 
ATOM     15  C   UNL     1     124.243 113.875 110.394  1.00  0.00     0.051 A 
ATOM     16  C   UNL     1     123.152 113.008 110.511  1.00  0.00     0.157 A 
ATOM     17  C   UNL     1     124.517 111.521 111.870  1.00  0.00     0.062 A 
ATOM     18  C   UNL     1     123.290 111.816 111.263  1.00  0.00     0.158 A 
BRANCH  16  19
ATOM     19  O   UNL     1     121.962 113.366 109.875  1.00  0.00    -0.504 OA
ATOM     20  H   UNL     1     121.245 112.708 109.605  1.00  0.00     0.293 HD
ENDBRANCH  16  19
BRANCH  18  21
ATOM     21  O   UNL     1     122.244 110.906 111.430  1.00  0.00    -0.504 OA
ATOM     22  H   UNL     1     121.394 110.916 110.886  1.00  0.00     0.293 HD
ENDBRANCH  18  21
ENDBRANCH   3  13
BRANCH  10  23
ATOM     23  O   UNL     1     131.136 111.167 115.235  1.00  0.00    -0.507 OA
ATOM     24  H   UNL     1     131.079 110.629 116.086  1.00  0.00     0.293 HD
ENDBRANCH  10  23
BRANCH  11  25
ATOM     25  O   UNL     1     131.738 108.727 111.166  1.00  0.00    -0.508 OA
ATOM     26  H   UNL     1     132.640 108.406 111.498  1.00  0.00     0.293 HD
ENDBRANCH  11  25
ENDBRANCH   1   2
BRANCH   1  27
ATOM     27  C   UNL     1     126.437 114.770 114.299  1.00  0.00     0.339 C 
ATOM     28  C   UNL     1     126.747 115.423 115.658  1.00  0.00     0.214 C 
ATOM     29  O   UNL     1     125.247 115.280 113.715  1.00  0.00    -0.332 OA
ATOM     30  C   UNL     1     125.565 115.239 116.617  1.00  0.00     0.180 C 
ATOM     31  C   UNL     1     124.086 115.129 114.527  1.00  0.00     0.179 C 
ATOM     32  C   UNL     1     124.257 115.717 115.954  1.00  0.00     0.177 C 
BRANCH  28  33
ATOM     33  O   UNL     1     127.907 114.850 116.202  1.00  0.00    -0.384 OA
ATOM     34  H   UNL     1     128.244 114.190 115.540  1.00  0.00     0.211 HD
ENDBRANCH  28  33
BRANCH  30  35
ATOM     35  O   UNL     1     125.801 115.961 117.799  1.00  0.00    -0.387 OA
ATOM     36  H   UNL     1     125.131 116.692 117.825  1.00  0.00     0.211 HD
ENDBRANCH  30  35
BRANCH  31  37
ATOM     37  C   UNL     1     123.544 113.686 114.524  1.00  0.00     0.191 C 
BRANCH  37  38
ATOM     38  O   UNL     1     122.944 113.399 115.757  1.00  0.00    -0.394 OA
ATOM     39  H   UNL     1     122.090 113.904 115.774  1.00  0.00     0.210 HD
ENDBRANCH  37  38
ENDBRANCH  31  37
BRANCH  32  40
ATOM     40  O   UNL     1     124.187 117.123 115.932  1.00  0.00    -0.387 OA
ATOM     41  H   UNL     1     124.649 117.470 116.738  1.00  0.00     0.211 HD
ENDBRANCH  32  40
ENDBRANCH   1  27
TORSDOF 12
ENDMDL
MODEL 3
REMARK VINA RESULT:    -6.495      4.089      8.656
REMARK INTER + INTRA:         -11.130
REMARK INTER:                  -9.583
REMARK INTRA:                  -1.546
REMARK UNBOUND:                -1.597
REMARK SMILES O=c1c(O[C@H]2O[C@@H](CO)[C@H](O)[C@H](O)[C@H]2O)c(-c2ccc(O)c(O)c2)oc2cc(O)cc(O)c12
REMARK SMILES IDX 4 1 3 2 16 3 25 4 2 5 26 6 1 7 33 8 27 9 31 10 28 11 30 12
REMARK SMILES IDX 17 13 18 14 19 15 20 16 24 17 22 18 21 19 23 21 32 23 29 25
REMARK SMILES IDX 5 27 14 28 6 29 12 30 7 31 10 32 15 33 13 35 8 37 9 38 11 40
REMARK H PARENT 21 20 23 22 32 24 29 26 15 34 13 36 9 39 11 41
REMARK Flexibility Score: inf
ROOT
ATOM      1  O   UNL     1     121.512 115.768 119.627  1.00  0.00    -0.454 OA
ENDROOT
BRANCH   1   2
ATOM      2  C   UNL     1     121.057 116.491 120.739  1.00  0.00     0.214 A 
ATOM      3  C   UNL     1     121.919 116.856 121.791  1.00  0.00     0.180 A 
ATOM      4  O   UNL     1     121.456 117.594 122.792  1.00  0.00    -0.452 OA
ATOM      5  C   UNL     1     119.708 116.855 120.809  1.00  0.00     0.239 A 
ATOM      6  C   UNL     1     120.195 118.000 122.879  1.00  0.00     0.146 A 
ATOM      7  O   UNL     1     118.931 116.432 119.914  1.00  0.00    -0.285 OA
ATOM      8  C   UNL     1     119.250 117.666 121.874  1.00  0.00     0.111 A 
ATOM      9  C   UNL     1     119.813 118.750 123.994  1.00  0.00     0.094 A 
ATOM     10  C   UNL     1     117.911 118.147 122.013  1.00  0.00     0.134 A 
ATOM     11  C   UNL     1     118.491 119.171 124.143  1.00  0.00     0.123 A 
ATOM     12  C   UNL     1     117.551 118.864 123.159  1.00  0.00     0.093 A 
BRANCH   3  13
ATOM     13  C   UNL     1     123.331 116.420 121.845  1.00  0.00     0.025 A 
ATOM     14  C   UNL     1     124.373 117.299 121.509  1.00  0.00     0.016 A 
ATOM     15  C   UNL     1     125.700 116.871 121.562  1.00  0.00     0.051 A 
ATOM     16  C   UNL     1     126.013 115.560 121.938  1.00  0.00     0.157 A 
ATOM     17  C   UNL     1     123.639 115.099 122.199  1.00  0.00     0.062 A 
ATOM     18  C   UNL     1     124.967 114.660 122.257  1.00  0.00     0.158 A 
BRANCH  16  19
ATOM     19  O   UNL     1     127.361 115.196 121.977  1.00  0.00    -0.504 OA
ATOM     20  H   UNL     1     127.798 114.734 122.761  1.00  0.00     0.293 HD
ENDBRANCH  16  19
BRANCH  18  21
ATOM     21  O   UNL     1     125.201 113.336 122.633  1.00  0.00    -0.504 OA
ATOM     22  H   UNL     1     125.379 113.042 123.583  1.00  0.00     0.293 HD
ENDBRANCH  18  21
ENDBRANCH   3  13
BRANCH  10  23
ATOM     23  O   UNL     1     116.911 117.970 121.051  1.00  0.00    -0.507 OA
ATOM     24  H   UNL     1     116.980 118.247 120.084  1.00  0.00     0.293 HD
ENDBRANCH  10  23
BRANCH  11  25
ATOM     25  O   UNL     1     118.100 119.902 125.262  1.00  0.00    -0.508 OA
ATOM     26  H   UNL     1     118.400 120.860 125.401  1.00  0.00     0.293 HD
ENDBRANCH  11  25
ENDBRANCH   1   2
BRANCH   1  27
ATOM     27  C   UNL     1     122.205 116.365 118.527  1.00  0.00     0.339 C 
ATOM     28  C   UNL     1     121.349 116.358 117.248  1.00  0.00     0.214 C 
ATOM     29  O   UNL     1     123.469 115.747 118.332  1.00  0.00    -0.332 OA
ATOM     30  C   UNL     1     121.164 114.923 116.741  1.00  0.00     0.180 C 
ATOM     31  C   UNL     1     123.396 114.396 117.883  1.00  0.00     0.179 C 
ATOM     32  C   UNL     1     122.530 114.222 116.607  1.00  0.00     0.177 C 
BRANCH  28  33
ATOM     33  O   UNL     1     120.100 116.943 117.514  1.00  0.00    -0.384 OA
ATOM     34  H   UNL     1     119.490 116.676 116.777  1.00  0.00     0.211 HD
ENDBRANCH  28  33
BRANCH  30  35
ATOM     35  O   UNL     1     120.506 114.944 115.500  1.00  0.00    -0.387 OA
ATOM     36  H   UNL     1     120.316 115.896 115.294  1.00  0.00     0.211 HD
ENDBRANCH  30  35
BRANCH  31  37
ATOM     37  C   UNL     1     123.020 113.417 119.013  1.00  0.00     0.191 C 
BRANCH  37  38
ATOM     38  O   UNL     1     122.482 112.244 118.467  1.00  0.00    -0.394 OA
ATOM     39  H   UNL     1     122.025 112.514 117.628  1.00  0.00     0.210 HD
ENDBRANCH  37  38
ENDBRANCH  31  37
BRANCH  32  40
ATOM     40  O   UNL     1     123.220 114.674 115.465  1.00  0.00    -0.387 OA
ATOM     41  H   UNL     1     123.783 115.447 115.728  1.00  0.00     0.211 HD
ENDBRANCH  32  40
ENDBRANCH   1  27
TORSDOF 12
ENDMDL
MODEL 4
REMARK VINA RESULT:    -6.402      4.466      9.211
REMARK INTER + INTRA:         -10.993
REMARK INTER:                  -9.892
REMARK INTRA:                  -1.101
REMARK UNBOUND:                -1.597
REMARK SMILES O=c1c(O[C@H]2O[C@@H](CO)[C@H](O)[C@H](O)[C@H]2O)c(-c2ccc(O)c(O)c2)oc2cc(O)cc(O)c12
REMARK SMILES IDX 4 1 3 2 16 3 25 4 2 5 26 6 1 7 33 8 27 9 31 10 28 11 30 12
REMARK SMILES IDX 17 13 18 14 19 15 20 16 24 17 22 18 21 19 23 21 32 23 29 25
REMARK SMILES IDX 5 27 14 28 6 29 12 30 7 31 10 32 15 33 13 35 8 37 9 38 11 40
REMARK H PARENT 21 20 23 22 32 24 29 26 15 34 13 36 9 39 11 41
REMARK Flexibility Score: inf
ROOT
ATOM      1  O   UNL     1     121.499 116.308 120.028  1.00  0.00    -0.454 OA
ENDROOT
BRANCH   1   2
ATOM      2  C   UNL     1     120.840 116.982 121.065  1.00  0.00     0.214 A 
ATOM      3  C   UNL     1     121.512 117.382 122.236  1.00  0.00     0.180 A 
ATOM      4  O   UNL     1     120.859 118.073 123.163  1.00  0.00    -0.452 OA
ATOM      5  C   UNL     1     119.475 117.260 120.937  1.00  0.00     0.239 A 
ATOM      6  C   UNL     1     119.576 118.398 123.066  1.00  0.00     0.146 A 
ATOM      7  O   UNL     1     118.867 116.805 119.933  1.00  0.00    -0.285 OA
ATOM      8  C   UNL     1     118.813 118.022 121.929  1.00  0.00     0.111 A 
ATOM      9  C   UNL     1     118.986 119.103 124.117  1.00  0.00     0.094 A 
ATOM     10  C   UNL     1     117.441 118.416 121.871  1.00  0.00     0.134 A 
ATOM     11  C   UNL     1     117.633 119.438 124.071  1.00  0.00     0.123 A 
ATOM     12  C   UNL     1     116.870 119.090 122.957  1.00  0.00     0.093 A 
BRANCH   3  13
ATOM     13  C   UNL     1     122.926 117.034 122.496  1.00  0.00     0.025 A 
ATOM     14  C   UNL     1     123.265 115.937 123.303  1.00  0.00     0.016 A 
ATOM     15  C   UNL     1     124.604 115.625 123.540  1.00  0.00     0.051 A 
ATOM     16  C   UNL     1     125.628 116.404 122.991  1.00  0.00     0.157 A 
ATOM     17  C   UNL     1     123.948 117.833 121.962  1.00  0.00     0.062 A 
ATOM     18  C   UNL     1     125.294 117.526 122.193  1.00  0.00     0.158 A 
BRANCH  16  19
ATOM     19  O   UNL     1     126.947 116.036 123.261  1.00  0.00    -0.504 OA
ATOM     20  H   UNL     1     127.214 115.150 123.665  1.00  0.00     0.293 HD
ENDBRANCH  16  19
BRANCH  18  21
ATOM     21  O   UNL     1     126.259 118.354 121.617  1.00  0.00    -0.504 OA
ATOM     22  H   UNL     1     127.249 118.156 121.621  1.00  0.00     0.293 HD
ENDBRANCH  18  21
ENDBRANCH   3  13
BRANCH  10  23
ATOM     23  O   UNL     1     116.607 118.194 120.770  1.00  0.00    -0.507 OA
ATOM     24  H   UNL     1     116.755 118.568 119.845  1.00  0.00     0.293 HD
ENDBRANCH  10  23
BRANCH  11  25
ATOM     25  O   UNL     1     117.034 120.124 125.125  1.00  0.00    -0.508 OA
ATOM     26  H   UNL     1     117.503 120.893 125.592  1.00  0.00     0.293 HD
ENDBRANCH  11  25
ENDBRANCH   1   2
BRANCH   1  27
ATOM     27  C   UNL     1     121.230 114.946 119.678  1.00  0.00     0.339 C 
ATOM     28  C   UNL     1     122.528 114.128 119.550  1.00  0.00     0.214 C 
ATOM     29  O   UNL     1     120.432 114.876 118.504  1.00  0.00    -0.332 OA
ATOM     30  C   UNL     1     123.334 114.597 118.333  1.00  0.00     0.180 C 
ATOM     31  C   UNL     1     121.092 115.317 117.321  1.00  0.00     0.179 C 
ATOM     32  C   UNL     1     122.447 114.600 117.072  1.00  0.00     0.177 C 
BRANCH  28  33
ATOM     33  O   UNL     1     123.291 114.271 120.721  1.00  0.00    -0.384 OA
ATOM     34  H   UNL     1     122.773 113.851 121.458  1.00  0.00     0.211 HD
ENDBRANCH  28  33
BRANCH  30  35
ATOM     35  O   UNL     1     124.439 113.750 118.146  1.00  0.00    -0.387 OA
ATOM     36  H   UNL     1     124.338 113.343 117.247  1.00  0.00     0.211 HD
ENDBRANCH  30  35
BRANCH  31  37
ATOM     37  C   UNL     1     121.193 116.853 117.237  1.00  0.00     0.191 C 
BRANCH  37  38
ATOM     38  O   UNL     1     119.936 117.426 117.471  1.00  0.00    -0.394 OA
ATOM     39  H   UNL     1     119.302 116.670 117.575  1.00  0.00     0.210 HD
ENDBRANCH  37  38
ENDBRANCH  31  37
BRANCH  32  40
ATOM     40  O   UNL     1     122.243 113.290 116.596  1.00  0.00    -0.387 OA
ATOM     41  H   UNL     1     121.777 113.346 115.722  1.00  0.00     0.211 HD
ENDBRANCH  32  40
ENDBRANCH   1  27
TORSDOF 12
ENDMDL
MODEL 5
REMARK VINA RESULT:    -6.272      3.534      8.005
REMARK INTER + INTRA:         -10.802
REMARK INTER:                  -9.170
REMARK INTRA:                  -1.631
REMARK UNBOUND:                -1.597
REMARK SMILES O=c1c(O[C@H]2O[C@@H](CO)[C@H](O)[C@H](O)[C@H]2O)c(-c2ccc(O)c(O)c2)oc2cc(O)cc(O)c12
REMARK SMILES IDX 4 1 3 2 16 3 25 4 2 5 26 6 1 7 33 8 27 9 31 10 28 11 30 12
REMARK SMILES IDX 17 13 18 14 19 15 20 16 24 17 22 18 21 19 23 21 32 23 29 25
REMARK SMILES IDX 5 27 14 28 6 29 12 30 7 31 10 32 15 33 13 35 8 37 9 38 11 40
REMARK H PARENT 21 20 23 22 32 24 29 26 15 34 13 36 9 39 11 41
REMARK Flexibility Score: inf
ROOT
ATOM      1  O   UNL     1     120.661 116.388 118.268  1.00  0.00    -0.454 OA
ENDROOT
BRANCH   1   2
ATOM      2  C   UNL     1     120.657 116.941 119.556  1.00  0.00     0.214 A 
ATOM      3  C   UNL     1     121.832 117.046 120.323  1.00  0.00     0.180 A 
ATOM      4  O   UNL     1     121.788 117.633 121.513  1.00  0.00    -0.452 OA
ATOM      5  C   UNL     1     119.448 117.392 120.099  1.00  0.00     0.239 A 
ATOM      6  C   UNL     1     120.675 118.117 122.050  1.00  0.00     0.146 A 
ATOM      7  O   UNL     1     118.392 117.195 119.444  1.00  0.00    -0.285 OA
ATOM      8  C   UNL     1     119.438 118.039 121.357  1.00  0.00     0.111 A 
ATOM      9  C   UNL     1     120.743 118.688 123.322  1.00  0.00     0.094 A 
ATOM     10  C   UNL     1     118.276 118.593 121.978  1.00  0.00     0.134 A 
ATOM     11  C   UNL     1     119.592 119.181 123.938  1.00  0.00     0.123 A 
ATOM     12  C   UNL     1     118.370 119.126 123.268  1.00  0.00     0.093 A 
BRANCH   3  13
ATOM     13  C   UNL     1     123.128 116.497 119.867  1.00  0.00     0.025 A 
ATOM     14  C   UNL     1     124.029 117.284 119.133  1.00  0.00     0.016 A 
ATOM     15  C   UNL     1     125.246 116.750 118.708  1.00  0.00     0.051 A 
ATOM     16  C   UNL     1     125.581 115.422 118.993  1.00  0.00     0.157 A 
ATOM     17  C   UNL     1     123.449 115.159 120.134  1.00  0.00     0.062 A 
ATOM     18  C   UNL     1     124.668 114.614 119.713  1.00  0.00     0.158 A 
BRANCH  16  19
ATOM     19  O   UNL     1     126.816 114.949 118.544  1.00  0.00    -0.504 OA
ATOM     20  H   UNL     1     127.246 114.095 118.869  1.00  0.00     0.293 HD
ENDBRANCH  16  19
BRANCH  18  21
ATOM     21  O   UNL     1     124.929 113.279 120.029  1.00  0.00    -0.504 OA
ATOM     22  H   UNL     1     125.801 112.951 120.418  1.00  0.00     0.293 HD
ENDBRANCH  18  21
ENDBRANCH   3  13
BRANCH  10  23
ATOM     23  O   UNL     1     117.020 118.666 121.366  1.00  0.00    -0.507 OA
ATOM     24  H   UNL     1     116.716 119.407 120.752  1.00  0.00     0.293 HD
ENDBRANCH  10  23
BRANCH  11  25
ATOM     25  O   UNL     1     119.650 119.734 125.215  1.00  0.00    -0.508 OA
ATOM     26  H   UNL     1     120.256 120.519 125.426  1.00  0.00     0.293 HD
ENDBRANCH  11  25
ENDBRANCH   1   2
BRANCH   1  27
ATOM     27  C   UNL     1     120.956 117.142 117.087  1.00  0.00     0.339 C 
ATOM     28  C   UNL     1     119.768 117.147 116.108  1.00  0.00     0.214 C 
ATOM     29  O   UNL     1     122.153 116.678 116.479  1.00  0.00    -0.332 OA
ATOM     30  C   UNL     1     119.556 115.746 115.523  1.00  0.00     0.180 C 
ATOM     31  C   UNL     1     122.059 115.368 115.927  1.00  0.00     0.179 C 
ATOM     32  C   UNL     1     120.875 115.206 114.934  1.00  0.00     0.177 C 
BRANCH  28  33
ATOM     33  O   UNL     1     118.609 117.574 116.777  1.00  0.00    -0.384 OA
ATOM     34  H   UNL     1     118.169 116.763 117.143  1.00  0.00     0.211 HD
ENDBRANCH  28  33
BRANCH  30  35
ATOM     35  O   UNL     1     118.566 115.797 114.528  1.00  0.00    -0.387 OA
ATOM     36  H   UNL     1     117.714 115.529 114.959  1.00  0.00     0.211 HD
ENDBRANCH  30  35
BRANCH  31  37
ATOM     37  C   UNL     1     122.104 114.267 117.004  1.00  0.00     0.191 C 
BRANCH  37  38
ATOM     38  O   UNL     1     123.033 113.283 116.641  1.00  0.00    -0.394 OA
ATOM     39  H   UNL     1     123.912 113.740 116.582  1.00  0.00     0.210 HD
ENDBRANCH  37  38
ENDBRANCH  31  37
BRANCH  32  40
ATOM     40  O   UNL     1     121.166 115.820 113.701  1.00  0.00    -0.387 OA
ATOM     41  H   UNL     1     121.264 116.795 113.853  1.00  0.00     0.211 HD
ENDBRANCH  32  40
ENDBRANCH   1  27
TORSDOF 12
ENDMDL
MODEL 6
REMARK VINA RESULT:    -6.241      2.915      4.448
REMARK INTER + INTRA:         -10.757
REMARK INTER:                  -9.251
REMARK INTRA:                  -1.506
REMARK UNBOUND:                -1.597
REMARK SMILES O=c1c(O[C@H]2O[C@@H](CO)[C@H](O)[C@H](O)[C@H]2O)c(-c2ccc(O)c(O)c2)oc2cc(O)cc(O)c12
REMARK SMILES IDX 4 1 3 2 16 3 25 4 2 5 26 6 1 7 33 8 27 9 31 10 28 11 30 12
REMARK SMILES IDX 17 13 18 14 19 15 20 16 24 17 22 18 21 19 23 21 32 23 29 25
REMARK SMILES IDX 5 27 14 28 6 29 12 30 7 31 10 32 15 33 13 35 8 37 9 38 11 40
REMARK H PARENT 21 20 23 22 32 24 29 26 15 34 13 36 9 39 11 41
REMARK Flexibility Score: inf
ROOT
ATOM      1  O   UNL     1     122.129 116.223 119.206  1.00  0.00    -0.454 OA
ENDROOT
BRANCH   1   2
ATOM      2  C   UNL     1     122.717 115.630 118.080  1.00  0.00     0.214 A 
ATOM      3  C   UNL     1     123.991 115.035 118.133  1.00  0.00     0.180 A 
ATOM      4  O   UNL     1     124.479 114.432 117.055  1.00  0.00    -0.452 OA
ATOM      5  C   UNL     1     122.020 115.638 116.866  1.00  0.00     0.239 A 
ATOM      6  C   UNL     1     123.837 114.375 115.895  1.00  0.00     0.146 A 
ATOM      7  O   UNL     1     120.930 116.265 116.809  1.00  0.00    -0.285 OA
ATOM      8  C   UNL     1     122.553 114.963 115.742  1.00  0.00     0.111 A 
ATOM      9  C   UNL     1     124.460 113.739 114.819  1.00  0.00     0.094 A 
ATOM     10  C   UNL     1     121.902 114.854 114.475  1.00  0.00     0.134 A 
ATOM     11  C   UNL     1     123.835 113.682 113.573  1.00  0.00     0.123 A 
ATOM     12  C   UNL     1     122.569 114.242 113.407  1.00  0.00     0.093 A 
BRANCH   3  13
ATOM     13  C   UNL     1     124.836 115.079 119.346  1.00  0.00     0.025 A 
ATOM     14  C   UNL     1     125.459 116.269 119.752  1.00  0.00     0.016 A 
ATOM     15  C   UNL     1     126.255 116.292 120.898  1.00  0.00     0.051 A 
ATOM     16  C   UNL     1     126.455 115.130 121.652  1.00  0.00     0.157 A 
ATOM     17  C   UNL     1     125.053 113.907 120.085  1.00  0.00     0.062 A 
ATOM     18  C   UNL     1     125.848 113.920 121.237  1.00  0.00     0.158 A 
BRANCH  16  19
ATOM     19  O   UNL     1     127.258 115.221 122.791  1.00  0.00    -0.504 OA
ATOM     20  H   UNL     1     128.100 115.775 122.845  1.00  0.00     0.293 HD
ENDBRANCH  16  19
BRANCH  18  21
ATOM     21  O   UNL     1     126.007 112.720 121.933  1.00  0.00    -0.504 OA
ATOM     22  H   UNL     1     125.253 112.228 122.390  1.00  0.00     0.293 HD
ENDBRANCH  18  21
ENDBRANCH   3  13
BRANCH  10  23
ATOM     23  O   UNL     1     120.603 115.304 114.219  1.00  0.00    -0.507 OA
ATOM     24  H   UNL     1     119.879 114.763 113.772  1.00  0.00     0.293 HD
ENDBRANCH  10  23
BRANCH  11  25
ATOM     25  O   UNL     1     124.461 113.066 112.492  1.00  0.00    -0.508 OA
ATOM     26  H   UNL     1     125.149 112.334 112.624  1.00  0.00     0.293 HD
ENDBRANCH  11  25
ENDBRANCH   1   2
BRANCH   1  27
ATOM     27  C   UNL     1     121.648 115.477 120.329  1.00  0.00     0.339 C 
ATOM     28  C   UNL     1     120.110 115.467 120.384  1.00  0.00     0.214 C 
ATOM     29  O   UNL     1     122.228 115.953 121.536  1.00  0.00    -0.332 OA
ATOM     30  C   UNL     1     119.581 116.869 120.708  1.00  0.00     0.180 C 
ATOM     31  C   UNL     1     121.812 117.265 121.906  1.00  0.00     0.179 C 
ATOM     32  C   UNL     1     120.269 117.422 121.973  1.00  0.00     0.177 C 
BRANCH  28  33
ATOM     33  O   UNL     1     119.598 115.027 119.153  1.00  0.00    -0.384 OA
ATOM     34  H   UNL     1     118.962 114.290 119.349  1.00  0.00     0.211 HD
ENDBRANCH  28  33
BRANCH  30  35
ATOM     35  O   UNL     1     118.191 116.815 120.897  1.00  0.00    -0.387 OA
ATOM     36  H   UNL     1     117.786 117.411 120.215  1.00  0.00     0.211 HD
ENDBRANCH  30  35
BRANCH  31  37
ATOM     37  C   UNL     1     122.500 118.362 121.068  1.00  0.00     0.191 C 
BRANCH  37  38
ATOM     38  O   UNL     1     123.574 118.905 121.785  1.00  0.00    -0.394 OA
ATOM     39  H   UNL     1     123.813 118.234 122.476  1.00  0.00     0.210 HD
ENDBRANCH  37  38
ENDBRANCH  31  37
BRANCH  32  40
ATOM     40  O   UNL     1     119.751 116.817 123.134  1.00  0.00    -0.387 OA
ATOM     41  H   UNL     1     119.666 115.843 122.966  1.00  0.00     0.211 HD
ENDBRANCH  32  40
ENDBRANCH   1  27
TORSDOF 12
ENDMDL
MODEL 7
REMARK VINA RESULT:    -6.186      3.369      5.370
REMARK INTER + INTRA:         -10.675
REMARK INTER:                  -9.054
REMARK INTRA:                  -1.621
REMARK UNBOUND:                -1.597
REMARK SMILES O=c1c(O[C@H]2O[C@@H](CO)[C@H](O)[C@H](O)[C@H]2O)c(-c2ccc(O)c(O)c2)oc2cc(O)cc(O)c12
REMARK SMILES IDX 4 1 3 2 16 3 25 4 2 5 26 6 1 7 33 8 27 9 31 10 28 11 30 12
REMARK SMILES IDX 17 13 18 14 19 15 20 16 24 17 22 18 21 19 23 21 32 23 29 25
REMARK SMILES IDX 5 27 14 28 6 29 12 30 7 31 10 32 15 33 13 35 8 37 9 38 11 40
REMARK H PARENT 21 20 23 22 32 24 29 26 15 34 13 36 9 39 11 41
REMARK Flexibility Score: inf
ROOT
ATOM      1  O   UNL     1     120.824 117.251 119.829  1.00  0.00    -0.454 OA
ENDROOT
BRANCH   1   2
ATOM      2  C   UNL     1     121.232 116.707 118.603  1.00  0.00     0.214 A 
ATOM      3  C   UNL     1     122.478 116.071 118.450  1.00  0.00     0.180 A 
ATOM      4  O   UNL     1     122.793 115.517 117.286  1.00  0.00    -0.452 OA
ATOM      5  C   UNL     1     120.379 116.806 117.498  1.00  0.00     0.239 A 
ATOM      6  C   UNL     1     121.999 115.546 116.223  1.00  0.00     0.146 A 
ATOM      7  O   UNL     1     119.316 117.468 117.624  1.00  0.00    -0.285 OA
ATOM      8  C   UNL     1     120.730 116.181 116.278  1.00  0.00     0.111 A 
ATOM      9  C   UNL     1     122.447 114.954 115.040  1.00  0.00     0.094 A 
ATOM     10  C   UNL     1     119.911 116.165 115.107  1.00  0.00     0.134 A 
ATOM     11  C   UNL     1     121.659 114.989 113.889  1.00  0.00     0.123 A 
ATOM     12  C   UNL     1     120.404 115.596 113.927  1.00  0.00     0.093 A 
BRANCH   3  13
ATOM     13  C   UNL     1     123.479 116.018 119.538  1.00  0.00     0.025 A 
ATOM     14  C   UNL     1     124.504 116.974 119.625  1.00  0.00     0.016 A 
ATOM     15  C   UNL     1     125.442 116.908 120.656  1.00  0.00     0.051 A 
ATOM     16  C   UNL     1     125.385 115.885 121.609  1.00  0.00     0.157 A 
ATOM     17  C   UNL     1     123.432 114.978 120.477  1.00  0.00     0.062 A 
ATOM     18  C   UNL     1     124.368 114.904 121.515  1.00  0.00     0.158 A 
BRANCH  16  19
ATOM     19  O   UNL     1     126.350 115.878 122.618  1.00  0.00    -0.504 OA
ATOM     20  H   UNL     1     126.424 116.587 123.334  1.00  0.00     0.293 HD
ENDBRANCH  16  19
BRANCH  18  21
ATOM     21  O   UNL     1     124.252 113.851 122.424  1.00  0.00    -0.504 OA
ATOM     22  H   UNL     1     123.479 113.741 123.065  1.00  0.00     0.293 HD
ENDBRANCH  18  21
ENDBRANCH   3  13
BRANCH  10  23
ATOM     23  O   UNL     1     118.607 116.669 115.056  1.00  0.00    -0.507 OA
ATOM     24  H   UNL     1     118.018 116.839 115.857  1.00  0.00     0.293 HD
ENDBRANCH  10  23
BRANCH  11  25
ATOM     25  O   UNL     1     122.109 114.417 112.702  1.00  0.00    -0.508 OA
ATOM     26  H   UNL     1     122.699 113.593 112.701  1.00  0.00     0.293 HD
ENDBRANCH  11  25
ENDBRANCH   1   2
BRANCH   1  27
ATOM     27  C   UNL     1     120.186 116.487 120.858  1.00  0.00     0.339 C 
ATOM     28  C   UNL     1     118.775 117.021 121.166  1.00  0.00     0.214 C 
ATOM     29  O   UNL     1     121.003 116.423 122.019  1.00  0.00    -0.332 OA
ATOM     30  C   UNL     1     118.862 118.401 121.828  1.00  0.00     0.180 C 
ATOM     31  C   UNL     1     121.163 117.670 122.690  1.00  0.00     0.179 C 
ATOM     32  C   UNL     1     119.813 118.354 123.041  1.00  0.00     0.177 C 
BRANCH  28  33
ATOM     33  O   UNL     1     118.032 117.100 119.976  1.00  0.00    -0.384 OA
ATOM     34  H   UNL     1     118.631 116.809 119.239  1.00  0.00     0.211 HD
ENDBRANCH  28  33
BRANCH  30  35
ATOM     35  O   UNL     1     117.581 118.810 122.232  1.00  0.00    -0.387 OA
ATOM     36  H   UNL     1     117.479 119.755 121.945  1.00  0.00     0.211 HD
ENDBRANCH  30  35
BRANCH  31  37
ATOM     37  C   UNL     1     122.151 118.609 121.969  1.00  0.00     0.191 C 
BRANCH  37  38
ATOM     38  O   UNL     1     123.366 118.647 122.665  1.00  0.00    -0.394 OA
ATOM     39  H   UNL     1     123.700 117.713 122.690  1.00  0.00     0.210 HD
ENDBRANCH  37  38
ENDBRANCH  31  37
BRANCH  32  40
ATOM     40  O   UNL     1     119.199 117.721 124.139  1.00  0.00    -0.387 OA
ATOM     41  H   UNL     1     119.790 116.985 124.444  1.00  0.00     0.211 HD
ENDBRANCH  32  40
ENDBRANCH   1  27
TORSDOF 12
ENDMDL
MODEL 8
REMARK VINA RESULT:    -6.142      7.350     11.279
REMARK INTER + INTRA:         -10.611
REMARK INTER:                  -8.950
REMARK INTRA:                  -1.661
REMARK UNBOUND:                -1.597
REMARK SMILES O=c1c(O[C@H]2O[C@@H](CO)[C@H](O)[C@H](O)[C@H]2O)c(-c2ccc(O)c(O)c2)oc2cc(O)cc(O)c12
REMARK SMILES IDX 4 1 3 2 16 3 25 4 2 5 26 6 1 7 33 8 27 9 31 10 28 11 30 12
REMARK SMILES IDX 17 13 18 14 19 15 20 16 24 17 22 18 21 19 23 21 32 23 29 25
REMARK SMILES IDX 5 27 14 28 6 29 12 30 7 31 10 32 15 33 13 35 8 37 9 38 11 40
REMARK H PARENT 21 20 23 22 32 24 29 26 15 34 13 36 9 39 11 41
REMARK Flexibility Score: inf
ROOT
ATOM      1  O   UNL     1     126.446 114.963 123.910  1.00  0.00    -0.454 OA
ENDROOT
BRANCH   1   2
ATOM      2  C   UNL     1     125.612 115.919 123.312  1.00  0.00     0.214 A 
ATOM      3  C   UNL     1     125.942 117.287 123.296  1.00  0.00     0.180 A 
ATOM      4  O   UNL     1     125.150 118.145 122.664  1.00  0.00    -0.452 OA
ATOM      5  C   UNL     1     124.413 115.501 122.723  1.00  0.00     0.239 A 
ATOM      6  C   UNL     1     124.027 117.790 122.053  1.00  0.00     0.146 A 
ATOM      7  O   UNL     1     124.083 114.293 122.837  1.00  0.00    -0.285 OA
ATOM      8  C   UNL     1     123.604 116.435 122.033  1.00  0.00     0.111 A 
ATOM      9  C   UNL     1     123.257 118.784 121.444  1.00  0.00     0.094 A 
ATOM     10  C   UNL     1     122.395 116.110 121.343  1.00  0.00     0.134 A 
ATOM     11  C   UNL     1     122.053 118.462 120.817  1.00  0.00     0.123 A 
ATOM     12  C   UNL     1     121.628 117.134 120.775  1.00  0.00     0.093 A 
BRANCH   3  13
ATOM     13  C   UNL     1     127.134 117.823 123.988  1.00  0.00     0.025 A 
ATOM     14  C   UNL     1     128.265 118.236 123.266  1.00  0.00     0.016 A 
ATOM     15  C   UNL     1     129.383 118.736 123.935  1.00  0.00     0.051 A 
ATOM     16  C   UNL     1     129.401 118.822 125.331  1.00  0.00     0.157 A 
ATOM     17  C   UNL     1     127.157 117.884 125.389  1.00  0.00     0.062 A 
ATOM     18  C   UNL     1     128.273 118.386 126.068  1.00  0.00     0.158 A 
BRANCH  16  19
ATOM     19  O   UNL     1     130.548 119.336 125.939  1.00  0.00    -0.504 OA
ATOM     20  H   UNL     1     130.649 119.466 126.935  1.00  0.00     0.293 HD
ENDBRANCH  16  19
BRANCH  18  21
ATOM     21  O   UNL     1     128.220 118.433 127.463  1.00  0.00    -0.504 OA
ATOM     22  H   UNL     1     129.025 118.321 128.062  1.00  0.00     0.293 HD
ENDBRANCH  18  21
ENDBRANCH   3  13
BRANCH  10  23
ATOM     23  O   UNL     1     121.919 114.807 121.167  1.00  0.00    -0.507 OA
ATOM     24  H   UNL     1     122.337 114.112 120.568  1.00  0.00     0.293 HD
ENDBRANCH  10  23
BRANCH  11  25
ATOM     25  O   UNL     1     121.272 119.451 120.226  1.00  0.00    -0.508 OA
ATOM     26  H   UNL     1     120.634 120.020 120.772  1.00  0.00     0.293 HD
ENDBRANCH  11  25
ENDBRANCH   1   2
BRANCH   1  27
ATOM     27  C   UNL     1     127.605 114.419 123.270  1.00  0.00     0.339 C 
ATOM     28  C   UNL     1     127.459 112.906 123.028  1.00  0.00     0.214 C 
ATOM     29  O   UNL     1     128.781 114.736 124.003  1.00  0.00    -0.332 OA
ATOM     30  C   UNL     1     127.471 112.151 124.363  1.00  0.00     0.180 C 
ATOM     31  C   UNL     1     128.868 114.097 125.274  1.00  0.00     0.179 C 
ATOM     32  C   UNL     1     128.704 112.555 125.196  1.00  0.00     0.177 C 
BRANCH  28  33
ATOM     33  O   UNL     1     126.262 112.653 122.339  1.00  0.00    -0.384 OA
ATOM     34  H   UNL     1     126.070 113.455 121.785  1.00  0.00     0.211 HD
ENDBRANCH  28  33
BRANCH  30  35
ATOM     35  O   UNL     1     127.482 110.768 124.121  1.00  0.00    -0.387 OA
ATOM     36  H   UNL     1     126.998 110.623 123.266  1.00  0.00     0.211 HD
ENDBRANCH  30  35
BRANCH  31  37
ATOM     37  C   UNL     1     127.956 114.754 126.329  1.00  0.00     0.191 C 
BRANCH  37  38
ATOM     38  O   UNL     1     128.733 115.278 127.370  1.00  0.00    -0.394 OA
ATOM     39  H   UNL     1     128.304 116.133 127.633  1.00  0.00     0.210 HD
ENDBRANCH  37  38
ENDBRANCH  31  37
BRANCH  32  40
ATOM     40  O   UNL     1     129.873 111.950 124.694  1.00  0.00    -0.387 OA
ATOM     41  H   UNL     1     130.102 112.383 123.832  1.00  0.00     0.211 HD
ENDBRANCH  32  40
ENDBRANCH   1  27
TORSDOF 12
ENDMDL
MODEL 9
REMARK VINA RESULT:    -6.102      3.556      8.192
REMARK INTER + INTRA:         -10.553
REMARK INTER:                  -8.864
REMARK INTRA:                  -1.689
REMARK UNBOUND:                -1.597
REMARK SMILES O=c1c(O[C@H]2O[C@@H](CO)[C@H](O)[C@H](O)[C@H]2O)c(-c2ccc(O)c(O)c2)oc2cc(O)cc(O)c12
REMARK SMILES IDX 4 1 3 2 16 3 25 4 2 5 26 6 1 7 33 8 27 9 31 10 28 11 30 12
REMARK SMILES IDX 17 13 18 14 19 15 20 16 24 17 22 18 21 19 23 21 32 23 29 25
REMARK SMILES IDX 5 27 14 28 6 29 12 30 7 31 10 32 15 33 13 35 8 37 9 38 11 40
REMARK H PARENT 21 20 23 22 32 24 29 26 15 34 13 36 9 39 11 41
REMARK Flexibility Score: inf
ROOT
ATOM      1  O   UNL     1     126.838 113.215 112.626  1.00  0.00    -0.454 OA
ENDROOT
BRANCH   1   2
ATOM      2  C   UNL     1     127.347 113.891 113.744  1.00  0.00     0.214 A 
ATOM      3  C   UNL     1     126.511 114.591 114.633  1.00  0.00     0.180 A 
ATOM      4  O   UNL     1     127.032 115.163 115.712  1.00  0.00    -0.452 OA
ATOM      5  C   UNL     1     128.727 113.875 113.978  1.00  0.00     0.239 A 
ATOM      6  C   UNL     1     128.328 115.137 116.000  1.00  0.00     0.146 A 
ATOM      7  O   UNL     1     129.470 113.335 113.119  1.00  0.00    -0.285 OA
ATOM      8  C   UNL     1     129.250 114.469 115.151  1.00  0.00     0.111 A 
ATOM      9  C   UNL     1     128.768 115.798 117.148  1.00  0.00     0.094 A 
ATOM     10  C   UNL     1     130.630 114.459 115.522  1.00  0.00     0.134 A 
ATOM     11  C   UNL     1     130.125 115.824 117.473  1.00  0.00     0.123 A 
ATOM     12  C   UNL     1     131.045 115.162 116.659  1.00  0.00     0.093 A 
BRANCH   3  13
ATOM     13  C   UNL     1     125.058 114.745 114.399  1.00  0.00     0.025 A 
ATOM     14  C   UNL     1     124.124 113.999 115.134  1.00  0.00     0.016 A 
ATOM     15  C   UNL     1     122.757 114.154 114.899  1.00  0.00     0.051 A 
ATOM     16  C   UNL     1     122.297 115.043 113.921  1.00  0.00     0.157 A 
ATOM     17  C   UNL     1     124.603 115.620 113.402  1.00  0.00     0.062 A 
ATOM     18  C   UNL     1     123.234 115.784 113.160  1.00  0.00     0.158 A 
BRANCH  16  19
ATOM     19  O   UNL     1     120.917 115.157 113.739  1.00  0.00    -0.504 OA
ATOM     20  H   UNL     1     120.432 116.036 113.634  1.00  0.00     0.293 HD
ENDBRANCH  16  19
BRANCH  18  21
ATOM     21  O   UNL     1     122.852 116.684 112.164  1.00  0.00    -0.504 OA
ATOM     22  H   UNL     1     122.047 117.290 112.229  1.00  0.00     0.293 HD
ENDBRANCH  18  21
ENDBRANCH   3  13
BRANCH  10  23
ATOM     23  O   UNL     1     131.623 113.761 114.828  1.00  0.00    -0.507 OA
ATOM     24  H   UNL     1     131.504 112.856 114.398  1.00  0.00     0.293 HD
ENDBRANCH  10  23
BRANCH  11  25
ATOM     25  O   UNL     1     130.572 116.498 118.606  1.00  0.00    -0.508 OA
ATOM     26  H   UNL     1     129.936 116.772 119.346  1.00  0.00     0.293 HD
ENDBRANCH  11  25
ENDBRANCH   1   2
BRANCH   1  27
ATOM     27  C   UNL     1     126.199 111.936 112.701  1.00  0.00     0.339 C 
ATOM     28  C   UNL     1     127.040 110.844 112.015  1.00  0.00     0.214 C 
ATOM     29  O   UNL     1     124.877 112.003 112.184  1.00  0.00    -0.332 OA
ATOM     30  C   UNL     1     127.075 111.073 110.500  1.00  0.00     0.180 C 
ATOM     31  C   UNL     1     124.810 112.239 110.780  1.00  0.00     0.179 C 
ATOM     32  C   UNL     1     125.643 111.227 109.948  1.00  0.00     0.177 C 
BRANCH  28  33
ATOM     33  O   UNL     1     128.343 110.856 112.538  1.00  0.00    -0.384 OA
ATOM     34  H   UNL     1     128.689 109.927 112.479  1.00  0.00     0.211 HD
ENDBRANCH  28  33
BRANCH  30  35
ATOM     35  O   UNL     1     127.721 109.994 109.876  1.00  0.00    -0.387 OA
ATOM     36  H   UNL     1     127.263 109.850 109.007  1.00  0.00     0.211 HD
ENDBRANCH  30  35
BRANCH  31  37
ATOM     37  C   UNL     1     125.095 113.709 110.413  1.00  0.00     0.191 C 
BRANCH  37  38
ATOM     38  O   UNL     1     123.888 114.393 110.216  1.00  0.00    -0.394 OA
ATOM     39  H   UNL     1     123.298 114.137 110.971  1.00  0.00     0.210 HD
ENDBRANCH  37  38
ENDBRANCH  31  37
BRANCH  32  40
ATOM     40  O   UNL     1     124.993 109.980 109.876  1.00  0.00    -0.387 OA
ATOM     41  H   UNL     1     125.233 109.554 109.013  1.00  0.00     0.211 HD
ENDBRANCH  32  40
ENDBRANCH   1  27
TORSDOF 12
ENDMDL
