MODEL 1
REMARK VINA RESULT:    54.734      0.000      0.000
REMARK INTER + INTRA:          74.730
REMARK INTER:                  75.532
REMARK INTRA:                  -0.802
REMARK UNBOUND:                -0.802
REMARK SMILES CC[C@H](CC[C@@H](C)[C@@H]1CC[C@@H]2[C@H]3CC=C4C[C@H](O)CC[C@]4(C)[C@@H]3CC[C@@]21C)C(C)C
REMARK SMILES IDX 5 1 4 2 3 3 2 4 1 5 28 6 29 7 30 8 6 9 7 10 8 11 9 12 26 13
REMARK SMILES IDX 10 14 11 15 25 16 27 17 12 18 24 19 23 20 13 21 21 22 14 23
REMARK SMILES IDX 15 24 20 25 22 26 16 27 19 28 17 29 18 30
REMARK H PARENT 18 31
REMARK Flexibility Score: inf
ROOT
ATOM      1  C   UNL     1     -18.862 -42.371  31.078  1.00  0.00     0.004 C 
ENDROOT
BRANCH   1   2
ATOM      2  C   UNL     1     -18.043 -42.473  29.763  1.00  0.00     0.004 C 
BRANCH   2   3
ATOM      3  C   UNL     1     -17.889 -43.857  29.053  1.00  0.00    -0.009 C 
BRANCH   3   4
ATOM      4  C   UNL     1     -18.008 -43.815  27.505  1.00  0.00     0.000 C 
ATOM      5  C   UNL     1     -18.550 -45.114  26.901  1.00  0.00     0.004 C 
ENDBRANCH   3   4
BRANCH   3   6
ATOM      6  C   UNL     1     -16.675 -44.706  29.569  1.00  0.00    -0.014 C 
ATOM      7  C   UNL     1     -15.347 -43.946  29.406  1.00  0.00     0.007 C 
ATOM      8  C   UNL     1     -16.814 -45.173  31.030  1.00  0.00     0.007 C 
ENDBRANCH   3   6
ENDBRANCH   2   3
ENDBRANCH   1   2
BRANCH   1   9
ATOM      9  C   UNL     1     -19.939 -41.245  31.137  1.00  0.00    -0.011 C 
ATOM     10  C   UNL     1     -20.665 -41.065  29.793  1.00  0.00     0.008 C 
BRANCH   9  11
ATOM     11  C   UNL     1     -20.957 -41.296  32.341  1.00  0.00    -0.002 C 
ATOM     12  C   UNL     1     -22.378 -41.665  31.942  1.00  0.00     0.005 C 
ATOM     13  C   UNL     1     -21.112 -40.126  33.376  1.00  0.00    -0.026 C 
ATOM     14  C   UNL     1     -23.172 -41.522  33.222  1.00  0.00     0.005 C 
ATOM     15  C   UNL     1     -22.543 -40.343  33.991  1.00  0.00    -0.001 C 
ATOM     16  C   UNL     1     -21.012 -38.725  32.724  1.00  0.00     0.007 C 
ATOM     17  C   UNL     1     -20.042 -40.257  34.496  1.00  0.00     0.012 C 
ATOM     18  C   UNL     1     -23.484 -39.094  33.955  1.00  0.00     0.000 C 
ATOM     19  C   UNL     1     -21.373 -37.600  33.696  1.00  0.00     0.005 C 
ATOM     20  C   UNL     1     -22.769 -37.780  34.365  1.00  0.00     0.003 C 
ATOM     21  C   UNL     1     -24.673 -39.301  34.914  1.00  0.00     0.031 C 
ATOM     22  C   UNL     1     -23.724 -36.524  34.228  1.00  0.00    -0.008 C 
ATOM     23  C   UNL     1     -25.573 -38.103  34.955  1.00  0.00    -0.027 C 
ATOM     24  C   UNL     1     -25.146 -36.842  34.725  1.00  0.00    -0.065 C 
ATOM     25  C   UNL     1     -23.874 -36.042  32.743  1.00  0.00     0.014 C 
ATOM     26  C   UNL     1     -23.126 -35.386  35.097  1.00  0.00     0.016 C 
ATOM     27  C   UNL     1     -26.190 -35.753  34.597  1.00  0.00     0.063 C 
ATOM     28  C   UNL     1     -24.954 -34.955  32.540  1.00  0.00     0.033 C 
ATOM     29  C   UNL     1     -26.323 -35.354  33.123  1.00  0.00     0.118 C 
BRANCH  29  30
ATOM     30  O   UNL     1     -26.872 -36.425  32.397  1.00  0.00    -0.393 OA
ATOM     31  H   UNL     1     -27.760 -36.124  32.068  1.00  0.00     0.210 HD
ENDBRANCH  29  30
ENDBRANCH   9  11
ENDBRANCH   1   9
TORSDOF 7
ENDMDL
