MODEL 1
REMARK VINA RESULT:    -4.931      0.000      0.000
REMARK INTER + INTRA:         -14.782
REMARK INTER:                 -11.274
REMARK INTRA:                  -3.509
REMARK UNBOUND:                -3.509
REMARK SMILES CCCCCCCCCCCCCCCCCCCCCCCC(=O)[O-]
REMARK SMILES IDX 13 1 14 2 15 3 16 4 17 5 18 6 19 7 20 8 21 9 22 10 23 11
REMARK SMILES IDX 24 12 25 13 26 14 12 15 11 16 10 17 9 18 8 19 7 20 6 21 5 22
REMARK SMILES IDX 4 23 3 24 2 25 1 26
REMARK H PARENT
REMARK Flexibility Score: inf
ROOT
ATOM      1  C   UNL     1      38.876  59.997   6.370  1.00  0.00     0.000 C 
ENDROOT
BRANCH   1   2
ATOM      2  C   UNL     1      39.405  60.134   4.932  1.00  0.00     0.000 C 
BRANCH   2   3
ATOM      3  C   UNL     1      40.833  60.699   4.883  1.00  0.00     0.000 C 
BRANCH   3   4
ATOM      4  C   UNL     1      41.001  61.796   3.817  1.00  0.00     0.000 C 
BRANCH   4   5
ATOM      5  C   UNL     1      41.212  63.196   4.422  1.00  0.00     0.000 C 
BRANCH   5   6
ATOM      6  C   UNL     1      41.978  63.224   5.758  1.00  0.00     0.000 C 
BRANCH   6   7
ATOM      7  C   UNL     1      41.779  64.535   6.538  1.00  0.00     0.000 C 
BRANCH   7   8
ATOM      8  C   UNL     1      41.047  64.331   7.877  1.00  0.00     0.000 C 
BRANCH   8   9
ATOM      9  C   UNL     1      39.546  64.669   7.862  1.00  0.00     0.000 C 
BRANCH   9  10
ATOM     10  C   UNL     1      39.074  65.249   6.520  1.00  0.00     0.006 C 
BRANCH  10  11
ATOM     11  C   UNL     1      37.696  65.903   6.657  1.00  0.00     0.053 C 
BRANCH  11  12
ATOM     12  C   UNL     1      37.523  66.996   5.649  1.00  0.00     0.041 C 
ATOM     13  O   UNL     1      38.042  66.891   4.505  1.00  0.00    -0.550 OA
ATOM     14  O   UNL     1      36.787  68.131   5.969  1.00  0.00    -0.550 OA
ENDBRANCH  11  12
ENDBRANCH  10  11
ENDBRANCH   9  10
ENDBRANCH   8   9
ENDBRANCH   7   8
ENDBRANCH   6   7
ENDBRANCH   5   6
ENDBRANCH   4   5
ENDBRANCH   3   4
ENDBRANCH   2   3
ENDBRANCH   1   2
BRANCH   1  15
ATOM     15  C   UNL     1      39.339  61.145   7.279  1.00  0.00     0.000 C 
BRANCH  15  16
ATOM     16  C   UNL     1      40.134  60.652   8.503  1.00  0.00     0.000 C 
BRANCH  16  17
ATOM     17  C   UNL     1      41.653  60.692   8.272  1.00  0.00     0.000 C 
BRANCH  17  18
ATOM     18  C   UNL     1      42.246  59.296   8.010  1.00  0.00    -0.000 C 
BRANCH  18  19
ATOM     19  C   UNL     1      41.296  58.164   8.433  1.00  0.00    -0.000 C 
BRANCH  19  20
ATOM     20  C   UNL     1      41.226  57.032   7.391  1.00  0.00    -0.000 C 
BRANCH  20  21
ATOM     21  C   UNL     1      42.604  56.676   6.810  1.00  0.00    -0.000 C 
BRANCH  21  22
ATOM     22  C   UNL     1      42.507  55.771   5.573  1.00  0.00    -0.000 C 
BRANCH  22  23
ATOM     23  C   UNL     1      41.043  55.575   5.149  1.00  0.00    -0.000 C 
BRANCH  23  24
ATOM     24  C   UNL     1      40.573  56.633   4.137  1.00  0.00    -0.000 C 
BRANCH  24  25
ATOM     25  C   UNL     1      41.706  57.120   3.220  1.00  0.00    -0.003 C 
ATOM     26  C   UNL     1      41.190  58.124   2.193  1.00  0.00     0.004 C 
ENDBRANCH  24  25
ENDBRANCH  23  24
ENDBRANCH  22  23
ENDBRANCH  21  22
ENDBRANCH  20  21
ENDBRANCH  19  20
ENDBRANCH  18  19
ENDBRANCH  17  18
ENDBRANCH  16  17
ENDBRANCH  15  16
ENDBRANCH   1  15
TORSDOF 22
ENDMDL
MODEL 2
REMARK VINA RESULT:    -4.911      3.062      4.669
REMARK INTER + INTRA:         -14.735
REMARK INTER:                 -10.518
REMARK INTRA:                  -4.217
REMARK UNBOUND:                -3.509
REMARK SMILES CCCCCCCCCCCCCCCCCCCCCCCC(=O)[O-]
REMARK SMILES IDX 13 1 14 2 15 3 16 4 17 5 18 6 19 7 20 8 21 9 22 10 23 11
REMARK SMILES IDX 24 12 25 13 26 14 12 15 11 16 10 17 9 18 8 19 7 20 6 21 5 22
REMARK SMILES IDX 4 23 3 24 2 25 1 26
REMARK H PARENT
REMARK Flexibility Score: inf
ROOT
ATOM      1  C   UNL     1      40.891  63.072   8.741  1.00  0.00     0.000 C 
ENDROOT
BRANCH   1   2
ATOM      2  C   UNL     1      40.555  64.480   8.222  1.00  0.00     0.000 C 
BRANCH   2   3
ATOM      3  C   UNL     1      39.547  64.452   7.061  1.00  0.00     0.000 C 
BRANCH   3   4
ATOM      4  C   UNL     1      40.152  64.953   5.738  1.00  0.00     0.000 C 
BRANCH   4   5
ATOM      5  C   UNL     1      41.683  64.790   5.675  1.00  0.00     0.000 C 
BRANCH   5   6
ATOM      6  C   UNL     1      42.177  63.506   4.981  1.00  0.00     0.000 C 
BRANCH   6   7
ATOM      7  C   UNL     1      41.060  62.756   4.238  1.00  0.00     0.000 C 
BRANCH   7   8
ATOM      8  C   UNL     1      40.766  61.369   4.840  1.00  0.00     0.000 C 
BRANCH   8   9
ATOM      9  C   UNL     1      40.101  60.366   3.881  1.00  0.00     0.000 C 
BRANCH   9  10
ATOM     10  C   UNL     1      39.641  59.079   4.582  1.00  0.00     0.006 C 
BRANCH  10  11
ATOM     11  C   UNL     1      38.541  59.373   5.607  1.00  0.00     0.053 C 
BRANCH  11  12
ATOM     12  C   UNL     1      38.060  58.110   6.250  1.00  0.00     0.041 C 
ATOM     13  O   UNL     1      37.766  57.110   5.541  1.00  0.00    -0.550 OA
ATOM     14  O   UNL     1      37.938  58.033   7.633  1.00  0.00    -0.550 OA
ENDBRANCH  11  12
ENDBRANCH  10  11
ENDBRANCH   9  10
ENDBRANCH   8   9
ENDBRANCH   7   8
ENDBRANCH   6   7
ENDBRANCH   5   6
ENDBRANCH   4   5
ENDBRANCH   3   4
ENDBRANCH   2   3
ENDBRANCH   1   2
BRANCH   1  15
ATOM     15  C   UNL     1      39.810  62.039   8.389  1.00  0.00     0.000 C 
BRANCH  15  16
ATOM     16  C   UNL     1      40.355  60.600   8.340  1.00  0.00     0.000 C 
BRANCH  16  17
ATOM     17  C   UNL     1      41.846  60.549   7.967  1.00  0.00     0.000 C 
BRANCH  17  18
ATOM     18  C   UNL     1      42.386  59.110   7.897  1.00  0.00    -0.000 C 
BRANCH  18  19
ATOM     19  C   UNL     1      41.305  58.060   8.198  1.00  0.00    -0.000 C 
BRANCH  19  20
ATOM     20  C   UNL     1      41.709  56.648   7.733  1.00  0.00    -0.000 C 
BRANCH  20  21
ATOM     21  C   UNL     1      41.388  56.398   6.251  1.00  0.00    -0.000 C 
BRANCH  21  22
ATOM     22  C   UNL     1      42.329  55.369   5.609  1.00  0.00    -0.000 C 
BRANCH  22  23
ATOM     23  C   UNL     1      43.236  56.033   4.561  1.00  0.00    -0.000 C 
BRANCH  23  24
ATOM     24  C   UNL     1      43.046  57.558   4.495  1.00  0.00    -0.000 C 
BRANCH  24  25
ATOM     25  C   UNL     1      44.350  58.329   4.755  1.00  0.00    -0.003 C 
ATOM     26  C   UNL     1      44.131  59.835   4.637  1.00  0.00     0.004 C 
ENDBRANCH  24  25
ENDBRANCH  23  24
ENDBRANCH  22  23
ENDBRANCH  21  22
ENDBRANCH  20  21
ENDBRANCH  19  20
ENDBRANCH  18  19
ENDBRANCH  17  18
ENDBRANCH  16  17
ENDBRANCH  15  16
ENDBRANCH   1  15
TORSDOF 22
ENDMDL
MODEL 3
REMARK VINA RESULT:    -4.889      2.921      4.732
REMARK INTER + INTRA:         -14.687
REMARK INTER:                 -10.617
REMARK INTRA:                  -4.069
REMARK UNBOUND:                -3.509
REMARK SMILES CCCCCCCCCCCCCCCCCCCCCCCC(=O)[O-]
REMARK SMILES IDX 13 1 14 2 15 3 16 4 17 5 18 6 19 7 20 8 21 9 22 10 23 11
REMARK SMILES IDX 24 12 25 13 26 14 12 15 11 16 10 17 9 18 8 19 7 20 6 21 5 22
REMARK SMILES IDX 4 23 3 24 2 25 1 26
REMARK H PARENT
REMARK Flexibility Score: inf
ROOT
ATOM      1  C   UNL     1      42.180  59.530   7.669  1.00  0.00     0.000 C 
ENDROOT
BRANCH   1   2
ATOM      2  C   UNL     1      41.668  60.953   7.946  1.00  0.00     0.000 C 
BRANCH   2   3
ATOM      3  C   UNL     1      40.179  60.977   8.327  1.00  0.00     0.000 C 
BRANCH   3   4
ATOM      4  C   UNL     1      39.576  62.392   8.279  1.00  0.00     0.000 C 
BRANCH   4   5
ATOM      5  C   UNL     1      40.575  63.486   8.702  1.00  0.00     0.000 C 
BRANCH   5   6
ATOM      6  C   UNL     1      40.592  64.739   7.805  1.00  0.00     0.000 C 
BRANCH   6   7
ATOM      7  C   UNL     1      41.986  65.056   7.240  1.00  0.00     0.000 C 
BRANCH   7   8
ATOM      8  C   UNL     1      42.166  64.578   5.787  1.00  0.00     0.000 C 
BRANCH   8   9
ATOM      9  C   UNL     1      40.901  64.005   5.124  1.00  0.00     0.000 C 
BRANCH   9  10
ATOM     10  C   UNL     1      41.122  62.615   4.508  1.00  0.00     0.006 C 
BRANCH  10  11
ATOM     11  C   UNL     1      42.568  62.148   4.709  1.00  0.00     0.053 C 
BRANCH  11  12
ATOM     12  C   UNL     1      42.875  60.976   3.829  1.00  0.00     0.041 C 
ATOM     13  O   UNL     1      43.283  59.895   4.333  1.00  0.00    -0.550 OA
ATOM     14  O   UNL     1      42.711  61.075   2.452  1.00  0.00    -0.550 OA
ENDBRANCH  11  12
ENDBRANCH  10  11
ENDBRANCH   9  10
ENDBRANCH   8   9
ENDBRANCH   7   8
ENDBRANCH   6   7
ENDBRANCH   5   6
ENDBRANCH   4   5
ENDBRANCH   3   4
ENDBRANCH   2   3
ENDBRANCH   1   2
BRANCH   1  15
ATOM     15  C   UNL     1      41.375  58.457   8.418  1.00  0.00     0.000 C 
BRANCH  15  16
ATOM     16  C   UNL     1      41.715  57.028   7.957  1.00  0.00     0.000 C 
BRANCH  16  17
ATOM     17  C   UNL     1      42.701  57.010   6.777  1.00  0.00     0.000 C 
BRANCH  17  18
ATOM     18  C   UNL     1      42.692  55.669   6.023  1.00  0.00    -0.000 C 
BRANCH  18  19
ATOM     19  C   UNL     1      41.909  55.740   4.702  1.00  0.00    -0.000 C 
BRANCH  19  20
ATOM     20  C   UNL     1      40.435  55.322   4.868  1.00  0.00    -0.000 C 
BRANCH  20  21
ATOM     21  C   UNL     1      39.455  56.418   4.421  1.00  0.00    -0.000 C 
BRANCH  21  22
ATOM     22  C   UNL     1      39.193  57.460   5.518  1.00  0.00    -0.000 C 
BRANCH  22  23
ATOM     23  C   UNL     1      39.649  58.857   5.070  1.00  0.00    -0.000 C 
BRANCH  23  24
ATOM     24  C   UNL     1      38.469  59.790   4.749  1.00  0.00    -0.000 C 
BRANCH  24  25
ATOM     25  C   UNL     1      38.093  59.778   3.259  1.00  0.00    -0.003 C 
ATOM     26  C   UNL     1      39.299  60.111   2.384  1.00  0.00     0.004 C 
ENDBRANCH  24  25
ENDBRANCH  23  24
ENDBRANCH  22  23
ENDBRANCH  21  22
ENDBRANCH  20  21
ENDBRANCH  19  20
ENDBRANCH  18  19
ENDBRANCH  17  18
ENDBRANCH  16  17
ENDBRANCH  15  16
ENDBRANCH   1  15
TORSDOF 22
ENDMDL
MODEL 4
REMARK VINA RESULT:    -4.855      3.958      7.497
REMARK INTER + INTRA:         -14.607
REMARK INTER:                 -10.330
REMARK INTRA:                  -4.277
REMARK UNBOUND:                -3.509
REMARK SMILES CCCCCCCCCCCCCCCCCCCCCCCC(=O)[O-]
REMARK SMILES IDX 13 1 14 2 15 3 16 4 17 5 18 6 19 7 20 8 21 9 22 10 23 11
REMARK SMILES IDX 24 12 25 13 26 14 12 15 11 16 10 17 9 18 8 19 7 20 6 21 5 22
REMARK SMILES IDX 4 23 3 24 2 25 1 26
REMARK H PARENT
REMARK Flexibility Score: inf
ROOT
ATOM      1  C   UNL     1      40.775  63.467   8.627  1.00  0.00     0.000 C 
ENDROOT
BRANCH   1   2
ATOM      2  C   UNL     1      41.303  62.036   8.433  1.00  0.00     0.000 C 
BRANCH   2   3
ATOM      3  C   UNL     1      40.172  60.996   8.376  1.00  0.00     0.000 C 
BRANCH   3   4
ATOM      4  C   UNL     1      40.697  59.550   8.350  1.00  0.00     0.000 C 
BRANCH   4   5
ATOM      5  C   UNL     1      42.205  59.462   8.051  1.00  0.00     0.000 C 
BRANCH   5   6
ATOM      6  C   UNL     1      42.697  58.087   7.560  1.00  0.00     0.000 C 
BRANCH   6   7
ATOM      7  C   UNL     1      41.558  57.068   7.386  1.00  0.00     0.000 C 
BRANCH   7   8
ATOM      8  C   UNL     1      41.943  55.889   6.473  1.00  0.00     0.000 C 
BRANCH   8   9
ATOM      9  C   UNL     1      41.054  55.704   5.231  1.00  0.00     0.000 C 
BRANCH   9  10
ATOM     10  C   UNL     1      41.852  55.337   3.970  1.00  0.00     0.006 C 
BRANCH  10  11
ATOM     11  C   UNL     1      43.288  55.862   4.055  1.00  0.00     0.053 C 
BRANCH  11  12
ATOM     12  C   UNL     1      44.049  55.535   2.808  1.00  0.00     0.041 C 
ATOM     13  O   UNL     1      44.462  54.361   2.607  1.00  0.00    -0.550 OA
ATOM     14  O   UNL     1      44.303  56.524   1.865  1.00  0.00    -0.550 OA
ENDBRANCH  11  12
ENDBRANCH  10  11
ENDBRANCH   9  10
ENDBRANCH   8   9
ENDBRANCH   7   8
ENDBRANCH   6   7
ENDBRANCH   5   6
ENDBRANCH   4   5
ENDBRANCH   3   4
ENDBRANCH   2   3
ENDBRANCH   1   2
BRANCH   1  15
ATOM     15  C   UNL     1      39.375  63.666   8.028  1.00  0.00     0.000 C 
BRANCH  15  16
ATOM     16  C   UNL     1      39.361  64.681   6.871  1.00  0.00     0.000 C 
BRANCH  16  17
ATOM     17  C   UNL     1      40.752  64.883   6.249  1.00  0.00     0.000 C 
BRANCH  17  18
ATOM     18  C   UNL     1      41.017  63.924   5.075  1.00  0.00    -0.000 C 
BRANCH  18  19
ATOM     19  C   UNL     1      42.470  63.425   5.038  1.00  0.00    -0.000 C 
BRANCH  19  20
ATOM     20  C   UNL     1      42.569  61.890   5.112  1.00  0.00    -0.000 C 
BRANCH  20  21
ATOM     21  C   UNL     1      41.226  61.196   4.837  1.00  0.00    -0.000 C 
BRANCH  21  22
ATOM     22  C   UNL     1      41.391  59.718   4.454  1.00  0.00    -0.000 C 
BRANCH  22  23
ATOM     23  C   UNL     1      40.035  59.085   4.106  1.00  0.00    -0.000 C 
BRANCH  23  24
ATOM     24  C   UNL     1      38.929  59.469   5.103  1.00  0.00    -0.000 C 
BRANCH  24  25
ATOM     25  C   UNL     1      38.352  58.252   5.845  1.00  0.00    -0.003 C 
ATOM     26  C   UNL     1      37.775  57.234   4.865  1.00  0.00     0.004 C 
ENDBRANCH  24  25
ENDBRANCH  23  24
ENDBRANCH  22  23
ENDBRANCH  21  22
ENDBRANCH  20  21
ENDBRANCH  19  20
ENDBRANCH  18  19
ENDBRANCH  17  18
ENDBRANCH  16  17
ENDBRANCH  15  16
ENDBRANCH   1  15
TORSDOF 22
ENDMDL
MODEL 5
REMARK VINA RESULT:    -4.817      3.591      6.680
REMARK INTER + INTRA:         -14.521
REMARK INTER:                 -10.069
REMARK INTRA:                  -4.452
REMARK UNBOUND:                -3.509
REMARK SMILES CCCCCCCCCCCCCCCCCCCCCCCC(=O)[O-]
REMARK SMILES IDX 13 1 14 2 15 3 16 4 17 5 18 6 19 7 20 8 21 9 22 10 23 11
REMARK SMILES IDX 24 12 25 13 26 14 12 15 11 16 10 17 9 18 8 19 7 20 6 21 5 22
REMARK SMILES IDX 4 23 3 24 2 25 1 26
REMARK H PARENT
REMARK Flexibility Score: inf
ROOT
ATOM      1  C   UNL     1      41.314  63.523   4.998  1.00  0.00     0.000 C 
ENDROOT
BRANCH   1   2
ATOM      2  C   UNL     1      42.698  62.955   5.355  1.00  0.00     0.000 C 
BRANCH   2   3
ATOM      3  C   UNL     1      42.754  61.424   5.227  1.00  0.00     0.000 C 
BRANCH   3   4
ATOM      4  C   UNL     1      42.952  60.722   6.582  1.00  0.00     0.000 C 
BRANCH   4   5
ATOM      5  C   UNL     1      42.529  59.241   6.561  1.00  0.00     0.000 C 
BRANCH   5   6
ATOM      6  C   UNL     1      42.291  58.608   7.945  1.00  0.00     0.000 C 
BRANCH   6   7
ATOM      7  C   UNL     1      41.451  57.321   7.881  1.00  0.00     0.000 C 
BRANCH   7   8
ATOM      8  C   UNL     1      42.066  56.249   6.964  1.00  0.00     0.000 C 
BRANCH   8   9
ATOM      9  C   UNL     1      41.196  55.834   5.764  1.00  0.00     0.000 C 
BRANCH   9  10
ATOM     10  C   UNL     1      41.983  55.765   4.446  1.00  0.00     0.006 C 
BRANCH  10  11
ATOM     11  C   UNL     1      43.420  56.261   4.637  1.00  0.00     0.053 C 
BRANCH  11  12
ATOM     12  C   UNL     1      43.779  57.268   3.589  1.00  0.00     0.041 C 
ATOM     13  O   UNL     1      44.949  57.735   3.534  1.00  0.00    -0.550 OA
ATOM     14  O   UNL     1      42.825  57.691   2.672  1.00  0.00    -0.550 OA
ENDBRANCH  11  12
ENDBRANCH  10  11
ENDBRANCH   9  10
ENDBRANCH   8   9
ENDBRANCH   7   8
ENDBRANCH   6   7
ENDBRANCH   5   6
ENDBRANCH   4   5
ENDBRANCH   3   4
ENDBRANCH   2   3
ENDBRANCH   1   2
BRANCH   1  15
ATOM     15  C   UNL     1      40.729  64.397   6.118  1.00  0.00     0.000 C 
BRANCH  15  16
ATOM     16  C   UNL     1      41.604  64.405   7.385  1.00  0.00     0.000 C 
BRANCH  16  17
ATOM     17  C   UNL     1      40.970  63.614   8.542  1.00  0.00     0.000 C 
BRANCH  17  18
ATOM     18  C   UNL     1      39.630  62.967   8.148  1.00  0.00    -0.000 C 
BRANCH  18  19
ATOM     19  C   UNL     1      39.730  61.439   8.018  1.00  0.00    -0.000 C 
BRANCH  19  20
ATOM     20  C   UNL     1      39.228  60.930   6.654  1.00  0.00    -0.000 C 
BRANCH  20  21
ATOM     21  C   UNL     1      38.758  59.468   6.703  1.00  0.00    -0.000 C 
BRANCH  21  22
ATOM     22  C   UNL     1      38.515  58.877   5.307  1.00  0.00    -0.000 C 
BRANCH  22  23
ATOM     23  C   UNL     1      39.786  58.960   4.447  1.00  0.00    -0.000 C 
BRANCH  23  24
ATOM     24  C   UNL     1      39.485  58.918   2.939  1.00  0.00    -0.000 C 
BRANCH  24  25
ATOM     25  C   UNL     1      39.227  60.313   2.348  1.00  0.00    -0.003 C 
ATOM     26  C   UNL     1      40.513  61.133   2.290  1.00  0.00     0.004 C 
ENDBRANCH  24  25
ENDBRANCH  23  24
ENDBRANCH  22  23
ENDBRANCH  21  22
ENDBRANCH  20  21
ENDBRANCH  19  20
ENDBRANCH  18  19
ENDBRANCH  17  18
ENDBRANCH  16  17
ENDBRANCH  15  16
ENDBRANCH   1  15
TORSDOF 22
ENDMDL
MODEL 6
REMARK VINA RESULT:    -4.810      3.291      6.807
REMARK INTER + INTRA:         -14.504
REMARK INTER:                 -10.250
REMARK INTRA:                  -4.254
REMARK UNBOUND:                -3.509
REMARK SMILES CCCCCCCCCCCCCCCCCCCCCCCC(=O)[O-]
REMARK SMILES IDX 13 1 14 2 15 3 16 4 17 5 18 6 19 7 20 8 21 9 22 10 23 11
REMARK SMILES IDX 24 12 25 13 26 14 12 15 11 16 10 17 9 18 8 19 7 20 6 21 5 22
REMARK SMILES IDX 4 23 3 24 2 25 1 26
REMARK H PARENT
REMARK Flexibility Score: inf
ROOT
ATOM      1  C   UNL     1      41.220  61.735   8.309  1.00  0.00     0.000 C 
ENDROOT
BRANCH   1   2
ATOM      2  C   UNL     1      41.255  60.231   7.991  1.00  0.00     0.000 C 
BRANCH   2   3
ATOM      3  C   UNL     1      39.848  59.622   7.876  1.00  0.00     0.000 C 
BRANCH   3   4
ATOM      4  C   UNL     1      39.849  58.092   8.035  1.00  0.00     0.000 C 
BRANCH   4   5
ATOM      5  C   UNL     1      41.212  57.535   8.488  1.00  0.00     0.000 C 
BRANCH   5   6
ATOM      6  C   UNL     1      41.862  56.528   7.519  1.00  0.00     0.000 C 
BRANCH   6   7
ATOM      7  C   UNL     1      43.089  57.100   6.790  1.00  0.00     0.000 C 
BRANCH   7   8
ATOM      8  C   UNL     1      43.164  56.669   5.314  1.00  0.00     0.000 C 
BRANCH   8   9
ATOM      9  C   UNL     1      43.590  57.773   4.330  1.00  0.00     0.000 C 
BRANCH   9  10
ATOM     10  C   UNL     1      43.502  59.183   4.933  1.00  0.00     0.006 C 
BRANCH  10  11
ATOM     11  C   UNL     1      44.776  59.984   4.648  1.00  0.00     0.053 C 
BRANCH  11  12
ATOM     12  C   UNL     1      45.050  60.042   3.177  1.00  0.00     0.041 C 
ATOM     13  O   UNL     1      46.057  59.455   2.697  1.00  0.00    -0.550 OA
ATOM     14  O   UNL     1      44.194  60.742   2.334  1.00  0.00    -0.550 OA
ENDBRANCH  11  12
ENDBRANCH  10  11
ENDBRANCH   9  10
ENDBRANCH   8   9
ENDBRANCH   7   8
ENDBRANCH   6   7
ENDBRANCH   5   6
ENDBRANCH   4   5
ENDBRANCH   3   4
ENDBRANCH   2   3
ENDBRANCH   1   2
BRANCH   1  15
ATOM     15  C   UNL     1      39.789  62.292   8.368  1.00  0.00     0.000 C 
BRANCH  15  16
ATOM     16  C   UNL     1      39.746  63.784   8.749  1.00  0.00     0.000 C 
BRANCH  16  17
ATOM     17  C   UNL     1      40.634  64.648   7.839  1.00  0.00     0.000 C 
BRANCH  17  18
ATOM     18  C   UNL     1      39.898  65.116   6.570  1.00  0.00    -0.000 C 
BRANCH  18  19
ATOM     19  C   UNL     1      40.469  64.482   5.292  1.00  0.00    -0.000 C 
BRANCH  19  20
ATOM     20  C   UNL     1      41.948  64.079   5.443  1.00  0.00    -0.000 C 
BRANCH  20  21
ATOM     21  C   UNL     1      42.261  62.720   4.797  1.00  0.00    -0.000 C 
BRANCH  21  22
ATOM     22  C   UNL     1      41.006  61.858   4.598  1.00  0.00    -0.000 C 
BRANCH  22  23
ATOM     23  C   UNL     1      40.855  61.441   3.126  1.00  0.00    -0.000 C 
BRANCH  23  24
ATOM     24  C   UNL     1      39.717  60.429   2.912  1.00  0.00    -0.000 C 
BRANCH  24  25
ATOM     25  C   UNL     1      39.297  59.725   4.213  1.00  0.00    -0.003 C 
ATOM     26  C   UNL     1      39.902  58.327   4.302  1.00  0.00     0.004 C 
ENDBRANCH  24  25
ENDBRANCH  23  24
ENDBRANCH  22  23
ENDBRANCH  21  22
ENDBRANCH  20  21
ENDBRANCH  19  20
ENDBRANCH  18  19
ENDBRANCH  17  18
ENDBRANCH  16  17
ENDBRANCH  15  16
ENDBRANCH   1  15
TORSDOF 22
ENDMDL
MODEL 7
REMARK VINA RESULT:    -4.806      3.874      6.865
REMARK INTER + INTRA:         -14.496
REMARK INTER:                 -10.184
REMARK INTRA:                  -4.312
REMARK UNBOUND:                -3.509
REMARK SMILES CCCCCCCCCCCCCCCCCCCCCCCC(=O)[O-]
REMARK SMILES IDX 13 1 14 2 15 3 16 4 17 5 18 6 19 7 20 8 21 9 22 10 23 11
REMARK SMILES IDX 24 12 25 13 26 14 12 15 11 16 10 17 9 18 8 19 7 20 6 21 5 22
REMARK SMILES IDX 4 23 3 24 2 25 1 26
REMARK H PARENT
REMARK Flexibility Score: inf
ROOT
ATOM      1  C   UNL     1      39.153  64.750   7.700  1.00  0.00     0.000 C 
ENDROOT
BRANCH   1   2
ATOM      2  C   UNL     1      39.428  63.635   8.721  1.00  0.00     0.000 C 
BRANCH   2   3
ATOM      3  C   UNL     1      40.880  63.134   8.668  1.00  0.00     0.000 C 
BRANCH   3   4
ATOM      4  C   UNL     1      40.977  61.621   8.405  1.00  0.00     0.000 C 
BRANCH   4   5
ATOM      5  C   UNL     1      39.721  61.047   7.723  1.00  0.00     0.000 C 
BRANCH   5   6
ATOM      6  C   UNL     1      39.722  59.518   7.530  1.00  0.00     0.000 C 
BRANCH   6   7
ATOM      7  C   UNL     1      40.859  58.816   8.291  1.00  0.00     0.000 C 
BRANCH   7   8
ATOM      8  C   UNL     1      41.012  57.333   7.905  1.00  0.00     0.000 C 
BRANCH   8   9
ATOM      9  C   UNL     1      42.380  56.946   7.316  1.00  0.00     0.000 C 
BRANCH   9  10
ATOM     10  C   UNL     1      42.296  55.785   6.314  1.00  0.00     0.006 C 
BRANCH  10  11
ATOM     11  C   UNL     1      41.032  55.889   5.455  1.00  0.00     0.053 C 
BRANCH  11  12
ATOM     12  C   UNL     1      41.292  55.404   4.063  1.00  0.00     0.041 C 
ATOM     13  O   UNL     1      40.342  54.979   3.352  1.00  0.00    -0.550 OA
ATOM     14  O   UNL     1      42.583  55.421   3.548  1.00  0.00    -0.550 OA
ENDBRANCH  11  12
ENDBRANCH  10  11
ENDBRANCH   9  10
ENDBRANCH   8   9
ENDBRANCH   7   8
ENDBRANCH   6   7
ENDBRANCH   5   6
ENDBRANCH   4   5
ENDBRANCH   3   4
ENDBRANCH   2   3
ENDBRANCH   1   2
BRANCH   1  15
ATOM     15  C   UNL     1      40.403  65.130   6.891  1.00  0.00     0.000 C 
BRANCH  15  16
ATOM     16  C   UNL     1      40.265  64.801   5.393  1.00  0.00     0.000 C 
BRANCH  16  17
ATOM     17  C   UNL     1      40.952  63.478   5.016  1.00  0.00     0.000 C 
BRANCH  17  18
ATOM     18  C   UNL     1      42.484  63.553   5.142  1.00  0.00    -0.000 C 
BRANCH  18  19
ATOM     19  C   UNL     1      43.176  62.258   4.685  1.00  0.00    -0.000 C 
BRANCH  19  20
ATOM     20  C   UNL     1      43.417  61.277   5.847  1.00  0.00    -0.000 C 
BRANCH  20  21
ATOM     21  C   UNL     1      43.118  59.819   5.464  1.00  0.00    -0.000 C 
BRANCH  21  22
ATOM     22  C   UNL     1      43.176  59.584   3.947  1.00  0.00    -0.000 C 
BRANCH  22  23
ATOM     23  C   UNL     1      41.867  58.963   3.437  1.00  0.00    -0.000 C 
BRANCH  23  24
ATOM     24  C   UNL     1      40.622  59.585   4.092  1.00  0.00    -0.000 C 
BRANCH  24  25
ATOM     25  C   UNL     1      39.719  60.308   3.078  1.00  0.00    -0.003 C 
ATOM     26  C   UNL     1      40.540  61.189   2.140  1.00  0.00     0.004 C 
ENDBRANCH  24  25
ENDBRANCH  23  24
ENDBRANCH  22  23
ENDBRANCH  21  22
ENDBRANCH  20  21
ENDBRANCH  19  20
ENDBRANCH  18  19
ENDBRANCH  17  18
ENDBRANCH  16  17
ENDBRANCH  15  16
ENDBRANCH   1  15
TORSDOF 22
ENDMDL
MODEL 8
REMARK VINA RESULT:    -4.794      3.800      7.475
REMARK INTER + INTRA:         -14.469
REMARK INTER:                 -10.069
REMARK INTRA:                  -4.400
REMARK UNBOUND:                -3.509
REMARK SMILES CCCCCCCCCCCCCCCCCCCCCCCC(=O)[O-]
REMARK SMILES IDX 13 1 14 2 15 3 16 4 17 5 18 6 19 7 20 8 21 9 22 10 23 11
REMARK SMILES IDX 24 12 25 13 26 14 12 15 11 16 10 17 9 18 8 19 7 20 6 21 5 22
REMARK SMILES IDX 4 23 3 24 2 25 1 26
REMARK H PARENT
REMARK Flexibility Score: inf
ROOT
ATOM      1  C   UNL     1      39.760  62.478   8.229  1.00  0.00     0.000 C 
ENDROOT
BRANCH   1   2
ATOM      2  C   UNL     1      40.306  61.048   8.374  1.00  0.00     0.000 C 
BRANCH   2   3
ATOM      3  C   UNL     1      41.792  60.945   7.992  1.00  0.00     0.000 C 
BRANCH   3   4
ATOM      4  C   UNL     1      42.302  59.494   7.979  1.00  0.00     0.000 C 
BRANCH   4   5
ATOM      5  C   UNL     1      41.179  58.459   8.184  1.00  0.00     0.000 C 
BRANCH   5   6
ATOM      6  C   UNL     1      41.559  57.005   7.845  1.00  0.00     0.000 C 
BRANCH   6   7
ATOM      7  C   UNL     1      42.753  56.903   6.881  1.00  0.00     0.000 C 
BRANCH   7   8
ATOM      8  C   UNL     1      42.702  55.646   5.994  1.00  0.00     0.000 C 
BRANCH   8   9
ATOM      9  C   UNL     1      41.530  55.593   4.998  1.00  0.00     0.000 C 
BRANCH   9  10
ATOM     10  C   UNL     1      41.966  55.836   3.544  1.00  0.00     0.006 C 
BRANCH  10  11
ATOM     11  C   UNL     1      43.442  55.478   3.345  1.00  0.00     0.053 C 
BRANCH  11  12
ATOM     12  C   UNL     1      43.991  56.148   2.124  1.00  0.00     0.041 C 
ATOM     13  O   UNL     1      43.395  57.138   1.622  1.00  0.00    -0.550 OA
ATOM     14  O   UNL     1      45.163  55.681   1.540  1.00  0.00    -0.550 OA
ENDBRANCH  11  12
ENDBRANCH  10  11
ENDBRANCH   9  10
ENDBRANCH   8   9
ENDBRANCH   7   8
ENDBRANCH   6   7
ENDBRANCH   5   6
ENDBRANCH   4   5
ENDBRANCH   3   4
ENDBRANCH   2   3
ENDBRANCH   1   2
BRANCH   1  15
ATOM     15  C   UNL     1      40.793  63.546   8.620  1.00  0.00     0.000 C 
BRANCH  15  16
ATOM     16  C   UNL     1      41.133  64.499   7.459  1.00  0.00     0.000 C 
BRANCH  16  17
ATOM     17  C   UNL     1      40.352  64.165   6.177  1.00  0.00     0.000 C 
BRANCH  17  18
ATOM     18  C   UNL     1      41.264  63.645   5.051  1.00  0.00    -0.000 C 
BRANCH  18  19
ATOM     19  C   UNL     1      42.756  63.818   5.375  1.00  0.00    -0.000 C 
BRANCH  19  20
ATOM     20  C   UNL     1      43.655  62.914   4.510  1.00  0.00    -0.000 C 
BRANCH  20  21
ATOM     21  C   UNL     1      43.882  61.529   5.136  1.00  0.00    -0.000 C 
BRANCH  21  22
ATOM     22  C   UNL     1      43.957  60.411   4.086  1.00  0.00    -0.000 C 
BRANCH  22  23
ATOM     23  C   UNL     1      42.884  59.342   4.346  1.00  0.00    -0.000 C 
BRANCH  23  24
ATOM     24  C   UNL     1      41.530  59.694   3.709  1.00  0.00    -0.000 C 
BRANCH  24  25
ATOM     25  C   UNL     1      40.445  59.999   4.755  1.00  0.00    -0.003 C 
ATOM     26  C   UNL     1      39.538  58.791   4.975  1.00  0.00     0.004 C 
ENDBRANCH  24  25
ENDBRANCH  23  24
ENDBRANCH  22  23
ENDBRANCH  21  22
ENDBRANCH  20  21
ENDBRANCH  19  20
ENDBRANCH  18  19
ENDBRANCH  17  18
ENDBRANCH  16  17
ENDBRANCH  15  16
ENDBRANCH   1  15
TORSDOF 22
ENDMDL
MODEL 9
REMARK VINA RESULT:    -4.791      3.924      7.264
REMARK INTER + INTRA:         -14.461
REMARK INTER:                  -9.996
REMARK INTRA:                  -4.466
REMARK UNBOUND:                -3.509
REMARK SMILES CCCCCCCCCCCCCCCCCCCCCCCC(=O)[O-]
REMARK SMILES IDX 13 1 14 2 15 3 16 4 17 5 18 6 19 7 20 8 21 9 22 10 23 11
REMARK SMILES IDX 24 12 25 13 26 14 12 15 11 16 10 17 9 18 8 19 7 20 6 21 5 22
REMARK SMILES IDX 4 23 3 24 2 25 1 26
REMARK H PARENT
REMARK Flexibility Score: inf
ROOT
ATOM      1  C   UNL     1      39.510  63.497   7.972  1.00  0.00     0.000 C 
ENDROOT
BRANCH   1   2
ATOM      2  C   UNL     1      39.782  62.026   8.331  1.00  0.00     0.000 C 
BRANCH   2   3
ATOM      3  C   UNL     1      41.282  61.689   8.328  1.00  0.00     0.000 C 
BRANCH   3   4
ATOM      4  C   UNL     1      41.568  60.260   7.835  1.00  0.00     0.000 C 
BRANCH   4   5
ATOM      5  C   UNL     1      40.537  59.232   8.338  1.00  0.00     0.000 C 
BRANCH   5   6
ATOM      6  C   UNL     1      41.067  57.793   8.488  1.00  0.00     0.000 C 
BRANCH   6   7
ATOM      7  C   UNL     1      42.329  57.526   7.652  1.00  0.00     0.000 C 
BRANCH   7   8
ATOM      8  C   UNL     1      42.277  56.184   6.899  1.00  0.00     0.000 C 
BRANCH   8   9
ATOM      9  C   UNL     1      41.146  56.057   5.863  1.00  0.00     0.000 C 
BRANCH   9  10
ATOM     10  C   UNL     1      41.643  55.601   4.483  1.00  0.00     0.006 C 
BRANCH  10  11
ATOM     11  C   UNL     1      43.165  55.738   4.373  1.00  0.00     0.053 C 
BRANCH  11  12
ATOM     12  C   UNL     1      43.564  56.158   2.993  1.00  0.00     0.041 C 
ATOM     13  O   UNL     1      44.754  56.497   2.753  1.00  0.00    -0.550 OA
ATOM     14  O   UNL     1      42.623  56.175   1.970  1.00  0.00    -0.550 OA
ENDBRANCH  11  12
ENDBRANCH  10  11
ENDBRANCH   9  10
ENDBRANCH   8   9
ENDBRANCH   7   8
ENDBRANCH   6   7
ENDBRANCH   5   6
ENDBRANCH   4   5
ENDBRANCH   3   4
ENDBRANCH   2   3
ENDBRANCH   1   2
BRANCH   1  15
ATOM     15  C   UNL     1      40.785  64.354   7.990  1.00  0.00     0.000 C 
BRANCH  15  16
ATOM     16  C   UNL     1      41.016  65.105   6.666  1.00  0.00     0.000 C 
BRANCH  16  17
ATOM     17  C   UNL     1      42.381  64.783   6.037  1.00  0.00     0.000 C 
BRANCH  17  18
ATOM     18  C   UNL     1      42.375  63.449   5.269  1.00  0.00    -0.000 C 
BRANCH  18  19
ATOM     19  C   UNL     1      41.007  63.137   4.641  1.00  0.00    -0.000 C 
BRANCH  19  20
ATOM     20  C   UNL     1      41.029  61.854   3.789  1.00  0.00    -0.000 C 
BRANCH  20  21
ATOM     21  C   UNL     1      40.309  60.679   4.468  1.00  0.00    -0.000 C 
BRANCH  21  22
ATOM     22  C   UNL     1      41.088  59.361   4.348  1.00  0.00    -0.000 C 
BRANCH  22  23
ATOM     23  C   UNL     1      42.491  59.602   3.772  1.00  0.00    -0.000 C 
BRANCH  23  24
ATOM     24  C   UNL     1      43.603  59.392   4.813  1.00  0.00    -0.000 C 
BRANCH  24  25
ATOM     25  C   UNL     1      44.547  60.601   4.924  1.00  0.00    -0.003 C 
ATOM     26  C   UNL     1      44.865  61.179   3.547  1.00  0.00     0.004 C 
ENDBRANCH  24  25
ENDBRANCH  23  24
ENDBRANCH  22  23
ENDBRANCH  21  22
ENDBRANCH  20  21
ENDBRANCH  19  20
ENDBRANCH  18  19
ENDBRANCH  17  18
ENDBRANCH  16  17
ENDBRANCH  15  16
ENDBRANCH   1  15
TORSDOF 22
ENDMDL
