MODEL 1
REMARK VINA RESULT:    -2.232      0.000      0.000
REMARK INTER + INTRA:          -4.679
REMARK INTER:                  -3.799
REMARK INTRA:                  -0.880
REMARK UNBOUND:                -0.880
REMARK SMILES CCCCCCCCCCCCCC(=O)[O-]
REMARK SMILES IDX 8 1 9 2 10 3 11 4 12 5 13 6 14 7 15 8 16 9 7 10 6 11 5 12
REMARK SMILES IDX 4 13 3 14 2 15 1 16
REMARK H PARENT
REMARK Flexibility Score: inf
ROOT
ATOM      1  C   UNL     1     -16.256 -11.247 -10.102  1.00  0.00     0.000 C 
ENDROOT
BRANCH   1   2
ATOM      2  C   UNL     1     -17.663 -11.539 -10.669  1.00  0.00     0.000 C 
BRANCH   2   3
ATOM      3  C   UNL     1     -18.587 -12.182  -9.621  1.00  0.00     0.000 C 
BRANCH   3   4
ATOM      4  C   UNL     1     -20.055 -12.230 -10.071  1.00  0.00     0.000 C 
BRANCH   4   5
ATOM      5  C   UNL     1     -21.030 -11.809  -8.957  1.00  0.00     0.006 C 
BRANCH   5   6
ATOM      6  C   UNL     1     -20.962 -12.748  -7.744  1.00  0.00     0.053 C 
BRANCH   6   7
ATOM      7  C   UNL     1     -20.707 -11.998  -6.472  1.00  0.00     0.041 C 
ATOM      8  O   UNL     1     -20.810 -10.744  -6.446  1.00  0.00    -0.550 OA
ATOM      9  O   UNL     1     -20.384 -12.688  -5.311  1.00  0.00    -0.550 OA
ENDBRANCH   6   7
ENDBRANCH   5   6
ENDBRANCH   4   5
ENDBRANCH   3   4
ENDBRANCH   2   3
ENDBRANCH   1   2
BRANCH   1  10
ATOM     10  C   UNL     1     -15.392 -12.507  -9.917  1.00  0.00     0.000 C 
BRANCH  10  11
ATOM     11  C   UNL     1     -14.475 -12.782 -11.119  1.00  0.00    -0.000 C 
BRANCH  11  12
ATOM     12  C   UNL     1     -12.995 -12.468 -10.831  1.00  0.00    -0.000 C 
BRANCH  12  13
ATOM     13  C   UNL     1     -12.475 -11.148 -11.430  1.00  0.00    -0.000 C 
BRANCH  13  14
ATOM     14  C   UNL     1     -12.528  -9.976 -10.439  1.00  0.00    -0.000 C 
BRANCH  14  15
ATOM     15  C   UNL     1     -12.824  -8.658 -11.163  1.00  0.00    -0.003 C 
ATOM     16  C   UNL     1     -14.027  -8.797 -12.092  1.00  0.00     0.004 C 
ENDBRANCH  14  15
ENDBRANCH  13  14
ENDBRANCH  12  13
ENDBRANCH  11  12
ENDBRANCH  10  11
ENDBRANCH   1  10
TORSDOF 12
ENDMDL
MODEL 2
REMARK VINA RESULT:    -2.231      3.471      7.611
REMARK INTER + INTRA:          -4.677
REMARK INTER:                  -3.781
REMARK INTRA:                  -0.896
REMARK UNBOUND:                -0.880
REMARK SMILES CCCCCCCCCCCCCC(=O)[O-]
REMARK SMILES IDX 8 1 9 2 10 3 11 4 12 5 13 6 14 7 15 8 16 9 7 10 6 11 5 12
REMARK SMILES IDX 4 13 3 14 2 15 1 16
REMARK H PARENT
REMARK Flexibility Score: inf
ROOT
ATOM      1  C   UNL     1     -16.346 -10.931  -9.950  1.00  0.00     0.000 C 
ENDROOT
BRANCH   1   2
ATOM      2  C   UNL     1     -15.787 -12.162 -10.698  1.00  0.00     0.000 C 
BRANCH   2   3
ATOM      3  C   UNL     1     -14.357 -12.510 -10.250  1.00  0.00     0.000 C 
BRANCH   3   4
ATOM      4  C   UNL     1     -13.363 -12.561 -11.422  1.00  0.00     0.000 C 
BRANCH   4   5
ATOM      5  C   UNL     1     -13.207 -11.201 -12.125  1.00  0.00     0.006 C 
BRANCH   5   6
ATOM      6  C   UNL     1     -11.992 -10.418 -11.608  1.00  0.00     0.053 C 
BRANCH   6   7
ATOM      7  C   UNL     1     -12.385  -9.376 -10.606  1.00  0.00     0.041 C 
ATOM      8  O   UNL     1     -12.966  -8.325 -10.981  1.00  0.00    -0.550 OA
ATOM      9  O   UNL     1     -12.134  -9.580  -9.255  1.00  0.00    -0.550 OA
ENDBRANCH   6   7
ENDBRANCH   5   6
ENDBRANCH   4   5
ENDBRANCH   3   4
ENDBRANCH   2   3
ENDBRANCH   1   2
BRANCH   1  10
ATOM     10  C   UNL     1     -17.844 -11.041  -9.615  1.00  0.00     0.000 C 
BRANCH  10  11
ATOM     11  C   UNL     1     -18.229 -12.417  -9.047  1.00  0.00    -0.000 C 
BRANCH  11  12
ATOM     12  C   UNL     1     -19.593 -12.917  -9.555  1.00  0.00    -0.000 C 
BRANCH  12  13
ATOM     13  C   UNL     1     -20.729 -12.899  -8.516  1.00  0.00    -0.000 C 
BRANCH  13  14
ATOM     14  C   UNL     1     -20.219 -12.877  -7.068  1.00  0.00    -0.000 C 
BRANCH  14  15
ATOM     15  C   UNL     1     -20.997 -11.859  -6.227  1.00  0.00    -0.003 C 
ATOM     16  C   UNL     1     -21.021 -10.490  -6.900  1.00  0.00     0.004 C 
ENDBRANCH  14  15
ENDBRANCH  13  14
ENDBRANCH  12  13
ENDBRANCH  11  12
ENDBRANCH  10  11
ENDBRANCH   1  10
TORSDOF 12
ENDMDL
MODEL 3
REMARK VINA RESULT:    -2.177      4.664      7.389
REMARK INTER + INTRA:          -4.584
REMARK INTER:                  -3.538
REMARK INTRA:                  -1.046
REMARK UNBOUND:                -0.880
REMARK SMILES CCCCCCCCCCCCCC(=O)[O-]
REMARK SMILES IDX 8 1 9 2 10 3 11 4 12 5 13 6 14 7 15 8 16 9 7 10 6 11 5 12
REMARK SMILES IDX 4 13 3 14 2 15 1 16
REMARK H PARENT
REMARK Flexibility Score: inf
ROOT
ATOM      1  C   UNL     1     -12.462  -9.778  -9.601  1.00  0.00     0.000 C 
ENDROOT
BRANCH   1   2
ATOM      2  C   UNL     1     -12.189  -9.088 -10.956  1.00  0.00     0.000 C 
BRANCH   2   3
ATOM      3  C   UNL     1     -13.473  -8.516 -11.581  1.00  0.00     0.000 C 
BRANCH   3   4
ATOM      4  C   UNL     1     -13.286  -7.090 -12.123  1.00  0.00     0.000 C 
BRANCH   4   5
ATOM      5  C   UNL     1     -14.567  -6.244 -12.016  1.00  0.00     0.006 C 
BRANCH   5   6
ATOM      6  C   UNL     1     -14.380  -5.025 -11.101  1.00  0.00     0.053 C 
BRANCH   6   7
ATOM      7  C   UNL     1     -14.687  -3.742 -11.813  1.00  0.00     0.041 C 
ATOM      8  O   UNL     1     -15.876  -3.451 -12.106  1.00  0.00    -0.550 OA
ATOM      9  O   UNL     1     -13.663  -2.858 -12.125  1.00  0.00    -0.550 OA
ENDBRANCH   6   7
ENDBRANCH   5   6
ENDBRANCH   4   5
ENDBRANCH   3   4
ENDBRANCH   2   3
ENDBRANCH   1   2
BRANCH   1  10
ATOM     10  C   UNL     1     -13.004 -11.212  -9.736  1.00  0.00     0.000 C 
BRANCH  10  11
ATOM     11  C   UNL     1     -12.603 -11.878 -11.063  1.00  0.00    -0.000 C 
BRANCH  11  12
ATOM     12  C   UNL     1     -13.596 -12.965 -11.513  1.00  0.00    -0.000 C 
BRANCH  12  13
ATOM     13  C   UNL     1     -15.080 -12.653 -11.245  1.00  0.00    -0.000 C 
BRANCH  13  14
ATOM     14  C   UNL     1     -15.586 -11.428 -12.019  1.00  0.00    -0.000 C 
BRANCH  14  15
ATOM     15  C   UNL     1     -16.568 -10.611 -11.173  1.00  0.00    -0.003 C 
ATOM     16  C   UNL     1     -16.988 -11.376  -9.921  1.00  0.00     0.004 C 
ENDBRANCH  14  15
ENDBRANCH  13  14
ENDBRANCH  12  13
ENDBRANCH  11  12
ENDBRANCH  10  11
ENDBRANCH   1  10
TORSDOF 12
ENDMDL
MODEL 4
REMARK VINA RESULT:    -1.981     19.268     21.471
REMARK INTER + INTRA:          -4.252
REMARK INTER:                  -3.407
REMARK INTRA:                  -0.845
REMARK UNBOUND:                -0.880
REMARK SMILES CCCCCCCCCCCCCC(=O)[O-]
REMARK SMILES IDX 8 1 9 2 10 3 11 4 12 5 13 6 14 7 15 8 16 9 7 10 6 11 5 12
REMARK SMILES IDX 4 13 3 14 2 15 1 16
REMARK H PARENT
REMARK Flexibility Score: inf
ROOT
ATOM      1  C   UNL     1     -20.230   5.026   1.943  1.00  0.00     0.000 C 
ENDROOT
BRANCH   1   2
ATOM      2  C   UNL     1     -20.849   3.632   2.188  1.00  0.00     0.000 C 
BRANCH   2   3
ATOM      3  C   UNL     1     -20.425   2.614   1.116  1.00  0.00     0.000 C 
BRANCH   3   4
ATOM      4  C   UNL     1     -21.119   2.848  -0.235  1.00  0.00     0.000 C 
BRANCH   4   5
ATOM      5  C   UNL     1     -20.132   3.249  -1.346  1.00  0.00     0.006 C 
BRANCH   5   6
ATOM      6  C   UNL     1     -20.236   4.737  -1.704  1.00  0.00     0.053 C 
BRANCH   6   7
ATOM      7  C   UNL     1     -20.651   4.940  -3.130  1.00  0.00     0.041 C 
ATOM      8  O   UNL     1     -20.546   6.075  -3.663  1.00  0.00    -0.550 OA
ATOM      9  O   UNL     1     -21.125   3.869  -3.876  1.00  0.00    -0.550 OA
ENDBRANCH   6   7
ENDBRANCH   5   6
ENDBRANCH   4   5
ENDBRANCH   3   4
ENDBRANCH   2   3
ENDBRANCH   1   2
BRANCH   1  10
ATOM     10  C   UNL     1     -21.125   6.189   2.403  1.00  0.00     0.000 C 
BRANCH  10  11
ATOM     11  C   UNL     1     -21.103   6.392   3.926  1.00  0.00    -0.000 C 
BRANCH  11  12
ATOM     12  C   UNL     1     -19.682   6.572   4.489  1.00  0.00    -0.000 C 
BRANCH  12  13
ATOM     13  C   UNL     1     -19.608   6.974   5.974  1.00  0.00    -0.000 C 
BRANCH  13  14
ATOM     14  C   UNL     1     -20.986   7.034   6.649  1.00  0.00    -0.000 C 
BRANCH  14  15
ATOM     15  C   UNL     1     -21.106   5.970   7.746  1.00  0.00    -0.003 C 
ATOM     16  C   UNL     1     -21.098   4.564   7.154  1.00  0.00     0.004 C 
ENDBRANCH  14  15
ENDBRANCH  13  14
ENDBRANCH  12  13
ENDBRANCH  11  12
ENDBRANCH  10  11
ENDBRANCH   1  10
TORSDOF 12
ENDMDL
MODEL 5
REMARK VINA RESULT:    -1.937      2.693      4.961
REMARK INTER + INTRA:          -4.176
REMARK INTER:                  -3.262
REMARK INTRA:                  -0.913
REMARK UNBOUND:                -0.880
REMARK SMILES CCCCCCCCCCCCCC(=O)[O-]
REMARK SMILES IDX 8 1 9 2 10 3 11 4 12 5 13 6 14 7 15 8 16 9 7 10 6 11 5 12
REMARK SMILES IDX 4 13 3 14 2 15 1 16
REMARK H PARENT
REMARK Flexibility Score: inf
ROOT
ATOM      1  C   UNL     1     -12.764  -9.719  -9.867  1.00  0.00     0.000 C 
ENDROOT
BRANCH   1   2
ATOM      2  C   UNL     1     -13.021 -11.242  -9.843  1.00  0.00     0.000 C 
BRANCH   2   3
ATOM      3  C   UNL     1     -13.751 -11.725 -11.108  1.00  0.00     0.000 C 
BRANCH   3   4
ATOM      4  C   UNL     1     -14.562 -13.009 -10.874  1.00  0.00     0.000 C 
BRANCH   4   5
ATOM      5  C   UNL     1     -16.016 -12.888 -11.364  1.00  0.00     0.006 C 
BRANCH   5   6
ATOM      6  C   UNL     1     -16.636 -11.530 -11.008  1.00  0.00     0.053 C 
BRANCH   6   7
ATOM      7  C   UNL     1     -17.240 -11.535  -9.637  1.00  0.00     0.041 C 
ATOM      8  O   UNL     1     -17.567 -12.622  -9.094  1.00  0.00    -0.550 OA
ATOM      9  O   UNL     1     -17.413 -10.342  -8.948  1.00  0.00    -0.550 OA
ENDBRANCH   6   7
ENDBRANCH   5   6
ENDBRANCH   4   5
ENDBRANCH   3   4
ENDBRANCH   2   3
ENDBRANCH   1   2
BRANCH   1  10
ATOM     10  C   UNL     1     -12.026  -9.237 -11.128  1.00  0.00     0.000 C 
BRANCH  10  11
ATOM     11  C   UNL     1     -12.782  -8.126 -11.874  1.00  0.00    -0.000 C 
BRANCH  11  12
ATOM     12  C   UNL     1     -14.297  -8.387 -11.967  1.00  0.00    -0.000 C 
BRANCH  12  13
ATOM     13  C   UNL     1     -15.173  -7.130 -12.118  1.00  0.00    -0.000 C 
BRANCH  13  14
ATOM     14  C   UNL     1     -14.377  -5.823 -11.988  1.00  0.00    -0.000 C 
BRANCH  14  15
ATOM     15  C   UNL     1     -15.195  -4.753 -11.257  1.00  0.00    -0.003 C 
ATOM     16  C   UNL     1     -14.407  -3.453 -11.121  1.00  0.00     0.004 C 
ENDBRANCH  14  15
ENDBRANCH  13  14
ENDBRANCH  12  13
ENDBRANCH  11  12
ENDBRANCH  10  11
ENDBRANCH   1  10
TORSDOF 12
ENDMDL
MODEL 6
REMARK VINA RESULT:    -1.631      3.862      7.041
REMARK INTER + INTRA:          -3.655
REMARK INTER:                  -3.404
REMARK INTRA:                  -0.251
REMARK UNBOUND:                -0.880
REMARK SMILES CCCCCCCCCCCCCC(=O)[O-]
REMARK SMILES IDX 8 1 9 2 10 3 11 4 12 5 13 6 14 7 15 8 16 9 7 10 6 11 5 12
REMARK SMILES IDX 4 13 3 14 2 15 1 16
REMARK H PARENT
REMARK Flexibility Score: inf
ROOT
ATOM      1  C   UNL     1     -13.229 -10.836 -10.300  1.00  0.00     0.000 C 
ENDROOT
BRANCH   1   2
ATOM      2  C   UNL     1     -13.075 -10.372 -11.765  1.00  0.00     0.000 C 
BRANCH   2   3
ATOM      3  C   UNL     1     -12.976  -8.841 -11.878  1.00  0.00     0.000 C 
BRANCH   3   4
ATOM      4  C   UNL     1     -14.339  -8.174 -12.125  1.00  0.00     0.000 C 
BRANCH   4   5
ATOM      5  C   UNL     1     -14.330  -6.670 -11.795  1.00  0.00     0.006 C 
BRANCH   5   6
ATOM      6  C   UNL     1     -15.669  -5.998 -12.125  1.00  0.00     0.053 C 
BRANCH   6   7
ATOM      7  C   UNL     1     -15.758  -4.618 -11.547  1.00  0.00     0.041 C 
ATOM      8  O   UNL     1     -14.709  -3.972 -11.290  1.00  0.00    -0.550 OA
ATOM      9  O   UNL     1     -16.998  -4.037 -11.319  1.00  0.00    -0.550 OA
ENDBRANCH   6   7
ENDBRANCH   5   6
ENDBRANCH   4   5
ENDBRANCH   3   4
ENDBRANCH   2   3
ENDBRANCH   1   2
BRANCH   1  10
ATOM     10  C   UNL     1     -13.239 -12.366 -10.135  1.00  0.00     0.000 C 
BRANCH  10  11
ATOM     11  C   UNL     1     -14.480 -13.024 -10.759  1.00  0.00    -0.000 C 
BRANCH  11  12
ATOM     12  C   UNL     1     -15.594 -12.014 -11.092  1.00  0.00    -0.000 C 
BRANCH  12  13
ATOM     13  C   UNL     1     -16.986 -12.362 -10.532  1.00  0.00    -0.000 C 
BRANCH  13  14
ATOM     14  C   UNL     1     -17.827 -11.122 -10.200  1.00  0.00    -0.000 C 
BRANCH  14  15
ATOM     15  C   UNL     1     -18.066 -11.008  -8.690  1.00  0.00    -0.003 C 
ATOM     16  C   UNL     1     -19.535 -11.234  -8.345  1.00  0.00     0.004 C 
ENDBRANCH  14  15
ENDBRANCH  13  14
ENDBRANCH  12  13
ENDBRANCH  11  12
ENDBRANCH  10  11
ENDBRANCH   1  10
TORSDOF 12
ENDMDL
MODEL 7
REMARK VINA RESULT:    -1.515     19.396     20.934
REMARK INTER + INTRA:          -3.459
REMARK INTER:                  -2.843
REMARK INTRA:                  -0.616
REMARK UNBOUND:                -0.880
REMARK SMILES CCCCCCCCCCCCCC(=O)[O-]
REMARK SMILES IDX 8 1 9 2 10 3 11 4 12 5 13 6 14 7 15 8 16 9 7 10 6 11 5 12
REMARK SMILES IDX 4 13 3 14 2 15 1 16
REMARK H PARENT
REMARK Flexibility Score: inf
ROOT
ATOM      1  C   UNL     1     -20.877   5.014   0.895  1.00  0.00     0.000 C 
ENDROOT
BRANCH   1   2
ATOM      2  C   UNL     1     -20.625   4.518   2.336  1.00  0.00     0.000 C 
BRANCH   2   3
ATOM      3  C   UNL     1     -20.708   5.661   3.363  1.00  0.00     0.000 C 
BRANCH   3   4
ATOM      4  C   UNL     1     -21.087   5.170   4.769  1.00  0.00     0.000 C 
BRANCH   4   5
ATOM      5  C   UNL     1     -21.003   6.285   5.827  1.00  0.00     0.006 C 
BRANCH   5   6
ATOM      6  C   UNL     1     -19.569   6.802   6.009  1.00  0.00     0.053 C 
BRANCH   6   7
ATOM      7  C   UNL     1     -18.798   5.973   6.990  1.00  0.00     0.041 C 
ATOM      8  O   UNL     1     -19.368   5.507   8.011  1.00  0.00    -0.550 OA
ATOM      9  O   UNL     1     -17.458   5.690   6.760  1.00  0.00    -0.550 OA
ENDBRANCH   6   7
ENDBRANCH   5   6
ENDBRANCH   4   5
ENDBRANCH   3   4
ENDBRANCH   2   3
ENDBRANCH   1   2
BRANCH   1  10
ATOM     10  C   UNL     1     -19.786   4.592  -0.104  1.00  0.00     0.000 C 
BRANCH  10  11
ATOM     11  C   UNL     1     -20.095   3.254  -0.794  1.00  0.00    -0.000 C 
BRANCH  11  12
ATOM     12  C   UNL     1     -21.040   3.404  -2.000  1.00  0.00    -0.000 C 
BRANCH  12  13
ATOM     13  C   UNL     1     -20.356   3.767  -3.331  1.00  0.00    -0.000 C 
BRANCH  13  14
ATOM     14  C   UNL     1     -21.125   4.826  -4.134  1.00  0.00    -0.000 C 
BRANCH  14  15
ATOM     15  C   UNL     1     -20.816   6.236  -3.619  1.00  0.00    -0.003 C 
ATOM     16  C   UNL     1     -19.646   6.856  -4.377  1.00  0.00     0.004 C 
ENDBRANCH  14  15
ENDBRANCH  13  14
ENDBRANCH  12  13
ENDBRANCH  11  12
ENDBRANCH  10  11
ENDBRANCH   1  10
TORSDOF 12
ENDMDL
