MODEL 1
REMARK VINA RESULT:    -4.583      0.000      0.000
REMARK INTER + INTRA:         -14.267
REMARK INTER:                 -10.478
REMARK INTRA:                  -3.789
REMARK UNBOUND:                -3.789
REMARK SMILES CCCCCCCCCCCCCCCCCCCCCCCC(=O)[O-]
REMARK SMILES IDX 13 1 14 2 15 3 16 4 17 5 18 6 19 7 20 8 21 9 22 10 23 11
REMARK SMILES IDX 24 12 25 13 26 14 12 15 11 16 10 17 9 18 8 19 7 20 6 21 5 22
REMARK SMILES IDX 4 23 3 24 2 25 1 26
REMARK H PARENT
REMARK Flexibility Score: inf
ROOT
ATOM      1  C   UNL     1      97.838   2.626  24.779  1.00  0.00     0.000 C 
ENDROOT
BRANCH   1   2
ATOM      2  C   UNL     1      96.394   2.890  25.236  1.00  0.00     0.000 C 
BRANCH   2   3
ATOM      3  C   UNL     1      95.836   4.218  24.693  1.00  0.00     0.000 C 
BRANCH   3   4
ATOM      4  C   UNL     1      95.482   5.211  25.813  1.00  0.00     0.000 C 
BRANCH   4   5
ATOM      5  C   UNL     1      96.702   6.007  26.305  1.00  0.00     0.000 C 
BRANCH   5   6
ATOM      6  C   UNL     1      97.140   7.094  25.309  1.00  0.00     0.000 C 
BRANCH   6   7
ATOM      7  C   UNL     1      96.005   8.077  24.970  1.00  0.00     0.000 C 
BRANCH   7   8
ATOM      8  C   UNL     1      95.856   8.316  23.455  1.00  0.00     0.000 C 
BRANCH   8   9
ATOM      9  C   UNL     1      95.150   7.186  22.679  1.00  0.00     0.000 C 
BRANCH   9  10
ATOM     10  C   UNL     1      96.069   6.333  21.780  1.00  0.00     0.006 C 
BRANCH  10  11
ATOM     11  C   UNL     1      97.501   6.873  21.645  1.00  0.00     0.053 C 
BRANCH  11  12
ATOM     12  C   UNL     1      97.760   7.431  20.279  1.00  0.00     0.041 C 
ATOM     13  O   UNL     1      98.452   6.783  19.449  1.00  0.00    -0.550 OA
ATOM     14  O   UNL     1      97.257   8.677  19.932  1.00  0.00    -0.550 OA
ENDBRANCH  11  12
ENDBRANCH  10  11
ENDBRANCH   9  10
ENDBRANCH   8   9
ENDBRANCH   7   8
ENDBRANCH   6   7
ENDBRANCH   5   6
ENDBRANCH   4   5
ENDBRANCH   3   4
ENDBRANCH   2   3
ENDBRANCH   1   2
BRANCH   1  15
ATOM     15  C   UNL     1      98.308   3.613  23.699  1.00  0.00     0.000 C 
BRANCH  15  16
ATOM     16  C   UNL     1      99.646   4.256  24.089  1.00  0.00     0.000 C 
BRANCH  16  17
ATOM     17  C   UNL     1      99.793   4.333  25.617  1.00  0.00     0.000 C 
BRANCH  17  18
ATOM     18  C   UNL     1     101.251   4.527  26.062  1.00  0.00    -0.000 C 
BRANCH  18  19
ATOM     19  C   UNL     1     102.046   3.210  26.067  1.00  0.00    -0.000 C 
BRANCH  19  20
ATOM     20  C   UNL     1     103.287   3.269  25.163  1.00  0.00    -0.000 C 
BRANCH  20  21
ATOM     21  C   UNL     1     103.275   2.189  24.065  1.00  0.00    -0.000 C 
BRANCH  21  22
ATOM     22  C   UNL     1     102.327   1.024  24.395  1.00  0.00    -0.000 C 
BRANCH  22  23
ATOM     23  C   UNL     1     101.467   0.602  23.191  1.00  0.00    -0.000 C 
BRANCH  23  24
ATOM     24  C   UNL     1     100.040   0.189  23.607  1.00  0.00    -0.000 C 
BRANCH  24  25
ATOM     25  C   UNL     1      99.954  -0.380  25.034  1.00  0.00    -0.003 C 
ATOM     26  C   UNL     1     100.327  -1.860  25.114  1.00  0.00     0.004 C 
ENDBRANCH  24  25
ENDBRANCH  23  24
ENDBRANCH  22  23
ENDBRANCH  21  22
ENDBRANCH  20  21
ENDBRANCH  19  20
ENDBRANCH  18  19
ENDBRANCH  17  18
ENDBRANCH  16  17
ENDBRANCH  15  16
ENDBRANCH   1  15
TORSDOF 22
ENDMDL
MODEL 2
REMARK VINA RESULT:    -4.511      1.090      2.037
REMARK INTER + INTRA:         -14.102
REMARK INTER:                 -10.196
REMARK INTRA:                  -3.906
REMARK UNBOUND:                -3.789
REMARK SMILES CCCCCCCCCCCCCCCCCCCCCCCC(=O)[O-]
REMARK SMILES IDX 13 1 14 2 15 3 16 4 17 5 18 6 19 7 20 8 21 9 22 10 23 11
REMARK SMILES IDX 24 12 25 13 26 14 12 15 11 16 10 17 9 18 8 19 7 20 6 21 5 22
REMARK SMILES IDX 4 23 3 24 2 25 1 26
REMARK H PARENT
REMARK Flexibility Score: inf
ROOT
ATOM      1  C   UNL     1     100.038   4.477  24.701  1.00  0.00     0.000 C 
ENDROOT
BRANCH   1   2
ATOM      2  C   UNL     1      99.058   4.238  23.541  1.00  0.00     0.000 C 
BRANCH   2   3
ATOM      3  C   UNL     1      97.875   3.339  23.943  1.00  0.00     0.000 C 
BRANCH   3   4
ATOM      4  C   UNL     1      96.525   4.070  23.859  1.00  0.00     0.000 C 
BRANCH   4   5
ATOM      5  C   UNL     1      95.843   4.211  25.231  1.00  0.00     0.000 C 
BRANCH   5   6
ATOM      6  C   UNL     1      95.664   5.679  25.654  1.00  0.00     0.000 C 
BRANCH   6   7
ATOM      7  C   UNL     1      97.004   6.383  25.929  1.00  0.00     0.000 C 
BRANCH   7   8
ATOM      8  C   UNL     1      97.199   7.650  25.075  1.00  0.00     0.000 C 
BRANCH   8   9
ATOM      9  C   UNL     1      96.347   7.714  23.792  1.00  0.00     0.000 C 
BRANCH   9  10
ATOM     10  C   UNL     1      97.147   7.713  22.472  1.00  0.00     0.006 C 
BRANCH  10  11
ATOM     11  C   UNL     1      96.641   6.707  21.426  1.00  0.00     0.053 C 
BRANCH  11  12
ATOM     12  C   UNL     1      97.118   7.049  20.049  1.00  0.00     0.041 C 
ATOM     13  O   UNL     1      98.342   7.256  19.834  1.00  0.00    -0.550 OA
ATOM     14  O   UNL     1      96.208   7.164  19.007  1.00  0.00    -0.550 OA
ENDBRANCH  11  12
ENDBRANCH  10  11
ENDBRANCH   9  10
ENDBRANCH   8   9
ENDBRANCH   7   8
ENDBRANCH   6   7
ENDBRANCH   5   6
ENDBRANCH   4   5
ENDBRANCH   3   4
ENDBRANCH   2   3
ENDBRANCH   1   2
BRANCH   1  15
ATOM     15  C   UNL     1      99.581   3.814  26.010  1.00  0.00     0.000 C 
BRANCH  15  16
ATOM     16  C   UNL     1     100.654   3.953  27.099  1.00  0.00     0.000 C 
BRANCH  16  17
ATOM     17  C   UNL     1     101.515   5.203  26.864  1.00  0.00     0.000 C 
BRANCH  17  18
ATOM     18  C   UNL     1     103.021   4.913  26.970  1.00  0.00    -0.000 C 
BRANCH  18  19
ATOM     19  C   UNL     1     103.359   3.439  26.684  1.00  0.00    -0.000 C 
BRANCH  19  20
ATOM     20  C   UNL     1     103.846   3.216  25.243  1.00  0.00    -0.000 C 
BRANCH  20  21
ATOM     21  C   UNL     1     104.267   1.759  24.976  1.00  0.00    -0.000 C 
BRANCH  21  22
ATOM     22  C   UNL     1     103.659   1.197  23.681  1.00  0.00    -0.000 C 
BRANCH  22  23
ATOM     23  C   UNL     1     102.336   1.886  23.301  1.00  0.00    -0.000 C 
BRANCH  23  24
ATOM     24  C   UNL     1     101.155   0.894  23.248  1.00  0.00    -0.000 C 
BRANCH  24  25
ATOM     25  C   UNL     1     100.927   0.135  24.566  1.00  0.00    -0.003 C 
ATOM     26  C   UNL     1      99.519   0.320  25.131  1.00  0.00     0.004 C 
ENDBRANCH  24  25
ENDBRANCH  23  24
ENDBRANCH  22  23
ENDBRANCH  21  22
ENDBRANCH  20  21
ENDBRANCH  19  20
ENDBRANCH  18  19
ENDBRANCH  17  18
ENDBRANCH  16  17
ENDBRANCH  15  16
ENDBRANCH   1  15
TORSDOF 22
ENDMDL
MODEL 3
REMARK VINA RESULT:    -4.494      2.935      7.948
REMARK INTER + INTRA:         -14.062
REMARK INTER:                 -10.747
REMARK INTRA:                  -3.315
REMARK UNBOUND:                -3.789
REMARK SMILES CCCCCCCCCCCCCCCCCCCCCCCC(=O)[O-]
REMARK SMILES IDX 13 1 14 2 15 3 16 4 17 5 18 6 19 7 20 8 21 9 22 10 23 11
REMARK SMILES IDX 24 12 25 13 26 14 12 15 11 16 10 17 9 18 8 19 7 20 6 21 5 22
REMARK SMILES IDX 4 23 3 24 2 25 1 26
REMARK H PARENT
REMARK Flexibility Score: inf
ROOT
ATOM      1  C   UNL     1     100.008   4.121  23.965  1.00  0.00     0.000 C 
ENDROOT
BRANCH   1   2
ATOM      2  C   UNL     1     100.053   4.478  25.460  1.00  0.00     0.000 C 
BRANCH   2   3
ATOM      3  C   UNL     1     101.480   4.438  26.034  1.00  0.00     0.000 C 
BRANCH   3   4
ATOM      4  C   UNL     1     101.706   3.239  26.970  1.00  0.00     0.000 C 
BRANCH   4   5
ATOM      5  C   UNL     1     103.067   3.293  27.683  1.00  0.00     0.000 C 
BRANCH   5   6
ATOM      6  C   UNL     1     104.241   3.470  26.705  1.00  0.00     0.000 C 
BRANCH   6   7
ATOM      7  C   UNL     1     104.551   2.187  25.916  1.00  0.00     0.000 C 
BRANCH   7   8
ATOM      8  C   UNL     1     104.156   2.290  24.430  1.00  0.00     0.000 C 
BRANCH   8   9
ATOM      9  C   UNL     1     104.141   0.953  23.661  1.00  0.00     0.000 C 
BRANCH   9  10
ATOM     10  C   UNL     1     102.740   0.423  23.292  1.00  0.00     0.006 C 
BRANCH  10  11
ATOM     11  C   UNL     1     101.708   0.521  24.426  1.00  0.00     0.053 C 
BRANCH  11  12
ATOM     12  C   UNL     1     100.579  -0.445  24.235  1.00  0.00     0.041 C 
ATOM     13  O   UNL     1      99.827  -0.742  25.201  1.00  0.00    -0.550 OA
ATOM     14  O   UNL     1     100.371  -1.035  22.996  1.00  0.00    -0.550 OA
ENDBRANCH  11  12
ENDBRANCH  10  11
ENDBRANCH   9  10
ENDBRANCH   8   9
ENDBRANCH   7   8
ENDBRANCH   6   7
ENDBRANCH   5   6
ENDBRANCH   4   5
ENDBRANCH   3   4
ENDBRANCH   2   3
ENDBRANCH   1   2
BRANCH   1  15
ATOM     15  C   UNL     1      99.092   2.923  23.669  1.00  0.00     0.000 C 
BRANCH  15  16
ATOM     16  C   UNL     1      98.358   2.466  24.937  1.00  0.00     0.000 C 
BRANCH  16  17
ATOM     17  C   UNL     1      96.879   2.176  24.639  1.00  0.00     0.000 C 
BRANCH  17  18
ATOM     18  C   UNL     1      96.118   3.419  24.151  1.00  0.00    -0.000 C 
BRANCH  18  19
ATOM     19  C   UNL     1      95.778   4.390  25.295  1.00  0.00    -0.000 C 
BRANCH  19  20
ATOM     20  C   UNL     1      95.691   5.850  24.824  1.00  0.00    -0.000 C 
BRANCH  20  21
ATOM     21  C   UNL     1      97.071   6.526  24.724  1.00  0.00    -0.000 C 
BRANCH  21  22
ATOM     22  C   UNL     1      97.314   7.171  23.350  1.00  0.00    -0.000 C 
BRANCH  22  23
ATOM     23  C   UNL     1      96.973   6.226  22.184  1.00  0.00    -0.000 C 
BRANCH  23  24
ATOM     24  C   UNL     1      96.047   6.891  21.144  1.00  0.00    -0.000 C 
BRANCH  24  25
ATOM     25  C   UNL     1      94.619   7.140  21.659  1.00  0.00    -0.003 C 
ATOM     26  C   UNL     1      94.300   8.622  21.853  1.00  0.00     0.004 C 
ENDBRANCH  24  25
ENDBRANCH  23  24
ENDBRANCH  22  23
ENDBRANCH  21  22
ENDBRANCH  20  21
ENDBRANCH  19  20
ENDBRANCH  18  19
ENDBRANCH  17  18
ENDBRANCH  16  17
ENDBRANCH  15  16
ENDBRANCH   1  15
TORSDOF 22
ENDMDL
MODEL 4
REMARK VINA RESULT:    -4.438      1.400      2.128
REMARK INTER + INTRA:         -13.935
REMARK INTER:                 -10.109
REMARK INTRA:                  -3.826
REMARK UNBOUND:                -3.789
REMARK SMILES CCCCCCCCCCCCCCCCCCCCCCCC(=O)[O-]
REMARK SMILES IDX 13 1 14 2 15 3 16 4 17 5 18 6 19 7 20 8 21 9 22 10 23 11
REMARK SMILES IDX 24 12 25 13 26 14 12 15 11 16 10 17 9 18 8 19 7 20 6 21 5 22
REMARK SMILES IDX 4 23 3 24 2 25 1 26
REMARK H PARENT
REMARK Flexibility Score: inf
ROOT
ATOM      1  C   UNL     1      98.098   2.388  24.654  1.00  0.00     0.000 C 
ENDROOT
BRANCH   1   2
ATOM      2  C   UNL     1      96.574   2.559  24.554  1.00  0.00     0.000 C 
BRANCH   2   3
ATOM      3  C   UNL     1      96.166   3.978  24.119  1.00  0.00     0.000 C 
BRANCH   3   4
ATOM      4  C   UNL     1      95.610   4.815  25.283  1.00  0.00     0.000 C 
BRANCH   4   5
ATOM      5  C   UNL     1      96.720   5.443  26.142  1.00  0.00     0.000 C 
BRANCH   5   6
ATOM      6  C   UNL     1      97.467   6.571  25.411  1.00  0.00     0.000 C 
BRANCH   6   7
ATOM      7  C   UNL     1      96.720   7.914  25.475  1.00  0.00     0.000 C 
BRANCH   7   8
ATOM      8  C   UNL     1      96.060   8.295  24.136  1.00  0.00     0.000 C 
BRANCH   8   9
ATOM      9  C   UNL     1      96.891   7.969  22.879  1.00  0.00     0.000 C 
BRANCH   9  10
ATOM     10  C   UNL     1      96.336   6.827  22.003  1.00  0.00     0.006 C 
BRANCH  10  11
ATOM     11  C   UNL     1      94.849   6.970  21.644  1.00  0.00     0.053 C 
BRANCH  11  12
ATOM     12  C   UNL     1      94.653   7.246  20.185  1.00  0.00     0.041 C 
ATOM     13  O   UNL     1      95.338   8.132  19.608  1.00  0.00    -0.550 OA
ATOM     14  O   UNL     1      93.696   6.541  19.467  1.00  0.00    -0.550 OA
ENDBRANCH  11  12
ENDBRANCH  10  11
ENDBRANCH   9  10
ENDBRANCH   8   9
ENDBRANCH   7   8
ENDBRANCH   6   7
ENDBRANCH   5   6
ENDBRANCH   4   5
ENDBRANCH   3   4
ENDBRANCH   2   3
ENDBRANCH   1   2
BRANCH   1  15
ATOM     15  C   UNL     1      98.866   3.371  23.756  1.00  0.00     0.000 C 
BRANCH  15  16
ATOM     16  C   UNL     1      99.971   4.087  24.544  1.00  0.00     0.000 C 
BRANCH  16  17
ATOM     17  C   UNL     1      99.979   3.633  26.012  1.00  0.00     0.000 C 
BRANCH  17  18
ATOM     18  C   UNL     1     100.573   4.691  26.956  1.00  0.00    -0.000 C 
BRANCH  18  19
ATOM     19  C   UNL     1     101.910   4.245  27.574  1.00  0.00    -0.000 C 
BRANCH  19  20
ATOM     20  C   UNL     1     103.116   4.959  26.945  1.00  0.00    -0.000 C 
BRANCH  20  21
ATOM     21  C   UNL     1     103.853   4.086  25.912  1.00  0.00    -0.000 C 
BRANCH  21  22
ATOM     22  C   UNL     1     103.752   2.585  26.230  1.00  0.00    -0.000 C 
BRANCH  22  23
ATOM     23  C   UNL     1     103.900   1.704  24.977  1.00  0.00    -0.000 C 
BRANCH  23  24
ATOM     24  C   UNL     1     102.916   2.106  23.859  1.00  0.00    -0.000 C 
BRANCH  24  25
ATOM     25  C   UNL     1     101.988   0.964  23.413  1.00  0.00    -0.003 C 
ATOM     26  C   UNL     1     101.170   0.372  24.560  1.00  0.00     0.004 C 
ENDBRANCH  24  25
ENDBRANCH  23  24
ENDBRANCH  22  23
ENDBRANCH  21  22
ENDBRANCH  20  21
ENDBRANCH  19  20
ENDBRANCH  18  19
ENDBRANCH  17  18
ENDBRANCH  16  17
ENDBRANCH  15  16
ENDBRANCH   1  15
TORSDOF 22
ENDMDL
MODEL 5
REMARK VINA RESULT:    -4.406      1.766      2.866
REMARK INTER + INTRA:         -13.861
REMARK INTER:                 -10.295
REMARK INTRA:                  -3.566
REMARK UNBOUND:                -3.789
REMARK SMILES CCCCCCCCCCCCCCCCCCCCCCCC(=O)[O-]
REMARK SMILES IDX 13 1 14 2 15 3 16 4 17 5 18 6 19 7 20 8 21 9 22 10 23 11
REMARK SMILES IDX 24 12 25 13 26 14 12 15 11 16 10 17 9 18 8 19 7 20 6 21 5 22
REMARK SMILES IDX 4 23 3 24 2 25 1 26
REMARK H PARENT
REMARK Flexibility Score: inf
ROOT
ATOM      1  C   UNL     1      99.534   1.310  24.290  1.00  0.00     0.000 C 
ENDROOT
BRANCH   1   2
ATOM      2  C   UNL     1      98.498   2.413  24.019  1.00  0.00     0.000 C 
BRANCH   2   3
ATOM      3  C   UNL     1      97.101   2.055  24.555  1.00  0.00     0.000 C 
BRANCH   3   4
ATOM      4  C   UNL     1      96.601   3.054  25.612  1.00  0.00     0.000 C 
BRANCH   4   5
ATOM      5  C   UNL     1      97.750   3.805  26.307  1.00  0.00     0.000 C 
BRANCH   5   6
ATOM      6  C   UNL     1      97.437   5.295  26.522  1.00  0.00     0.000 C 
BRANCH   6   7
ATOM      7  C   UNL     1      95.978   5.648  26.186  1.00  0.00     0.000 C 
BRANCH   7   8
ATOM      8  C   UNL     1      95.861   6.697  25.065  1.00  0.00     0.000 C 
BRANCH   8   9
ATOM      9  C   UNL     1      95.305   6.169  23.727  1.00  0.00     0.000 C 
BRANCH   9  10
ATOM     10  C   UNL     1      96.300   5.349  22.880  1.00  0.00     0.006 C 
BRANCH  10  11
ATOM     11  C   UNL     1      97.717   5.939  22.821  1.00  0.00     0.053 C 
BRANCH  11  12
ATOM     12  C   UNL     1      97.842   6.983  21.755  1.00  0.00     0.041 C 
ATOM     13  O   UNL     1      98.207   8.152  22.050  1.00  0.00    -0.550 OA
ATOM     14  O   UNL     1      97.533   6.671  20.438  1.00  0.00    -0.550 OA
ENDBRANCH  11  12
ENDBRANCH  10  11
ENDBRANCH   9  10
ENDBRANCH   8   9
ENDBRANCH   7   8
ENDBRANCH   6   7
ENDBRANCH   5   6
ENDBRANCH   4   5
ENDBRANCH   3   4
ENDBRANCH   2   3
ENDBRANCH   1   2
BRANCH   1  15
ATOM     15  C   UNL     1     100.827   1.851  24.921  1.00  0.00     0.000 C 
BRANCH  15  16
ATOM     16  C   UNL     1     101.093   3.295  24.473  1.00  0.00     0.000 C 
BRANCH  16  17
ATOM     17  C   UNL     1     101.517   4.168  25.664  1.00  0.00     0.000 C 
BRANCH  17  18
ATOM     18  C   UNL     1     101.403   3.432  27.008  1.00  0.00    -0.000 C 
BRANCH  18  19
ATOM     19  C   UNL     1     102.747   3.353  27.753  1.00  0.00    -0.000 C 
BRANCH  19  20
ATOM     20  C   UNL     1     103.932   3.787  26.876  1.00  0.00    -0.000 C 
BRANCH  20  21
ATOM     21  C   UNL     1     105.210   2.975  27.158  1.00  0.00    -0.000 C 
BRANCH  21  22
ATOM     22  C   UNL     1     105.618   2.087  25.970  1.00  0.00    -0.000 C 
BRANCH  22  23
ATOM     23  C   UNL     1     104.744   2.325  24.726  1.00  0.00    -0.000 C 
BRANCH  23  24
ATOM     24  C   UNL     1     104.172   1.011  24.153  1.00  0.00    -0.000 C 
BRANCH  24  25
ATOM     25  C   UNL     1     105.004   0.427  22.998  1.00  0.00    -0.003 C 
ATOM     26  C   UNL     1     104.782  -1.071  22.796  1.00  0.00     0.004 C 
ENDBRANCH  24  25
ENDBRANCH  23  24
ENDBRANCH  22  23
ENDBRANCH  21  22
ENDBRANCH  20  21
ENDBRANCH  19  20
ENDBRANCH  18  19
ENDBRANCH  17  18
ENDBRANCH  16  17
ENDBRANCH  15  16
ENDBRANCH   1  15
TORSDOF 22
ENDMDL
MODEL 6
REMARK VINA RESULT:    -4.396      1.082      1.675
REMARK INTER + INTRA:         -13.839
REMARK INTER:                 -10.040
REMARK INTRA:                  -3.800
REMARK UNBOUND:                -3.789
REMARK SMILES CCCCCCCCCCCCCCCCCCCCCCCC(=O)[O-]
REMARK SMILES IDX 13 1 14 2 15 3 16 4 17 5 18 6 19 7 20 8 21 9 22 10 23 11
REMARK SMILES IDX 24 12 25 13 26 14 12 15 11 16 10 17 9 18 8 19 7 20 6 21 5 22
REMARK SMILES IDX 4 23 3 24 2 25 1 26
REMARK H PARENT
REMARK Flexibility Score: inf
ROOT
ATOM      1  C   UNL     1      99.265   3.929  23.489  1.00  0.00     0.000 C 
ENDROOT
BRANCH   1   2
ATOM      2  C   UNL     1      98.011   3.177  23.963  1.00  0.00     0.000 C 
BRANCH   2   3
ATOM      3  C   UNL     1      96.749   4.057  23.935  1.00  0.00     0.000 C 
BRANCH   3   4
ATOM      4  C   UNL     1      96.072   4.161  25.311  1.00  0.00     0.000 C 
BRANCH   4   5
ATOM      5  C   UNL     1      96.709   5.239  26.204  1.00  0.00     0.000 C 
BRANCH   5   6
ATOM      6  C   UNL     1      97.081   6.510  25.422  1.00  0.00     0.000 C 
BRANCH   6   7
ATOM      7  C   UNL     1      95.847   7.306  24.964  1.00  0.00     0.000 C 
BRANCH   7   8
ATOM      8  C   UNL     1      96.015   7.911  23.557  1.00  0.00     0.000 C 
BRANCH   8   9
ATOM      9  C   UNL     1      97.448   7.862  22.989  1.00  0.00     0.000 C 
BRANCH   9  10
ATOM     10  C   UNL     1      97.661   6.866  21.831  1.00  0.00     0.006 C 
BRANCH  10  11
ATOM     11  C   UNL     1      96.422   6.643  20.950  1.00  0.00     0.053 C 
BRANCH  11  12
ATOM     12  C   UNL     1      96.477   7.460  19.696  1.00  0.00     0.041 C 
ATOM     13  O   UNL     1      95.544   7.392  18.852  1.00  0.00    -0.550 OA
ATOM     14  O   UNL     1      97.570   8.278  19.447  1.00  0.00    -0.550 OA
ENDBRANCH  11  12
ENDBRANCH  10  11
ENDBRANCH   9  10
ENDBRANCH   8   9
ENDBRANCH   7   8
ENDBRANCH   6   7
ENDBRANCH   5   6
ENDBRANCH   4   5
ENDBRANCH   3   4
ENDBRANCH   2   3
ENDBRANCH   1   2
BRANCH   1  15
ATOM     15  C   UNL     1     100.154   4.394  24.652  1.00  0.00     0.000 C 
BRANCH  15  16
ATOM     16  C   UNL     1      99.979   3.483  25.875  1.00  0.00     0.000 C 
BRANCH  16  17
ATOM     17  C   UNL     1     100.657   4.091  27.113  1.00  0.00     0.000 C 
BRANCH  17  18
ATOM     18  C   UNL     1     102.071   3.534  27.346  1.00  0.00    -0.000 C 
BRANCH  18  19
ATOM     19  C   UNL     1     103.165   4.436  26.748  1.00  0.00    -0.000 C 
BRANCH  19  20
ATOM     20  C   UNL     1     103.997   3.718  25.674  1.00  0.00    -0.000 C 
BRANCH  20  21
ATOM     21  C   UNL     1     103.604   2.238  25.507  1.00  0.00    -0.000 C 
BRANCH  21  22
ATOM     22  C   UNL     1     102.938   1.954  24.150  1.00  0.00    -0.000 C 
BRANCH  22  23
ATOM     23  C   UNL     1     103.247   0.541  23.624  1.00  0.00    -0.000 C 
BRANCH  23  24
ATOM     24  C   UNL     1     101.972  -0.312  23.455  1.00  0.00    -0.000 C 
BRANCH  24  25
ATOM     25  C   UNL     1     100.672   0.456  23.750  1.00  0.00    -0.003 C 
ATOM     26  C   UNL     1      99.876  -0.135  24.913  1.00  0.00     0.004 C 
ENDBRANCH  24  25
ENDBRANCH  23  24
ENDBRANCH  22  23
ENDBRANCH  21  22
ENDBRANCH  20  21
ENDBRANCH  19  20
ENDBRANCH  18  19
ENDBRANCH  17  18
ENDBRANCH  16  17
ENDBRANCH  15  16
ENDBRANCH   1  15
TORSDOF 22
ENDMDL
MODEL 7
REMARK VINA RESULT:    -4.387      1.790      3.569
REMARK INTER + INTRA:         -13.819
REMARK INTER:                  -9.892
REMARK INTRA:                  -3.927
REMARK UNBOUND:                -3.789
REMARK SMILES CCCCCCCCCCCCCCCCCCCCCCCC(=O)[O-]
REMARK SMILES IDX 13 1 14 2 15 3 16 4 17 5 18 6 19 7 20 8 21 9 22 10 23 11
REMARK SMILES IDX 24 12 25 13 26 14 12 15 11 16 10 17 9 18 8 19 7 20 6 21 5 22
REMARK SMILES IDX 4 23 3 24 2 25 1 26
REMARK H PARENT
REMARK Flexibility Score: inf
ROOT
ATOM      1  C   UNL     1      99.649   4.443  23.711  1.00  0.00     0.000 C 
ENDROOT
BRANCH   1   2
ATOM      2  C   UNL     1      98.755   5.223  22.732  1.00  0.00     0.000 C 
BRANCH   2   3
ATOM      3  C   UNL     1      97.316   5.388  23.252  1.00  0.00     0.000 C 
BRANCH   3   4
ATOM      4  C   UNL     1      97.190   6.514  24.291  1.00  0.00     0.000 C 
BRANCH   4   5
ATOM      5  C   UNL     1      95.786   7.141  24.317  1.00  0.00     0.000 C 
BRANCH   5   6
ATOM      6  C   UNL     1      95.783   8.605  23.845  1.00  0.00     0.000 C 
BRANCH   6   7
ATOM      7  C   UNL     1      95.041   8.796  22.511  1.00  0.00     0.000 C 
BRANCH   7   8
ATOM      8  C   UNL     1      94.421   7.489  21.981  1.00  0.00     0.000 C 
BRANCH   8   9
ATOM      9  C   UNL     1      95.077   6.921  20.707  1.00  0.00     0.000 C 
BRANCH   9  10
ATOM     10  C   UNL     1      96.479   7.479  20.385  1.00  0.00     0.006 C 
BRANCH  10  11
ATOM     11  C   UNL     1      97.062   6.995  19.048  1.00  0.00     0.053 C 
BRANCH  11  12
ATOM     12  C   UNL     1      97.749   8.101  18.307  1.00  0.00     0.041 C 
ATOM     13  O   UNL     1      98.855   8.545  18.713  1.00  0.00    -0.550 OA
ATOM     14  O   UNL     1      97.155   8.656  17.182  1.00  0.00    -0.550 OA
ENDBRANCH  11  12
ENDBRANCH  10  11
ENDBRANCH   9  10
ENDBRANCH   8   9
ENDBRANCH   7   8
ENDBRANCH   6   7
ENDBRANCH   5   6
ENDBRANCH   4   5
ENDBRANCH   3   4
ENDBRANCH   2   3
ENDBRANCH   1   2
BRANCH   1  15
ATOM     15  C   UNL     1      99.436   2.924  23.628  1.00  0.00     0.000 C 
BRANCH  15  16
ATOM     16  C   UNL     1      99.061   2.347  25.000  1.00  0.00     0.000 C 
BRANCH  16  17
ATOM     17  C   UNL     1      97.536   2.321  25.186  1.00  0.00     0.000 C 
BRANCH  17  18
ATOM     18  C   UNL     1      97.051   3.326  26.242  1.00  0.00    -0.000 C 
BRANCH  18  19
ATOM     19  C   UNL     1      98.155   3.707  27.244  1.00  0.00    -0.000 C 
BRANCH  19  20
ATOM     20  C   UNL     1      98.246   5.224  27.472  1.00  0.00    -0.000 C 
BRANCH  20  21
ATOM     21  C   UNL     1      99.644   5.790  27.158  1.00  0.00    -0.000 C 
BRANCH  21  22
ATOM     22  C   UNL     1     100.776   4.878  27.659  1.00  0.00    -0.000 C 
BRANCH  22  23
ATOM     23  C   UNL     1     101.800   4.548  26.559  1.00  0.00    -0.000 C 
BRANCH  23  24
ATOM     24  C   UNL     1     102.312   3.095  26.653  1.00  0.00    -0.000 C 
BRANCH  24  25
ATOM     25  C   UNL     1     103.294   2.713  25.533  1.00  0.00    -0.003 C 
ATOM     26  C   UNL     1     102.798   1.554  24.668  1.00  0.00     0.004 C 
ENDBRANCH  24  25
ENDBRANCH  23  24
ENDBRANCH  22  23
ENDBRANCH  21  22
ENDBRANCH  20  21
ENDBRANCH  19  20
ENDBRANCH  18  19
ENDBRANCH  17  18
ENDBRANCH  16  17
ENDBRANCH  15  16
ENDBRANCH   1  15
TORSDOF 22
ENDMDL
MODEL 8
REMARK VINA RESULT:    -4.361      2.748      7.437
REMARK INTER + INTRA:         -13.758
REMARK INTER:                  -9.937
REMARK INTRA:                  -3.821
REMARK UNBOUND:                -3.789
REMARK SMILES CCCCCCCCCCCCCCCCCCCCCCCC(=O)[O-]
REMARK SMILES IDX 13 1 14 2 15 3 16 4 17 5 18 6 19 7 20 8 21 9 22 10 23 11
REMARK SMILES IDX 24 12 25 13 26 14 12 15 11 16 10 17 9 18 8 19 7 20 6 21 5 22
REMARK SMILES IDX 4 23 3 24 2 25 1 26
REMARK H PARENT
REMARK Flexibility Score: inf
ROOT
ATOM      1  C   UNL     1      99.043   2.693  25.937  1.00  0.00     0.000 C 
ENDROOT
BRANCH   1   2
ATOM      2  C   UNL     1      98.181   3.403  26.995  1.00  0.00     0.000 C 
BRANCH   2   3
ATOM      3  C   UNL     1      98.984   4.419  27.826  1.00  0.00     0.000 C 
BRANCH   3   4
ATOM      4  C   UNL     1      99.565   5.555  26.967  1.00  0.00     0.000 C 
BRANCH   4   5
ATOM      5  C   UNL     1     101.069   5.769  27.207  1.00  0.00     0.000 C 
BRANCH   5   6
ATOM      6  C   UNL     1     101.844   4.445  27.319  1.00  0.00     0.000 C 
BRANCH   6   7
ATOM      7  C   UNL     1     102.440   3.993  25.974  1.00  0.00     0.000 C 
BRANCH   7   8
ATOM      8  C   UNL     1     103.045   2.578  26.035  1.00  0.00     0.000 C 
BRANCH   8   9
ATOM      9  C   UNL     1     103.369   1.944  24.667  1.00  0.00     0.000 C 
BRANCH   9  10
ATOM     10  C   UNL     1     102.146   1.653  23.773  1.00  0.00     0.006 C 
BRANCH  10  11
ATOM     11  C   UNL     1     102.032   0.192  23.311  1.00  0.00     0.053 C 
BRANCH  11  12
ATOM     12  C   UNL     1     100.759  -0.443  23.779  1.00  0.00     0.041 C 
ATOM     13  O   UNL     1     100.773  -1.273  24.726  1.00  0.00    -0.550 OA
ATOM     14  O   UNL     1      99.559  -0.135  23.152  1.00  0.00    -0.550 OA
ENDBRANCH  11  12
ENDBRANCH  10  11
ENDBRANCH   9  10
ENDBRANCH   8   9
ENDBRANCH   7   8
ENDBRANCH   6   7
ENDBRANCH   5   6
ENDBRANCH   4   5
ENDBRANCH   3   4
ENDBRANCH   2   3
ENDBRANCH   1   2
BRANCH   1  15
ATOM     15  C   UNL     1      98.401   2.709  24.541  1.00  0.00     0.000 C 
BRANCH  15  16
ATOM     16  C   UNL     1      98.869   3.929  23.735  1.00  0.00     0.000 C 
BRANCH  16  17
ATOM     17  C   UNL     1      97.713   4.915  23.513  1.00  0.00     0.000 C 
BRANCH  17  18
ATOM     18  C   UNL     1      96.350   4.331  23.919  1.00  0.00    -0.000 C 
BRANCH  18  19
ATOM     19  C   UNL     1      95.624   5.200  24.961  1.00  0.00    -0.000 C 
BRANCH  19  20
ATOM     20  C   UNL     1      96.450   6.424  25.386  1.00  0.00    -0.000 C 
BRANCH  20  21
ATOM     21  C   UNL     1      95.758   7.757  25.047  1.00  0.00    -0.000 C 
BRANCH  21  22
ATOM     22  C   UNL     1      96.102   8.258  23.635  1.00  0.00    -0.000 C 
BRANCH  22  23
ATOM     23  C   UNL     1      95.072   7.811  22.582  1.00  0.00    -0.000 C 
BRANCH  23  24
ATOM     24  C   UNL     1      95.742   7.208  21.329  1.00  0.00    -0.000 C 
BRANCH  24  25
ATOM     25  C   UNL     1      97.141   7.778  21.042  1.00  0.00    -0.003 C 
ATOM     26  C   UNL     1      98.056   6.790  20.321  1.00  0.00     0.004 C 
ENDBRANCH  24  25
ENDBRANCH  23  24
ENDBRANCH  22  23
ENDBRANCH  21  22
ENDBRANCH  20  21
ENDBRANCH  19  20
ENDBRANCH  18  19
ENDBRANCH  17  18
ENDBRANCH  16  17
ENDBRANCH  15  16
ENDBRANCH   1  15
TORSDOF 22
ENDMDL
MODEL 9
REMARK VINA RESULT:    -4.330      1.315      3.131
REMARK INTER + INTRA:         -13.689
REMARK INTER:                 -10.836
REMARK INTRA:                  -2.853
REMARK UNBOUND:                -3.789
REMARK SMILES CCCCCCCCCCCCCCCCCCCCCCCC(=O)[O-]
REMARK SMILES IDX 13 1 14 2 15 3 16 4 17 5 18 6 19 7 20 8 21 9 22 10 23 11
REMARK SMILES IDX 24 12 25 13 26 14 12 15 11 16 10 17 9 18 8 19 7 20 6 21 5 22
REMARK SMILES IDX 4 23 3 24 2 25 1 26
REMARK H PARENT
REMARK Flexibility Score: inf
ROOT
ATOM      1  C   UNL     1      99.758   5.171  26.769  1.00  0.00     0.000 C 
ENDROOT
BRANCH   1   2
ATOM      2  C   UNL     1      98.429   5.256  27.537  1.00  0.00     0.000 C 
BRANCH   2   3
ATOM      3  C   UNL     1      97.217   4.889  26.662  1.00  0.00     0.000 C 
BRANCH   3   4
ATOM      4  C   UNL     1      96.652   6.099  25.900  1.00  0.00     0.000 C 
BRANCH   4   5
ATOM      5  C   UNL     1      95.617   5.697  24.836  1.00  0.00     0.000 C 
BRANCH   5   6
ATOM      6  C   UNL     1      96.269   5.164  23.549  1.00  0.00     0.000 C 
BRANCH   6   7
ATOM      7  C   UNL     1      95.828   5.941  22.297  1.00  0.00     0.000 C 
BRANCH   7   8
ATOM      8  C   UNL     1      94.960   7.168  22.631  1.00  0.00     0.000 C 
BRANCH   8   9
ATOM      9  C   UNL     1      94.357   7.897  21.413  1.00  0.00     0.000 C 
BRANCH   9  10
ATOM     10  C   UNL     1      94.871   7.416  20.040  1.00  0.00     0.006 C 
BRANCH  10  11
ATOM     11  C   UNL     1      95.850   8.383  19.356  1.00  0.00     0.053 C 
BRANCH  11  12
ATOM     12  C   UNL     1      97.234   7.815  19.286  1.00  0.00     0.041 C 
ATOM     13  O   UNL     1      97.432   6.684  18.767  1.00  0.00    -0.550 OA
ATOM     14  O   UNL     1      98.303   8.526  19.815  1.00  0.00    -0.550 OA
ENDBRANCH  11  12
ENDBRANCH  10  11
ENDBRANCH   9  10
ENDBRANCH   8   9
ENDBRANCH   7   8
ENDBRANCH   6   7
ENDBRANCH   5   6
ENDBRANCH   4   5
ENDBRANCH   3   4
ENDBRANCH   2   3
ENDBRANCH   1   2
BRANCH   1  15
ATOM     15  C   UNL     1      99.920   3.846  26.007  1.00  0.00     0.000 C 
BRANCH  15  16
ATOM     16  C   UNL     1     100.200   4.099  24.520  1.00  0.00     0.000 C 
BRANCH  16  17
ATOM     17  C   UNL     1      99.277   3.245  23.636  1.00  0.00     0.000 C 
BRANCH  17  18
ATOM     18  C   UNL     1      98.493   2.195  24.440  1.00  0.00    -0.000 C 
BRANCH  18  19
ATOM     19  C   UNL     1      98.830   0.755  24.014  1.00  0.00    -0.000 C 
BRANCH  19  20
ATOM     20  C   UNL     1      99.964   0.144  24.852  1.00  0.00    -0.000 C 
BRANCH  20  21
ATOM     21  C   UNL     1     100.873  -0.789  24.030  1.00  0.00    -0.000 C 
BRANCH  21  22
ATOM     22  C   UNL     1     102.211  -0.130  23.656  1.00  0.00    -0.000 C 
BRANCH  22  23
ATOM     23  C   UNL     1     102.444   1.198  24.398  1.00  0.00    -0.000 C 
BRANCH  23  24
ATOM     24  C   UNL     1     103.920   1.646  24.347  1.00  0.00    -0.000 C 
BRANCH  24  25
ATOM     25  C   UNL     1     104.469   2.117  25.703  1.00  0.00    -0.003 C 
ATOM     26  C   UNL     1     103.432   2.857  26.548  1.00  0.00     0.004 C 
ENDBRANCH  24  25
ENDBRANCH  23  24
ENDBRANCH  22  23
ENDBRANCH  21  22
ENDBRANCH  20  21
ENDBRANCH  19  20
ENDBRANCH  18  19
ENDBRANCH  17  18
ENDBRANCH  16  17
ENDBRANCH  15  16
ENDBRANCH   1  15
TORSDOF 22
ENDMDL
