MODEL 1
REMARK VINA RESULT:    14.171      0.000      0.000
REMARK INTER + INTRA:          18.811
REMARK INTER:                  18.728
REMARK INTRA:                   0.083
REMARK UNBOUND:                 0.083
REMARK SMILES CC[C@H](C=C[C@H](C)[C@@H]1CC[C@@H]2[C@@H]3CC=C4C[C@H](O)CC[C@]4(C)[C@H]3CC[C@@]21C)C(C)C
REMARK SMILES IDX 6 1 7 2 5 3 4 4 3 5 2 6 1 7 28 8 29 9 30 10 8 11 9 12 26 13
REMARK SMILES IDX 10 14 11 15 25 16 27 17 12 18 24 19 23 20 13 21 21 22 14 23
REMARK SMILES IDX 15 24 20 25 22 26 16 27 19 28 17 29 18 30
REMARK H PARENT 18 31
REMARK Flexibility Score: inf
ROOT
ATOM      1  C   UNL     1      75.860  39.638  27.116  1.00  0.00     0.012 C 
ATOM      2  C   UNL     1      77.028  38.828  27.703  1.00  0.00     0.012 C 
ENDROOT
BRANCH   1   3
ATOM      3  C   UNL     1      75.236  40.476  28.215  1.00  0.00    -0.028 C 
ATOM      4  C   UNL     1      75.972  41.199  29.081  1.00  0.00    -0.027 C 
BRANCH   4   5
ATOM      5  C   UNL     1      75.407  41.980  30.258  1.00  0.00     0.014 C 
BRANCH   5   6
ATOM      6  C   UNL     1      73.880  41.802  30.505  1.00  0.00     0.004 C 
ATOM      7  C   UNL     1      73.198  42.837  31.404  1.00  0.00     0.004 C 
ENDBRANCH   5   6
BRANCH   5   8
ATOM      8  C   UNL     1      76.287  41.968  31.550  1.00  0.00    -0.011 C 
ATOM      9  C   UNL     1      75.785  42.990  32.584  1.00  0.00     0.008 C 
ATOM     10  C   UNL     1      77.796  42.150  31.325  1.00  0.00     0.008 C 
ENDBRANCH   5   8
ENDBRANCH   4   5
ENDBRANCH   1   3
BRANCH   1  11
ATOM     11  C   UNL     1      76.271  40.517  25.884  1.00  0.00     0.002 C 
ATOM     12  C   UNL     1      75.762  41.964  26.023  1.00  0.00     0.005 C 
ATOM     13  C   UNL     1      75.802  40.060  24.464  1.00  0.00    -0.026 C 
ATOM     14  C   UNL     1      75.430  42.468  24.623  1.00  0.00     0.005 C 
ATOM     15  C   UNL     1      75.884  41.373  23.651  1.00  0.00    -0.001 C 
ATOM     16  C   UNL     1      74.334  39.536  24.487  1.00  0.00     0.007 C 
ATOM     17  C   UNL     1      76.765  39.005  23.858  1.00  0.00     0.012 C 
ATOM     18  C   UNL     1      75.145  41.347  22.273  1.00  0.00     0.000 C 
ATOM     19  C   UNL     1      73.722  39.414  23.091  1.00  0.00     0.005 C 
ATOM     20  C   UNL     1      73.709  40.774  22.351  1.00  0.00     0.003 C 
ATOM     21  C   UNL     1      75.128  42.744  21.629  1.00  0.00     0.031 C 
ATOM     22  C   UNL     1      73.021  40.700  20.927  1.00  0.00    -0.008 C 
ATOM     23  C   UNL     1      74.320  42.799  20.369  1.00  0.00    -0.027 C 
ATOM     24  C   UNL     1      73.273  41.984  20.119  1.00  0.00    -0.065 C 
ATOM     25  C   UNL     1      71.481  40.531  21.126  1.00  0.00     0.014 C 
ATOM     26  C   UNL     1      73.564  39.505  20.095  1.00  0.00     0.016 C 
ATOM     27  C   UNL     1      72.443  42.246  18.875  1.00  0.00     0.063 C 
ATOM     28  C   UNL     1      70.660  40.709  19.838  1.00  0.00     0.033 C 
ATOM     29  C   UNL     1      70.943  42.050  19.144  1.00  0.00     0.118 C 
BRANCH  29  30
ATOM     30  O   UNL     1      70.399  43.125  19.873  1.00  0.00    -0.393 OA
ATOM     31  H   UNL     1      71.073  43.428  20.534  1.00  0.00     0.210 HD
ENDBRANCH  29  30
ENDBRANCH   1  11
TORSDOF 6
ENDMDL
MODEL 2
REMARK VINA RESULT:    15.067      1.240      1.750
REMARK INTER + INTRA:          19.994
REMARK INTER:                  21.017
REMARK INTRA:                  -1.024
REMARK UNBOUND:                 0.083
REMARK SMILES CC[C@H](C=C[C@H](C)[C@@H]1CC[C@@H]2[C@@H]3CC=C4C[C@H](O)CC[C@]4(C)[C@H]3CC[C@@]21C)C(C)C
REMARK SMILES IDX 6 1 7 2 5 3 4 4 3 5 2 6 1 7 28 8 29 9 30 10 8 11 9 12 26 13
REMARK SMILES IDX 10 14 11 15 25 16 27 17 12 18 24 19 23 20 13 21 21 22 14 23
REMARK SMILES IDX 15 24 20 25 22 26 16 27 19 28 17 29 18 30
REMARK H PARENT 18 31
REMARK Flexibility Score: inf
ROOT
ATOM      1  C   UNL     1      76.354  39.729  25.897  1.00  0.00     0.012 C 
ATOM      2  C   UNL     1      77.732  39.175  26.294  1.00  0.00     0.012 C 
ENDROOT
BRANCH   1   3
ATOM      3  C   UNL     1      75.729  40.410  27.101  1.00  0.00    -0.028 C 
ATOM      4  C   UNL     1      75.816  39.904  28.345  1.00  0.00    -0.027 C 
BRANCH   4   5
ATOM      5  C   UNL     1      75.131  40.492  29.571  1.00  0.00     0.014 C 
BRANCH   5   6
ATOM      6  C   UNL     1      74.834  39.482  30.717  1.00  0.00     0.004 C 
ATOM      7  C   UNL     1      75.342  38.049  30.526  1.00  0.00     0.004 C 
ENDBRANCH   5   6
BRANCH   5   8
ATOM      8  C   UNL     1      75.682  41.878  30.041  1.00  0.00    -0.011 C 
ATOM      9  C   UNL     1      76.838  41.713  31.043  1.00  0.00     0.008 C 
ATOM     10  C   UNL     1      74.636  42.850  30.604  1.00  0.00     0.008 C 
ENDBRANCH   5   8
ENDBRANCH   4   5
ENDBRANCH   1   3
BRANCH   1  11
ATOM     11  C   UNL     1      76.402  40.685  24.655  1.00  0.00     0.002 C 
ATOM     12  C   UNL     1      75.860  42.086  24.995  1.00  0.00     0.005 C 
ATOM     13  C   UNL     1      75.631  40.256  23.365  1.00  0.00    -0.026 C 
ATOM     14  C   UNL     1      75.170  42.624  23.746  1.00  0.00     0.005 C 
ATOM     15  C   UNL     1      75.438  41.605  22.633  1.00  0.00    -0.001 C 
ATOM     16  C   UNL     1      74.246  39.630  23.709  1.00  0.00     0.007 C 
ATOM     17  C   UNL     1      76.478  39.297  22.488  1.00  0.00     0.012 C 
ATOM     18  C   UNL     1      74.389  41.584  21.472  1.00  0.00     0.000 C 
ATOM     19  C   UNL     1      73.322  39.524  22.495  1.00  0.00     0.005 C 
ATOM     20  C   UNL     1      73.051  40.909  21.858  1.00  0.00     0.003 C 
ATOM     21  C   UNL     1      74.137  43.002  20.932  1.00  0.00     0.031 C 
ATOM     22  C   UNL     1      72.044  40.847  20.638  1.00  0.00    -0.008 C 
ATOM     23  C   UNL     1      73.045  43.053  19.906  1.00  0.00    -0.027 C 
ATOM     24  C   UNL     1      72.018  42.178  19.868  1.00  0.00    -0.065 C 
ATOM     25  C   UNL     1      70.611  40.563  21.189  1.00  0.00     0.014 C 
ATOM     26  C   UNL     1      72.437  39.728  19.633  1.00  0.00     0.016 C 
ATOM     27  C   UNL     1      70.897  42.433  18.876  1.00  0.00     0.063 C 
ATOM     28  C   UNL     1      69.493  40.737  20.148  1.00  0.00     0.033 C 
ATOM     29  C   UNL     1      69.521  42.122  19.484  1.00  0.00     0.118 C 
BRANCH  29  30
ATOM     30  O   UNL     1      69.109  43.124  20.382  1.00  0.00    -0.393 OA
ATOM     31  H   UNL     1      69.799  43.837  20.394  1.00  0.00     0.210 HD
ENDBRANCH  29  30
ENDBRANCH   1  11
TORSDOF 6
ENDMDL
