MODEL 1
REMARK VINA RESULT:    -4.466      0.000      0.000
REMARK INTER + INTRA:          -8.615
REMARK INTER:                  -7.077
REMARK INTRA:                  -1.537
REMARK UNBOUND:                -1.537
REMARK SMILES CCCCCCCCCCCC(=O)[O-]
REMARK SMILES IDX 7 1 8 2 9 3 10 4 11 5 12 6 13 7 14 8 6 9 5 10 4 11 3 12 2 13
REMARK SMILES IDX 1 14
REMARK H PARENT
REMARK Flexibility Score: inf
ROOT
ATOM      1  C   UNL     1      63.253  29.888  13.237  1.00  0.00     0.000 C 
ENDROOT
BRANCH   1   2
ATOM      2  C   UNL     1      62.388  28.652  12.932  1.00  0.00     0.000 C 
BRANCH   2   3
ATOM      3  C   UNL     1      60.968  28.767  13.509  1.00  0.00     0.000 C 
BRANCH   3   4
ATOM      4  C   UNL     1      59.876  28.498  12.463  1.00  0.00     0.006 C 
BRANCH   4   5
ATOM      5  C   UNL     1      59.779  29.654  11.464  1.00  0.00     0.053 C 
BRANCH   5   6
ATOM      6  C   UNL     1      60.150  29.193  10.091  1.00  0.00     0.041 C 
ATOM      7  O   UNL     1      61.282  29.472   9.613  1.00  0.00    -0.550 OA
ATOM      8  O   UNL     1      59.229  28.497   9.317  1.00  0.00    -0.550 OA
ENDBRANCH   5   6
ENDBRANCH   4   5
ENDBRANCH   3   4
ENDBRANCH   2   3
ENDBRANCH   1   2
BRANCH   1   9
ATOM      9  C   UNL     1      63.041  31.023  12.221  1.00  0.00     0.000 C 
BRANCH   9  10
ATOM     10  C   UNL     1      63.294  32.414  12.830  1.00  0.00    -0.000 C 
BRANCH  10  11
ATOM     11  C   UNL     1      62.259  32.785  13.905  1.00  0.00    -0.000 C 
BRANCH  11  12
ATOM     12  C   UNL     1      60.821  32.798  13.366  1.00  0.00    -0.000 C 
BRANCH  12  13
ATOM     13  C   UNL     1      59.863  32.113  14.348  1.00  0.00    -0.003 C 
ATOM     14  C   UNL     1      60.571  31.759  15.653  1.00  0.00     0.004 C 
ENDBRANCH  12  13
ENDBRANCH  11  12
ENDBRANCH  10  11
ENDBRANCH   9  10
ENDBRANCH   1   9
TORSDOF 10
ENDMDL
MODEL 2
REMARK VINA RESULT:    -4.369      2.532      4.823
REMARK INTER + INTRA:          -8.460
REMARK INTER:                  -6.960
REMARK INTRA:                  -1.499
REMARK UNBOUND:                -1.537
REMARK SMILES CCCCCCCCCCCC(=O)[O-]
REMARK SMILES IDX 7 1 8 2 9 3 10 4 11 5 12 6 13 7 14 8 6 9 5 10 4 11 3 12 2 13
REMARK SMILES IDX 1 14
REMARK H PARENT
REMARK Flexibility Score: inf
ROOT
ATOM      1  C   UNL     1      63.357  29.871  13.591  1.00  0.00     0.000 C 
ENDROOT
BRANCH   1   2
ATOM      2  C   UNL     1      63.696  30.634  12.298  1.00  0.00     0.000 C 
BRANCH   2   3
ATOM      3  C   UNL     1      63.446  32.146  12.421  1.00  0.00     0.000 C 
BRANCH   3   4
ATOM      4  C   UNL     1      62.554  32.506  13.619  1.00  0.00     0.006 C 
BRANCH   4   5
ATOM      5  C   UNL     1      61.098  32.686  13.182  1.00  0.00     0.053 C 
BRANCH   5   6
ATOM      6  C   UNL     1      60.193  32.709  14.373  1.00  0.00     0.041 C 
ATOM      7  O   UNL     1      59.197  31.941  14.427  1.00  0.00    -0.550 OA
ATOM      8  O   UNL     1      60.420  33.615  15.402  1.00  0.00    -0.550 OA
ENDBRANCH   5   6
ENDBRANCH   4   5
ENDBRANCH   3   4
ENDBRANCH   2   3
ENDBRANCH   1   2
BRANCH   1   9
ATOM      9  C   UNL     1      62.476  28.637  13.336  1.00  0.00     0.000 C 
BRANCH   9  10
ATOM     10  C   UNL     1      60.984  28.914  13.592  1.00  0.00    -0.000 C 
BRANCH  10  11
ATOM     11  C   UNL     1      60.103  28.559  12.384  1.00  0.00    -0.000 C 
BRANCH  11  12
ATOM     12  C   UNL     1      59.854  29.758  11.455  1.00  0.00    -0.000 C 
BRANCH  12  13
ATOM     13  C   UNL     1      60.792  29.715  10.244  1.00  0.00    -0.003 C 
ATOM     14  C   UNL     1      61.164  28.278   9.884  1.00  0.00     0.004 C 
ENDBRANCH  12  13
ENDBRANCH  11  12
ENDBRANCH  10  11
ENDBRANCH   9  10
ENDBRANCH   1   9
TORSDOF 10
ENDMDL
MODEL 3
REMARK VINA RESULT:    -4.296      2.761      4.687
REMARK INTER + INTRA:          -8.345
REMARK INTER:                  -7.054
REMARK INTRA:                  -1.291
REMARK UNBOUND:                -1.537
REMARK SMILES CCCCCCCCCCCC(=O)[O-]
REMARK SMILES IDX 7 1 8 2 9 3 10 4 11 5 12 6 13 7 14 8 6 9 5 10 4 11 3 12 2 13
REMARK SMILES IDX 1 14
REMARK H PARENT
REMARK Flexibility Score: inf
ROOT
ATOM      1  C   UNL     1      63.442  29.965  11.523  1.00  0.00     0.000 C 
ENDROOT
BRANCH   1   2
ATOM      2  C   UNL     1      64.050  31.379  11.542  1.00  0.00     0.000 C 
BRANCH   2   3
ATOM      3  C   UNL     1      63.385  32.294  12.583  1.00  0.00     0.000 C 
BRANCH   3   4
ATOM      4  C   UNL     1      62.139  31.661  13.223  1.00  0.00     0.006 C 
BRANCH   4   5
ATOM      5  C   UNL     1      60.918  32.570  13.057  1.00  0.00     0.053 C 
BRANCH   5   6
ATOM      6  C   UNL     1      60.190  32.710  14.356  1.00  0.00     0.041 C 
ATOM      7  O   UNL     1      59.266  31.908  14.655  1.00  0.00    -0.550 OA
ATOM      8  O   UNL     1      60.496  33.757  15.216  1.00  0.00    -0.550 OA
ENDBRANCH   5   6
ENDBRANCH   4   5
ENDBRANCH   3   4
ENDBRANCH   2   3
ENDBRANCH   1   2
BRANCH   1   9
ATOM      9  C   UNL     1      63.481  29.323  10.126  1.00  0.00     0.000 C 
BRANCH   9  10
ATOM     10  C   UNL     1      62.077  29.125   9.529  1.00  0.00    -0.000 C 
BRANCH  10  11
ATOM     11  C   UNL     1      61.127  28.388  10.488  1.00  0.00    -0.000 C 
BRANCH  11  12
ATOM     12  C   UNL     1      59.861  29.196  10.809  1.00  0.00    -0.000 C 
BRANCH  12  13
ATOM     13  C   UNL     1      59.580  29.196  12.317  1.00  0.00    -0.003 C 
ATOM     14  C   UNL     1      60.519  28.242  13.052  1.00  0.00     0.004 C 
ENDBRANCH  12  13
ENDBRANCH  11  12
ENDBRANCH  10  11
ENDBRANCH   9  10
ENDBRANCH   1   9
TORSDOF 10
ENDMDL
MODEL 4
REMARK VINA RESULT:    -4.263     13.363     14.664
REMARK INTER + INTRA:          -8.292
REMARK INTER:                  -6.803
REMARK INTRA:                  -1.489
REMARK UNBOUND:                -1.537
REMARK SMILES CCCCCCCCCCCC(=O)[O-]
REMARK SMILES IDX 7 1 8 2 9 3 10 4 11 5 12 6 13 7 14 8 6 9 5 10 4 11 3 12 2 13
REMARK SMILES IDX 1 14
REMARK H PARENT
REMARK Flexibility Score: inf
ROOT
ATOM      1  C   UNL     1      62.520  30.097  25.622  1.00  0.00     0.000 C 
ENDROOT
BRANCH   1   2
ATOM      2  C   UNL     1      62.052  28.920  24.749  1.00  0.00     0.000 C 
BRANCH   2   3
ATOM      3  C   UNL     1      61.148  27.939  25.514  1.00  0.00     0.000 C 
BRANCH   3   4
ATOM      4  C   UNL     1      61.920  27.093  26.538  1.00  0.00     0.006 C 
BRANCH   4   5
ATOM      5  C   UNL     1      61.204  27.087  27.892  1.00  0.00     0.053 C 
BRANCH   5   6
ATOM      6  C   UNL     1      61.509  28.339  28.651  1.00  0.00     0.041 C 
ATOM      7  O   UNL     1      60.577  29.112  28.998  1.00  0.00    -0.550 OA
ATOM      8  O   UNL     1      62.826  28.680  28.934  1.00  0.00    -0.550 OA
ENDBRANCH   5   6
ENDBRANCH   4   5
ENDBRANCH   3   4
ENDBRANCH   2   3
ENDBRANCH   1   2
BRANCH   1   9
ATOM      9  C   UNL     1      64.024  30.383  25.474  1.00  0.00     0.000 C 
BRANCH   9  10
ATOM     10  C   UNL     1      64.897  29.313  26.153  1.00  0.00    -0.000 C 
BRANCH  10  11
ATOM     11  C   UNL     1      66.074  28.865  25.272  1.00  0.00    -0.000 C 
BRANCH  11  12
ATOM     12  C   UNL     1      65.648  27.894  24.160  1.00  0.00    -0.000 C 
BRANCH  12  13
ATOM     13  C   UNL     1      65.061  26.607  24.752  1.00  0.00    -0.003 C 
ATOM     14  C   UNL     1      64.161  25.897  23.744  1.00  0.00     0.004 C 
ENDBRANCH  12  13
ENDBRANCH  11  12
ENDBRANCH  10  11
ENDBRANCH   9  10
ENDBRANCH   1   9
TORSDOF 10
ENDMDL
MODEL 5
REMARK VINA RESULT:    -4.245     12.867     14.391
REMARK INTER + INTRA:          -8.264
REMARK INTER:                  -6.821
REMARK INTRA:                  -1.443
REMARK UNBOUND:                -1.537
REMARK SMILES CCCCCCCCCCCC(=O)[O-]
REMARK SMILES IDX 7 1 8 2 9 3 10 4 11 5 12 6 13 7 14 8 6 9 5 10 4 11 3 12 2 13
REMARK SMILES IDX 1 14
REMARK H PARENT
REMARK Flexibility Score: inf
ROOT
ATOM      1  C   UNL     1      63.710  30.440  26.897  1.00  0.00     0.000 C 
ENDROOT
BRANCH   1   2
ATOM      2  C   UNL     1      64.983  29.628  27.196  1.00  0.00     0.000 C 
BRANCH   2   3
ATOM      3  C   UNL     1      65.593  28.998  25.933  1.00  0.00     0.000 C 
BRANCH   3   4
ATOM      4  C   UNL     1      64.577  28.170  25.131  1.00  0.00     0.006 C 
BRANCH   4   5
ATOM      5  C   UNL     1      64.784  26.672  25.369  1.00  0.00     0.053 C 
BRANCH   5   6
ATOM      6  C   UNL     1      64.434  25.893  24.140  1.00  0.00     0.041 C 
ATOM      7  O   UNL     1      63.244  25.538  23.933  1.00  0.00    -0.550 OA
ATOM      8  O   UNL     1      65.430  25.517  23.247  1.00  0.00    -0.550 OA
ENDBRANCH   5   6
ENDBRANCH   4   5
ENDBRANCH   3   4
ENDBRANCH   2   3
ENDBRANCH   1   2
BRANCH   1   9
ATOM      9  C   UNL     1      62.707  30.417  28.063  1.00  0.00     0.000 C 
BRANCH   9  10
ATOM     10  C   UNL     1      62.531  29.010  28.661  1.00  0.00    -0.000 C 
BRANCH  10  11
ATOM     11  C   UNL     1      61.268  28.302  28.143  1.00  0.00    -0.000 C 
BRANCH  11  12
ATOM     12  C   UNL     1      61.587  27.127  27.207  1.00  0.00    -0.000 C 
BRANCH  12  13
ATOM     13  C   UNL     1      60.711  27.177  25.949  1.00  0.00    -0.003 C 
ATOM     14  C   UNL     1      61.023  28.413  25.109  1.00  0.00     0.004 C 
ENDBRANCH  12  13
ENDBRANCH  11  12
ENDBRANCH  10  11
ENDBRANCH   9  10
ENDBRANCH   1   9
TORSDOF 10
ENDMDL
MODEL 6
REMARK VINA RESULT:    -4.207     12.406     14.085
REMARK INTER + INTRA:          -8.203
REMARK INTER:                  -6.616
REMARK INTRA:                  -1.587
REMARK UNBOUND:                -1.537
REMARK SMILES CCCCCCCCCCCC(=O)[O-]
REMARK SMILES IDX 7 1 8 2 9 3 10 4 11 5 12 6 13 7 14 8 6 9 5 10 4 11 3 12 2 13
REMARK SMILES IDX 1 14
REMARK H PARENT
REMARK Flexibility Score: inf
ROOT
ATOM      1  C   UNL     1      61.921  29.580  24.952  1.00  0.00     0.000 C 
ENDROOT
BRANCH   1   2
ATOM      2  C   UNL     1      63.347  29.431  24.393  1.00  0.00     0.000 C 
BRANCH   2   3
ATOM      3  C   UNL     1      64.428  29.644  25.465  1.00  0.00     0.000 C 
BRANCH   3   4
ATOM      4  C   UNL     1      65.378  28.443  25.598  1.00  0.00     0.006 C 
BRANCH   4   5
ATOM      5  C   UNL     1      64.768  27.191  24.963  1.00  0.00     0.053 C 
BRANCH   5   6
ATOM      6  C   UNL     1      65.615  26.715  23.825  1.00  0.00     0.041 C 
ATOM      7  O   UNL     1      65.615  25.499  23.500  1.00  0.00    -0.550 OA
ATOM      8  O   UNL     1      66.442  27.607  23.153  1.00  0.00    -0.550 OA
ENDBRANCH   5   6
ENDBRANCH   4   5
ENDBRANCH   3   4
ENDBRANCH   2   3
ENDBRANCH   1   2
BRANCH   1   9
ATOM      9  C   UNL     1      61.176  28.238  25.038  1.00  0.00     0.000 C 
BRANCH   9  10
ATOM     10  C   UNL     1      60.783  27.872  26.480  1.00  0.00    -0.000 C 
BRANCH  10  11
ATOM     11  C   UNL     1      61.905  27.134  27.228  1.00  0.00    -0.000 C 
BRANCH  11  12
ATOM     12  C   UNL     1      62.539  27.984  28.340  1.00  0.00    -0.000 C 
BRANCH  12  13
ATOM     13  C   UNL     1      61.706  29.243  28.608  1.00  0.00    -0.003 C 
ATOM     14  C   UNL     1      62.582  30.493  28.615  1.00  0.00     0.004 C 
ENDBRANCH  12  13
ENDBRANCH  11  12
ENDBRANCH  10  11
ENDBRANCH   9  10
ENDBRANCH   1   9
TORSDOF 10
ENDMDL
MODEL 7
REMARK VINA RESULT:    -4.199     13.192     15.000
REMARK INTER + INTRA:          -8.190
REMARK INTER:                  -6.723
REMARK INTRA:                  -1.467
REMARK UNBOUND:                -1.537
REMARK SMILES CCCCCCCCCCCC(=O)[O-]
REMARK SMILES IDX 7 1 8 2 9 3 10 4 11 5 12 6 13 7 14 8 6 9 5 10 4 11 3 12 2 13
REMARK SMILES IDX 1 14
REMARK H PARENT
REMARK Flexibility Score: inf
ROOT
ATOM      1  C   UNL     1      61.289  28.099  24.692  1.00  0.00     0.000 C 
ENDROOT
BRANCH   1   2
ATOM      2  C   UNL     1      60.610  27.483  25.928  1.00  0.00     0.000 C 
BRANCH   2   3
ATOM      3  C   UNL     1      61.607  27.163  27.053  1.00  0.00     0.000 C 
BRANCH   3   4
ATOM      4  C   UNL     1      61.353  27.985  28.326  1.00  0.00     0.006 C 
BRANCH   4   5
ATOM      5  C   UNL     1      62.646  28.171  29.124  1.00  0.00     0.053 C 
BRANCH   5   6
ATOM      6  C   UNL     1      63.193  29.548  28.922  1.00  0.00     0.041 C 
ATOM      7  O   UNL     1      64.414  29.781  29.125  1.00  0.00    -0.550 OA
ATOM      8  O   UNL     1      62.346  30.587  28.556  1.00  0.00    -0.550 OA
ENDBRANCH   5   6
ENDBRANCH   4   5
ENDBRANCH   3   4
ENDBRANCH   2   3
ENDBRANCH   1   2
BRANCH   1   9
ATOM      9  C   UNL     1      61.890  29.485  24.977  1.00  0.00     0.000 C 
BRANCH   9  10
ATOM     10  C   UNL     1      63.314  29.637  24.413  1.00  0.00    -0.000 C 
BRANCH  10  11
ATOM     11  C   UNL     1      64.360  29.887  25.512  1.00  0.00    -0.000 C 
BRANCH  11  12
ATOM     12  C   UNL     1      65.217  28.648  25.811  1.00  0.00    -0.000 C 
BRANCH  12  13
ATOM     13  C   UNL     1      65.200  27.673  24.627  1.00  0.00    -0.003 C 
ATOM     14  C   UNL     1      64.712  26.291  25.058  1.00  0.00     0.004 C 
ENDBRANCH  12  13
ENDBRANCH  11  12
ENDBRANCH  10  11
ENDBRANCH   9  10
ENDBRANCH   1   9
TORSDOF 10
ENDMDL
MODEL 8
REMARK VINA RESULT:    -4.140     12.818     14.513
REMARK INTER + INTRA:          -8.097
REMARK INTER:                  -6.927
REMARK INTRA:                  -1.171
REMARK UNBOUND:                -1.537
REMARK SMILES CCCCCCCCCCCC(=O)[O-]
REMARK SMILES IDX 7 1 8 2 9 3 10 4 11 5 12 6 13 7 14 8 6 9 5 10 4 11 3 12 2 13
REMARK SMILES IDX 1 14
REMARK H PARENT
REMARK Flexibility Score: inf
ROOT
ATOM      1  C   UNL     1      62.775  30.368  27.792  1.00  0.00     0.000 C 
ENDROOT
BRANCH   1   2
ATOM      2  C   UNL     1      62.327  29.288  28.793  1.00  0.00     0.000 C 
BRANCH   2   3
ATOM      3  C   UNL     1      60.960  28.683  28.439  1.00  0.00     0.000 C 
BRANCH   3   4
ATOM      4  C   UNL     1      61.044  27.192  28.079  1.00  0.00     0.006 C 
BRANCH   4   5
ATOM      5  C   UNL     1      61.833  26.986  26.782  1.00  0.00     0.053 C 
BRANCH   5   6
ATOM      6  C   UNL     1      61.012  27.392  25.600  1.00  0.00     0.041 C 
ATOM      7  O   UNL     1      61.458  28.234  24.777  1.00  0.00    -0.550 OA
ATOM      8  O   UNL     1      59.732  26.877  25.431  1.00  0.00    -0.550 OA
ENDBRANCH   5   6
ENDBRANCH   4   5
ENDBRANCH   3   4
ENDBRANCH   2   3
ENDBRANCH   1   2
BRANCH   1   9
ATOM      9  C   UNL     1      64.267  30.261  27.434  1.00  0.00     0.000 C 
BRANCH   9  10
ATOM     10  C   UNL     1      64.494  29.875  25.962  1.00  0.00    -0.000 C 
BRANCH  10  11
ATOM     11  C   UNL     1      65.322  28.589  25.810  1.00  0.00    -0.000 C 
BRANCH  11  12
ATOM     12  C   UNL     1      65.014  27.833  24.509  1.00  0.00    -0.000 C 
BRANCH  12  13
ATOM     13  C   UNL     1      64.868  26.329  24.771  1.00  0.00    -0.003 C 
ATOM     14  C   UNL     1      63.915  25.685  23.767  1.00  0.00     0.004 C 
ENDBRANCH  12  13
ENDBRANCH  11  12
ENDBRANCH  10  11
ENDBRANCH   9  10
ENDBRANCH   1   9
TORSDOF 10
ENDMDL
MODEL 9
REMARK VINA RESULT:    -4.084      1.314      2.840
REMARK INTER + INTRA:          -8.010
REMARK INTER:                  -6.516
REMARK INTRA:                  -1.493
REMARK UNBOUND:                -1.537
REMARK SMILES CCCCCCCCCCCC(=O)[O-]
REMARK SMILES IDX 7 1 8 2 9 3 10 4 11 5 12 6 13 7 14 8 6 9 5 10 4 11 3 12 2 13
REMARK SMILES IDX 1 14
REMARK H PARENT
REMARK Flexibility Score: inf
ROOT
ATOM      1  C   UNL     1      59.660  31.800  14.047  1.00  0.00     0.000 C 
ENDROOT
BRANCH   1   2
ATOM      2  C   UNL     1      60.201  30.912  12.912  1.00  0.00     0.000 C 
BRANCH   2   3
ATOM      3  C   UNL     1      60.484  29.473  13.371  1.00  0.00     0.000 C 
BRANCH   3   4
ATOM      4  C   UNL     1      61.484  28.744  12.461  1.00  0.00     0.006 C 
BRANCH   4   5
ATOM      5  C   UNL     1      61.721  29.531  11.169  1.00  0.00     0.053 C 
BRANCH   5   6
ATOM      6  C   UNL     1      61.082  28.837  10.008  1.00  0.00     0.041 C 
ATOM      7  O   UNL     1      61.790  28.395   9.065  1.00  0.00    -0.550 OA
ATOM      8  O   UNL     1      59.699  28.723   9.942  1.00  0.00    -0.550 OA
ENDBRANCH   5   6
ENDBRANCH   4   5
ENDBRANCH   3   4
ENDBRANCH   2   3
ENDBRANCH   1   2
BRANCH   1   9
ATOM      9  C   UNL     1      60.388  33.151  14.139  1.00  0.00     0.000 C 
BRANCH   9  10
ATOM     10  C   UNL     1      61.312  33.240  15.367  1.00  0.00    -0.000 C 
BRANCH  10  11
ATOM     11  C   UNL     1      62.801  33.171  14.991  1.00  0.00    -0.000 C 
BRANCH  11  12
ATOM     12  C   UNL     1      63.360  31.741  15.033  1.00  0.00    -0.000 C 
BRANCH  12  13
ATOM     13  C   UNL     1      63.881  31.316  13.655  1.00  0.00    -0.003 C 
ATOM     14  C   UNL     1      63.743  32.448  12.641  1.00  0.00     0.004 C 
ENDBRANCH  12  13
ENDBRANCH  11  12
ENDBRANCH  10  11
ENDBRANCH   9  10
ENDBRANCH   1   9
TORSDOF 10
ENDMDL
