MODEL 1
REMARK VINA RESULT:    -6.168      0.000      0.000
REMARK INTER + INTRA:          -6.926
REMARK INTER:                  -6.709
REMARK INTRA:                  -0.217
REMARK UNBOUND:                -0.217
REMARK SMILES C[C@H]1[C@@H](C)CC[C@@]2(C(=O)[O-])CC[C@@]3(C)C(=CC[C@H]4[C@]5(C)CC[C@@H](O)C(C)(C)[C@@H]5CC[C@@]43C)[C@@H]12
REMARK SMILES IDX 7 1 6 2 11 3 33 4 5 5 12 6 15 7 2 8 3 9 13 10 16 11 1 12
REMARK SMILES IDX 4 13 14 14 31 15 17 16 18 17 30 18 32 19 19 20 29 21 28 22
REMARK SMILES IDX 21 23 20 24 25 25 22 26 23 27 26 28 27 29 8 30 9 31 10 32
REMARK SMILES IDX 24 33
REMARK H PARENT 24 34
REMARK Flexibility Score: inf
ROOT
ATOM      1  C   UNL     1      -0.267   1.661   9.923  1.00  0.00     0.017 C 
ATOM      2  C   UNL     1      -0.462   0.236  10.531  1.00  0.00     0.014 C 
ATOM      3  C   UNL     1      -0.392   2.687  11.073  1.00  0.00     0.014 C 
ATOM      4  C   UNL     1       1.142   1.791   9.214  1.00  0.00     0.030 C 
ATOM      5  C   UNL     1       0.137  -0.858   9.647  1.00  0.00     0.004 C 
ATOM      6  C   UNL     1      -0.215   4.126  10.578  1.00  0.00     0.013 C 
ATOM      7  C   UNL     1       1.687   3.229   9.083  1.00  0.00    -0.063 C 
ATOM      8  C   UNL     1       2.208   0.745   9.691  1.00  0.00    -0.003 C 
ATOM      9  C   UNL     1       1.673  -0.714   9.477  1.00  0.00    -0.011 C 
ATOM     10  C   UNL     1       1.181   4.414   9.939  1.00  0.00    -0.006 C 
ATOM     11  C   UNL     1       2.633   3.443   8.131  1.00  0.00    -0.027 C 
ATOM     12  C   UNL     1       2.779   1.031  11.095  1.00  0.00     0.008 C 
ATOM     13  C   UNL     1       2.430  -1.788  10.278  1.00  0.00     0.008 C 
ATOM     14  C   UNL     1       2.198   4.551  11.125  1.00  0.00     0.017 C 
ATOM     15  C   UNL     1       1.109   5.735   9.010  1.00  0.00    -0.020 C 
ATOM     16  C   UNL     1       3.018   4.797   7.576  1.00  0.00     0.032 C 
ATOM     17  C   UNL     1       2.553   6.001   8.434  1.00  0.00     0.006 C 
ATOM     18  C   UNL     1       0.609   6.973   9.821  1.00  0.00     0.008 C 
ATOM     19  C   UNL     1       0.089   5.489   7.841  1.00  0.00     0.012 C 
ATOM     20  C   UNL     1       2.893   7.433   7.811  1.00  0.00    -0.025 C 
ATOM     21  C   UNL     1       0.827   8.306   9.114  1.00  0.00     0.005 C 
ATOM     22  C   UNL     1       2.302   8.591   8.707  1.00  0.00     0.003 C 
ATOM     23  C   UNL     1       4.456   7.576   7.705  1.00  0.00     0.010 C 
ATOM     24  C   UNL     1       2.352   7.627   6.357  1.00  0.00     0.012 C 
ATOM     25  C   UNL     1       3.284   9.170   9.814  1.00  0.00    -0.006 C 
ATOM     26  C   UNL     1       4.944   9.029   7.779  1.00  0.00     0.033 C 
ATOM     27  C   UNL     1       4.556   9.764   9.088  1.00  0.00     0.120 C 
ATOM     28  C   UNL     1       2.575  10.295  10.616  1.00  0.00     0.014 C 
ATOM     29  C   UNL     1       3.760   8.148  10.886  1.00  0.00     0.014 C 
ENDROOT
BRANCH   1  30
ATOM     30  C   UNL     1      -1.415   1.899   8.933  1.00  0.00     0.048 C 
ATOM     31  O   UNL     1      -1.164   2.305   7.765  1.00  0.00    -0.550 OA
ATOM     32  O   UNL     1      -2.747   1.711   9.293  1.00  0.00    -0.550 OA
ENDBRANCH   1  30
BRANCH  27  33
ATOM     33  O   UNL     1       4.359  11.125   8.780  1.00  0.00    -0.393 OA
ATOM     34  H   UNL     1       3.883  11.534   9.552  1.00  0.00     0.210 HD
ENDBRANCH  27  33
TORSDOF 2
ENDMDL
MODEL 2
REMARK VINA RESULT:    -4.207      6.435     10.811
REMARK INTER + INTRA:          -4.792
REMARK INTER:                  -4.482
REMARK INTRA:                  -0.310
REMARK UNBOUND:                -0.217
REMARK SMILES C[C@H]1[C@@H](C)CC[C@@]2(C(=O)[O-])CC[C@@]3(C)C(=CC[C@H]4[C@]5(C)CC[C@@H](O)C(C)(C)[C@@H]5CC[C@@]43C)[C@@H]12
REMARK SMILES IDX 7 1 6 2 11 3 33 4 5 5 12 6 15 7 2 8 3 9 13 10 16 11 1 12
REMARK SMILES IDX 4 13 14 14 31 15 17 16 18 17 30 18 32 19 19 20 29 21 28 22
REMARK SMILES IDX 21 23 20 24 25 25 22 26 23 27 26 28 27 29 8 30 9 31 10 32
REMARK SMILES IDX 24 33
REMARK H PARENT 24 34
REMARK Flexibility Score: inf
ROOT
ATOM      1  C   UNL     1      -4.315  -7.827   8.736  1.00  0.00     0.017 C 
ATOM      2  C   UNL     1      -4.750  -9.125   7.984  1.00  0.00     0.014 C 
ATOM      3  C   UNL     1      -2.779  -7.700   8.611  1.00  0.00     0.014 C 
ATOM      4  C   UNL     1      -5.028  -6.550   8.129  1.00  0.00     0.030 C 
ATOM      5  C   UNL     1      -6.225  -9.097   7.586  1.00  0.00     0.004 C 
ATOM      6  C   UNL     1      -2.248  -6.450   9.320  1.00  0.00     0.013 C 
ATOM      7  C   UNL     1      -4.301  -5.210   8.368  1.00  0.00    -0.063 C 
ATOM      8  C   UNL     1      -5.559  -6.736   6.666  1.00  0.00    -0.003 C 
ATOM      9  C   UNL     1      -6.556  -7.946   6.599  1.00  0.00    -0.011 C 
ATOM     10  C   UNL     1      -2.805  -5.106   8.748  1.00  0.00    -0.006 C 
ATOM     11  C   UNL     1      -5.049  -4.079   8.270  1.00  0.00    -0.027 C 
ATOM     12  C   UNL     1      -4.449  -6.746   5.595  1.00  0.00     0.008 C 
ATOM     13  C   UNL     1      -6.806  -8.480   5.178  1.00  0.00     0.008 C 
ATOM     14  C   UNL     1      -2.039  -4.839   7.406  1.00  0.00     0.017 C 
ATOM     15  C   UNL     1      -2.622  -3.920   9.830  1.00  0.00    -0.020 C 
ATOM     16  C   UNL     1      -4.658  -2.726   8.823  1.00  0.00     0.032 C 
ATOM     17  C   UNL     1      -3.156  -2.585   9.180  1.00  0.00     0.006 C 
ATOM     18  C   UNL     1      -1.127  -3.761  10.252  1.00  0.00     0.008 C 
ATOM     19  C   UNL     1      -3.446  -4.268  11.122  1.00  0.00     0.012 C 
ATOM     20  C   UNL     1      -2.756  -1.184   9.834  1.00  0.00    -0.025 C 
ATOM     21  C   UNL     1      -0.828  -2.468  11.003  1.00  0.00     0.005 C 
ATOM     22  C   UNL     1      -1.232  -1.170  10.246  1.00  0.00     0.003 C 
ATOM     23  C   UNL     1      -3.045  -0.042   8.792  1.00  0.00     0.010 C 
ATOM     24  C   UNL     1      -3.598  -0.822  11.102  1.00  0.00     0.012 C 
ATOM     25  C   UNL     1      -0.231  -0.605   9.148  1.00  0.00    -0.006 C 
ATOM     26  C   UNL     1      -2.146   1.189   8.968  1.00  0.00     0.033 C 
ATOM     27  C   UNL     1      -0.630   0.893   8.836  1.00  0.00     0.120 C 
ATOM     28  C   UNL     1       1.226  -0.650   9.684  1.00  0.00     0.014 C 
ATOM     29  C   UNL     1      -0.193  -1.394   7.809  1.00  0.00     0.014 C 
ENDROOT
BRANCH   1  30
ATOM     30  C   UNL     1      -4.669  -8.013  10.217  1.00  0.00     0.048 C 
ATOM     31  O   UNL     1      -4.150  -8.957  10.874  1.00  0.00    -0.550 OA
ATOM     32  O   UNL     1      -5.581  -7.184  10.865  1.00  0.00    -0.550 OA
ENDBRANCH   1  30
BRANCH  27  33
ATOM     33  O   UNL     1       0.061   1.776   9.690  1.00  0.00    -0.393 OA
ATOM     34  H   UNL     1       0.817   1.268  10.087  1.00  0.00     0.210 HD
ENDBRANCH  27  33
TORSDOF 2
ENDMDL
MODEL 3
REMARK VINA RESULT:    -4.071      5.897     11.847
REMARK INTER + INTRA:          -4.645
REMARK INTER:                  -5.115
REMARK INTRA:                   0.470
REMARK UNBOUND:                -0.217
REMARK SMILES C[C@H]1[C@@H](C)CC[C@@]2(C(=O)[O-])CC[C@@]3(C)C(=CC[C@H]4[C@]5(C)CC[C@@H](O)C(C)(C)[C@@H]5CC[C@@]43C)[C@@H]12
REMARK SMILES IDX 7 1 6 2 11 3 33 4 5 5 12 6 15 7 2 8 3 9 13 10 16 11 1 12
REMARK SMILES IDX 4 13 14 14 31 15 17 16 18 17 30 18 32 19 19 20 29 21 28 22
REMARK SMILES IDX 21 23 20 24 25 25 22 26 23 27 26 28 27 29 8 30 9 31 10 32
REMARK SMILES IDX 24 33
REMARK H PARENT 24 34
REMARK Flexibility Score: inf
ROOT
ATOM      1  C   UNL     1       0.151  -0.526   9.742  1.00  0.00     0.017 C 
ATOM      2  C   UNL     1       1.408   0.393   9.638  1.00  0.00     0.014 C 
ATOM      3  C   UNL     1      -0.437  -0.688   8.322  1.00  0.00     0.014 C 
ATOM      4  C   UNL     1       0.525  -1.938  10.352  1.00  0.00     0.030 C 
ATOM      5  C   UNL     1       2.357   0.215  10.823  1.00  0.00     0.004 C 
ATOM      6  C   UNL     1      -1.683  -1.579   8.315  1.00  0.00     0.013 C 
ATOM      7  C   UNL     1      -0.440  -3.089   9.998  1.00  0.00    -0.063 C 
ATOM      8  C   UNL     1       2.041  -2.317  10.230  1.00  0.00    -0.003 C 
ATOM      9  C   UNL     1       2.932  -1.223  10.918  1.00  0.00    -0.011 C 
ATOM     10  C   UNL     1      -1.427  -3.040   8.807  1.00  0.00    -0.006 C 
ATOM     11  C   UNL     1      -0.428  -4.176  10.816  1.00  0.00    -0.027 C 
ATOM     12  C   UNL     1       2.475  -2.709   8.804  1.00  0.00     0.008 C 
ATOM     13  C   UNL     1       4.413  -1.263  10.503  1.00  0.00     0.008 C 
ATOM     14  C   UNL     1      -0.715  -3.792   7.630  1.00  0.00     0.017 C 
ATOM     15  C   UNL     1      -2.818  -3.732   9.253  1.00  0.00    -0.020 C 
ATOM     16  C   UNL     1      -1.520  -5.220  10.891  1.00  0.00     0.032 C 
ATOM     17  C   UNL     1      -2.502  -5.214   9.692  1.00  0.00     0.006 C 
ATOM     18  C   UNL     1      -3.858  -3.719   8.088  1.00  0.00     0.008 C 
ATOM     19  C   UNL     1      -3.436  -2.925  10.451  1.00  0.00     0.012 C 
ATOM     20  C   UNL     1      -3.699  -6.266   9.807  1.00  0.00    -0.025 C 
ATOM     21  C   UNL     1      -5.056  -4.634   8.316  1.00  0.00     0.005 C 
ATOM     22  C   UNL     1      -4.693  -6.122   8.589  1.00  0.00     0.003 C 
ATOM     23  C   UNL     1      -3.092  -7.717   9.840  1.00  0.00     0.010 C 
ATOM     24  C   UNL     1      -4.531  -6.126  11.124  1.00  0.00     0.012 C 
ATOM     25  C   UNL     1      -4.387  -7.057   7.341  1.00  0.00    -0.006 C 
ATOM     26  C   UNL     1      -4.039  -8.790   9.289  1.00  0.00     0.033 C 
ATOM     27  C   UNL     1      -4.468  -8.563   7.816  1.00  0.00     0.120 C 
ATOM     28  C   UNL     1      -5.437  -6.811   6.223  1.00  0.00     0.014 C 
ATOM     29  C   UNL     1      -3.009  -6.829   6.657  1.00  0.00     0.014 C 
ENDROOT
BRANCH   1  30
ATOM     30  C   UNL     1      -0.880   0.203  10.614  1.00  0.00     0.048 C 
ATOM     31  O   UNL     1      -1.865  -0.430  11.086  1.00  0.00    -0.550 OA
ATOM     32  O   UNL     1      -0.784   1.566  10.881  1.00  0.00    -0.550 OA
ENDBRANCH   1  30
BRANCH  27  33
ATOM     33  O   UNL     1      -5.778  -9.059   7.664  1.00  0.00    -0.393 OA
ATOM     34  H   UNL     1      -6.202  -8.545   6.926  1.00  0.00     0.210 HD
ENDBRANCH  27  33
TORSDOF 2
ENDMDL
MODEL 4
REMARK VINA RESULT:    -3.563      6.428     12.857
REMARK INTER + INTRA:          -4.092
REMARK INTER:                  -3.811
REMARK INTRA:                  -0.281
REMARK UNBOUND:                -0.217
REMARK SMILES C[C@H]1[C@@H](C)CC[C@@]2(C(=O)[O-])CC[C@@]3(C)C(=CC[C@H]4[C@]5(C)CC[C@@H](O)C(C)(C)[C@@H]5CC[C@@]43C)[C@@H]12
REMARK SMILES IDX 7 1 6 2 11 3 33 4 5 5 12 6 15 7 2 8 3 9 13 10 16 11 1 12
REMARK SMILES IDX 4 13 14 14 31 15 17 16 18 17 30 18 32 19 19 20 29 21 28 22
REMARK SMILES IDX 21 23 20 24 25 25 22 26 23 27 26 28 27 29 8 30 9 31 10 32
REMARK SMILES IDX 24 33
REMARK H PARENT 24 34
REMARK Flexibility Score: inf
ROOT
ATOM      1  C   UNL     1      -0.297  -2.045   9.624  1.00  0.00     0.017 C 
ATOM      2  C   UNL     1       0.470  -0.807  10.188  1.00  0.00     0.014 C 
ATOM      3  C   UNL     1      -0.437  -3.076  10.768  1.00  0.00     0.014 C 
ATOM      4  C   UNL     1      -1.721  -1.631   9.073  1.00  0.00     0.030 C 
ATOM      5  C   UNL     1       0.224   0.454   9.359  1.00  0.00     0.004 C 
ATOM      6  C   UNL     1      -1.180  -4.336  10.316  1.00  0.00     0.013 C 
ATOM      7  C   UNL     1      -2.767  -2.766   9.022  1.00  0.00    -0.063 C 
ATOM      8  C   UNL     1      -2.273  -0.281   9.648  1.00  0.00    -0.003 C 
ATOM      9  C   UNL     1      -1.266   0.886   9.357  1.00  0.00    -0.011 C 
ATOM     10  C   UNL     1      -2.644  -4.076   9.834  1.00  0.00    -0.006 C 
ATOM     11  C   UNL     1      -3.821  -2.593   8.180  1.00  0.00    -0.027 C 
ATOM     12  C   UNL     1      -2.758  -0.375  11.109  1.00  0.00     0.008 C 
ATOM     13  C   UNL     1      -1.487   2.141  10.220  1.00  0.00     0.008 C 
ATOM     14  C   UNL     1      -3.509  -3.863  11.125  1.00  0.00     0.017 C 
ATOM     15  C   UNL     1      -3.160  -5.307   8.922  1.00  0.00    -0.020 C 
ATOM     16  C   UNL     1      -4.732  -3.697   7.689  1.00  0.00     0.032 C 
ATOM     17  C   UNL     1      -4.653  -5.011   8.509  1.00  0.00     0.006 C 
ATOM     18  C   UNL     1      -3.066  -6.663   9.691  1.00  0.00     0.008 C 
ATOM     19  C   UNL     1      -2.249  -5.420   7.646  1.00  0.00     0.012 C 
ATOM     20  C   UNL     1      -5.558  -6.201   7.946  1.00  0.00    -0.025 C 
ATOM     21  C   UNL     1      -3.831  -7.804   9.031  1.00  0.00     0.005 C 
ATOM     22  C   UNL     1      -5.342  -7.518   8.789  1.00  0.00     0.003 C 
ATOM     23  C   UNL     1      -7.066  -5.759   8.012  1.00  0.00     0.010 C 
ATOM     24  C   UNL     1      -5.282  -6.541   6.445  1.00  0.00     0.012 C 
ATOM     25  C   UNL     1      -6.345  -7.727  10.004  1.00  0.00    -0.006 C 
ATOM     26  C   UNL     1      -8.042  -6.934   8.158  1.00  0.00     0.033 C 
ATOM     27  C   UNL     1      -7.815  -7.795   9.428  1.00  0.00     0.120 C 
ATOM     28  C   UNL     1      -6.018  -9.055  10.740  1.00  0.00     0.014 C 
ATOM     29  C   UNL     1      -6.297  -6.631  11.106  1.00  0.00     0.014 C 
ENDROOT
BRANCH   1  30
ATOM     30  C   UNL     1       0.572  -2.660   8.519  1.00  0.00     0.048 C 
ATOM     31  O   UNL     1       0.106  -2.796   7.355  1.00  0.00    -0.550 OA
ATOM     32  O   UNL     1       1.866  -3.111   8.768  1.00  0.00    -0.550 OA
ENDBRANCH   1  30
BRANCH  27  33
ATOM     33  O   UNL     1      -8.165  -9.125   9.119  1.00  0.00    -0.393 OA
ATOM     34  H   UNL     1      -7.582  -9.412   8.366  1.00  0.00     0.210 HD
ENDBRANCH  27  33
TORSDOF 2
ENDMDL
