MODEL 1
REMARK VINA RESULT:    -4.456      0.000      0.000
REMARK INTER + INTRA:         -11.045
REMARK INTER:                  -8.364
REMARK INTRA:                  -2.681
REMARK UNBOUND:                -2.681
REMARK SMILES CCCCCCCCC=CCCCCCCCC(=O)[O-]
REMARK SMILES IDX 10 1 9 2 11 3 12 4 13 5 14 6 15 7 16 8 17 9 18 10 19 11
REMARK SMILES IDX 20 12 8 13 7 14 6 15 5 16 4 17 3 18 2 19 1 20
REMARK H PARENT
REMARK Flexibility Score: inf
ROOT
ATOM      1  C   UNL     1      14.963  24.546  36.004  1.00  0.00    -0.031 C 
ATOM      2  C   UNL     1      14.860  23.466  36.792  1.00  0.00    -0.031 C 
ENDROOT
BRANCH   1   3
ATOM      3  C   UNL     1      15.355  25.891  36.555  1.00  0.00     0.027 C 
BRANCH   3   4
ATOM      4  C   UNL     1      16.769  26.311  36.125  1.00  0.00     0.004 C 
BRANCH   4   5
ATOM      5  C   UNL     1      17.118  25.812  34.715  1.00  0.00     0.000 C 
BRANCH   5   6
ATOM      6  C   UNL     1      18.638  25.764  34.510  1.00  0.00     0.000 C 
BRANCH   6   7
ATOM      7  C   UNL     1      19.181  24.329  34.435  1.00  0.00     0.000 C 
BRANCH   7   8
ATOM      8  C   UNL     1      18.062  23.273  34.412  1.00  0.00     0.006 C 
BRANCH   8   9
ATOM      9  C   UNL     1      18.143  22.319  35.612  1.00  0.00     0.053 C 
BRANCH   9  10
ATOM     10  C   UNL     1      19.040  22.854  36.685  1.00  0.00     0.041 C 
ATOM     11  O   UNL     1      18.594  23.666  37.538  1.00  0.00    -0.550 OA
ATOM     12  O   UNL     1      20.361  22.432  36.763  1.00  0.00    -0.550 OA
ENDBRANCH   9  10
ENDBRANCH   8   9
ENDBRANCH   7   8
ENDBRANCH   6   7
ENDBRANCH   5   6
ENDBRANCH   4   5
ENDBRANCH   3   4
ENDBRANCH   1   3
BRANCH   2  13
ATOM     13  C   UNL     1      14.467  22.122  36.241  1.00  0.00     0.027 C 
BRANCH  13  14
ATOM     14  C   UNL     1      14.152  22.167  34.735  1.00  0.00     0.004 C 
BRANCH  14  15
ATOM     15  C   UNL     1      12.707  21.775  34.376  1.00  0.00     0.000 C 
BRANCH  15  16
ATOM     16  C   UNL     1      11.865  21.414  35.613  1.00  0.00     0.000 C 
BRANCH  16  17
ATOM     17  C   UNL     1      10.778  22.459  35.923  1.00  0.00    -0.000 C 
BRANCH  17  18
ATOM     18  C   UNL     1      11.112  23.434  37.066  1.00  0.00    -0.000 C 
BRANCH  18  19
ATOM     19  C   UNL     1      11.326  24.875  36.582  1.00  0.00    -0.003 C 
ATOM     20  C   UNL     1      11.111  24.988  35.075  1.00  0.00     0.004 C 
ENDBRANCH  18  19
ENDBRANCH  17  18
ENDBRANCH  16  17
ENDBRANCH  15  16
ENDBRANCH  14  15
ENDBRANCH  13  14
ENDBRANCH   2  13
TORSDOF 15
ENDMDL
MODEL 2
REMARK VINA RESULT:    -4.447     11.190     13.524
REMARK INTER + INTRA:         -11.028
REMARK INTER:                  -8.527
REMARK INTRA:                  -2.501
REMARK UNBOUND:                -2.681
REMARK SMILES CCCCCCCCC=CCCCCCCCC(=O)[O-]
REMARK SMILES IDX 10 1 9 2 11 3 12 4 13 5 14 6 15 7 16 8 17 9 18 10 19 11
REMARK SMILES IDX 20 12 8 13 7 14 6 15 5 16 4 17 3 18 2 19 1 20
REMARK H PARENT
REMARK Flexibility Score: inf
ROOT
ATOM      1  C   UNL     1      17.245  11.495  31.798  1.00  0.00    -0.031 C 
ATOM      2  C   UNL     1      16.357  12.337  32.345  1.00  0.00    -0.031 C 
ENDROOT
BRANCH   1   3
ATOM      3  C   UNL     1      16.837  10.483  30.760  1.00  0.00     0.027 C 
BRANCH   3   4
ATOM      4  C   UNL     1      17.865  10.360  29.626  1.00  0.00     0.004 C 
BRANCH   4   5
ATOM      5  C   UNL     1      17.325  10.898  28.292  1.00  0.00     0.000 C 
BRANCH   5   6
ATOM      6  C   UNL     1      17.588  12.405  28.161  1.00  0.00     0.000 C 
BRANCH   6   7
ATOM      7  C   UNL     1      16.298  13.238  28.217  1.00  0.00     0.000 C 
BRANCH   7   8
ATOM      8  C   UNL     1      16.398  14.418  29.200  1.00  0.00     0.006 C 
BRANCH   8   9
ATOM      9  C   UNL     1      15.060  14.706  29.895  1.00  0.00     0.053 C 
BRANCH   9  10
ATOM     10  C   UNL     1      13.964  14.953  28.904  1.00  0.00     0.041 C 
ATOM     11  O   UNL     1      14.026  15.938  28.122  1.00  0.00    -0.550 OA
ATOM     12  O   UNL     1      12.888  14.077  28.823  1.00  0.00    -0.550 OA
ENDBRANCH   9  10
ENDBRANCH   8   9
ENDBRANCH   7   8
ENDBRANCH   6   7
ENDBRANCH   5   6
ENDBRANCH   4   5
ENDBRANCH   3   4
ENDBRANCH   1   3
BRANCH   2  13
ATOM     13  C   UNL     1      16.765  13.348  33.383  1.00  0.00     0.027 C 
BRANCH  13  14
ATOM     14  C   UNL     1      18.272  13.661  33.347  1.00  0.00     0.004 C 
BRANCH  14  15
ATOM     15  C   UNL     1      18.917  13.844  34.734  1.00  0.00     0.000 C 
BRANCH  15  16
ATOM     16  C   UNL     1      18.138  13.126  35.850  1.00  0.00     0.000 C 
BRANCH  16  17
ATOM     17  C   UNL     1      18.718  11.741  36.190  1.00  0.00    -0.000 C 
BRANCH  17  18
ATOM     18  C   UNL     1      18.144  10.571  35.372  1.00  0.00    -0.000 C 
BRANCH  18  19
ATOM     19  C   UNL     1      19.232   9.667  34.775  1.00  0.00    -0.003 C 
ATOM     20  C   UNL     1      20.168  10.458  33.864  1.00  0.00     0.004 C 
ENDBRANCH  18  19
ENDBRANCH  17  18
ENDBRANCH  16  17
ENDBRANCH  15  16
ENDBRANCH  14  15
ENDBRANCH  13  14
ENDBRANCH   2  13
TORSDOF 15
ENDMDL
MODEL 3
REMARK VINA RESULT:    -4.429     10.573     12.691
REMARK INTER + INTRA:         -10.994
REMARK INTER:                  -8.593
REMARK INTRA:                  -2.401
REMARK UNBOUND:                -2.681
REMARK SMILES CCCCCCCCC=CCCCCCCCC(=O)[O-]
REMARK SMILES IDX 10 1 9 2 11 3 12 4 13 5 14 6 15 7 16 8 17 9 18 10 19 11
REMARK SMILES IDX 20 12 8 13 7 14 6 15 5 16 4 17 3 18 2 19 1 20
REMARK H PARENT
REMARK Flexibility Score: inf
ROOT
ATOM      1  C   UNL     1      16.408  10.937  29.421  1.00  0.00    -0.031 C 
ATOM      2  C   UNL     1      15.099  11.094  29.667  1.00  0.00    -0.031 C 
ENDROOT
BRANCH   1   3
ATOM      3  C   UNL     1      17.318  10.247  30.403  1.00  0.00     0.027 C 
BRANCH   3   4
ATOM      4  C   UNL     1      17.973  11.230  31.385  1.00  0.00     0.004 C 
BRANCH   4   5
ATOM      5  C   UNL     1      18.286  12.583  30.729  1.00  0.00     0.000 C 
BRANCH   5   6
ATOM      6  C   UNL     1      17.526  13.720  31.426  1.00  0.00     0.000 C 
BRANCH   6   7
ATOM      7  C   UNL     1      16.741  13.241  32.657  1.00  0.00     0.000 C 
BRANCH   7   8
ATOM      8  C   UNL     1      17.186  13.942  33.952  1.00  0.00     0.006 C 
BRANCH   8   9
ATOM      9  C   UNL     1      18.683  13.746  34.231  1.00  0.00     0.053 C 
BRANCH   9  10
ATOM     10  C   UNL     1      18.937  13.396  35.664  1.00  0.00     0.041 C 
ATOM     11  O   UNL     1      19.698  14.112  36.367  1.00  0.00    -0.550 OA
ATOM     12  O   UNL     1      18.310  12.295  36.234  1.00  0.00    -0.550 OA
ENDBRANCH   9  10
ENDBRANCH   8   9
ENDBRANCH   7   8
ENDBRANCH   6   7
ENDBRANCH   5   6
ENDBRANCH   4   5
ENDBRANCH   3   4
ENDBRANCH   1   3
BRANCH   2  13
ATOM     13  C   UNL     1      14.190  11.784  28.686  1.00  0.00     0.027 C 
BRANCH  13  14
ATOM     14  C   UNL     1      13.326  12.875  29.343  1.00  0.00     0.004 C 
BRANCH  14  15
ATOM     15  C   UNL     1      13.567  14.294  28.794  1.00  0.00     0.000 C 
BRANCH  15  16
ATOM     16  C   UNL     1      14.775  14.987  29.448  1.00  0.00     0.000 C 
BRANCH  16  17
ATOM     17  C   UNL     1      15.924  15.248  28.457  1.00  0.00    -0.000 C 
BRANCH  17  18
ATOM     18  C   UNL     1      15.746  14.618  27.065  1.00  0.00    -0.000 C 
BRANCH  18  19
ATOM     19  C   UNL     1      16.732  13.472  26.795  1.00  0.00    -0.003 C 
ATOM     20  C   UNL     1      16.262  12.604  25.631  1.00  0.00     0.004 C 
ENDBRANCH  18  19
ENDBRANCH  17  18
ENDBRANCH  16  17
ENDBRANCH  15  16
ENDBRANCH  14  15
ENDBRANCH  13  14
ENDBRANCH   2  13
TORSDOF 15
ENDMDL
MODEL 4
REMARK VINA RESULT:    -4.426      3.085      6.492
REMARK INTER + INTRA:         -10.989
REMARK INTER:                  -8.338
REMARK INTRA:                  -2.651
REMARK UNBOUND:                -2.681
REMARK SMILES CCCCCCCCC=CCCCCCCCC(=O)[O-]
REMARK SMILES IDX 10 1 9 2 11 3 12 4 13 5 14 6 15 7 16 8 17 9 18 10 19 11
REMARK SMILES IDX 20 12 8 13 7 14 6 15 5 16 4 17 3 18 2 19 1 20
REMARK H PARENT
REMARK Flexibility Score: inf
ROOT
ATOM      1  C   UNL     1      17.890  25.227  37.571  1.00  0.00    -0.031 C 
ATOM      2  C   UNL     1      18.032  23.893  37.569  1.00  0.00    -0.031 C 
ENDROOT
BRANCH   1   3
ATOM      3  C   UNL     1      16.564  25.879  37.283  1.00  0.00     0.027 C 
BRANCH   3   4
ATOM      4  C   UNL     1      15.561  24.910  36.639  1.00  0.00     0.004 C 
BRANCH   4   5
ATOM      5  C   UNL     1      15.552  25.018  35.107  1.00  0.00     0.000 C 
BRANCH   5   6
ATOM      6  C   UNL     1      15.665  23.632  34.458  1.00  0.00     0.000 C 
BRANCH   6   7
ATOM      7  C   UNL     1      15.448  22.488  35.462  1.00  0.00     0.000 C 
BRANCH   7   8
ATOM      8  C   UNL     1      14.199  21.649  35.142  1.00  0.00     0.006 C 
BRANCH   8   9
ATOM      9  C   UNL     1      12.955  22.160  35.881  1.00  0.00     0.053 C 
BRANCH   9  10
ATOM     10  C   UNL     1      11.727  22.065  35.028  1.00  0.00     0.041 C 
ATOM     11  O   UNL     1      11.755  22.449  33.830  1.00  0.00    -0.550 OA
ATOM     12  O   UNL     1      10.559  21.521  35.549  1.00  0.00    -0.550 OA
ENDBRANCH   9  10
ENDBRANCH   8   9
ENDBRANCH   7   8
ENDBRANCH   6   7
ENDBRANCH   5   6
ENDBRANCH   4   5
ENDBRANCH   3   4
ENDBRANCH   1   3
BRANCH   2  13
ATOM     13  C   UNL     1      19.358  23.241  37.856  1.00  0.00     0.027 C 
BRANCH  13  14
ATOM     14  C   UNL     1      20.018  22.658  36.594  1.00  0.00     0.004 C 
BRANCH  14  15
ATOM     15  C   UNL     1      19.031  22.298  35.469  1.00  0.00     0.000 C 
BRANCH  15  16
ATOM     16  C   UNL     1      19.290  23.090  34.175  1.00  0.00     0.000 C 
BRANCH  16  17
ATOM     17  C   UNL     1      20.029  24.417  34.423  1.00  0.00    -0.000 C 
BRANCH  17  18
ATOM     18  C   UNL     1      19.186  25.687  34.210  1.00  0.00    -0.000 C 
BRANCH  18  19
ATOM     19  C   UNL     1      19.788  26.927  34.886  1.00  0.00    -0.003 C 
ATOM     20  C   UNL     1      20.768  27.639  33.957  1.00  0.00     0.004 C 
ENDBRANCH  18  19
ENDBRANCH  17  18
ENDBRANCH  16  17
ENDBRANCH  15  16
ENDBRANCH  14  15
ENDBRANCH  13  14
ENDBRANCH   2  13
TORSDOF 15
ENDMDL
MODEL 5
REMARK VINA RESULT:    -4.407     10.898     13.050
REMARK INTER + INTRA:         -10.952
REMARK INTER:                  -8.509
REMARK INTRA:                  -2.443
REMARK UNBOUND:                -2.681
REMARK SMILES CCCCCCCCC=CCCCCCCCC(=O)[O-]
REMARK SMILES IDX 10 1 9 2 11 3 12 4 13 5 14 6 15 7 16 8 17 9 18 10 19 11
REMARK SMILES IDX 20 12 8 13 7 14 6 15 5 16 4 17 3 18 2 19 1 20
REMARK H PARENT
REMARK Flexibility Score: inf
ROOT
ATOM      1  C   UNL     1      16.805  11.847  30.790  1.00  0.00    -0.031 C 
ATOM      2  C   UNL     1      17.726  12.821  30.793  1.00  0.00    -0.031 C 
ENDROOT
BRANCH   1   3
ATOM      3  C   UNL     1      17.179  10.406  31.020  1.00  0.00     0.027 C 
BRANCH   3   4
ATOM      4  C   UNL     1      18.644  10.244  31.455  1.00  0.00     0.004 C 
BRANCH   4   5
ATOM      5  C   UNL     1      18.769   9.602  32.844  1.00  0.00     0.000 C 
BRANCH   5   6
ATOM      6  C   UNL     1      17.720  10.171  33.809  1.00  0.00     0.000 C 
BRANCH   6   7
ATOM      7  C   UNL     1      18.310  11.201  34.786  1.00  0.00     0.000 C 
BRANCH   7   8
ATOM      8  C   UNL     1      17.802  12.628  34.519  1.00  0.00     0.006 C 
BRANCH   8   9
ATOM      9  C   UNL     1      18.952  13.616  34.279  1.00  0.00     0.053 C 
BRANCH   9  10
ATOM     10  C   UNL     1      19.821  13.758  35.490  1.00  0.00     0.041 C 
ATOM     11  O   UNL     1      19.306  13.940  36.624  1.00  0.00    -0.550 OA
ATOM     12  O   UNL     1      21.202  13.656  35.371  1.00  0.00    -0.550 OA
ENDBRANCH   9  10
ENDBRANCH   8   9
ENDBRANCH   7   8
ENDBRANCH   6   7
ENDBRANCH   5   6
ENDBRANCH   4   5
ENDBRANCH   3   4
ENDBRANCH   1   3
BRANCH   2  13
ATOM     13  C   UNL     1      17.350  14.261  30.562  1.00  0.00     0.027 C 
BRANCH  13  14
ATOM     14  C   UNL     1      15.833  14.501  30.656  1.00  0.00     0.004 C 
BRANCH  14  15
ATOM     15  C   UNL     1      15.191  15.024  29.357  1.00  0.00     0.000 C 
BRANCH  15  16
ATOM     16  C   UNL     1      16.167  15.015  28.167  1.00  0.00     0.000 C 
BRANCH  16  17
ATOM     17  C   UNL     1      15.702  14.102  27.017  1.00  0.00    -0.000 C 
BRANCH  17  18
ATOM     18  C   UNL     1      16.006  12.605  27.204  1.00  0.00    -0.000 C 
BRANCH  18  19
ATOM     19  C   UNL     1      17.507  12.287  27.147  1.00  0.00    -0.003 C 
ATOM     20  C   UNL     1      18.068  12.522  25.747  1.00  0.00     0.004 C 
ENDBRANCH  18  19
ENDBRANCH  17  18
ENDBRANCH  16  17
ENDBRANCH  15  16
ENDBRANCH  14  15
ENDBRANCH  13  14
ENDBRANCH   2  13
TORSDOF 15
ENDMDL
MODEL 6
REMARK VINA RESULT:    -4.399     11.009     13.445
REMARK INTER + INTRA:         -10.937
REMARK INTER:                  -8.338
REMARK INTRA:                  -2.599
REMARK UNBOUND:                -2.681
REMARK SMILES CCCCCCCCC=CCCCCCCCC(=O)[O-]
REMARK SMILES IDX 10 1 9 2 11 3 12 4 13 5 14 6 15 7 16 8 17 9 18 10 19 11
REMARK SMILES IDX 20 12 8 13 7 14 6 15 5 16 4 17 3 18 2 19 1 20
REMARK H PARENT
REMARK Flexibility Score: inf
ROOT
ATOM      1  C   UNL     1      20.375  11.076  33.141  1.00  0.00    -0.031 C 
ATOM      2  C   UNL     1      20.428  12.402  33.330  1.00  0.00    -0.031 C 
ENDROOT
BRANCH   1   3
ATOM      3  C   UNL     1      19.496  10.464  32.082  1.00  0.00     0.027 C 
BRANCH   3   4
ATOM      4  C   UNL     1      18.433  11.445  31.564  1.00  0.00     0.004 C 
BRANCH   4   5
ATOM      5  C   UNL     1      17.155  11.417  32.416  1.00  0.00     0.000 C 
BRANCH   5   6
ATOM      6  C   UNL     1      16.574  12.828  32.580  1.00  0.00     0.000 C 
BRANCH   6   7
ATOM      7  C   UNL     1      17.478  13.915  31.977  1.00  0.00     0.000 C 
BRANCH   7   8
ATOM      8  C   UNL     1      16.751  14.773  30.926  1.00  0.00     0.006 C 
BRANCH   8   9
ATOM      9  C   UNL     1      16.773  14.124  29.536  1.00  0.00     0.053 C 
BRANCH   9  10
ATOM     10  C   UNL     1      15.393  13.783  29.063  1.00  0.00     0.041 C 
ATOM     11  O   UNL     1      15.232  13.100  28.017  1.00  0.00    -0.550 OA
ATOM     12  O   UNL     1      14.286  14.194  29.794  1.00  0.00    -0.550 OA
ENDBRANCH   9  10
ENDBRANCH   8   9
ENDBRANCH   7   8
ENDBRANCH   6   7
ENDBRANCH   5   6
ENDBRANCH   4   5
ENDBRANCH   3   4
ENDBRANCH   1   3
BRANCH   2  13
ATOM     13  C   UNL     1      21.306  13.013  34.389  1.00  0.00     0.027 C 
BRANCH  13  14
ATOM     14  C   UNL     1      20.499  13.650  35.535  1.00  0.00     0.004 C 
BRANCH  14  15
ATOM     15  C   UNL     1      19.019  13.914  35.199  1.00  0.00     0.000 C 
BRANCH  15  16
ATOM     16  C   UNL     1      18.057  13.072  36.055  1.00  0.00     0.000 C 
BRANCH  16  17
ATOM     17  C   UNL     1      18.698  11.772  36.573  1.00  0.00    -0.000 C 
BRANCH  17  18
ATOM     18  C   UNL     1      18.167  10.478  35.932  1.00  0.00    -0.000 C 
BRANCH  18  19
ATOM     19  C   UNL     1      19.067   9.263  36.198  1.00  0.00    -0.003 C 
ATOM     20  C   UNL     1      18.436   8.323  37.222  1.00  0.00     0.004 C 
ENDBRANCH  18  19
ENDBRANCH  17  18
ENDBRANCH  16  17
ENDBRANCH  15  16
ENDBRANCH  14  15
ENDBRANCH  13  14
ENDBRANCH   2  13
TORSDOF 15
ENDMDL
MODEL 7
REMARK VINA RESULT:    -4.363      1.175      3.131
REMARK INTER + INTRA:         -10.871
REMARK INTER:                  -8.244
REMARK INTRA:                  -2.627
REMARK UNBOUND:                -2.681
REMARK SMILES CCCCCCCCC=CCCCCCCCC(=O)[O-]
REMARK SMILES IDX 10 1 9 2 11 3 12 4 13 5 14 6 15 7 16 8 17 9 18 10 19 11
REMARK SMILES IDX 20 12 8 13 7 14 6 15 5 16 4 17 3 18 2 19 1 20
REMARK H PARENT
REMARK Flexibility Score: inf
ROOT
ATOM      1  C   UNL     1      13.147  21.599  35.398  1.00  0.00    -0.031 C 
ATOM      2  C   UNL     1      12.116  21.533  34.543  1.00  0.00    -0.031 C 
ENDROOT
BRANCH   1   3
ATOM      3  C   UNL     1      14.572  21.486  34.925  1.00  0.00     0.027 C 
BRANCH   3   4
ATOM      4  C   UNL     1      15.284  22.847  34.877  1.00  0.00     0.004 C 
BRANCH   4   5
ATOM      5  C   UNL     1      15.318  23.532  36.251  1.00  0.00     0.000 C 
BRANCH   5   6
ATOM      6  C   UNL     1      16.247  24.754  36.233  1.00  0.00     0.000 C 
BRANCH   6   7
ATOM      7  C   UNL     1      16.849  25.020  34.844  1.00  0.00     0.000 C 
BRANCH   7   8
ATOM      8  C   UNL     1      18.384  24.913  34.834  1.00  0.00     0.006 C 
BRANCH   8   9
ATOM      9  C   UNL     1      18.866  23.542  34.341  1.00  0.00     0.053 C 
BRANCH   9  10
ATOM     10  C   UNL     1      19.587  22.789  35.416  1.00  0.00     0.041 C 
ATOM     11  O   UNL     1      20.614  22.115  35.140  1.00  0.00    -0.550 OA
ATOM     12  O   UNL     1      19.143  22.857  36.731  1.00  0.00    -0.550 OA
ENDBRANCH   9  10
ENDBRANCH   8   9
ENDBRANCH   7   8
ENDBRANCH   6   7
ENDBRANCH   5   6
ENDBRANCH   4   5
ENDBRANCH   3   4
ENDBRANCH   1   3
BRANCH   2  13
ATOM     13  C   UNL     1      10.691  21.646  35.016  1.00  0.00     0.027 C 
BRANCH  13  14
ATOM     14  C   UNL     1      10.586  21.854  36.538  1.00  0.00     0.004 C 
BRANCH  14  15
ATOM     15  C   UNL     1       9.492  22.849  36.968  1.00  0.00     0.000 C 
BRANCH  15  16
ATOM     16  C   UNL     1      10.065  24.101  37.657  1.00  0.00     0.000 C 
BRANCH  16  17
ATOM     17  C   UNL     1      11.603  24.100  37.716  1.00  0.00    -0.000 C 
BRANCH  17  18
ATOM     18  C   UNL     1      12.290  25.233  36.933  1.00  0.00    -0.000 C 
BRANCH  18  19
ATOM     19  C   UNL     1      11.587  25.557  35.607  1.00  0.00    -0.003 C 
ATOM     20  C   UNL     1      12.482  25.230  34.414  1.00  0.00     0.004 C 
ENDBRANCH  18  19
ENDBRANCH  17  18
ENDBRANCH  16  17
ENDBRANCH  15  16
ENDBRANCH  14  15
ENDBRANCH  13  14
ENDBRANCH   2  13
TORSDOF 15
ENDMDL
MODEL 8
REMARK VINA RESULT:    -4.320      1.361      2.052
REMARK INTER + INTRA:         -10.790
REMARK INTER:                  -7.883
REMARK INTRA:                  -2.907
REMARK UNBOUND:                -2.681
REMARK SMILES CCCCCCCCC=CCCCCCCCC(=O)[O-]
REMARK SMILES IDX 10 1 9 2 11 3 12 4 13 5 14 6 15 7 16 8 17 9 18 10 19 11
REMARK SMILES IDX 20 12 8 13 7 14 6 15 5 16 4 17 3 18 2 19 1 20
REMARK H PARENT
REMARK Flexibility Score: inf
ROOT
ATOM      1  C   UNL     1      14.797  24.396  35.364  1.00  0.00    -0.031 C 
ATOM      2  C   UNL     1      14.650  23.573  36.412  1.00  0.00    -0.031 C 
ENDROOT
BRANCH   1   3
ATOM      3  C   UNL     1      15.008  25.876  35.547  1.00  0.00     0.027 C 
BRANCH   3   4
ATOM      4  C   UNL     1      15.024  26.287  37.027  1.00  0.00     0.004 C 
BRANCH   4   5
ATOM      5  C   UNL     1      16.401  26.805  37.470  1.00  0.00     0.000 C 
BRANCH   5   6
ATOM      6  C   UNL     1      17.234  25.681  38.101  1.00  0.00     0.000 C 
BRANCH   6   7
ATOM      7  C   UNL     1      18.325  25.151  37.157  1.00  0.00     0.000 C 
BRANCH   7   8
ATOM      8  C   UNL     1      18.315  23.616  37.045  1.00  0.00     0.006 C 
BRANCH   8   9
ATOM      9  C   UNL     1      18.270  23.143  35.586  1.00  0.00     0.053 C 
BRANCH   9  10
ATOM     10  C   UNL     1      19.584  23.347  34.897  1.00  0.00     0.041 C 
ATOM     11  O   UNL     1      20.545  22.565  35.121  1.00  0.00    -0.550 OA
ATOM     12  O   UNL     1      19.738  24.382  33.984  1.00  0.00    -0.550 OA
ENDBRANCH   9  10
ENDBRANCH   8   9
ENDBRANCH   7   8
ENDBRANCH   6   7
ENDBRANCH   5   6
ENDBRANCH   4   5
ENDBRANCH   3   4
ENDBRANCH   1   3
BRANCH   2  13
ATOM     13  C   UNL     1      14.438  22.094  36.229  1.00  0.00     0.027 C 
BRANCH  13  14
ATOM     14  C   UNL     1      14.133  21.714  34.769  1.00  0.00     0.004 C 
BRANCH  14  15
ATOM     15  C   UNL     1      12.632  21.655  34.428  1.00  0.00     0.000 C 
BRANCH  15  16
ATOM     16  C   UNL     1      11.763  21.270  35.639  1.00  0.00     0.000 C 
BRANCH  16  17
ATOM     17  C   UNL     1      10.742  22.359  36.014  1.00  0.00    -0.000 C 
BRANCH  17  18
ATOM     18  C   UNL     1      10.998  23.742  35.389  1.00  0.00    -0.000 C 
BRANCH  18  19
ATOM     19  C   UNL     1      11.153  24.854  36.437  1.00  0.00    -0.003 C 
ATOM     20  C   UNL     1      11.410  24.273  37.824  1.00  0.00     0.004 C 
ENDBRANCH  18  19
ENDBRANCH  17  18
ENDBRANCH  16  17
ENDBRANCH  15  16
ENDBRANCH  14  15
ENDBRANCH  13  14
ENDBRANCH   2  13
TORSDOF 15
ENDMDL
MODEL 9
REMARK VINA RESULT:    -4.306      3.066      6.477
REMARK INTER + INTRA:         -10.763
REMARK INTER:                  -8.173
REMARK INTRA:                  -2.590
REMARK UNBOUND:                -2.681
REMARK SMILES CCCCCCCCC=CCCCCCCCC(=O)[O-]
REMARK SMILES IDX 10 1 9 2 11 3 12 4 13 5 14 6 15 7 16 8 17 9 18 10 19 11
REMARK SMILES IDX 20 12 8 13 7 14 6 15 5 16 4 17 3 18 2 19 1 20
REMARK H PARENT
REMARK Flexibility Score: inf
ROOT
ATOM      1  C   UNL     1      16.537  23.687  34.333  1.00  0.00    -0.031 C 
ATOM      2  C   UNL     1      17.539  22.796  34.351  1.00  0.00    -0.031 C 
ENDROOT
BRANCH   1   3
ATOM      3  C   UNL     1      15.108  23.273  34.570  1.00  0.00     0.027 C 
BRANCH   3   4
ATOM      4  C   UNL     1      14.950  22.407  35.828  1.00  0.00     0.004 C 
BRANCH   4   5
ATOM      5  C   UNL     1      14.254  23.163  36.969  1.00  0.00     0.000 C 
BRANCH   5   6
ATOM      6  C   UNL     1      13.072  23.988  36.440  1.00  0.00     0.000 C 
BRANCH   6   7
ATOM      7  C   UNL     1      11.757  23.675  37.172  1.00  0.00     0.000 C 
BRANCH   7   8
ATOM      8  C   UNL     1      10.729  22.972  36.269  1.00  0.00     0.006 C 
BRANCH   8   9
ATOM      9  C   UNL     1      11.264  21.648  35.707  1.00  0.00     0.053 C 
BRANCH   9  10
ATOM     10  C   UNL     1      11.212  21.621  34.210  1.00  0.00     0.041 C 
ATOM     11  O   UNL     1      10.814  20.589  33.607  1.00  0.00    -0.550 OA
ATOM     12  O   UNL     1      11.573  22.747  33.481  1.00  0.00    -0.550 OA
ENDBRANCH   9  10
ENDBRANCH   8   9
ENDBRANCH   7   8
ENDBRANCH   6   7
ENDBRANCH   5   6
ENDBRANCH   4   5
ENDBRANCH   3   4
ENDBRANCH   1   3
BRANCH   2  13
ATOM     13  C   UNL     1      18.966  23.210  34.114  1.00  0.00     0.027 C 
BRANCH  13  14
ATOM     14  C   UNL     1      19.662  23.704  35.395  1.00  0.00     0.004 C 
BRANCH  14  15
ATOM     15  C   UNL     1      19.370  22.854  36.645  1.00  0.00     0.000 C 
BRANCH  15  16
ATOM     16  C   UNL     1      18.569  23.621  37.712  1.00  0.00     0.000 C 
BRANCH  16  17
ATOM     17  C   UNL     1      18.358  25.103  37.351  1.00  0.00    -0.000 C 
BRANCH  17  18
ATOM     18  C   UNL     1      16.920  25.622  37.525  1.00  0.00    -0.000 C 
BRANCH  18  19
ATOM     19  C   UNL     1      16.490  26.581  36.406  1.00  0.00    -0.003 C 
ATOM     20  C   UNL     1      15.063  27.077  36.624  1.00  0.00     0.004 C 
ENDBRANCH  18  19
ENDBRANCH  17  18
ENDBRANCH  16  17
ENDBRANCH  15  16
ENDBRANCH  14  15
ENDBRANCH  13  14
ENDBRANCH   2  13
TORSDOF 15
ENDMDL
