MODEL 1
REMARK VINA RESULT:    -5.624      0.000      0.000
REMARK INTER + INTRA:         -11.660
REMARK INTER:                 -10.885
REMARK INTRA:                  -0.774
REMARK UNBOUND:                -0.774
REMARK SMILES CCCCCCCCCCCCCCCCCC(=O)[O-]
REMARK SMILES IDX 10 1 11 2 12 3 13 4 14 5 15 6 16 7 17 8 18 9 19 10 20 11
REMARK SMILES IDX 9 12 8 13 7 14 6 15 5 16 4 17 3 18 2 19 1 20
REMARK H PARENT
REMARK Flexibility Score: inf
ROOT
ATOM      1  C   UNL     1      27.508  41.701  34.074  1.00  0.00     0.000 C 
ENDROOT
BRANCH   1   2
ATOM      2  C   UNL     1      27.878  43.160  34.401  1.00  0.00     0.000 C 
BRANCH   2   3
ATOM      3  C   UNL     1      26.923  43.809  35.413  1.00  0.00     0.000 C 
BRANCH   3   4
ATOM      4  C   UNL     1      25.614  43.018  35.519  1.00  0.00     0.000 C 
BRANCH   4   5
ATOM      5  C   UNL     1      24.519  43.852  36.200  1.00  0.00     0.000 C 
BRANCH   5   6
ATOM      6  C   UNL     1      23.186  43.814  35.421  1.00  0.00     0.000 C 
BRANCH   6   7
ATOM      7  C   UNL     1      22.206  44.931  35.829  1.00  0.00     0.006 C 
BRANCH   7   8
ATOM      8  C   UNL     1      21.195  45.304  34.735  1.00  0.00     0.053 C 
BRANCH   8   9
ATOM      9  C   UNL     1      21.250  46.763  34.399  1.00  0.00     0.041 C 
ATOM     10  O   UNL     1      21.951  47.549  35.089  1.00  0.00    -0.550 OA
ATOM     11  O   UNL     1      20.535  47.254  33.314  1.00  0.00    -0.550 OA
ENDBRANCH   8   9
ENDBRANCH   7   8
ENDBRANCH   6   7
ENDBRANCH   5   6
ENDBRANCH   4   5
ENDBRANCH   3   4
ENDBRANCH   2   3
ENDBRANCH   1   2
BRANCH   1  12
ATOM     12  C   UNL     1      27.686  41.295  32.600  1.00  0.00     0.000 C 
BRANCH  12  13
ATOM     13  C   UNL     1      27.999  39.798  32.424  1.00  0.00    -0.000 C 
BRANCH  13  14
ATOM     14  C   UNL     1      28.078  39.055  33.767  1.00  0.00    -0.000 C 
BRANCH  14  15
ATOM     15  C   UNL     1      27.513  37.626  33.687  1.00  0.00    -0.000 C 
BRANCH  15  16
ATOM     16  C   UNL     1      27.361  37.128  32.240  1.00  0.00    -0.000 C 
BRANCH  16  17
ATOM     17  C   UNL     1      27.799  35.668  32.010  1.00  0.00    -0.000 C 
BRANCH  17  18
ATOM     18  C   UNL     1      27.996  35.303  30.524  1.00  0.00    -0.000 C 
BRANCH  18  19
ATOM     19  C   UNL     1      27.660  33.832  30.234  1.00  0.00    -0.003 C 
ATOM     20  C   UNL     1      26.160  33.640  30.039  1.00  0.00     0.004 C 
ENDBRANCH  18  19
ENDBRANCH  17  18
ENDBRANCH  16  17
ENDBRANCH  15  16
ENDBRANCH  14  15
ENDBRANCH  13  14
ENDBRANCH  12  13
ENDBRANCH   1  12
TORSDOF 16
ENDMDL
MODEL 2
REMARK VINA RESULT:    -5.615      5.132     10.201
REMARK INTER + INTRA:         -11.641
REMARK INTER:                 -10.358
REMARK INTRA:                  -1.283
REMARK UNBOUND:                -0.774
REMARK SMILES CCCCCCCCCCCCCCCCCC(=O)[O-]
REMARK SMILES IDX 10 1 11 2 12 3 13 4 14 5 15 6 16 7 17 8 18 9 19 10 20 11
REMARK SMILES IDX 9 12 8 13 7 14 6 15 5 16 4 17 3 18 2 19 1 20
REMARK H PARENT
REMARK Flexibility Score: inf
ROOT
ATOM      1  C   UNL     1      27.896  39.187  34.140  1.00  0.00     0.000 C 
ENDROOT
BRANCH   1   2
ATOM      2  C   UNL     1      27.149  37.903  34.546  1.00  0.00     0.000 C 
BRANCH   2   3
ATOM      3  C   UNL     1      27.495  36.700  33.656  1.00  0.00     0.000 C 
BRANCH   3   4
ATOM      4  C   UNL     1      27.576  37.113  32.182  1.00  0.00     0.000 C 
BRANCH   4   5
ATOM      5  C   UNL     1      26.265  36.795  31.447  1.00  0.00     0.000 C 
BRANCH   5   6
ATOM      6  C   UNL     1      26.236  35.352  30.900  1.00  0.00     0.000 C 
BRANCH   6   7
ATOM      7  C   UNL     1      27.577  34.901  30.288  1.00  0.00     0.006 C 
BRANCH   7   8
ATOM      8  C   UNL     1      27.990  33.474  30.674  1.00  0.00     0.053 C 
BRANCH   8   9
ATOM      9  C   UNL     1      28.462  33.395  32.094  1.00  0.00     0.041 C 
ATOM     10  O   UNL     1      29.472  34.049  32.466  1.00  0.00    -0.550 OA
ATOM     11  O   UNL     1      27.778  32.607  33.010  1.00  0.00    -0.550 OA
ENDBRANCH   8   9
ENDBRANCH   7   8
ENDBRANCH   6   7
ENDBRANCH   5   6
ENDBRANCH   4   5
ENDBRANCH   3   4
ENDBRANCH   2   3
ENDBRANCH   1   2
BRANCH   1  12
ATOM     12  C   UNL     1      27.004  40.423  33.923  1.00  0.00     0.000 C 
BRANCH  12  13
ATOM     13  C   UNL     1      27.812  41.715  33.706  1.00  0.00    -0.000 C 
BRANCH  13  14
ATOM     14  C   UNL     1      27.943  42.546  34.992  1.00  0.00    -0.000 C 
BRANCH  14  15
ATOM     15  C   UNL     1      26.976  43.742  35.027  1.00  0.00    -0.000 C 
BRANCH  15  16
ATOM     16  C   UNL     1      25.853  43.566  36.062  1.00  0.00    -0.000 C 
BRANCH  16  17
ATOM     17  C   UNL     1      24.701  42.645  35.614  1.00  0.00    -0.000 C 
BRANCH  17  18
ATOM     18  C   UNL     1      23.436  43.404  35.160  1.00  0.00    -0.000 C 
BRANCH  18  19
ATOM     19  C   UNL     1      23.172  44.660  36.005  1.00  0.00    -0.003 C 
ATOM     20  C   UNL     1      21.677  44.895  36.187  1.00  0.00     0.004 C 
ENDBRANCH  18  19
ENDBRANCH  17  18
ENDBRANCH  16  17
ENDBRANCH  15  16
ENDBRANCH  14  15
ENDBRANCH  13  14
ENDBRANCH  12  13
ENDBRANCH   1  12
TORSDOF 16
ENDMDL
MODEL 3
REMARK VINA RESULT:    -5.578      1.777      3.572
REMARK INTER + INTRA:         -11.571
REMARK INTER:                 -10.829
REMARK INTRA:                  -0.741
REMARK UNBOUND:                -0.774
REMARK SMILES CCCCCCCCCCCCCCCCCC(=O)[O-]
REMARK SMILES IDX 10 1 11 2 12 3 13 4 14 5 15 6 16 7 17 8 18 9 19 10 20 11
REMARK SMILES IDX 9 12 8 13 7 14 6 15 5 16 4 17 3 18 2 19 1 20
REMARK H PARENT
REMARK Flexibility Score: inf
ROOT
ATOM      1  C   UNL     1      28.057  38.978  32.173  1.00  0.00     0.000 C 
ENDROOT
BRANCH   1   2
ATOM      2  C   UNL     1      27.880  40.506  32.229  1.00  0.00     0.000 C 
BRANCH   2   3
ATOM      3  C   UNL     1      27.425  41.008  33.607  1.00  0.00     0.000 C 
BRANCH   3   4
ATOM      4  C   UNL     1      27.676  42.513  33.754  1.00  0.00     0.000 C 
BRANCH   4   5
ATOM      5  C   UNL     1      27.998  42.880  35.211  1.00  0.00     0.000 C 
BRANCH   5   6
ATOM      6  C   UNL     1      26.980  43.880  35.800  1.00  0.00     0.000 C 
BRANCH   6   7
ATOM      7  C   UNL     1      25.641  43.229  36.197  1.00  0.00     0.006 C 
BRANCH   7   8
ATOM      8  C   UNL     1      24.438  44.180  36.118  1.00  0.00     0.053 C 
BRANCH   8   9
ATOM      9  C   UNL     1      23.318  43.596  35.311  1.00  0.00     0.041 C 
ATOM     10  O   UNL     1      22.229  44.215  35.192  1.00  0.00    -0.550 OA
ATOM     11  O   UNL     1      23.484  42.370  34.679  1.00  0.00    -0.550 OA
ENDBRANCH   8   9
ENDBRANCH   7   8
ENDBRANCH   6   7
ENDBRANCH   5   6
ENDBRANCH   4   5
ENDBRANCH   3   4
ENDBRANCH   2   3
ENDBRANCH   1   2
BRANCH   1  12
ATOM     12  C   UNL     1      27.512  38.210  33.391  1.00  0.00     0.000 C 
BRANCH  12  13
ATOM     13  C   UNL     1      27.489  36.686  33.178  1.00  0.00    -0.000 C 
BRANCH  13  14
ATOM     14  C   UNL     1      27.073  36.300  31.750  1.00  0.00    -0.000 C 
BRANCH  14  15
ATOM     15  C   UNL     1      28.255  35.792  30.906  1.00  0.00    -0.000 C 
BRANCH  15  16
ATOM     16  C   UNL     1      27.878  34.594  30.019  1.00  0.00    -0.000 C 
BRANCH  16  17
ATOM     17  C   UNL     1      26.773  33.686  30.596  1.00  0.00    -0.000 C 
BRANCH  17  18
ATOM     18  C   UNL     1      25.937  32.960  29.520  1.00  0.00    -0.000 C 
BRANCH  18  19
ATOM     19  C   UNL     1      24.436  33.260  29.646  1.00  0.00    -0.003 C 
ATOM     20  C   UNL     1      23.599  32.154  29.012  1.00  0.00     0.004 C 
ENDBRANCH  18  19
ENDBRANCH  17  18
ENDBRANCH  16  17
ENDBRANCH  15  16
ENDBRANCH  14  15
ENDBRANCH  13  14
ENDBRANCH  12  13
ENDBRANCH   1  12
TORSDOF 16
ENDMDL
MODEL 4
REMARK VINA RESULT:    -5.570      5.229     10.538
REMARK INTER + INTRA:         -11.554
REMARK INTER:                 -10.718
REMARK INTRA:                  -0.836
REMARK UNBOUND:                -0.774
REMARK SMILES CCCCCCCCCCCCCCCCCC(=O)[O-]
REMARK SMILES IDX 10 1 11 2 12 3 13 4 14 5 15 6 16 7 17 8 18 9 19 10 20 11
REMARK SMILES IDX 9 12 8 13 7 14 6 15 5 16 4 17 3 18 2 19 1 20
REMARK H PARENT
REMARK Flexibility Score: inf
ROOT
ATOM      1  C   UNL     1      27.461  38.216  33.471  1.00  0.00     0.000 C 
ENDROOT
BRANCH   1   2
ATOM      2  C   UNL     1      27.686  37.908  31.980  1.00  0.00     0.000 C 
BRANCH   2   3
ATOM      3  C   UNL     1      27.391  36.445  31.618  1.00  0.00     0.000 C 
BRANCH   3   4
ATOM      4  C   UNL     1      28.147  36.029  30.350  1.00  0.00     0.000 C 
BRANCH   4   5
ATOM      5  C   UNL     1      28.489  34.532  30.377  1.00  0.00     0.000 C 
BRANCH   5   6
ATOM      6  C   UNL     1      27.480  33.687  29.571  1.00  0.00     0.000 C 
BRANCH   6   7
ATOM      7  C   UNL     1      26.269  33.220  30.403  1.00  0.00     0.006 C 
BRANCH   7   8
ATOM      8  C   UNL     1      24.913  33.642  29.821  1.00  0.00     0.053 C 
BRANCH   8   9
ATOM      9  C   UNL     1      24.248  32.519  29.085  1.00  0.00     0.041 C 
ATOM     10  O   UNL     1      24.921  31.764  28.334  1.00  0.00    -0.550 OA
ATOM     11  O   UNL     1      22.886  32.298  29.238  1.00  0.00    -0.550 OA
ENDBRANCH   8   9
ENDBRANCH   7   8
ENDBRANCH   6   7
ENDBRANCH   5   6
ENDBRANCH   4   5
ENDBRANCH   3   4
ENDBRANCH   2   3
ENDBRANCH   1   2
BRANCH   1  12
ATOM     12  C   UNL     1      27.798  39.656  33.901  1.00  0.00     0.000 C 
BRANCH  12  13
ATOM     13  C   UNL     1      27.731  40.660  32.737  1.00  0.00    -0.000 C 
BRANCH  13  14
ATOM     14  C   UNL     1      27.670  42.117  33.222  1.00  0.00    -0.000 C 
BRANCH  14  15
ATOM     15  C   UNL     1      27.301  42.230  34.712  1.00  0.00    -0.000 C 
BRANCH  15  16
ATOM     16  C   UNL     1      26.957  43.670  35.130  1.00  0.00    -0.000 C 
BRANCH  16  17
ATOM     17  C   UNL     1      25.842  43.785  36.188  1.00  0.00    -0.000 C 
BRANCH  17  18
ATOM     18  C   UNL     1      24.599  42.923  35.883  1.00  0.00    -0.000 C 
BRANCH  18  19
ATOM     19  C   UNL     1      23.483  43.729  35.200  1.00  0.00    -0.003 C 
ATOM     20  C   UNL     1      22.850  44.721  36.169  1.00  0.00     0.004 C 
ENDBRANCH  18  19
ENDBRANCH  17  18
ENDBRANCH  16  17
ENDBRANCH  15  16
ENDBRANCH  14  15
ENDBRANCH  13  14
ENDBRANCH  12  13
ENDBRANCH   1  12
TORSDOF 16
ENDMDL
MODEL 5
REMARK VINA RESULT:    -5.468      4.761     10.057
REMARK INTER + INTRA:         -11.358
REMARK INTER:                 -10.594
REMARK INTRA:                  -0.763
REMARK UNBOUND:                -0.774
REMARK SMILES CCCCCCCCCCCCCCCCCC(=O)[O-]
REMARK SMILES IDX 10 1 11 2 12 3 13 4 14 5 15 6 16 7 17 8 18 9 19 10 20 11
REMARK SMILES IDX 9 12 8 13 7 14 6 15 5 16 4 17 3 18 2 19 1 20
REMARK H PARENT
REMARK Flexibility Score: inf
ROOT
ATOM      1  C   UNL     1      27.797  42.888  34.315  1.00  0.00     0.000 C 
ENDROOT
BRANCH   1   2
ATOM      2  C   UNL     1      27.230  41.584  33.725  1.00  0.00     0.000 C 
BRANCH   2   3
ATOM      3  C   UNL     1      27.796  41.258  32.335  1.00  0.00     0.000 C 
BRANCH   3   4
ATOM      4  C   UNL     1      28.148  39.770  32.219  1.00  0.00     0.000 C 
BRANCH   4   5
ATOM      5  C   UNL     1      27.853  39.030  33.532  1.00  0.00     0.000 C 
BRANCH   5   6
ATOM      6  C   UNL     1      27.418  37.568  33.294  1.00  0.00     0.000 C 
BRANCH   6   7
ATOM      7  C   UNL     1      27.555  37.120  31.826  1.00  0.00     0.006 C 
BRANCH   7   8
ATOM      8  C   UNL     1      26.572  36.013  31.417  1.00  0.00     0.053 C 
BRANCH   8   9
ATOM      9  C   UNL     1      27.156  35.106  30.377  1.00  0.00     0.041 C 
ATOM     10  O   UNL     1      27.898  35.569  29.472  1.00  0.00    -0.550 OA
ATOM     11  O   UNL     1      26.889  33.743  30.416  1.00  0.00    -0.550 OA
ENDBRANCH   8   9
ENDBRANCH   7   8
ENDBRANCH   6   7
ENDBRANCH   5   6
ENDBRANCH   4   5
ENDBRANCH   3   4
ENDBRANCH   2   3
ENDBRANCH   1   2
BRANCH   1  12
ATOM     12  C   UNL     1      26.955  43.519  35.439  1.00  0.00     0.000 C 
BRANCH  12  13
ATOM     13  C   UNL     1      25.555  42.892  35.564  1.00  0.00    -0.000 C 
BRANCH  13  14
ATOM     14  C   UNL     1      24.525  43.871  36.151  1.00  0.00    -0.000 C 
BRANCH  14  15
ATOM     15  C   UNL     1      23.148  43.757  35.476  1.00  0.00    -0.000 C 
BRANCH  15  16
ATOM     16  C   UNL     1      22.375  45.086  35.478  1.00  0.00    -0.000 C 
BRANCH  16  17
ATOM     17  C   UNL     1      20.846  44.944  35.622  1.00  0.00    -0.000 C 
BRANCH  17  18
ATOM     18  C   UNL     1      20.043  45.947  34.767  1.00  0.00    -0.000 C 
BRANCH  18  19
ATOM     19  C   UNL     1      20.380  45.843  33.272  1.00  0.00    -0.003 C 
ATOM     20  C   UNL     1      19.491  46.763  32.443  1.00  0.00     0.004 C 
ENDBRANCH  18  19
ENDBRANCH  17  18
ENDBRANCH  16  17
ENDBRANCH  15  16
ENDBRANCH  14  15
ENDBRANCH  13  14
ENDBRANCH  12  13
ENDBRANCH   1  12
TORSDOF 16
ENDMDL
MODEL 6
REMARK VINA RESULT:    -5.413      1.695      2.166
REMARK INTER + INTRA:         -11.250
REMARK INTER:                 -10.465
REMARK INTRA:                  -0.785
REMARK UNBOUND:                -0.774
REMARK SMILES CCCCCCCCCCCCCCCCCC(=O)[O-]
REMARK SMILES IDX 10 1 11 2 12 3 13 4 14 5 15 6 16 7 17 8 18 9 19 10 20 11
REMARK SMILES IDX 9 12 8 13 7 14 6 15 5 16 4 17 3 18 2 19 1 20
REMARK H PARENT
REMARK Flexibility Score: inf
ROOT
ATOM      1  C   UNL     1      26.913  41.406  33.992  1.00  0.00     0.000 C 
ENDROOT
BRANCH   1   2
ATOM      2  C   UNL     1      25.725  40.792  34.755  1.00  0.00     0.000 C 
BRANCH   2   3
ATOM      3  C   UNL     1      24.647  41.823  35.119  1.00  0.00     0.000 C 
BRANCH   3   4
ATOM      4  C   UNL     1      25.269  43.058  35.781  1.00  0.00     0.000 C 
BRANCH   4   5
ATOM      5  C   UNL     1      24.193  44.094  36.139  1.00  0.00     0.000 C 
BRANCH   5   6
ATOM      6  C   UNL     1      22.916  43.929  35.287  1.00  0.00     0.000 C 
BRANCH   6   7
ATOM      7  C   UNL     1      21.919  45.093  35.446  1.00  0.00     0.006 C 
BRANCH   7   8
ATOM      8  C   UNL     1      20.833  44.844  36.503  1.00  0.00     0.053 C 
BRANCH   8   9
ATOM      9  C   UNL     1      19.479  44.679  35.882  1.00  0.00     0.041 C 
ATOM     10  O   UNL     1      19.280  45.022  34.687  1.00  0.00    -0.550 OA
ATOM     11  O   UNL     1      18.437  44.134  36.622  1.00  0.00    -0.550 OA
ENDBRANCH   8   9
ENDBRANCH   7   8
ENDBRANCH   6   7
ENDBRANCH   5   6
ENDBRANCH   4   5
ENDBRANCH   3   4
ENDBRANCH   2   3
ENDBRANCH   1   2
BRANCH   1  12
ATOM     12  C   UNL     1      27.941  40.393  33.455  1.00  0.00     0.000 C 
BRANCH  12  13
ATOM     13  C   UNL     1      27.445  38.938  33.531  1.00  0.00    -0.000 C 
BRANCH  13  14
ATOM     14  C   UNL     1      27.531  38.218  32.176  1.00  0.00    -0.000 C 
BRANCH  14  15
ATOM     15  C   UNL     1      27.378  36.693  32.304  1.00  0.00    -0.000 C 
BRANCH  15  16
ATOM     16  C   UNL     1      28.200  35.924  31.256  1.00  0.00    -0.000 C 
BRANCH  16  17
ATOM     17  C   UNL     1      28.605  34.496  31.674  1.00  0.00    -0.000 C 
BRANCH  17  18
ATOM     18  C   UNL     1      27.575  33.416  31.281  1.00  0.00    -0.000 C 
BRANCH  18  19
ATOM     19  C   UNL     1      26.880  33.729  29.947  1.00  0.00    -0.003 C 
ATOM     20  C   UNL     1      25.462  33.166  29.922  1.00  0.00     0.004 C 
ENDBRANCH  18  19
ENDBRANCH  17  18
ENDBRANCH  16  17
ENDBRANCH  15  16
ENDBRANCH  14  15
ENDBRANCH  13  14
ENDBRANCH  12  13
ENDBRANCH   1  12
TORSDOF 16
ENDMDL
MODEL 7
REMARK VINA RESULT:    -5.311      5.075     10.589
REMARK INTER + INTRA:         -11.054
REMARK INTER:                 -10.115
REMARK INTRA:                  -0.939
REMARK UNBOUND:                -0.774
REMARK SMILES CCCCCCCCCCCCCCCCCC(=O)[O-]
REMARK SMILES IDX 10 1 11 2 12 3 13 4 14 5 15 6 16 7 17 8 18 9 19 10 20 11
REMARK SMILES IDX 9 12 8 13 7 14 6 15 5 16 4 17 3 18 2 19 1 20
REMARK H PARENT
REMARK Flexibility Score: inf
ROOT
ATOM      1  C   UNL     1      27.548  42.717  34.672  1.00  0.00     0.000 C 
ENDROOT
BRANCH   1   2
ATOM      2  C   UNL     1      26.803  41.536  34.022  1.00  0.00     0.000 C 
BRANCH   2   3
ATOM      3  C   UNL     1      27.669  40.274  33.900  1.00  0.00     0.000 C 
BRANCH   3   4
ATOM      4  C   UNL     1      26.825  39.008  34.086  1.00  0.00     0.000 C 
BRANCH   4   5
ATOM      5  C   UNL     1      27.587  37.761  33.612  1.00  0.00     0.000 C 
BRANCH   5   6
ATOM      6  C   UNL     1      27.247  37.388  32.153  1.00  0.00     0.000 C 
BRANCH   6   7
ATOM      7  C   UNL     1      27.862  36.048  31.704  1.00  0.00     0.006 C 
BRANCH   7   8
ATOM      8  C   UNL     1      27.154  35.409  30.501  1.00  0.00     0.053 C 
BRANCH   8   9
ATOM      9  C   UNL     1      26.933  33.940  30.701  1.00  0.00     0.041 C 
ATOM     10  O   UNL     1      27.635  33.297  31.525  1.00  0.00    -0.550 OA
ATOM     11  O   UNL     1      25.940  33.284  29.986  1.00  0.00    -0.550 OA
ENDBRANCH   8   9
ENDBRANCH   7   8
ENDBRANCH   6   7
ENDBRANCH   5   6
ENDBRANCH   4   5
ENDBRANCH   3   4
ENDBRANCH   2   3
ENDBRANCH   1   2
BRANCH   1  12
ATOM     12  C   UNL     1      26.750  43.487  35.740  1.00  0.00     0.000 C 
BRANCH  12  13
ATOM     13  C   UNL     1      25.302  42.986  35.884  1.00  0.00    -0.000 C 
BRANCH  13  14
ATOM     14  C   UNL     1      24.283  44.136  35.898  1.00  0.00    -0.000 C 
BRANCH  14  15
ATOM     15  C   UNL     1      22.966  43.769  35.192  1.00  0.00    -0.000 C 
BRANCH  15  16
ATOM     16  C   UNL     1      21.796  44.676  35.610  1.00  0.00    -0.000 C 
BRANCH  16  17
ATOM     17  C   UNL     1      22.086  46.187  35.519  1.00  0.00    -0.000 C 
BRANCH  17  18
ATOM     18  C   UNL     1      21.781  46.960  36.820  1.00  0.00    -0.000 C 
BRANCH  18  19
ATOM     19  C   UNL     1      21.636  46.029  38.033  1.00  0.00    -0.003 C 
ATOM     20  C   UNL     1      22.909  46.020  38.873  1.00  0.00     0.004 C 
ENDBRANCH  18  19
ENDBRANCH  17  18
ENDBRANCH  16  17
ENDBRANCH  15  16
ENDBRANCH  14  15
ENDBRANCH  13  14
ENDBRANCH  12  13
ENDBRANCH   1  12
TORSDOF 16
ENDMDL
MODEL 8
REMARK VINA RESULT:    -5.160      4.230      9.917
REMARK INTER + INTRA:         -10.761
REMARK INTER:                  -9.707
REMARK INTRA:                  -1.055
REMARK UNBOUND:                -0.774
REMARK SMILES CCCCCCCCCCCCCCCCCC(=O)[O-]
REMARK SMILES IDX 10 1 11 2 12 3 13 4 14 5 15 6 16 7 17 8 18 9 19 10 20 11
REMARK SMILES IDX 9 12 8 13 7 14 6 15 5 16 4 17 3 18 2 19 1 20
REMARK H PARENT
REMARK Flexibility Score: inf
ROOT
ATOM      1  C   UNL     1      24.502  43.711  36.439  1.00  0.00     0.000 C 
ENDROOT
BRANCH   1   2
ATOM      2  C   UNL     1      25.553  43.104  35.491  1.00  0.00     0.000 C 
BRANCH   2   3
ATOM      3  C   UNL     1      26.892  43.855  35.518  1.00  0.00     0.000 C 
BRANCH   3   4
ATOM      4  C   UNL     1      27.995  43.037  34.835  1.00  0.00     0.000 C 
BRANCH   4   5
ATOM      5  C   UNL     1      27.437  41.724  34.266  1.00  0.00     0.000 C 
BRANCH   5   6
ATOM      6  C   UNL     1      27.691  41.590  32.749  1.00  0.00     0.000 C 
BRANCH   6   7
ATOM      7  C   UNL     1      27.912  40.135  32.291  1.00  0.00     0.006 C 
BRANCH   7   8
ATOM      8  C   UNL     1      28.287  39.174  33.428  1.00  0.00     0.053 C 
BRANCH   8   9
ATOM      9  C   UNL     1      27.412  37.957  33.439  1.00  0.00     0.041 C 
ATOM     10  O   UNL     1      27.069  37.409  32.359  1.00  0.00    -0.550 OA
ATOM     11  O   UNL     1      26.987  37.420  34.647  1.00  0.00    -0.550 OA
ENDBRANCH   8   9
ENDBRANCH   7   8
ENDBRANCH   6   7
ENDBRANCH   5   6
ENDBRANCH   4   5
ENDBRANCH   3   4
ENDBRANCH   2   3
ENDBRANCH   1   2
BRANCH   1  12
ATOM     12  C   UNL     1      23.217  44.214  35.757  1.00  0.00     0.000 C 
BRANCH  12  13
ATOM     13  C   UNL     1      22.686  45.523  36.370  1.00  0.00    -0.000 C 
BRANCH  13  14
ATOM     14  C   UNL     1      21.152  45.606  36.335  1.00  0.00    -0.000 C 
BRANCH  14  15
ATOM     15  C   UNL     1      20.644  46.947  35.777  1.00  0.00    -0.000 C 
BRANCH  15  16
ATOM     16  C   UNL     1      21.235  47.277  34.397  1.00  0.00    -0.000 C 
BRANCH  16  17
ATOM     17  C   UNL     1      20.265  47.080  33.215  1.00  0.00    -0.000 C 
BRANCH  17  18
ATOM     18  C   UNL     1      19.939  45.602  32.915  1.00  0.00    -0.000 C 
BRANCH  18  19
ATOM     19  C   UNL     1      18.430  45.316  32.955  1.00  0.00    -0.003 C 
ATOM     20  C   UNL     1      17.627  46.611  33.004  1.00  0.00     0.004 C 
ENDBRANCH  18  19
ENDBRANCH  17  18
ENDBRANCH  16  17
ENDBRANCH  15  16
ENDBRANCH  14  15
ENDBRANCH  13  14
ENDBRANCH  12  13
ENDBRANCH   1  12
TORSDOF 16
ENDMDL
MODEL 9
REMARK VINA RESULT:    -5.054      6.509     11.019
REMARK INTER + INTRA:         -10.555
REMARK INTER:                  -9.005
REMARK INTRA:                  -1.550
REMARK UNBOUND:                -0.774
REMARK SMILES CCCCCCCCCCCCCCCCCC(=O)[O-]
REMARK SMILES IDX 10 1 11 2 12 3 13 4 14 5 15 6 16 7 17 8 18 9 19 10 20 11
REMARK SMILES IDX 9 12 8 13 7 14 6 15 5 16 4 17 3 18 2 19 1 20
REMARK H PARENT
REMARK Flexibility Score: inf
ROOT
ATOM      1  C   UNL     1      24.297  31.273  28.671  1.00  0.00     0.000 C 
ENDROOT
BRANCH   1   2
ATOM      2  C   UNL     1      23.850  32.700  29.037  1.00  0.00     0.000 C 
BRANCH   2   3
ATOM      3  C   UNL     1      24.880  33.451  29.894  1.00  0.00     0.000 C 
BRANCH   3   4
ATOM      4  C   UNL     1      26.307  33.005  29.555  1.00  0.00     0.000 C 
BRANCH   4   5
ATOM      5  C   UNL     1      27.321  34.115  29.868  1.00  0.00     0.000 C 
BRANCH   5   6
ATOM      6  C   UNL     1      26.746  35.179  30.828  1.00  0.00     0.000 C 
BRANCH   6   7
ATOM      7  C   UNL     1      27.827  36.062  31.482  1.00  0.00     0.006 C 
BRANCH   7   8
ATOM      8  C   UNL     1      27.283  37.359  32.098  1.00  0.00     0.053 C 
BRANCH   8   9
ATOM      9  C   UNL     1      27.408  37.361  33.591  1.00  0.00     0.041 C 
ATOM     10  O   UNL     1      27.506  38.447  34.221  1.00  0.00    -0.550 OA
ATOM     11  O   UNL     1      27.402  36.161  34.290  1.00  0.00    -0.550 OA
ENDBRANCH   8   9
ENDBRANCH   7   8
ENDBRANCH   6   7
ENDBRANCH   5   6
ENDBRANCH   4   5
ENDBRANCH   3   4
ENDBRANCH   2   3
ENDBRANCH   1   2
BRANCH   1  12
ATOM     12  C   UNL     1      23.447  30.143  29.282  1.00  0.00     0.000 C 
BRANCH  12  13
ATOM     13  C   UNL     1      21.973  30.198  28.844  1.00  0.00    -0.000 C 
BRANCH  13  14
ATOM     14  C   UNL     1      21.032  30.566  30.001  1.00  0.00    -0.000 C 
BRANCH  14  15
ATOM     15  C   UNL     1      20.146  31.783  29.681  1.00  0.00    -0.000 C 
BRANCH  15  16
ATOM     16  C   UNL     1      18.914  31.414  28.838  1.00  0.00    -0.000 C 
BRANCH  16  17
ATOM     17  C   UNL     1      18.828  32.128  27.474  1.00  0.00    -0.000 C 
BRANCH  17  18
ATOM     18  C   UNL     1      20.031  33.048  27.175  1.00  0.00    -0.000 C 
BRANCH  18  19
ATOM     19  C   UNL     1      20.658  32.762  25.802  1.00  0.00    -0.003 C 
ATOM     20  C   UNL     1      22.174  32.635  25.906  1.00  0.00     0.004 C 
ENDBRANCH  18  19
ENDBRANCH  17  18
ENDBRANCH  16  17
ENDBRANCH  15  16
ENDBRANCH  14  15
ENDBRANCH  13  14
ENDBRANCH  12  13
ENDBRANCH   1  12
TORSDOF 16
ENDMDL
