MODEL 1
REMARK VINA RESULT:    -6.541      0.000      0.000
REMARK INTER + INTRA:          -7.829
REMARK INTER:                  -7.688
REMARK INTRA:                  -0.142
REMARK UNBOUND:                -0.142
REMARK SMILES O=C([O-])C=Cc1ccc(O)c(O)c1
REMARK SMILES IDX 6 1 13 2 7 3 11 4 8 5 9 6 5 7 4 8 2 9 1 10 3 11 12 12 10 14
REMARK H PARENT 12 13 10 15
REMARK Flexibility Score: inf
ROOT
ATOM      1  C   UNL     1     -29.386  57.222   0.644  1.00  0.00    -0.022 A 
ATOM      2  C   UNL     1     -29.768  57.598  -0.656  1.00  0.00     0.058 A 
ATOM      3  C   UNL     1     -28.049  56.846   0.876  1.00  0.00     0.012 A 
ATOM      4  C   UNL     1     -28.843  57.576  -1.710  1.00  0.00     0.157 A 
ATOM      5  C   UNL     1     -27.127  56.825  -0.174  1.00  0.00     0.051 A 
ATOM      6  C   UNL     1     -27.517  57.184  -1.466  1.00  0.00     0.157 A 
ENDROOT
BRANCH   1   7
ATOM      7  C   UNL     1     -30.402  57.273   1.725  1.00  0.00     0.010 C 
ATOM      8  C   UNL     1     -30.117  57.091   3.022  1.00  0.00     0.025 C 
BRANCH   8   9
ATOM      9  C   UNL     1     -31.159  57.140   4.061  1.00  0.00     0.064 C 
ATOM     10  O   UNL     1     -30.840  56.984   5.268  1.00  0.00    -0.545 OA
ATOM     11  O   UNL     1     -32.492  57.356   3.730  1.00  0.00    -0.545 OA
ENDBRANCH   8   9
ENDBRANCH   1   7
BRANCH   4  12
ATOM     12  O   UNL     1     -29.238  57.942  -2.996  1.00  0.00    -0.504 OA
ATOM     13  H   UNL     1     -29.453  57.248  -3.703  1.00  0.00     0.293 HD
ENDBRANCH   4  12
BRANCH   6  14
ATOM     14  O   UNL     1     -26.575  57.151  -2.494  1.00  0.00    -0.504 OA
ATOM     15  H   UNL     1     -26.094  57.985  -2.810  1.00  0.00     0.293 HD
ENDBRANCH   6  14
TORSDOF 4
ENDMDL
MODEL 2
REMARK VINA RESULT:    -6.519      1.186      5.938
REMARK INTER + INTRA:          -7.804
REMARK INTER:                  -7.679
REMARK INTRA:                  -0.125
REMARK UNBOUND:                -0.142
REMARK SMILES O=C([O-])C=Cc1ccc(O)c(O)c1
REMARK SMILES IDX 6 1 13 2 7 3 11 4 8 5 9 6 5 7 4 8 2 9 1 10 3 11 12 12 10 14
REMARK H PARENT 12 13 10 15
REMARK Flexibility Score: inf
ROOT
ATOM      1  C   UNL     1     -29.408  57.299   2.022  1.00  0.00    -0.022 A 
ATOM      2  C   UNL     1     -30.502  56.625   2.592  1.00  0.00     0.058 A 
ATOM      3  C   UNL     1     -28.650  58.169   2.830  1.00  0.00     0.012 A 
ATOM      4  C   UNL     1     -30.852  56.832   3.934  1.00  0.00     0.157 A 
ATOM      5  C   UNL     1     -28.999  58.375   4.168  1.00  0.00     0.051 A 
ATOM      6  C   UNL     1     -30.098  57.714   4.723  1.00  0.00     0.157 A 
ENDROOT
BRANCH   1   7
ATOM      7  C   UNL     1     -29.074  57.036   0.600  1.00  0.00     0.010 C 
ATOM      8  C   UNL     1     -29.332  57.895  -0.396  1.00  0.00     0.025 C 
BRANCH   8   9
ATOM      9  C   UNL     1     -28.993  57.587  -1.795  1.00  0.00     0.064 C 
ATOM     10  O   UNL     1     -29.912  57.307  -2.609  1.00  0.00    -0.545 OA
ATOM     11  O   UNL     1     -27.675  57.603  -2.235  1.00  0.00    -0.545 OA
ENDBRANCH   8   9
ENDBRANCH   1   7
BRANCH   4  12
ATOM     12  O   UNL     1     -31.946  56.164   4.483  1.00  0.00    -0.504 OA
ATOM     13  H   UNL     1     -32.125  56.170   5.481  1.00  0.00     0.293 HD
ENDBRANCH   4  12
BRANCH   6  14
ATOM     14  O   UNL     1     -30.421  57.942   6.061  1.00  0.00    -0.504 OA
ATOM     15  H   UNL     1     -31.239  58.475   6.333  1.00  0.00     0.293 HD
ENDBRANCH   6  14
TORSDOF 4
ENDMDL
MODEL 3
REMARK VINA RESULT:    -6.498      1.381      6.028
REMARK INTER + INTRA:          -7.779
REMARK INTER:                  -7.644
REMARK INTRA:                  -0.135
REMARK UNBOUND:                -0.142
REMARK SMILES O=C([O-])C=Cc1ccc(O)c(O)c1
REMARK SMILES IDX 6 1 13 2 7 3 11 4 8 5 9 6 5 7 4 8 2 9 1 10 3 11 12 12 10 14
REMARK H PARENT 12 13 10 15
REMARK Flexibility Score: inf
ROOT
ATOM      1  C   UNL     1     -29.732  57.976   1.725  1.00  0.00    -0.022 A 
ATOM      2  C   UNL     1     -29.003  58.391   2.852  1.00  0.00     0.058 A 
ATOM      3  C   UNL     1     -30.915  57.235   1.916  1.00  0.00     0.012 A 
ATOM      4  C   UNL     1     -29.429  58.056   4.146  1.00  0.00     0.157 A 
ATOM      5  C   UNL     1     -31.340  56.901   3.204  1.00  0.00     0.051 A 
ATOM      6  C   UNL     1     -30.601  57.304   4.321  1.00  0.00     0.157 A 
ENDROOT
BRANCH   1   7
ATOM      7  C   UNL     1     -29.243  58.367   0.379  1.00  0.00     0.010 C 
ATOM      8  C   UNL     1     -29.265  57.554  -0.686  1.00  0.00     0.025 C 
BRANCH   8   9
ATOM      9  C   UNL     1     -28.759  57.981  -2.001  1.00  0.00     0.064 C 
ATOM     10  O   UNL     1     -27.807  57.352  -2.533  1.00  0.00    -0.545 OA
ATOM     11  O   UNL     1     -29.316  59.066  -2.666  1.00  0.00    -0.545 OA
ENDBRANCH   8   9
ENDBRANCH   1   7
BRANCH   4  12
ATOM     12  O   UNL     1     -28.691  58.467   5.254  1.00  0.00    -0.504 OA
ATOM     13  H   UNL     1     -28.175  59.340   5.255  1.00  0.00     0.293 HD
ENDBRANCH   4  12
BRANCH   6  14
ATOM     14  O   UNL     1     -31.050  56.953   5.594  1.00  0.00    -0.504 OA
ATOM     15  H   UNL     1     -30.521  57.171   6.430  1.00  0.00     0.293 HD
ENDBRANCH   6  14
TORSDOF 4
ENDMDL
MODEL 4
REMARK VINA RESULT:    -6.497      0.944      2.178
REMARK INTER + INTRA:          -7.778
REMARK INTER:                  -7.642
REMARK INTRA:                  -0.136
REMARK UNBOUND:                -0.142
REMARK SMILES O=C([O-])C=Cc1ccc(O)c(O)c1
REMARK SMILES IDX 6 1 13 2 7 3 11 4 8 5 9 6 5 7 4 8 2 9 1 10 3 11 12 12 10 14
REMARK H PARENT 12 13 10 15
REMARK Flexibility Score: inf
ROOT
ATOM      1  C   UNL     1     -29.411  57.244   0.851  1.00  0.00    -0.022 A 
ATOM      2  C   UNL     1     -28.101  56.868   1.192  1.00  0.00     0.058 A 
ATOM      3  C   UNL     1     -29.698  57.567  -0.490  1.00  0.00     0.012 A 
ATOM      4  C   UNL     1     -27.088  56.836   0.222  1.00  0.00     0.157 A 
ATOM      5  C   UNL     1     -28.690  57.535  -1.457  1.00  0.00     0.051 A 
ATOM      6  C   UNL     1     -27.385  57.175  -1.107  1.00  0.00     0.157 A 
ENDROOT
BRANCH   1   7
ATOM      7  C   UNL     1     -30.447  57.251   1.913  1.00  0.00     0.010 C 
ATOM      8  C   UNL     1     -30.169  57.221   3.224  1.00  0.00     0.025 C 
BRANCH   8   9
ATOM      9  C   UNL     1     -31.230  57.217   4.245  1.00  0.00     0.064 C 
ATOM     10  O   UNL     1     -32.434  57.310   3.888  1.00  0.00    -0.545 OA
ATOM     11  O   UNL     1     -30.925  57.110   5.596  1.00  0.00    -0.545 OA
ENDBRANCH   8   9
ENDBRANCH   1   7
BRANCH   4  12
ATOM     12  O   UNL     1     -25.791  56.470   0.576  1.00  0.00    -0.504 OA
ATOM     13  H   UNL     1     -25.493  55.501   0.574  1.00  0.00     0.293 HD
ENDBRANCH   4  12
BRANCH   6  14
ATOM     14  O   UNL     1     -26.400  57.155  -2.094  1.00  0.00    -0.504 OA
ATOM     15  H   UNL     1     -26.587  57.444  -3.047  1.00  0.00     0.293 HD
ENDBRANCH   6  14
TORSDOF 4
ENDMDL
MODEL 5
REMARK VINA RESULT:    -6.367      9.301     12.187
REMARK INTER + INTRA:          -7.625
REMARK INTER:                  -7.499
REMARK INTRA:                  -0.126
REMARK UNBOUND:                -0.142
REMARK SMILES O=C([O-])C=Cc1ccc(O)c(O)c1
REMARK SMILES IDX 6 1 13 2 7 3 11 4 8 5 9 6 5 7 4 8 2 9 1 10 3 11 12 12 10 14
REMARK H PARENT 12 13 10 15
REMARK Flexibility Score: inf
ROOT
ATOM      1  C   UNL     1     -19.059  58.206  -4.880  1.00  0.00    -0.022 A 
ATOM      2  C   UNL     1     -18.221  58.165  -6.007  1.00  0.00     0.058 A 
ATOM      3  C   UNL     1     -18.638  58.931  -3.748  1.00  0.00     0.012 A 
ATOM      4  C   UNL     1     -16.977  58.811  -6.002  1.00  0.00     0.157 A 
ATOM      5  C   UNL     1     -17.398  59.576  -3.741  1.00  0.00     0.051 A 
ATOM      6  C   UNL     1     -16.563  59.517  -4.860  1.00  0.00     0.157 A 
ENDROOT
BRANCH   1   7
ATOM      7  C   UNL     1     -20.370  57.514  -4.943  1.00  0.00     0.010 C 
ATOM      8  C   UNL     1     -21.533  58.141  -5.167  1.00  0.00     0.025 C 
BRANCH   8   9
ATOM      9  C   UNL     1     -22.813  57.415  -5.210  1.00  0.00     0.064 C 
ATOM     10  O   UNL     1     -23.051  56.635  -6.169  1.00  0.00    -0.545 OA
ATOM     11  O   UNL     1     -23.762  57.574  -4.209  1.00  0.00    -0.545 OA
ENDBRANCH   8   9
ENDBRANCH   1   7
BRANCH   4  12
ATOM     12  O   UNL     1     -16.152  58.754  -7.124  1.00  0.00    -0.504 OA
ATOM     13  H   UNL     1     -15.143  58.811  -7.045  1.00  0.00     0.293 HD
ENDBRANCH   4  12
BRANCH   6  14
ATOM     14  O   UNL     1     -15.331  60.169  -4.823  1.00  0.00    -0.504 OA
ATOM     15  H   UNL     1     -14.474  59.718  -5.119  1.00  0.00     0.293 HD
ENDBRANCH   6  14
TORSDOF 4
ENDMDL
MODEL 6
REMARK VINA RESULT:    -6.259      1.468      5.865
REMARK INTER + INTRA:          -7.499
REMARK INTER:                  -7.357
REMARK INTRA:                  -0.141
REMARK UNBOUND:                -0.142
REMARK SMILES O=C([O-])C=Cc1ccc(O)c(O)c1
REMARK SMILES IDX 6 1 13 2 7 3 11 4 8 5 9 6 5 7 4 8 2 9 1 10 3 11 12 12 10 14
REMARK H PARENT 12 13 10 15
REMARK Flexibility Score: inf
ROOT
ATOM      1  C   UNL     1     -28.878  57.459  -0.253  1.00  0.00    -0.022 A 
ATOM      2  C   UNL     1     -30.270  57.540  -0.079  1.00  0.00     0.058 A 
ATOM      3  C   UNL     1     -28.051  57.440   0.887  1.00  0.00     0.012 A 
ATOM      4  C   UNL     1     -30.829  57.627   1.204  1.00  0.00     0.157 A 
ATOM      5  C   UNL     1     -28.608  57.527   2.166  1.00  0.00     0.051 A 
ATOM      6  C   UNL     1     -29.992  57.624   2.331  1.00  0.00     0.157 A 
ENDROOT
BRANCH   1   7
ATOM      7  C   UNL     1     -28.339  57.358  -1.632  1.00  0.00     0.010 C 
ATOM      8  C   UNL     1     -27.108  56.915  -1.920  1.00  0.00     0.025 C 
BRANCH   8   9
ATOM      9  C   UNL     1     -26.610  56.842  -3.304  1.00  0.00     0.064 C 
ATOM     10  O   UNL     1     -25.395  57.072  -3.539  1.00  0.00    -0.545 OA
ATOM     11  O   UNL     1     -27.460  56.522  -4.355  1.00  0.00    -0.545 OA
ENDBRANCH   8   9
ENDBRANCH   1   7
BRANCH   4  12
ATOM     12  O   UNL     1     -32.212  57.717   1.361  1.00  0.00    -0.504 OA
ATOM     13  H   UNL     1     -32.764  58.381   0.829  1.00  0.00     0.293 HD
ENDBRANCH   4  12
BRANCH   6  14
ATOM     14  O   UNL     1     -30.517  57.710   3.620  1.00  0.00    -0.504 OA
ATOM     15  H   UNL     1     -29.934  57.895   4.427  1.00  0.00     0.293 HD
ENDBRANCH   6  14
TORSDOF 4
ENDMDL
MODEL 7
REMARK VINA RESULT:    -6.252      7.268      8.413
REMARK INTER + INTRA:          -7.490
REMARK INTER:                  -7.357
REMARK INTRA:                  -0.133
REMARK UNBOUND:                -0.142
REMARK SMILES O=C([O-])C=Cc1ccc(O)c(O)c1
REMARK SMILES IDX 6 1 13 2 7 3 11 4 8 5 9 6 5 7 4 8 2 9 1 10 3 11 12 12 10 14
REMARK H PARENT 12 13 10 15
REMARK Flexibility Score: inf
ROOT
ATOM      1  C   UNL     1     -22.816  57.953   4.084  1.00  0.00    -0.022 A 
ATOM      2  C   UNL     1     -21.471  58.323   4.254  1.00  0.00     0.058 A 
ATOM      3  C   UNL     1     -23.571  58.584   3.077  1.00  0.00     0.012 A 
ATOM      4  C   UNL     1     -20.894  59.320   3.454  1.00  0.00     0.157 A 
ATOM      5  C   UNL     1     -22.997  59.578   2.280  1.00  0.00     0.051 A 
ATOM      6  C   UNL     1     -21.664  59.952   2.465  1.00  0.00     0.157 A 
ENDROOT
BRANCH   1   7
ATOM      7  C   UNL     1     -23.373  56.884   4.950  1.00  0.00     0.010 C 
ATOM      8  C   UNL     1     -22.774  56.441   6.064  1.00  0.00     0.025 C 
BRANCH   8   9
ATOM      9  C   UNL     1     -23.358  55.370   6.888  1.00  0.00     0.064 C 
ATOM     10  O   UNL     1     -24.478  55.548   7.434  1.00  0.00    -0.545 OA
ATOM     11  O   UNL     1     -22.694  54.163   7.072  1.00  0.00    -0.545 OA
ENDBRANCH   8   9
ENDBRANCH   1   7
BRANCH   4  12
ATOM     12  O   UNL     1     -19.561  59.683   3.640  1.00  0.00    -0.504 OA
ATOM     13  H   UNL     1     -18.958  59.908   2.857  1.00  0.00     0.293 HD
ENDBRANCH   4  12
BRANCH   6  14
ATOM     14  O   UNL     1     -21.119  60.948   1.654  1.00  0.00    -0.504 OA
ATOM     15  H   UNL     1     -20.192  60.869   1.254  1.00  0.00     0.293 HD
ENDBRANCH   6  14
TORSDOF 4
ENDMDL
MODEL 8
REMARK VINA RESULT:    -6.176      7.303      9.653
REMARK INTER + INTRA:          -7.401
REMARK INTER:                  -7.273
REMARK INTRA:                  -0.128
REMARK UNBOUND:                -0.142
REMARK SMILES O=C([O-])C=Cc1ccc(O)c(O)c1
REMARK SMILES IDX 6 1 13 2 7 3 11 4 8 5 9 6 5 7 4 8 2 9 1 10 3 11 12 12 10 14
REMARK H PARENT 12 13 10 15
REMARK Flexibility Score: inf
ROOT
ATOM      1  C   UNL     1     -22.452  59.064   2.980  1.00  0.00    -0.022 A 
ATOM      2  C   UNL     1     -21.295  59.016   3.776  1.00  0.00     0.058 A 
ATOM      3  C   UNL     1     -23.489  58.146   3.234  1.00  0.00     0.012 A 
ATOM      4  C   UNL     1     -21.160  58.057   4.790  1.00  0.00     0.157 A 
ATOM      5  C   UNL     1     -23.356  57.190   4.244  1.00  0.00     0.051 A 
ATOM      6  C   UNL     1     -22.196  57.138   5.022  1.00  0.00     0.157 A 
ENDROOT
BRANCH   1   7
ATOM      7  C   UNL     1     -22.547  60.106   1.927  1.00  0.00     0.010 C 
ATOM      8  C   UNL     1     -21.533  60.440   1.117  1.00  0.00     0.025 C 
BRANCH   8   9
ATOM      9  C   UNL     1     -21.669  61.489   0.093  1.00  0.00     0.064 C 
ATOM     10  O   UNL     1     -21.231  62.645   0.327  1.00  0.00    -0.545 OA
ATOM     11  O   UNL     1     -22.272  61.223  -1.130  1.00  0.00    -0.545 OA
ENDBRANCH   8   9
ENDBRANCH   1   7
BRANCH   4  12
ATOM     12  O   UNL     1     -20.003  58.016   5.566  1.00  0.00    -0.504 OA
ATOM     13  H   UNL     1     -19.935  57.425   6.387  1.00  0.00     0.293 HD
ENDBRANCH   4  12
BRANCH   6  14
ATOM     14  O   UNL     1     -22.091  56.171   6.022  1.00  0.00    -0.504 OA
ATOM     15  H   UNL     1     -21.602  55.296   5.875  1.00  0.00     0.293 HD
ENDBRANCH   6  14
TORSDOF 4
ENDMDL
MODEL 9
REMARK VINA RESULT:    -6.145     10.025     13.020
REMARK INTER + INTRA:          -7.364
REMARK INTER:                  -7.240
REMARK INTRA:                  -0.124
REMARK UNBOUND:                -0.142
REMARK SMILES O=C([O-])C=Cc1ccc(O)c(O)c1
REMARK SMILES IDX 6 1 13 2 7 3 11 4 8 5 9 6 5 7 4 8 2 9 1 10 3 11 12 12 10 14
REMARK H PARENT 12 13 10 15
REMARK Flexibility Score: inf
ROOT
ATOM      1  C   UNL     1     -18.621  58.411  -4.900  1.00  0.00    -0.022 A 
ATOM      2  C   UNL     1     -19.851  59.039  -5.161  1.00  0.00     0.058 A 
ATOM      3  C   UNL     1     -18.621  57.063  -4.492  1.00  0.00     0.012 A 
ATOM      4  C   UNL     1     -21.060  58.348  -4.995  1.00  0.00     0.157 A 
ATOM      5  C   UNL     1     -19.825  56.373  -4.327  1.00  0.00     0.051 A 
ATOM      6  C   UNL     1     -21.045  57.009  -4.573  1.00  0.00     0.157 A 
ENDROOT
BRANCH   1   7
ATOM      7  C   UNL     1     -17.371  59.185  -5.102  1.00  0.00     0.010 C 
ATOM      8  C   UNL     1     -16.739  59.846  -4.122  1.00  0.00     0.025 C 
BRANCH   8   9
ATOM      9  C   UNL     1     -15.506  60.612  -4.369  1.00  0.00     0.064 C 
ATOM     10  O   UNL     1     -15.548  61.636  -5.099  1.00  0.00    -0.545 OA
ATOM     11  O   UNL     1     -14.296  60.223  -3.809  1.00  0.00    -0.545 OA
ENDBRANCH   8   9
ENDBRANCH   1   7
BRANCH   4  12
ATOM     12  O   UNL     1     -22.272  58.987  -5.249  1.00  0.00    -0.504 OA
ATOM     13  H   UNL     1     -22.316  59.977  -5.462  1.00  0.00     0.293 HD
ENDBRANCH   4  12
BRANCH   6  14
ATOM     14  O   UNL     1     -22.230  56.295  -4.398  1.00  0.00    -0.504 OA
ATOM     15  H   UNL     1     -22.825  56.040  -5.177  1.00  0.00     0.293 HD
ENDBRANCH   6  14
TORSDOF 4
ENDMDL
