MODEL 1
REMARK VINA RESULT:    -6.154      0.000      0.000
REMARK INTER + INTRA:          -7.363
REMARK INTER:                  -7.234
REMARK INTRA:                  -0.129
REMARK UNBOUND:                -0.129
REMARK SMILES O=C([O-])C=Cc1ccc(O)c(O)c1
REMARK SMILES IDX 6 1 13 2 7 3 11 4 8 5 9 6 5 7 4 8 2 9 1 10 3 11 12 12 10 14
REMARK H PARENT 12 13 10 15
REMARK Flexibility Score: inf
ROOT
ATOM      1  C   UNL     1      25.209  27.785  17.341  1.00  0.00    -0.022 A 
ATOM      2  C   UNL     1      25.571  26.632  18.066  1.00  0.00     0.058 A 
ATOM      3  C   UNL     1      26.034  28.209  16.287  1.00  0.00     0.012 A 
ATOM      4  C   UNL     1      26.722  25.907  17.724  1.00  0.00     0.157 A 
ATOM      5  C   UNL     1      27.180  27.487  15.944  1.00  0.00     0.051 A 
ATOM      6  C   UNL     1      27.525  26.333  16.659  1.00  0.00     0.157 A 
ENDROOT
BRANCH   1   7
ATOM      7  C   UNL     1      24.009  28.593  17.672  1.00  0.00     0.010 C 
ATOM      8  C   UNL     1      24.001  29.576  18.583  1.00  0.00     0.025 C 
BRANCH   8   9
ATOM      9  C   UNL     1      22.787  30.350  18.894  1.00  0.00     0.064 C 
ATOM     10  O   UNL     1      21.884  30.521  18.032  1.00  0.00    -0.545 OA
ATOM     11  O   UNL     1      22.636  30.902  20.159  1.00  0.00    -0.545 OA
ENDBRANCH   8   9
ENDBRANCH   1   7
BRANCH   4  12
ATOM     12  O   UNL     1      27.076  24.765  18.439  1.00  0.00    -0.504 OA
ATOM     13  H   UNL     1      26.800  24.638  19.407  1.00  0.00     0.293 HD
ENDBRANCH   4  12
BRANCH   6  14
ATOM     14  O   UNL     1      28.665  25.607  16.319  1.00  0.00    -0.504 OA
ATOM     15  H   UNL     1      28.632  24.604  16.173  1.00  0.00     0.293 HD
ENDBRANCH   6  14
TORSDOF 4
ENDMDL
MODEL 2
REMARK VINA RESULT:    -6.035      1.271      1.318
REMARK INTER + INTRA:          -7.223
REMARK INTER:                  -7.097
REMARK INTRA:                  -0.126
REMARK UNBOUND:                -0.129
REMARK SMILES O=C([O-])C=Cc1ccc(O)c(O)c1
REMARK SMILES IDX 6 1 13 2 7 3 11 4 8 5 9 6 5 7 4 8 2 9 1 10 3 11 12 12 10 14
REMARK H PARENT 12 13 10 15
REMARK Flexibility Score: inf
ROOT
ATOM      1  C   UNL     1      24.955  28.104  17.447  1.00  0.00    -0.022 A 
ATOM      2  C   UNL     1      25.981  27.499  18.199  1.00  0.00     0.058 A 
ATOM      3  C   UNL     1      24.510  27.471  16.275  1.00  0.00     0.012 A 
ATOM      4  C   UNL     1      26.530  26.272  17.798  1.00  0.00     0.157 A 
ATOM      5  C   UNL     1      25.055  26.248  15.876  1.00  0.00     0.051 A 
ATOM      6  C   UNL     1      26.064  25.644  16.637  1.00  0.00     0.157 A 
ENDROOT
BRANCH   1   7
ATOM      7  C   UNL     1      24.351  29.406  17.822  1.00  0.00     0.010 C 
ATOM      8  C   UNL     1      23.376  29.540  18.732  1.00  0.00     0.025 C 
BRANCH   8   9
ATOM      9  C   UNL     1      22.791  30.848  19.072  1.00  0.00     0.064 C 
ATOM     10  O   UNL     1      22.319  31.603  18.180  1.00  0.00    -0.545 OA
ATOM     11  O   UNL     1      22.760  31.258  20.398  1.00  0.00    -0.545 OA
ENDBRANCH   8   9
ENDBRANCH   1   7
BRANCH   4  12
ATOM     12  O   UNL     1      27.542  25.673  18.546  1.00  0.00    -0.504 OA
ATOM     13  H   UNL     1      28.416  25.384  18.121  1.00  0.00     0.293 HD
ENDBRANCH   4  12
BRANCH   6  14
ATOM     14  O   UNL     1      26.609  24.423  16.244  1.00  0.00    -0.504 OA
ATOM     15  H   UNL     1      27.005  24.292  15.320  1.00  0.00     0.293 HD
ENDBRANCH   6  14
TORSDOF 4
ENDMDL
MODEL 3
REMARK VINA RESULT:    -5.854      1.779      6.315
REMARK INTER + INTRA:          -7.010
REMARK INTER:                  -6.886
REMARK INTRA:                  -0.124
REMARK UNBOUND:                -0.129
REMARK SMILES O=C([O-])C=Cc1ccc(O)c(O)c1
REMARK SMILES IDX 6 1 13 2 7 3 11 4 8 5 9 6 5 7 4 8 2 9 1 10 3 11 12 12 10 14
REMARK H PARENT 12 13 10 15
REMARK Flexibility Score: inf
ROOT
ATOM      1  C   UNL     1      23.359  29.836  17.899  1.00  0.00    -0.022 A 
ATOM      2  C   UNL     1      23.400  30.214  19.256  1.00  0.00     0.058 A 
ATOM      3  C   UNL     1      22.572  30.585  17.010  1.00  0.00     0.012 A 
ATOM      4  C   UNL     1      22.687  31.335  19.705  1.00  0.00     0.157 A 
ATOM      5  C   UNL     1      21.862  31.703  17.457  1.00  0.00     0.051 A 
ATOM      6  C   UNL     1      21.919  32.082  18.804  1.00  0.00     0.157 A 
ENDROOT
BRANCH   1   7
ATOM      7  C   UNL     1      24.086  28.652  17.378  1.00  0.00     0.010 C 
ATOM      8  C   UNL     1      24.834  27.842  18.140  1.00  0.00     0.025 C 
BRANCH   8   9
ATOM      9  C   UNL     1      25.552  26.682  17.586  1.00  0.00     0.064 C 
ATOM     10  O   UNL     1      26.484  26.126  18.226  1.00  0.00    -0.545 OA
ATOM     11  O   UNL     1      25.198  26.193  16.336  1.00  0.00    -0.545 OA
ENDBRANCH   8   9
ENDBRANCH   1   7
BRANCH   4  12
ATOM     12  O   UNL     1      22.732  31.710  21.046  1.00  0.00    -0.504 OA
ATOM     13  H   UNL     1      22.046  32.342  21.444  1.00  0.00     0.293 HD
ENDBRANCH   4  12
BRANCH   6  14
ATOM     14  O   UNL     1      21.215  33.197  19.253  1.00  0.00    -0.504 OA
ATOM     15  H   UNL     1      20.233  33.328  19.036  1.00  0.00     0.293 HD
ENDBRANCH   6  14
TORSDOF 4
ENDMDL
MODEL 4
REMARK VINA RESULT:    -5.633      3.330      4.591
REMARK INTER + INTRA:          -6.750
REMARK INTER:                  -6.626
REMARK INTRA:                  -0.124
REMARK UNBOUND:                -0.129
REMARK SMILES O=C([O-])C=Cc1ccc(O)c(O)c1
REMARK SMILES IDX 6 1 13 2 7 3 11 4 8 5 9 6 5 7 4 8 2 9 1 10 3 11 12 12 10 14
REMARK H PARENT 12 13 10 15
REMARK Flexibility Score: inf
ROOT
ATOM      1  C   UNL     1      22.631  31.227  18.694  1.00  0.00    -0.022 A 
ATOM      2  C   UNL     1      23.265  30.151  19.348  1.00  0.00     0.058 A 
ATOM      3  C   UNL     1      22.696  31.301  17.293  1.00  0.00     0.012 A 
ATOM      4  C   UNL     1      23.928  29.159  18.611  1.00  0.00     0.157 A 
ATOM      5  C   UNL     1      23.355  30.312  16.558  1.00  0.00     0.051 A 
ATOM      6  C   UNL     1      23.970  29.238  17.213  1.00  0.00     0.157 A 
ENDROOT
BRANCH   1   7
ATOM      7  C   UNL     1      21.928  32.307  19.430  1.00  0.00     0.010 C 
ATOM      8  C   UNL     1      22.121  32.570  20.729  1.00  0.00     0.025 C 
BRANCH   8   9
ATOM      9  C   UNL     1      21.397  33.644  21.431  1.00  0.00     0.064 C 
ATOM     10  O   UNL     1      21.638  33.911  22.638  1.00  0.00    -0.545 OA
ATOM     11  O   UNL     1      20.430  34.372  20.751  1.00  0.00    -0.545 OA
ENDBRANCH   8   9
ENDBRANCH   1   7
BRANCH   4  12
ATOM     12  O   UNL     1      24.550  28.095  19.259  1.00  0.00    -0.504 OA
ATOM     13  H   UNL     1      24.481  27.146  18.909  1.00  0.00     0.293 HD
ENDBRANCH   4  12
BRANCH   6  14
ATOM     14  O   UNL     1      24.625  28.248  16.484  1.00  0.00    -0.504 OA
ATOM     15  H   UNL     1      24.335  28.001  15.545  1.00  0.00     0.293 HD
ENDBRANCH   6  14
TORSDOF 4
ENDMDL
MODEL 5
REMARK VINA RESULT:    -5.476      9.711     10.373
REMARK INTER + INTRA:          -6.566
REMARK INTER:                  -6.437
REMARK INTRA:                  -0.129
REMARK UNBOUND:                -0.129
REMARK SMILES O=C([O-])C=Cc1ccc(O)c(O)c1
REMARK SMILES IDX 6 1 13 2 7 3 11 4 8 5 9 6 5 7 4 8 2 9 1 10 3 11 12 12 10 14
REMARK H PARENT 12 13 10 15
REMARK Flexibility Score: inf
ROOT
ATOM      1  C   UNL     1      31.576  34.004  21.565  1.00  0.00    -0.022 A 
ATOM      2  C   UNL     1      30.571  34.288  20.618  1.00  0.00     0.058 A 
ATOM      3  C   UNL     1      32.858  33.660  21.110  1.00  0.00     0.012 A 
ATOM      4  C   UNL     1      30.855  34.251  19.246  1.00  0.00     0.157 A 
ATOM      5  C   UNL     1      33.143  33.624  19.743  1.00  0.00     0.051 A 
ATOM      6  C   UNL     1      32.144  33.922  18.807  1.00  0.00     0.157 A 
ENDROOT
BRANCH   1   7
ATOM      7  C   UNL     1      31.322  34.018  23.027  1.00  0.00     0.010 C 
ATOM      8  C   UNL     1      31.694  35.018  23.839  1.00  0.00     0.025 C 
BRANCH   8   9
ATOM      9  C   UNL     1      31.436  34.993  25.288  1.00  0.00     0.064 C 
ATOM     10  O   UNL     1      32.210  35.569  26.098  1.00  0.00    -0.545 OA
ATOM     11  O   UNL     1      30.322  34.321  25.772  1.00  0.00    -0.545 OA
ENDBRANCH   8   9
ENDBRANCH   1   7
BRANCH   4  12
ATOM     12  O   UNL     1      29.862  34.536  18.311  1.00  0.00    -0.504 OA
ATOM     13  H   UNL     1      29.475  35.467  18.215  1.00  0.00     0.293 HD
ENDBRANCH   4  12
BRANCH   6  14
ATOM     14  O   UNL     1      32.423  33.891  17.442  1.00  0.00    -0.504 OA
ATOM     15  H   UNL     1      33.136  34.485  17.033  1.00  0.00     0.293 HD
ENDBRANCH   6  14
TORSDOF 4
ENDMDL
MODEL 6
REMARK VINA RESULT:    -5.346      2.788      7.363
REMARK INTER + INTRA:          -6.413
REMARK INTER:                  -6.263
REMARK INTRA:                  -0.150
REMARK UNBOUND:                -0.129
REMARK SMILES O=C([O-])C=Cc1ccc(O)c(O)c1
REMARK SMILES IDX 6 1 13 2 7 3 11 4 8 5 9 6 5 7 4 8 2 9 1 10 3 11 12 12 10 14
REMARK H PARENT 12 13 10 15
REMARK Flexibility Score: inf
ROOT
ATOM      1  C   UNL     1      22.646  31.232  18.666  1.00  0.00    -0.022 A 
ATOM      2  C   UNL     1      22.123  32.308  17.921  1.00  0.00     0.058 A 
ATOM      3  C   UNL     1      22.635  31.309  20.068  1.00  0.00     0.012 A 
ATOM      4  C   UNL     1      21.579  33.426  18.570  1.00  0.00     0.157 A 
ATOM      5  C   UNL     1      22.092  32.422  20.715  1.00  0.00     0.051 A 
ATOM      6  C   UNL     1      21.560  33.482  19.969  1.00  0.00     0.157 A 
ENDROOT
BRANCH   1   7
ATOM      7  C   UNL     1      23.243  30.033  18.027  1.00  0.00     0.010 C 
ATOM      8  C   UNL     1      24.157  29.251  18.618  1.00  0.00     0.025 C 
BRANCH   8   9
ATOM      9  C   UNL     1      24.737  28.075  17.948  1.00  0.00     0.064 C 
ATOM     10  O   UNL     1      25.399  27.219  18.593  1.00  0.00    -0.545 OA
ATOM     11  O   UNL     1      24.554  27.907  16.582  1.00  0.00    -0.545 OA
ENDBRANCH   8   9
ENDBRANCH   1   7
BRANCH   4  12
ATOM     12  O   UNL     1      21.059  34.487  17.832  1.00  0.00    -0.504 OA
ATOM     13  H   UNL     1      20.574  35.257  18.278  1.00  0.00     0.293 HD
ENDBRANCH   4  12
BRANCH   6  14
ATOM     14  O   UNL     1      21.015  34.592  20.610  1.00  0.00    -0.504 OA
ATOM     15  H   UNL     1      20.778  35.436  20.099  1.00  0.00     0.293 HD
ENDBRANCH   6  14
TORSDOF 4
ENDMDL
MODEL 7
REMARK VINA RESULT:    -5.292     10.231     11.304
REMARK INTER + INTRA:          -6.349
REMARK INTER:                  -6.222
REMARK INTRA:                  -0.127
REMARK UNBOUND:                -0.129
REMARK SMILES O=C([O-])C=Cc1ccc(O)c(O)c1
REMARK SMILES IDX 6 1 13 2 7 3 11 4 8 5 9 6 5 7 4 8 2 9 1 10 3 11 12 12 10 14
REMARK H PARENT 12 13 10 15
REMARK Flexibility Score: inf
ROOT
ATOM      1  C   UNL     1      31.645  35.042  22.557  1.00  0.00    -0.022 A 
ATOM      2  C   UNL     1      30.893  34.068  23.244  1.00  0.00     0.058 A 
ATOM      3  C   UNL     1      32.298  36.040  23.297  1.00  0.00     0.012 A 
ATOM      4  C   UNL     1      30.820  34.082  24.645  1.00  0.00     0.157 A 
ATOM      5  C   UNL     1      32.227  36.054  24.692  1.00  0.00     0.051 A 
ATOM      6  C   UNL     1      31.491  35.074  25.370  1.00  0.00     0.157 A 
ENDROOT
BRANCH   1   7
ATOM      7  C   UNL     1      31.743  35.077  21.077  1.00  0.00     0.010 C 
ATOM      8  C   UNL     1      30.681  35.070  20.259  1.00  0.00     0.025 C 
BRANCH   8   9
ATOM      9  C   UNL     1      30.816  35.094  18.793  1.00  0.00     0.064 C 
ATOM     10  O   UNL     1      31.947  35.018  18.242  1.00  0.00    -0.545 OA
ATOM     11  O   UNL     1      29.679  35.203  18.004  1.00  0.00    -0.545 OA
ENDBRANCH   8   9
ENDBRANCH   1   7
BRANCH   4  12
ATOM     12  O   UNL     1      30.079  33.116  25.323  1.00  0.00    -0.504 OA
ATOM     13  H   UNL     1      30.082  33.058  26.335  1.00  0.00     0.293 HD
ENDBRANCH   4  12
BRANCH   6  14
ATOM     14  O   UNL     1      31.419  35.082  26.761  1.00  0.00    -0.504 OA
ATOM     15  H   UNL     1      30.613  35.459  27.249  1.00  0.00     0.293 HD
ENDBRANCH   6  14
TORSDOF 4
ENDMDL
MODEL 8
REMARK VINA RESULT:    -5.266      9.813     10.388
REMARK INTER + INTRA:          -6.318
REMARK INTER:                  -6.196
REMARK INTRA:                  -0.122
REMARK UNBOUND:                -0.129
REMARK SMILES O=C([O-])C=Cc1ccc(O)c(O)c1
REMARK SMILES IDX 6 1 13 2 7 3 11 4 8 5 9 6 5 7 4 8 2 9 1 10 3 11 12 12 10 14
REMARK H PARENT 12 13 10 15
REMARK Flexibility Score: inf
ROOT
ATOM      1  C   UNL     1      31.669  34.199  21.513  1.00  0.00    -0.022 A 
ATOM      2  C   UNL     1      33.013  33.860  21.255  1.00  0.00     0.058 A 
ATOM      3  C   UNL     1      30.749  34.175  20.452  1.00  0.00     0.012 A 
ATOM      4  C   UNL     1      33.418  33.482  19.967  1.00  0.00     0.157 A 
ATOM      5  C   UNL     1      31.152  33.797  19.169  1.00  0.00     0.051 A 
ATOM      6  C   UNL     1      32.485  33.447  18.923  1.00  0.00     0.157 A 
ENDROOT
BRANCH   1   7
ATOM      7  C   UNL     1      31.194  34.616  22.855  1.00  0.00     0.010 C 
ATOM      8  C   UNL     1      31.823  34.306  23.997  1.00  0.00     0.025 C 
BRANCH   8   9
ATOM      9  C   UNL     1      31.316  34.728  25.314  1.00  0.00     0.064 C 
ATOM     10  O   UNL     1      30.205  34.319  25.746  1.00  0.00    -0.545 OA
ATOM     11  O   UNL     1      32.073  35.593  26.092  1.00  0.00    -0.545 OA
ENDBRANCH   8   9
ENDBRANCH   1   7
BRANCH   4  12
ATOM     12  O   UNL     1      34.746  33.144  19.715  1.00  0.00    -0.504 OA
ATOM     13  H   UNL     1      35.459  33.224  20.431  1.00  0.00     0.293 HD
ENDBRANCH   4  12
BRANCH   6  14
ATOM     14  O   UNL     1      32.891  33.067  17.645  1.00  0.00    -0.504 OA
ATOM     15  H   UNL     1      32.695  32.141  17.280  1.00  0.00     0.293 HD
ENDBRANCH   6  14
TORSDOF 4
ENDMDL
MODEL 9
REMARK VINA RESULT:    -5.129      1.137      5.753
REMARK INTER + INTRA:          -6.158
REMARK INTER:                  -6.007
REMARK INTRA:                  -0.151
REMARK UNBOUND:                -0.129
REMARK SMILES O=C([O-])C=Cc1ccc(O)c(O)c1
REMARK SMILES IDX 6 1 13 2 7 3 11 4 8 5 9 6 5 7 4 8 2 9 1 10 3 11 12 12 10 14
REMARK H PARENT 12 13 10 15
REMARK Flexibility Score: inf
ROOT
ATOM      1  C   UNL     1      25.093  27.931  17.851  1.00  0.00    -0.022 A 
ATOM      2  C   UNL     1      24.447  28.652  18.876  1.00  0.00     0.058 A 
ATOM      3  C   UNL     1      24.878  28.311  16.517  1.00  0.00     0.012 A 
ATOM      4  C   UNL     1      23.624  29.744  18.570  1.00  0.00     0.157 A 
ATOM      5  C   UNL     1      24.058  29.401  16.210  1.00  0.00     0.051 A 
ATOM      6  C   UNL     1      23.431  30.122  17.235  1.00  0.00     0.157 A 
ENDROOT
BRANCH   1   7
ATOM      7  C   UNL     1      25.964  26.762  18.123  1.00  0.00     0.010 C 
ATOM      8  C   UNL     1      26.421  25.936  17.172  1.00  0.00     0.025 C 
BRANCH   8   9
ATOM      9  C   UNL     1      27.275  24.776  17.480  1.00  0.00     0.064 C 
ATOM     10  O   UNL     1      26.806  23.754  18.049  1.00  0.00    -0.545 OA
ATOM     11  O   UNL     1      28.620  24.809  17.139  1.00  0.00    -0.545 OA
ENDBRANCH   8   9
ENDBRANCH   1   7
BRANCH   4  12
ATOM     12  O   UNL     1      22.989  30.457  19.585  1.00  0.00    -0.504 OA
ATOM     13  H   UNL     1      23.219  31.425  19.777  1.00  0.00     0.293 HD
ENDBRANCH   4  12
BRANCH   6  14
ATOM     14  O   UNL     1      22.615  31.210  16.935  1.00  0.00    -0.504 OA
ATOM     15  H   UNL     1      21.638  31.232  17.206  1.00  0.00     0.293 HD
ENDBRANCH   6  14
TORSDOF 4
ENDMDL
