MODEL 1
REMARK VINA RESULT:    -7.162      0.000      0.000
REMARK INTER + INTRA:         -12.242
REMARK INTER:                 -10.512
REMARK INTRA:                  -1.730
REMARK UNBOUND:                -1.730
REMARK SMILES O=c1c(O[C@@H]2O[C@H](CO)[C@@H](O)[C@H](O)[C@@H]2O)c(-c2ccc(O)c(O)c2)oc2cc(O)cc(O)c12
REMARK SMILES IDX 4 1 3 2 16 3 25 4 2 5 26 6 1 7 33 8 27 9 31 10 28 11 30 12
REMARK SMILES IDX 17 13 18 14 19 15 20 16 24 17 22 18 21 19 23 21 32 23 29 25
REMARK SMILES IDX 5 27 14 28 6 29 12 30 7 31 10 32 15 33 13 35 8 37 9 38 11 40
REMARK H PARENT 21 20 23 22 32 24 29 26 15 34 13 36 9 39 11 41
REMARK Flexibility Score: inf
ROOT
ATOM      1  O   UNL     1       7.310  -9.299 -27.185  1.00  0.00    -0.454 OA
ENDROOT
BRANCH   1   2
ATOM      2  C   UNL     1       8.246 -10.277 -27.572  1.00  0.00     0.214 A 
ATOM      3  C   UNL     1       9.593  -9.894 -27.736  1.00  0.00     0.180 A 
ATOM      4  O   UNL     1      10.515 -10.798 -28.048  1.00  0.00    -0.452 OA
ATOM      5  C   UNL     1       7.907 -11.631 -27.787  1.00  0.00     0.239 A 
ATOM      6  C   UNL     1      10.240 -12.081 -28.246  1.00  0.00     0.146 A 
ATOM      7  O   UNL     1       6.710 -12.007 -27.686  1.00  0.00    -0.285 OA
ATOM      8  C   UNL     1       8.916 -12.559 -28.128  1.00  0.00     0.111 A 
ATOM      9  C   UNL     1      11.280 -12.955 -28.575  1.00  0.00     0.094 A 
ATOM     10  C   UNL     1       8.658 -13.935 -28.351  1.00  0.00     0.134 A 
ATOM     11  C   UNL     1      11.020 -14.312 -28.794  1.00  0.00     0.123 A 
ATOM     12  C   UNL     1       9.715 -14.795 -28.683  1.00  0.00     0.093 A 
BRANCH   3  13
ATOM     13  C   UNL     1      10.035  -8.499 -27.524  1.00  0.00     0.025 A 
ATOM     14  C   UNL     1       9.996  -7.559 -28.564  1.00  0.00     0.016 A 
ATOM     15  C   UNL     1      10.421  -6.246 -28.347  1.00  0.00     0.051 A 
ATOM     16  C   UNL     1      10.906  -5.860 -27.090  1.00  0.00     0.157 A 
ATOM     17  C   UNL     1      10.545  -8.117 -26.273  1.00  0.00     0.062 A 
ATOM     18  C   UNL     1      10.972  -6.803 -26.049  1.00  0.00     0.158 A 
BRANCH  16  19
ATOM     19  O   UNL     1      11.328  -4.549 -26.872  1.00  0.00    -0.504 OA
ATOM     20  H   UNL     1      10.800  -3.914 -26.285  1.00  0.00     0.293 HD
ENDBRANCH  16  19
BRANCH  18  21
ATOM     21  O   UNL     1      11.457  -6.454 -24.790  1.00  0.00    -0.504 OA
ATOM     22  H   UNL     1      11.559  -7.133 -24.045  1.00  0.00     0.293 HD
ENDBRANCH  18  21
ENDBRANCH   3  13
BRANCH  10  23
ATOM     23  O   UNL     1       7.367 -14.451 -28.246  1.00  0.00    -0.507 OA
ATOM     24  H   UNL     1       7.180 -15.443 -28.337  1.00  0.00     0.293 HD
ENDBRANCH  10  23
BRANCH  11  25
ATOM     25  O   UNL     1      12.052 -15.188 -29.124  1.00  0.00    -0.508 OA
ATOM     26  H   UNL     1      12.998 -15.041 -28.790  1.00  0.00     0.293 HD
ENDBRANCH  11  25
ENDBRANCH   1   2
BRANCH   1  27
ATOM     27  C   UNL     1       6.583  -8.434 -28.062  1.00  0.00     0.339 C 
ATOM     28  C   UNL     1       5.079  -8.745 -28.007  1.00  0.00     0.214 C 
ATOM     29  O   UNL     1       6.859  -7.061 -27.814  1.00  0.00    -0.332 OA
ATOM     30  C   UNL     1       4.473  -8.316 -26.664  1.00  0.00     0.180 C 
ATOM     31  C   UNL     1       6.375  -6.579 -26.566  1.00  0.00     0.179 C 
ATOM     32  C   UNL     1       4.864  -6.861 -26.334  1.00  0.00     0.177 C 
BRANCH  28  33
ATOM     33  O   UNL     1       4.877 -10.120 -28.218  1.00  0.00    -0.384 OA
ATOM     34  H   UNL     1       5.631 -10.591 -27.778  1.00  0.00     0.211 HD
ENDBRANCH  28  33
BRANCH  30  35
ATOM     35  O   UNL     1       4.897  -9.186 -25.646  1.00  0.00    -0.387 OA
ATOM     36  H   UNL     1       5.009  -8.639 -24.825  1.00  0.00     0.211 HD
ENDBRANCH  30  35
BRANCH  31  37
ATOM     37  C   UNL     1       7.275  -6.995 -25.388  1.00  0.00     0.191 C 
BRANCH  37  38
ATOM     38  O   UNL     1       6.514  -7.090 -24.216  1.00  0.00    -0.394 OA
ATOM     39  H   UNL     1       5.815  -6.388 -24.281  1.00  0.00     0.210 HD
ENDBRANCH  37  38
ENDBRANCH  31  37
BRANCH  32  40
ATOM     40  O   UNL     1       4.070  -5.964 -27.074  1.00  0.00    -0.387 OA
ATOM     41  H   UNL     1       4.491  -5.841 -27.963  1.00  0.00     0.211 HD
ENDBRANCH  32  40
ENDBRANCH   1  27
TORSDOF 12
ENDMDL
MODEL 2
REMARK VINA RESULT:    -6.856      0.936      1.915
REMARK INTER + INTRA:         -11.793
REMARK INTER:                 -10.403
REMARK INTRA:                  -1.390
REMARK UNBOUND:                -1.730
REMARK SMILES O=c1c(O[C@@H]2O[C@H](CO)[C@@H](O)[C@H](O)[C@@H]2O)c(-c2ccc(O)c(O)c2)oc2cc(O)cc(O)c12
REMARK SMILES IDX 4 1 3 2 16 3 25 4 2 5 26 6 1 7 33 8 27 9 31 10 28 11 30 12
REMARK SMILES IDX 17 13 18 14 19 15 20 16 24 17 22 18 21 19 23 21 32 23 29 25
REMARK SMILES IDX 5 27 14 28 6 29 12 30 7 31 10 32 15 33 13 35 8 37 9 38 11 40
REMARK H PARENT 21 20 23 22 32 24 29 26 15 34 13 36 9 39 11 41
REMARK Flexibility Score: inf
ROOT
ATOM      1  O   UNL     1       7.635  -9.095 -27.538  1.00  0.00    -0.454 OA
ENDROOT
BRANCH   1   2
ATOM      2  C   UNL     1       8.559 -10.110 -27.850  1.00  0.00     0.214 A 
ATOM      3  C   UNL     1       9.918  -9.764 -27.999  1.00  0.00     0.180 A 
ATOM      4  O   UNL     1      10.826 -10.702 -28.239  1.00  0.00    -0.452 OA
ATOM      5  C   UNL     1       8.196 -11.466 -28.004  1.00  0.00     0.239 A 
ATOM      6  C   UNL     1      10.529 -11.987 -28.379  1.00  0.00     0.146 A 
ATOM      7  O   UNL     1       6.988 -11.812 -27.915  1.00  0.00    -0.285 OA
ATOM      8  C   UNL     1       9.192 -12.431 -28.270  1.00  0.00     0.111 A 
ATOM      9  C   UNL     1      11.558 -12.898 -28.635  1.00  0.00     0.094 A 
ATOM     10  C   UNL     1       8.910 -13.811 -28.429  1.00  0.00     0.134 A 
ATOM     11  C   UNL     1      11.273 -14.259 -28.791  1.00  0.00     0.123 A 
ATOM     12  C   UNL     1       9.956 -14.709 -28.689  1.00  0.00     0.093 A 
BRANCH   3  13
ATOM     13  C   UNL     1      10.384  -8.369 -27.847  1.00  0.00     0.025 A 
ATOM     14  C   UNL     1      10.379  -7.480 -28.932  1.00  0.00     0.016 A 
ATOM     15  C   UNL     1      10.827  -6.167 -28.771  1.00  0.00     0.051 A 
ATOM     16  C   UNL     1      11.302  -5.730 -27.527  1.00  0.00     0.157 A 
ATOM     17  C   UNL     1      10.883  -7.937 -26.608  1.00  0.00     0.062 A 
ATOM     18  C   UNL     1      11.334  -6.622 -26.441  1.00  0.00     0.158 A 
BRANCH  16  19
ATOM     19  O   UNL     1      11.746  -4.418 -27.366  1.00  0.00    -0.504 OA
ATOM     20  H   UNL     1      11.816  -3.783 -28.153  1.00  0.00     0.293 HD
ENDBRANCH  16  19
BRANCH  18  21
ATOM     21  O   UNL     1      11.808  -6.222 -25.193  1.00  0.00    -0.504 OA
ATOM     22  H   UNL     1      12.662  -5.688 -25.087  1.00  0.00     0.293 HD
ENDBRANCH  18  21
ENDBRANCH   3  13
BRANCH  10  23
ATOM     23  O   UNL     1       7.606 -14.295 -28.332  1.00  0.00    -0.507 OA
ATOM     24  H   UNL     1       7.297 -14.839 -27.534  1.00  0.00     0.293 HD
ENDBRANCH  10  23
BRANCH  11  25
ATOM     25  O   UNL     1      12.294 -15.172 -29.048  1.00  0.00    -0.508 OA
ATOM     26  H   UNL     1      12.107 -16.063 -29.493  1.00  0.00     0.293 HD
ENDBRANCH  11  25
ENDBRANCH   1   2
BRANCH   1  27
ATOM     27  C   UNL     1       6.582  -9.180 -26.573  1.00  0.00     0.339 C 
ATOM     28  C   UNL     1       6.830  -8.203 -25.412  1.00  0.00     0.214 C 
ATOM     29  O   UNL     1       5.299  -9.005 -27.161  1.00  0.00    -0.332 OA
ATOM     30  C   UNL     1       6.646  -6.747 -25.864  1.00  0.00     0.180 C 
ATOM     31  C   UNL     1       5.051  -7.694 -27.654  1.00  0.00     0.179 C 
ATOM     32  C   UNL     1       5.304  -6.576 -26.604  1.00  0.00     0.177 C 
BRANCH  28  33
ATOM     33  O   UNL     1       8.125  -8.398 -24.904  1.00  0.00    -0.384 OA
ATOM     34  H   UNL     1       8.284  -7.678 -24.240  1.00  0.00     0.211 HD
ENDBRANCH  28  33
BRANCH  30  35
ATOM     35  O   UNL     1       7.718  -6.361 -26.686  1.00  0.00    -0.387 OA
ATOM     36  H   UNL     1       7.928  -5.417 -26.464  1.00  0.00     0.211 HD
ENDBRANCH  30  35
BRANCH  31  37
ATOM     37  C   UNL     1       5.730  -7.439 -29.012  1.00  0.00     0.191 C 
BRANCH  37  38
ATOM     38  O   UNL     1       6.092  -6.090 -29.120  1.00  0.00    -0.394 OA
ATOM     39  H   UNL     1       6.752  -5.922 -28.398  1.00  0.00     0.210 HD
ENDBRANCH  37  38
ENDBRANCH  31  37
BRANCH  32  40
ATOM     40  O   UNL     1       4.244  -6.510 -25.680  1.00  0.00    -0.387 OA
ATOM     41  H   UNL     1       4.602  -6.736 -24.783  1.00  0.00     0.211 HD
ENDBRANCH  32  40
ENDBRANCH   1  27
TORSDOF 12
ENDMDL
MODEL 3
REMARK VINA RESULT:    -6.641      1.625      4.619
REMARK INTER + INTRA:         -11.476
REMARK INTER:                 -10.067
REMARK INTRA:                  -1.410
REMARK UNBOUND:                -1.730
REMARK SMILES O=c1c(O[C@@H]2O[C@H](CO)[C@@H](O)[C@H](O)[C@@H]2O)c(-c2ccc(O)c(O)c2)oc2cc(O)cc(O)c12
REMARK SMILES IDX 4 1 3 2 16 3 25 4 2 5 26 6 1 7 33 8 27 9 31 10 28 11 30 12
REMARK SMILES IDX 17 13 18 14 19 15 20 16 24 17 22 18 21 19 23 21 32 23 29 25
REMARK SMILES IDX 5 27 14 28 6 29 12 30 7 31 10 32 15 33 13 35 8 37 9 38 11 40
REMARK H PARENT 21 20 23 22 32 24 29 26 15 34 13 36 9 39 11 41
REMARK Flexibility Score: inf
ROOT
ATOM      1  O   UNL     1       9.704  -7.737 -27.710  1.00  0.00    -0.454 OA
ENDROOT
BRANCH   1   2
ATOM      2  C   UNL     1       9.660  -9.140 -27.810  1.00  0.00     0.214 A 
ATOM      3  C   UNL     1       8.458  -9.802 -27.482  1.00  0.00     0.180 A 
ATOM      4  O   UNL     1       8.361 -11.120 -27.616  1.00  0.00    -0.452 OA
ATOM      5  C   UNL     1      10.755  -9.920 -28.240  1.00  0.00     0.239 A 
ATOM      6  C   UNL     1       9.362 -11.887 -28.028  1.00  0.00     0.146 A 
ATOM      7  O   UNL     1      11.857  -9.372 -28.508  1.00  0.00    -0.285 OA
ATOM      8  C   UNL     1      10.613 -11.321 -28.358  1.00  0.00     0.111 A 
ATOM      9  C   UNL     1       9.162 -13.267 -28.130  1.00  0.00     0.094 A 
ATOM     10  C   UNL     1      11.662 -12.171 -28.790  1.00  0.00     0.134 A 
ATOM     11  C   UNL     1      10.200 -14.101 -28.558  1.00  0.00     0.123 A 
ATOM     12  C   UNL     1      11.442 -13.553 -28.884  1.00  0.00     0.093 A 
BRANCH   3  13
ATOM     13  C   UNL     1       7.262  -9.061 -27.031  1.00  0.00     0.025 A 
ATOM     14  C   UNL     1       6.151  -8.894 -27.872  1.00  0.00     0.016 A 
ATOM     15  C   UNL     1       5.030  -8.188 -27.430  1.00  0.00     0.051 A 
ATOM     16  C   UNL     1       5.011  -7.625 -26.147  1.00  0.00     0.157 A 
ATOM     17  C   UNL     1       7.250  -8.475 -25.755  1.00  0.00     0.062 A 
ATOM     18  C   UNL     1       6.129  -7.765 -25.308  1.00  0.00     0.158 A 
BRANCH  16  19
ATOM     19  O   UNL     1       3.890  -6.922 -25.706  1.00  0.00    -0.504 OA
ATOM     20  H   UNL     1       3.387  -6.290 -26.317  1.00  0.00     0.293 HD
ENDBRANCH  16  19
BRANCH  18  21
ATOM     21  O   UNL     1       6.146  -7.210 -24.029  1.00  0.00    -0.504 OA
ATOM     22  H   UNL     1       5.708  -7.667 -23.239  1.00  0.00     0.293 HD
ENDBRANCH  18  21
ENDBRANCH   3  13
BRANCH  10  23
ATOM     23  O   UNL     1      12.914 -11.656 -29.125  1.00  0.00    -0.507 OA
ATOM     24  H   UNL     1      13.735 -12.247 -29.183  1.00  0.00     0.293 HD
ENDBRANCH  10  23
BRANCH  11  25
ATOM     25  O   UNL     1      10.008 -15.477 -28.662  1.00  0.00    -0.508 OA
ATOM     26  H   UNL     1       9.100 -15.870 -28.884  1.00  0.00     0.293 HD
ENDBRANCH  11  25
ENDBRANCH   1   2
BRANCH   1  27
ATOM     27  C   UNL     1       9.850  -6.818 -28.798  1.00  0.00     0.339 C 
ATOM     28  C   UNL     1       8.818  -5.684 -28.694  1.00  0.00     0.214 C 
ATOM     29  O   UNL     1      11.180  -6.328 -28.912  1.00  0.00    -0.332 OA
ATOM     30  C   UNL     1       9.141  -4.747 -27.522  1.00  0.00     0.180 C 
ATOM     31  C   UNL     1      11.590  -5.483 -27.843  1.00  0.00     0.179 C 
ATOM     32  C   UNL     1      10.616  -4.301 -27.576  1.00  0.00     0.177 C 
BRANCH  28  33
ATOM     33  O   UNL     1       7.533  -6.233 -28.542  1.00  0.00    -0.384 OA
ATOM     34  H   UNL     1       6.896  -5.585 -28.942  1.00  0.00     0.211 HD
ENDBRANCH  28  33
BRANCH  30  35
ATOM     35  O   UNL     1       8.862  -5.388 -26.304  1.00  0.00    -0.387 OA
ATOM     36  H   UNL     1       7.970  -5.814 -26.398  1.00  0.00     0.211 HD
ENDBRANCH  30  35
BRANCH  31  37
ATOM     37  C   UNL     1      11.969  -6.277 -26.580  1.00  0.00     0.191 C 
BRANCH  37  38
ATOM     38  O   UNL     1      12.862  -7.305 -26.911  1.00  0.00    -0.394 OA
ATOM     39  H   UNL     1      12.304  -8.097 -27.129  1.00  0.00     0.210 HD
ENDBRANCH  37  38
ENDBRANCH  31  37
BRANCH  32  40
ATOM     40  O   UNL     1      10.784  -3.289 -28.540  1.00  0.00    -0.387 OA
ATOM     41  H   UNL     1       9.930  -2.791 -28.616  1.00  0.00     0.211 HD
ENDBRANCH  32  40
ENDBRANCH   1  27
TORSDOF 12
ENDMDL
MODEL 4
REMARK VINA RESULT:    -6.613      1.683      2.738
REMARK INTER + INTRA:         -11.436
REMARK INTER:                 -10.113
REMARK INTRA:                  -1.323
REMARK UNBOUND:                -1.730
REMARK SMILES O=c1c(O[C@@H]2O[C@H](CO)[C@@H](O)[C@H](O)[C@@H]2O)c(-c2ccc(O)c(O)c2)oc2cc(O)cc(O)c12
REMARK SMILES IDX 4 1 3 2 16 3 25 4 2 5 26 6 1 7 33 8 27 9 31 10 28 11 30 12
REMARK SMILES IDX 17 13 18 14 19 15 20 16 24 17 22 18 21 19 23 21 32 23 29 25
REMARK SMILES IDX 5 27 14 28 6 29 12 30 7 31 10 32 15 33 13 35 8 37 9 38 11 40
REMARK H PARENT 21 20 23 22 32 24 29 26 15 34 13 36 9 39 11 41
REMARK Flexibility Score: inf
ROOT
ATOM      1  O   UNL     1       8.406  -8.112 -27.208  1.00  0.00    -0.454 OA
ENDROOT
BRANCH   1   2
ATOM      2  C   UNL     1       8.864  -9.383 -27.602  1.00  0.00     0.214 A 
ATOM      3  C   UNL     1      10.168  -9.497 -28.127  1.00  0.00     0.180 A 
ATOM      4  O   UNL     1      10.656 -10.687 -28.459  1.00  0.00    -0.452 OA
ATOM      5  C   UNL     1       8.089 -10.557 -27.481  1.00  0.00     0.239 A 
ATOM      6  C   UNL     1       9.965 -11.814 -28.350  1.00  0.00     0.146 A 
ATOM      7  O   UNL     1       6.907 -10.494 -27.051  1.00  0.00    -0.285 OA
ATOM      8  C   UNL     1       8.642 -11.802 -27.856  1.00  0.00     0.111 A 
ATOM      9  C   UNL     1      10.566 -13.018 -28.732  1.00  0.00     0.094 A 
ATOM     10  C   UNL     1       7.932 -13.024 -27.758  1.00  0.00     0.134 A 
ATOM     11  C   UNL     1       9.861 -14.222 -28.631  1.00  0.00     0.123 A 
ATOM     12  C   UNL     1       8.551 -14.221 -28.147  1.00  0.00     0.093 A 
BRANCH   3  13
ATOM     13  C   UNL     1      11.049  -8.320 -28.281  1.00  0.00     0.025 A 
ATOM     14  C   UNL     1      10.625  -7.182 -28.984  1.00  0.00     0.016 A 
ATOM     15  C   UNL     1      11.472  -6.080 -29.122  1.00  0.00     0.051 A 
ATOM     16  C   UNL     1      12.761  -6.107 -28.573  1.00  0.00     0.157 A 
ATOM     17  C   UNL     1      12.350  -8.354 -27.753  1.00  0.00     0.062 A 
ATOM     18  C   UNL     1      13.203  -7.253 -27.889  1.00  0.00     0.158 A 
BRANCH  16  19
ATOM     19  O   UNL     1      13.605  -5.005 -28.709  1.00  0.00    -0.504 OA
ATOM     20  H   UNL     1      14.439  -4.904 -28.143  1.00  0.00     0.293 HD
ENDBRANCH  16  19
BRANCH  18  21
ATOM     21  O   UNL     1      14.482  -7.315 -27.339  1.00  0.00    -0.504 OA
ATOM     22  H   UNL     1      14.635  -7.462 -26.349  1.00  0.00     0.293 HD
ENDBRANCH  18  21
ENDBRANCH   3  13
BRANCH  10  23
ATOM     23  O   UNL     1       6.623 -13.060 -27.277  1.00  0.00    -0.507 OA
ATOM     24  H   UNL     1       6.421 -13.118 -26.286  1.00  0.00     0.293 HD
ENDBRANCH  10  23
BRANCH  11  25
ATOM     25  O   UNL     1      10.453 -15.424 -29.011  1.00  0.00    -0.508 OA
ATOM     26  H   UNL     1       9.941 -16.299 -28.984  1.00  0.00     0.293 HD
ENDBRANCH  11  25
ENDBRANCH   1   2
BRANCH   1  27
ATOM     27  C   UNL     1       7.999  -7.734 -25.889  1.00  0.00     0.339 C 
ATOM     28  C   UNL     1       8.599  -6.372 -25.505  1.00  0.00     0.214 C 
ATOM     29  O   UNL     1       6.586  -7.764 -25.734  1.00  0.00    -0.332 OA
ATOM     30  C   UNL     1       7.952  -5.235 -26.309  1.00  0.00     0.180 C 
ATOM     31  C   UNL     1       5.890  -6.773 -26.480  1.00  0.00     0.179 C 
ATOM     32  C   UNL     1       6.414  -5.329 -26.237  1.00  0.00     0.177 C 
BRANCH  28  33
ATOM     33  O   UNL     1       9.987  -6.394 -25.720  1.00  0.00    -0.384 OA
ATOM     34  H   UNL     1      10.334  -5.504 -25.448  1.00  0.00     0.211 HD
ENDBRANCH  28  33
BRANCH  30  35
ATOM     35  O   UNL     1       8.389  -5.281 -27.643  1.00  0.00    -0.387 OA
ATOM     36  H   UNL     1       9.152  -5.916 -27.676  1.00  0.00     0.211 HD
ENDBRANCH  30  35
BRANCH  31  37
ATOM     37  C   UNL     1       5.755  -7.146 -27.967  1.00  0.00     0.191 C 
BRANCH  37  38
ATOM     38  O   UNL     1       5.314  -8.470 -28.089  1.00  0.00    -0.394 OA
ATOM     39  H   UNL     1       5.571  -8.765 -29.002  1.00  0.00     0.210 HD
ENDBRANCH  37  38
ENDBRANCH  31  37
BRANCH  32  40
ATOM     40  O   UNL     1       5.953  -4.832 -25.004  1.00  0.00    -0.387 OA
ATOM     41  H   UNL     1       6.605  -5.091 -24.303  1.00  0.00     0.211 HD
ENDBRANCH  32  40
ENDBRANCH   1  27
TORSDOF 12
ENDMDL
MODEL 5
REMARK VINA RESULT:    -6.514      1.619      4.677
REMARK INTER + INTRA:         -11.291
REMARK INTER:                 -10.053
REMARK INTRA:                  -1.238
REMARK UNBOUND:                -1.730
REMARK SMILES O=c1c(O[C@@H]2O[C@H](CO)[C@@H](O)[C@H](O)[C@@H]2O)c(-c2ccc(O)c(O)c2)oc2cc(O)cc(O)c12
REMARK SMILES IDX 4 1 3 2 16 3 25 4 2 5 26 6 1 7 33 8 27 9 31 10 28 11 30 12
REMARK SMILES IDX 17 13 18 14 19 15 20 16 24 17 22 18 21 19 23 21 32 23 29 25
REMARK SMILES IDX 5 27 14 28 6 29 12 30 7 31 10 32 15 33 13 35 8 37 9 38 11 40
REMARK H PARENT 21 20 23 22 32 24 29 26 15 34 13 36 9 39 11 41
REMARK Flexibility Score: inf
ROOT
ATOM      1  O   UNL     1       9.761  -8.009 -27.538  1.00  0.00    -0.454 OA
ENDROOT
BRANCH   1   2
ATOM      2  C   UNL     1       9.666  -9.404 -27.708  1.00  0.00     0.214 A 
ATOM      3  C   UNL     1       8.438 -10.036 -27.424  1.00  0.00     0.180 A 
ATOM      4  O   UNL     1       8.294 -11.341 -27.624  1.00  0.00    -0.452 OA
ATOM      5  C   UNL     1      10.736 -10.201 -28.169  1.00  0.00     0.239 A 
ATOM      6  C   UNL     1       9.270 -12.123 -28.067  1.00  0.00     0.146 A 
ATOM      7  O   UNL     1      11.860  -9.681 -28.400  1.00  0.00    -0.285 OA
ATOM      8  C   UNL     1      10.544 -11.587 -28.359  1.00  0.00     0.111 A 
ATOM      9  C   UNL     1       9.020 -13.487 -28.241  1.00  0.00     0.094 A 
ATOM     10  C   UNL     1      11.565 -12.453 -28.825  1.00  0.00     0.134 A 
ATOM     11  C   UNL     1      10.031 -14.337 -28.702  1.00  0.00     0.123 A 
ATOM     12  C   UNL     1      11.296 -13.819 -28.991  1.00  0.00     0.093 A 
BRANCH   3  13
ATOM     13  C   UNL     1       7.265  -9.275 -26.945  1.00  0.00     0.025 A 
ATOM     14  C   UNL     1       6.210  -8.947 -27.809  1.00  0.00     0.016 A 
ATOM     15  C   UNL     1       5.110  -8.224 -27.340  1.00  0.00     0.051 A 
ATOM     16  C   UNL     1       5.060  -7.804 -26.004  1.00  0.00     0.157 A 
ATOM     17  C   UNL     1       7.224  -8.831 -25.613  1.00  0.00     0.062 A 
ATOM     18  C   UNL     1       6.125  -8.106 -25.138  1.00  0.00     0.158 A 
BRANCH  16  19
ATOM     19  O   UNL     1       3.961  -7.085 -25.536  1.00  0.00    -0.504 OA
ATOM     20  H   UNL     1       3.931  -6.073 -25.584  1.00  0.00     0.293 HD
ENDBRANCH  16  19
BRANCH  18  21
ATOM     21  O   UNL     1       6.110  -7.695 -23.806  1.00  0.00    -0.504 OA
ATOM     22  H   UNL     1       5.495  -6.961 -23.476  1.00  0.00     0.293 HD
ENDBRANCH  18  21
ENDBRANCH   3  13
BRANCH  10  23
ATOM     23  O   UNL     1      12.838 -11.969 -29.125  1.00  0.00    -0.507 OA
ATOM     24  H   UNL     1      13.666 -12.324 -28.661  1.00  0.00     0.293 HD
ENDBRANCH  10  23
BRANCH  11  25
ATOM     25  O   UNL     1       9.789 -15.698 -28.877  1.00  0.00    -0.508 OA
ATOM     26  H   UNL     1      10.533 -16.341 -29.124  1.00  0.00     0.293 HD
ENDBRANCH  11  25
ENDBRANCH   1   2
BRANCH   1  27
ATOM     27  C   UNL     1      10.158  -7.330 -26.342  1.00  0.00     0.339 C 
ATOM     28  C   UNL     1      11.450  -6.532 -26.576  1.00  0.00     0.214 C 
ATOM     29  O   UNL     1       9.114  -6.525 -25.810  1.00  0.00    -0.332 OA
ATOM     30  C   UNL     1      11.197  -5.321 -27.485  1.00  0.00     0.180 C 
ATOM     31  C   UNL     1       8.774  -5.398 -26.608  1.00  0.00     0.179 C 
ATOM     32  C   UNL     1       9.992  -4.504 -26.975  1.00  0.00     0.177 C 
BRANCH  28  33
ATOM     33  O   UNL     1      12.425  -7.372 -27.140  1.00  0.00    -0.384 OA
ATOM     34  H   UNL     1      13.095  -7.550 -26.429  1.00  0.00     0.211 HD
ENDBRANCH  28  33
BRANCH  30  35
ATOM     35  O   UNL     1      10.982  -5.749 -28.805  1.00  0.00    -0.387 OA
ATOM     36  H   UNL     1      10.776  -4.940 -29.343  1.00  0.00     0.211 HD
ENDBRANCH  30  35
BRANCH  31  37
ATOM     37  C   UNL     1       7.893  -5.778 -27.813  1.00  0.00     0.191 C 
BRANCH  37  38
ATOM     38  O   UNL     1       6.758  -4.957 -27.852  1.00  0.00    -0.394 OA
ATOM     39  H   UNL     1       5.982  -5.564 -27.972  1.00  0.00     0.210 HD
ENDBRANCH  37  38
ENDBRANCH  31  37
BRANCH  32  40
ATOM     40  O   UNL     1      10.373  -3.707 -25.879  1.00  0.00    -0.387 OA
ATOM     41  H   UNL     1      10.137  -2.766 -26.086  1.00  0.00     0.211 HD
ENDBRANCH  32  40
ENDBRANCH   1  27
TORSDOF 12
ENDMDL
MODEL 6
REMARK VINA RESULT:    -6.275      1.112      2.468
REMARK INTER + INTRA:         -10.939
REMARK INTER:                  -9.420
REMARK INTRA:                  -1.520
REMARK UNBOUND:                -1.730
REMARK SMILES O=c1c(O[C@@H]2O[C@H](CO)[C@@H](O)[C@H](O)[C@@H]2O)c(-c2ccc(O)c(O)c2)oc2cc(O)cc(O)c12
REMARK SMILES IDX 4 1 3 2 16 3 25 4 2 5 26 6 1 7 33 8 27 9 31 10 28 11 30 12
REMARK SMILES IDX 17 13 18 14 19 15 20 16 24 17 22 18 21 19 23 21 32 23 29 25
REMARK SMILES IDX 5 27 14 28 6 29 12 30 7 31 10 32 15 33 13 35 8 37 9 38 11 40
REMARK H PARENT 21 20 23 22 32 24 29 26 15 34 13 36 9 39 11 41
REMARK Flexibility Score: inf
ROOT
ATOM      1  O   UNL     1       7.451  -8.464 -26.985  1.00  0.00    -0.454 OA
ENDROOT
BRANCH   1   2
ATOM      2  C   UNL     1       8.189  -9.595 -27.384  1.00  0.00     0.214 A 
ATOM      3  C   UNL     1       9.564  -9.440 -27.656  1.00  0.00     0.180 A 
ATOM      4  O   UNL     1      10.306 -10.492 -27.982  1.00  0.00    -0.452 OA
ATOM      5  C   UNL     1       7.626 -10.883 -27.507  1.00  0.00     0.239 A 
ATOM      6  C   UNL     1       9.818 -11.720 -28.097  1.00  0.00     0.146 A 
ATOM      7  O   UNL     1       6.394 -11.058 -27.309  1.00  0.00    -0.285 OA
ATOM      8  C   UNL     1       8.447 -11.974 -27.868  1.00  0.00     0.111 A 
ATOM      9  C   UNL     1      10.680 -12.763 -28.451  1.00  0.00     0.094 A 
ATOM     10  C   UNL     1       7.960 -13.298 -28.005  1.00  0.00     0.134 A 
ATOM     11  C   UNL     1      10.193 -14.068 -28.584  1.00  0.00     0.123 A 
ATOM     12  C   UNL     1       8.840 -14.330 -28.362  1.00  0.00     0.093 A 
BRANCH   3  13
ATOM     13  C   UNL     1      10.235  -8.128 -27.543  1.00  0.00     0.025 A 
ATOM     14  C   UNL     1      11.245  -7.908 -26.594  1.00  0.00     0.016 A 
ATOM     15  C   UNL     1      11.866  -6.660 -26.499  1.00  0.00     0.051 A 
ATOM     16  C   UNL     1      11.474  -5.610 -27.341  1.00  0.00     0.157 A 
ATOM     17  C   UNL     1       9.828  -7.068 -28.368  1.00  0.00     0.062 A 
ATOM     18  C   UNL     1      10.446  -5.815 -28.277  1.00  0.00     0.158 A 
BRANCH  16  19
ATOM     19  O   UNL     1      12.096  -4.366 -27.247  1.00  0.00    -0.504 OA
ATOM     20  H   UNL     1      12.613  -4.094 -26.419  1.00  0.00     0.293 HD
ENDBRANCH  16  19
BRANCH  18  21
ATOM     21  O   UNL     1      10.027  -4.790 -29.124  1.00  0.00    -0.504 OA
ATOM     22  H   UNL     1      10.598  -4.459 -29.892  1.00  0.00     0.293 HD
ENDBRANCH  18  21
ENDBRANCH   3  13
BRANCH  10  23
ATOM     23  O   UNL     1       6.614 -13.595 -27.789  1.00  0.00    -0.507 OA
ATOM     24  H   UNL     1       6.325 -14.439 -27.309  1.00  0.00     0.293 HD
ENDBRANCH  10  23
BRANCH  11  25
ATOM     25  O   UNL     1      11.046 -15.110 -28.937  1.00  0.00    -0.508 OA
ATOM     26  H   UNL     1      12.045 -15.056 -28.773  1.00  0.00     0.293 HD
ENDBRANCH  11  25
ENDBRANCH   1   2
BRANCH   1  27
ATOM     27  C   UNL     1       6.776  -8.296 -25.734  1.00  0.00     0.339 C 
ATOM     28  C   UNL     1       7.046  -6.898 -25.156  1.00  0.00     0.214 C 
ATOM     29  O   UNL     1       5.386  -8.581 -25.831  1.00  0.00    -0.332 OA
ATOM     30  C   UNL     1       6.336  -5.812 -25.977  1.00  0.00     0.180 C 
ATOM     31  C   UNL     1       4.647  -7.652 -26.615  1.00  0.00     0.179 C 
ATOM     32  C   UNL     1       4.851  -6.173 -26.183  1.00  0.00     0.177 C 
BRANCH  28  33
ATOM     33  O   UNL     1       8.430  -6.663 -25.125  1.00  0.00    -0.384 OA
ATOM     34  H   UNL     1       8.823  -7.166 -25.886  1.00  0.00     0.211 HD
ENDBRANCH  28  33
BRANCH  30  35
ATOM     35  O   UNL     1       6.982  -5.648 -27.214  1.00  0.00    -0.387 OA
ATOM     36  H   UNL     1       7.712  -4.990 -27.075  1.00  0.00     0.211 HD
ENDBRANCH  30  35
BRANCH  31  37
ATOM     37  C   UNL     1       4.822  -7.890 -28.126  1.00  0.00     0.191 C 
BRANCH  37  38
ATOM     38  O   UNL     1       4.595  -9.240 -28.426  1.00  0.00    -0.394 OA
ATOM     39  H   UNL     1       4.119  -9.622 -27.644  1.00  0.00     0.210 HD
ENDBRANCH  37  38
ENDBRANCH  31  37
BRANCH  32  40
ATOM     40  O   UNL     1       4.115  -5.888 -25.017  1.00  0.00    -0.387 OA
ATOM     41  H   UNL     1       3.256  -6.380 -25.066  1.00  0.00     0.211 HD
ENDBRANCH  32  40
ENDBRANCH   1  27
TORSDOF 12
ENDMDL
MODEL 7
REMARK VINA RESULT:    -5.921      1.911      2.679
REMARK INTER + INTRA:         -10.420
REMARK INTER:                  -9.170
REMARK INTRA:                  -1.250
REMARK UNBOUND:                -1.730
REMARK SMILES O=c1c(O[C@@H]2O[C@H](CO)[C@@H](O)[C@H](O)[C@@H]2O)c(-c2ccc(O)c(O)c2)oc2cc(O)cc(O)c12
REMARK SMILES IDX 4 1 3 2 16 3 25 4 2 5 26 6 1 7 33 8 27 9 31 10 28 11 30 12
REMARK SMILES IDX 17 13 18 14 19 15 20 16 24 17 22 18 21 19 23 21 32 23 29 25
REMARK SMILES IDX 5 27 14 28 6 29 12 30 7 31 10 32 15 33 13 35 8 37 9 38 11 40
REMARK H PARENT 21 20 23 22 32 24 29 26 15 34 13 36 9 39 11 41
REMARK Flexibility Score: inf
ROOT
ATOM      1  O   UNL     1       6.814  -8.798 -26.857  1.00  0.00    -0.454 OA
ENDROOT
BRANCH   1   2
ATOM      2  C   UNL     1       7.010 -10.148 -27.204  1.00  0.00     0.214 A 
ATOM      3  C   UNL     1       8.326 -10.604 -27.421  1.00  0.00     0.180 A 
ATOM      4  O   UNL     1       8.556 -11.883 -27.696  1.00  0.00    -0.452 OA
ATOM      5  C   UNL     1       5.953 -11.077 -27.327  1.00  0.00     0.239 A 
ATOM      6  C   UNL     1       7.594 -12.789 -27.809  1.00  0.00     0.146 A 
ATOM      7  O   UNL     1       4.760 -10.703 -27.177  1.00  0.00    -0.285 OA
ATOM      8  C   UNL     1       6.240 -12.426 -27.632  1.00  0.00     0.111 A 
ATOM      9  C   UNL     1       7.938 -14.111 -28.106  1.00  0.00     0.094 A 
ATOM     10  C   UNL     1       5.238 -13.419 -27.764  1.00  0.00     0.134 A 
ATOM     11  C   UNL     1       6.944 -15.087 -28.235  1.00  0.00     0.123 A 
ATOM     12  C   UNL     1       5.603 -14.739 -28.065  1.00  0.00     0.093 A 
BRANCH   3  13
ATOM     13  C   UNL     1       9.490  -9.700 -27.305  1.00  0.00     0.025 A 
ATOM     14  C   UNL     1      10.318  -9.436 -28.407  1.00  0.00     0.016 A 
ATOM     15  C   UNL     1      11.415  -8.582 -28.278  1.00  0.00     0.051 A 
ATOM     16  C   UNL     1      11.710  -7.994 -27.041  1.00  0.00     0.157 A 
ATOM     17  C   UNL     1       9.802  -9.129 -26.061  1.00  0.00     0.062 A 
ATOM     18  C   UNL     1      10.902  -8.273 -25.926  1.00  0.00     0.158 A 
BRANCH  16  19
ATOM     19  O   UNL     1      12.805  -7.139 -26.914  1.00  0.00    -0.504 OA
ATOM     20  H   UNL     1      12.946  -6.361 -27.548  1.00  0.00     0.293 HD
ENDBRANCH  16  19
BRANCH  18  21
ATOM     21  O   UNL     1      11.172  -7.710 -24.679  1.00  0.00    -0.504 OA
ATOM     22  H   UNL     1      10.794  -8.094 -23.822  1.00  0.00     0.293 HD
ENDBRANCH  18  21
ENDBRANCH   3  13
BRANCH  10  23
ATOM     23  O   UNL     1       3.889 -13.106 -27.599  1.00  0.00    -0.507 OA
ATOM     24  H   UNL     1       3.351 -13.462 -26.818  1.00  0.00     0.293 HD
ENDBRANCH  10  23
BRANCH  11  25
ATOM     25  O   UNL     1       7.280 -16.406 -28.533  1.00  0.00    -0.508 OA
ATOM     26  H   UNL     1       8.184 -16.648 -28.921  1.00  0.00     0.293 HD
ENDBRANCH  11  25
ENDBRANCH   1   2
BRANCH   1  27
ATOM     27  C   UNL     1       5.605  -8.051 -27.026  1.00  0.00     0.339 C 
ATOM     28  C   UNL     1       5.057  -7.591 -25.666  1.00  0.00     0.214 C 
ATOM     29  O   UNL     1       5.764  -6.970 -27.937  1.00  0.00    -0.332 OA
ATOM     30  C   UNL     1       5.946  -6.502 -25.049  1.00  0.00     0.180 C 
ATOM     31  C   UNL     1       6.613  -5.928 -27.472  1.00  0.00     0.179 C 
ATOM     32  C   UNL     1       6.217  -5.380 -26.073  1.00  0.00     0.177 C 
BRANCH  28  33
ATOM     33  O   UNL     1       4.963  -8.694 -24.802  1.00  0.00    -0.384 OA
ATOM     34  H   UNL     1       5.736  -9.282 -25.003  1.00  0.00     0.211 HD
ENDBRANCH  28  33
BRANCH  30  35
ATOM     35  O   UNL     1       7.152  -7.065 -24.602  1.00  0.00    -0.387 OA
ATOM     36  H   UNL     1       7.700  -7.257 -25.408  1.00  0.00     0.211 HD
ENDBRANCH  30  35
BRANCH  31  37
ATOM     37  C   UNL     1       8.105  -6.284 -27.603  1.00  0.00     0.191 C 
BRANCH  37  38
ATOM     38  O   UNL     1       8.850  -5.580 -26.648  1.00  0.00    -0.394 OA
ATOM     39  H   UNL     1       8.316  -4.775 -26.418  1.00  0.00     0.210 HD
ENDBRANCH  37  38
ENDBRANCH  31  37
BRANCH  32  40
ATOM     40  O   UNL     1       5.099  -4.529 -26.168  1.00  0.00    -0.387 OA
ATOM     41  H   UNL     1       4.782  -4.332 -25.250  1.00  0.00     0.211 HD
ENDBRANCH  32  40
ENDBRANCH   1  27
TORSDOF 12
ENDMDL
MODEL 8
REMARK VINA RESULT:    -5.858      1.613      2.274
REMARK INTER + INTRA:         -10.328
REMARK INTER:                  -8.643
REMARK INTRA:                  -1.685
REMARK UNBOUND:                -1.730
REMARK SMILES O=c1c(O[C@@H]2O[C@H](CO)[C@@H](O)[C@H](O)[C@@H]2O)c(-c2ccc(O)c(O)c2)oc2cc(O)cc(O)c12
REMARK SMILES IDX 4 1 3 2 16 3 25 4 2 5 26 6 1 7 33 8 27 9 31 10 28 11 30 12
REMARK SMILES IDX 17 13 18 14 19 15 20 16 24 17 22 18 21 19 23 21 32 23 29 25
REMARK SMILES IDX 5 27 14 28 6 29 12 30 7 31 10 32 15 33 13 35 8 37 9 38 11 40
REMARK H PARENT 21 20 23 22 32 24 29 26 15 34 13 36 9 39 11 41
REMARK Flexibility Score: inf
ROOT
ATOM      1  O   UNL     1       7.134  -7.568 -26.232  1.00  0.00    -0.454 OA
ENDROOT
BRANCH   1   2
ATOM      2  C   UNL     1       7.643  -8.753 -26.796  1.00  0.00     0.214 A 
ATOM      3  C   UNL     1       8.815  -8.678 -27.578  1.00  0.00     0.180 A 
ATOM      4  O   UNL     1       9.356  -9.781 -28.082  1.00  0.00    -0.452 OA
ATOM      5  C   UNL     1       7.049 -10.019 -26.604  1.00  0.00     0.239 A 
ATOM      6  C   UNL     1       8.836 -10.990 -27.915  1.00  0.00     0.146 A 
ATOM      7  O   UNL     1       5.982 -10.125 -25.943  1.00  0.00    -0.285 OA
ATOM      8  C   UNL     1       7.651 -11.167 -27.167  1.00  0.00     0.111 A 
ATOM      9  C   UNL     1       9.479 -12.090 -28.491  1.00  0.00     0.094 A 
ATOM     10  C   UNL     1       7.121 -12.472 -27.013  1.00  0.00     0.134 A 
ATOM     11  C   UNL     1       8.952 -13.377 -28.335  1.00  0.00     0.123 A 
ATOM     12  C   UNL     1       7.779 -13.563 -27.600  1.00  0.00     0.093 A 
BRANCH   3  13
ATOM     13  C   UNL     1       9.504  -7.394 -27.822  1.00  0.00     0.025 A 
ATOM     14  C   UNL     1       9.152  -6.576 -28.907  1.00  0.00     0.016 A 
ATOM     15  C   UNL     1       9.817  -5.367 -29.125  1.00  0.00     0.051 A 
ATOM     16  C   UNL     1      10.854  -4.967 -28.270  1.00  0.00     0.157 A 
ATOM     17  C   UNL     1      10.559  -7.003 -26.982  1.00  0.00     0.062 A 
ATOM     18  C   UNL     1      11.229  -5.793 -27.197  1.00  0.00     0.158 A 
BRANCH  16  19
ATOM     19  O   UNL     1      11.515  -3.759 -28.487  1.00  0.00    -0.504 OA
ATOM     20  H   UNL     1      12.297  -3.690 -29.128  1.00  0.00     0.293 HD
ENDBRANCH  16  19
BRANCH  18  21
ATOM     21  O   UNL     1      12.262  -5.428 -26.334  1.00  0.00    -0.504 OA
ATOM     22  H   UNL     1      12.451  -5.935 -25.477  1.00  0.00     0.293 HD
ENDBRANCH  18  21
ENDBRANCH   3  13
BRANCH  10  23
ATOM     23  O   UNL     1       5.953 -12.694 -26.285  1.00  0.00    -0.507 OA
ATOM     24  H   UNL     1       5.494 -13.597 -26.275  1.00  0.00     0.293 HD
ENDBRANCH  10  23
BRANCH  11  25
ATOM     25  O   UNL     1       9.587 -14.477 -28.907  1.00  0.00    -0.508 OA
ATOM     26  H   UNL     1       9.769 -14.525 -29.903  1.00  0.00     0.293 HD
ENDBRANCH  11  25
ENDBRANCH   1   2
BRANCH   1  27
ATOM     27  C   UNL     1       6.180  -6.688 -26.835  1.00  0.00     0.339 C 
ATOM     28  C   UNL     1       4.889  -6.634 -26.002  1.00  0.00     0.214 C 
ATOM     29  O   UNL     1       6.721  -5.396 -27.078  1.00  0.00    -0.332 OA
ATOM     30  C   UNL     1       5.116  -5.894 -24.676  1.00  0.00     0.180 C 
ATOM     31  C   UNL     1       7.009  -4.647 -25.903  1.00  0.00     0.179 C 
ATOM     32  C   UNL     1       5.807  -4.538 -24.924  1.00  0.00     0.177 C 
BRANCH  28  33
ATOM     33  O   UNL     1       4.431  -7.940 -25.763  1.00  0.00    -0.384 OA
ATOM     34  H   UNL     1       4.806  -8.511 -26.482  1.00  0.00     0.211 HD
ENDBRANCH  28  33
BRANCH  30  35
ATOM     35  O   UNL     1       5.883  -6.690 -23.809  1.00  0.00    -0.387 OA
ATOM     36  H   UNL     1       6.246  -7.441 -24.349  1.00  0.00     0.211 HD
ENDBRANCH  30  35
BRANCH  31  37
ATOM     37  C   UNL     1       8.322  -5.092 -25.232  1.00  0.00     0.191 C 
BRANCH  37  38
ATOM     38  O   UNL     1       8.239  -4.899 -23.847  1.00  0.00    -0.394 OA
ATOM     39  H   UNL     1       9.165  -4.986 -23.499  1.00  0.00     0.210 HD
ENDBRANCH  37  38
ENDBRANCH  31  37
BRANCH  32  40
ATOM     40  O   UNL     1       4.871  -3.593 -25.386  1.00  0.00    -0.387 OA
ATOM     41  H   UNL     1       4.991  -3.494 -26.366  1.00  0.00     0.211 HD
ENDBRANCH  32  40
ENDBRANCH   1  27
TORSDOF 12
ENDMDL
MODEL 9
REMARK VINA RESULT:    -5.835      2.671      8.092
REMARK INTER + INTRA:         -10.294
REMARK INTER:                  -8.847
REMARK INTRA:                  -1.447
REMARK UNBOUND:                -1.730
REMARK SMILES O=c1c(O[C@@H]2O[C@H](CO)[C@@H](O)[C@H](O)[C@@H]2O)c(-c2ccc(O)c(O)c2)oc2cc(O)cc(O)c12
REMARK SMILES IDX 4 1 3 2 16 3 25 4 2 5 26 6 1 7 33 8 27 9 31 10 28 11 30 12
REMARK SMILES IDX 17 13 18 14 19 15 20 16 24 17 22 18 21 19 23 21 32 23 29 25
REMARK SMILES IDX 5 27 14 28 6 29 12 30 7 31 10 32 15 33 13 35 8 37 9 38 11 40
REMARK H PARENT 21 20 23 22 32 24 29 26 15 34 13 36 9 39 11 41
REMARK Flexibility Score: inf
ROOT
ATOM      1  O   UNL     1       9.898  -6.799 -26.963  1.00  0.00    -0.454 OA
ENDROOT
BRANCH   1   2
ATOM      2  C   UNL     1       8.738  -6.208 -26.427  1.00  0.00     0.214 A 
ATOM      3  C   UNL     1       7.527  -6.929 -26.483  1.00  0.00     0.180 A 
ATOM      4  O   UNL     1       6.423  -6.428 -25.940  1.00  0.00    -0.452 OA
ATOM      5  C   UNL     1       8.729  -4.934 -25.818  1.00  0.00     0.239 A 
ATOM      6  C   UNL     1       6.375  -5.241 -25.349  1.00  0.00     0.146 A 
ATOM      7  O   UNL     1       9.781  -4.243 -25.781  1.00  0.00    -0.285 OA
ATOM      8  C   UNL     1       7.531  -4.433 -25.263  1.00  0.00     0.111 A 
ATOM      9  C   UNL     1       5.163  -4.799 -24.811  1.00  0.00     0.094 A 
ATOM     10  C   UNL     1       7.442  -3.169 -24.629  1.00  0.00     0.134 A 
ATOM     11  C   UNL     1       5.081  -3.551 -24.185  1.00  0.00     0.123 A 
ATOM     12  C   UNL     1       6.216  -2.743 -24.097  1.00  0.00     0.093 A 
BRANCH   3  13
ATOM     13  C   UNL     1       7.450  -8.272 -27.095  1.00  0.00     0.025 A 
ATOM     14  C   UNL     1       7.545  -8.443 -28.485  1.00  0.00     0.016 A 
ATOM     15  C   UNL     1       7.467  -9.719 -29.046  1.00  0.00     0.051 A 
ATOM     16  C   UNL     1       7.275 -10.841 -28.228  1.00  0.00     0.157 A 
ATOM     17  C   UNL     1       7.233  -9.394 -26.280  1.00  0.00     0.062 A 
ATOM     18  C   UNL     1       7.153 -10.675 -26.837  1.00  0.00     0.158 A 
BRANCH  16  19
ATOM     19  O   UNL     1       7.200 -12.115 -28.790  1.00  0.00    -0.504 OA
ATOM     20  H   UNL     1       6.709 -12.281 -29.660  1.00  0.00     0.293 HD
ENDBRANCH  16  19
BRANCH  18  21
ATOM     21  O   UNL     1       6.953 -11.769 -25.996  1.00  0.00    -0.504 OA
ATOM     22  H   UNL     1       7.724 -12.261 -25.561  1.00  0.00     0.293 HD
ENDBRANCH  18  21
ENDBRANCH   3  13
BRANCH  10  23
ATOM     23  O   UNL     1       8.556  -2.337 -24.522  1.00  0.00    -0.507 OA
ATOM     24  H   UNL     1       8.619  -1.619 -23.810  1.00  0.00     0.293 HD
ENDBRANCH  10  23
BRANCH  11  25
ATOM     25  O   UNL     1       3.875  -3.104 -23.648  1.00  0.00    -0.508 OA
ATOM     26  H   UNL     1       3.066  -3.711 -23.585  1.00  0.00     0.293 HD
ENDBRANCH  11  25
ENDBRANCH   1   2
BRANCH   1  27
ATOM     27  C   UNL     1      11.037  -7.244 -26.221  1.00  0.00     0.339 C 
ATOM     28  C   UNL     1      11.566  -8.574 -26.783  1.00  0.00     0.214 C 
ATOM     29  O   UNL     1      12.051  -6.250 -26.145  1.00  0.00    -0.332 OA
ATOM     30  C   UNL     1      12.218  -8.374 -28.158  1.00  0.00     0.180 C 
ATOM     31  C   UNL     1      12.686  -5.960 -27.385  1.00  0.00     0.179 C 
ATOM     32  C   UNL     1      13.239  -7.219 -28.110  1.00  0.00     0.177 C 
BRANCH  28  33
ATOM     33  O   UNL     1      10.511  -9.497 -26.871  1.00  0.00    -0.384 OA
ATOM     34  H   UNL     1       9.764  -9.132 -26.327  1.00  0.00     0.211 HD
ENDBRANCH  28  33
BRANCH  30  35
ATOM     35  O   UNL     1      11.231  -8.124 -29.125  1.00  0.00    -0.387 OA
ATOM     36  H   UNL     1      11.466  -7.264 -29.563  1.00  0.00     0.211 HD
ENDBRANCH  30  35
BRANCH  31  37
ATOM     37  C   UNL     1      11.830  -5.048 -28.283  1.00  0.00     0.191 C 
BRANCH  37  38
ATOM     38  O   UNL     1      11.702  -3.783 -27.696  1.00  0.00    -0.394 OA
ATOM     39  H   UNL     1      12.123  -3.849 -26.800  1.00  0.00     0.210 HD
ENDBRANCH  37  38
ENDBRANCH  31  37
BRANCH  32  40
ATOM     40  O   UNL     1      14.437  -7.653 -27.512  1.00  0.00    -0.387 OA
ATOM     41  H   UNL     1      15.037  -7.984 -28.229  1.00  0.00     0.211 HD
ENDBRANCH  32  40
ENDBRANCH   1  27
TORSDOF 12
ENDMDL
