MODEL 1
REMARK VINA RESULT:    -6.537      0.000      0.000
REMARK INTER + INTRA:          -8.341
REMARK INTER:                  -8.065
REMARK INTRA:                  -0.276
REMARK UNBOUND:                -0.276
REMARK SMILES Oc1cc(O)c2cc(O)c(-c3cc(O)c(O)c(O)c3)[o+]c2c1
REMARK SMILES IDX 10 1 20 2 21 3 22 4 2 5 3 6 4 7 6 8 7 9 8 10 11 11 12 12
REMARK SMILES IDX 13 13 19 14 15 15 17 16 14 17 16 19 18 21 9 23 1 25 5 27
REMARK H PARENT 14 18 16 20 18 22 9 24 1 26 5 28
REMARK Flexibility Score: inf
ROOT
ATOM      1  C   UNL     1      11.665  40.996   0.348  1.00  0.00     0.402 A 
ATOM      2  O   UNL     1      12.778  41.381   0.967  1.00  0.00    -0.202 OA
ATOM      3  C   UNL     1      13.218  40.825   2.092  1.00  0.00     0.368 A 
ATOM      4  C   UNL     1      14.400  41.297   2.667  1.00  0.00     0.162 A 
ATOM      5  C   UNL     1      14.886  40.727   3.848  1.00  0.00     0.128 A 
ATOM      6  C   UNL     1      14.187  39.682   4.455  1.00  0.00     0.093 A 
ATOM      7  C   UNL     1      12.999  39.191   3.898  1.00  0.00     0.136 A 
ATOM      8  C   UNL     1      12.500  39.767   2.701  1.00  0.00     0.125 A 
ATOM      9  C   UNL     1      11.313  39.349   2.079  1.00  0.00     0.078 A 
ATOM     10  C   UNL     1      10.881  39.968   0.903  1.00  0.00     0.223 A 
ENDROOT
BRANCH   1  11
ATOM     11  C   UNL     1      11.287  41.688  -0.905  1.00  0.00     0.091 A 
ATOM     12  C   UNL     1      10.197  42.570  -0.905  1.00  0.00     0.068 A 
ATOM     13  C   UNL     1       9.823  43.255  -2.066  1.00  0.00     0.162 A 
ATOM     14  C   UNL     1      12.031  41.523  -2.085  1.00  0.00     0.068 A 
ATOM     15  C   UNL     1      10.564  43.066  -3.258  1.00  0.00     0.200 A 
ATOM     16  C   UNL     1      11.669  42.202  -3.254  1.00  0.00     0.162 A 
BRANCH  13  17
ATOM     17  O   UNL     1       8.720  44.108  -1.991  1.00  0.00    -0.504 OA
ATOM     18  H   UNL     1       8.589  44.802  -1.269  1.00  0.00     0.293 HD
ENDBRANCH  13  17
BRANCH  15  19
ATOM     19  O   UNL     1      10.242  43.714  -4.453  1.00  0.00    -0.502 OA
ATOM     20  H   UNL     1      10.028  44.699  -4.523  1.00  0.00     0.293 HD
ENDBRANCH  15  19
BRANCH  16  21
ATOM     21  O   UNL     1      12.407  42.028  -4.423  1.00  0.00    -0.504 OA
ATOM     22  H   UNL     1      11.958  41.930  -5.326  1.00  0.00     0.293 HD
ENDBRANCH  16  21
ENDBRANCH   1  11
BRANCH  10  23
ATOM     23  O   UNL     1       9.676  39.586   0.313  1.00  0.00    -0.500 OA
ATOM     24  H   UNL     1       9.254  40.125  -0.434  1.00  0.00     0.294 HD
ENDBRANCH  10  23
BRANCH   5  25
ATOM     25  O   UNL     1      16.064  41.193   4.427  1.00  0.00    -0.507 OA
ATOM     26  H   UNL     1      16.111  41.439   5.409  1.00  0.00     0.293 HD
ENDBRANCH   5  25
BRANCH   7  27
ATOM     27  O   UNL     1      12.362  38.141   4.566  1.00  0.00    -0.507 OA
ATOM     28  H   UNL     1      12.839  37.342   4.957  1.00  0.00     0.293 HD
ENDBRANCH   7  27
TORSDOF 7
ENDMDL
MODEL 2
REMARK VINA RESULT:    -6.131      1.697      7.029
REMARK INTER + INTRA:          -7.840
REMARK INTER:                  -7.606
REMARK INTRA:                  -0.234
REMARK UNBOUND:                -0.276
REMARK SMILES Oc1cc(O)c2cc(O)c(-c3cc(O)c(O)c(O)c3)[o+]c2c1
REMARK SMILES IDX 10 1 20 2 21 3 22 4 2 5 3 6 4 7 6 8 7 9 8 10 11 11 12 12
REMARK SMILES IDX 13 13 19 14 15 15 17 16 14 17 16 19 18 21 9 23 1 25 5 27
REMARK H PARENT 14 18 16 20 18 22 9 24 1 26 5 28
REMARK Flexibility Score: inf
ROOT
ATOM      1  C   UNL     1      11.472  41.384  -0.912  1.00  0.00     0.402 A 
ATOM      2  O   UNL     1      12.523  41.549  -1.710  1.00  0.00    -0.202 OA
ATOM      3  C   UNL     1      12.471  42.218  -2.858  1.00  0.00     0.368 A 
ATOM      4  C   UNL     1      13.631  42.340  -3.627  1.00  0.00     0.162 A 
ATOM      5  C   UNL     1      13.604  43.041  -4.836  1.00  0.00     0.128 A 
ATOM      6  C   UNL     1      12.413  43.621  -5.278  1.00  0.00     0.093 A 
ATOM      7  C   UNL     1      11.237  43.513  -4.525  1.00  0.00     0.136 A 
ATOM      8  C   UNL     1      11.258  42.800  -3.297  1.00  0.00     0.125 A 
ATOM      9  C   UNL     1      10.126  42.630  -2.484  1.00  0.00     0.078 A 
ATOM     10  C   UNL     1      10.223  41.910  -1.289  1.00  0.00     0.223 A 
ENDROOT
BRANCH   1  11
ATOM     11  C   UNL     1      11.661  40.627   0.347  1.00  0.00     0.091 A 
ATOM     12  C   UNL     1      11.052  39.374   0.498  1.00  0.00     0.068 A 
ATOM     13  C   UNL     1      11.224  38.622   1.665  1.00  0.00     0.162 A 
ATOM     14  C   UNL     1      12.484  41.113   1.375  1.00  0.00     0.068 A 
ATOM     15  C   UNL     1      12.038  39.129   2.707  1.00  0.00     0.200 A 
ATOM     16  C   UNL     1      12.667  40.372   2.549  1.00  0.00     0.162 A 
BRANCH  13  17
ATOM     17  O   UNL     1      10.576  37.388   1.746  1.00  0.00    -0.504 OA
ATOM     18  H   UNL     1       9.901  37.150   2.458  1.00  0.00     0.293 HD
ENDBRANCH  13  17
BRANCH  15  19
ATOM     19  O   UNL     1      12.248  38.434   3.901  1.00  0.00    -0.502 OA
ATOM     20  H   UNL     1      12.057  37.450   4.024  1.00  0.00     0.293 HD
ENDBRANCH  15  19
BRANCH  16  21
ATOM     21  O   UNL     1      13.480  40.864   3.569  1.00  0.00    -0.504 OA
ATOM     22  H   UNL     1      14.169  40.279   4.029  1.00  0.00     0.293 HD
ENDBRANCH  16  21
ENDBRANCH   1  11
BRANCH  10  23
ATOM     23  O   UNL     1       9.088  41.698  -0.506  1.00  0.00    -0.500 OA
ATOM     24  H   UNL     1       8.211  42.166  -0.702  1.00  0.00     0.294 HD
ENDBRANCH  10  23
BRANCH   5  25
ATOM     25  O   UNL     1      14.756  43.167  -5.609  1.00  0.00    -0.507 OA
ATOM     26  H   UNL     1      14.825  43.854  -6.350  1.00  0.00     0.293 HD
ENDBRANCH   5  25
BRANCH   7  27
ATOM     27  O   UNL     1      10.088  44.125  -5.034  1.00  0.00    -0.507 OA
ATOM     28  H   UNL     1       9.678  44.969  -4.660  1.00  0.00     0.293 HD
ENDBRANCH   7  27
TORSDOF 7
ENDMDL
MODEL 3
REMARK VINA RESULT:    -5.553      1.800      7.030
REMARK INTER + INTRA:          -7.127
REMARK INTER:                  -6.758
REMARK INTRA:                  -0.369
REMARK UNBOUND:                -0.276
REMARK SMILES Oc1cc(O)c2cc(O)c(-c3cc(O)c(O)c(O)c3)[o+]c2c1
REMARK SMILES IDX 10 1 20 2 21 3 22 4 2 5 3 6 4 7 6 8 7 9 8 10 11 11 12 12
REMARK SMILES IDX 13 13 19 14 15 15 17 16 14 17 16 19 18 21 9 23 1 25 5 27
REMARK H PARENT 14 18 16 20 18 22 9 24 1 26 5 28
REMARK Flexibility Score: inf
ROOT
ATOM      1  C   UNL     1      12.643  40.335   1.821  1.00  0.00     0.402 A 
ATOM      2  O   UNL     1      13.093  41.201   0.916  1.00  0.00    -0.202 OA
ATOM      3  C   UNL     1      12.353  41.656  -0.090  1.00  0.00     0.368 A 
ATOM      4  C   UNL     1      12.915  42.566  -0.989  1.00  0.00     0.162 A 
ATOM      5  C   UNL     1      12.158  43.064  -2.054  1.00  0.00     0.128 A 
ATOM      6  C   UNL     1      10.835  42.648  -2.221  1.00  0.00     0.093 A 
ATOM      7  C   UNL     1      10.249  41.736  -1.334  1.00  0.00     0.136 A 
ATOM      8  C   UNL     1      11.014  41.227  -0.252  1.00  0.00     0.125 A 
ATOM      9  C   UNL     1      10.514  40.301   0.678  1.00  0.00     0.078 A 
ATOM     10  C   UNL     1      11.330  39.840   1.716  1.00  0.00     0.223 A 
ENDROOT
BRANCH   1  11
ATOM     11  C   UNL     1      13.561  39.911   2.902  1.00  0.00     0.091 A 
ATOM     12  C   UNL     1      13.645  40.674   4.075  1.00  0.00     0.068 A 
ATOM     13  C   UNL     1      14.487  40.294   5.125  1.00  0.00     0.162 A 
ATOM     14  C   UNL     1      14.312  38.730   2.802  1.00  0.00     0.068 A 
ATOM     15  C   UNL     1      15.259  39.112   5.008  1.00  0.00     0.200 A 
ATOM     16  C   UNL     1      15.160  38.336   3.845  1.00  0.00     0.162 A 
BRANCH  13  17
ATOM     17  O   UNL     1      14.525  41.110   6.257  1.00  0.00    -0.504 OA
ATOM     18  H   UNL     1      14.350  40.784   7.197  1.00  0.00     0.293 HD
ENDBRANCH  13  17
BRANCH  15  19
ATOM     19  O   UNL     1      16.124  38.678   6.015  1.00  0.00    -0.502 OA
ATOM     20  H   UNL     1      16.317  39.198   6.859  1.00  0.00     0.293 HD
ENDBRANCH  15  19
BRANCH  16  21
ATOM     21  O   UNL     1      15.908  37.165   3.735  1.00  0.00    -0.504 OA
ATOM     22  H   UNL     1      16.918  37.185   3.651  1.00  0.00     0.293 HD
ENDBRANCH  16  21
ENDBRANCH   1  11
BRANCH  10  23
ATOM     23  O   UNL     1      10.850  38.882   2.610  1.00  0.00    -0.500 OA
ATOM     24  H   UNL     1      11.446  38.466   3.316  1.00  0.00     0.294 HD
ENDBRANCH  10  23
BRANCH   5  25
ATOM     25  O   UNL     1      12.711  43.972  -2.954  1.00  0.00    -0.507 OA
ATOM     26  H   UNL     1      13.220  43.662  -3.774  1.00  0.00     0.293 HD
ENDBRANCH   5  25
BRANCH   7  27
ATOM     27  O   UNL     1       8.919  41.374  -1.569  1.00  0.00    -0.507 OA
ATOM     28  H   UNL     1       8.128  41.754  -1.069  1.00  0.00     0.293 HD
ENDBRANCH   7  27
TORSDOF 7
ENDMDL
MODEL 4
REMARK VINA RESULT:    -5.544     10.638     13.215
REMARK INTER + INTRA:          -7.116
REMARK INTER:                  -6.757
REMARK INTRA:                  -0.358
REMARK UNBOUND:                -0.276
REMARK SMILES Oc1cc(O)c2cc(O)c(-c3cc(O)c(O)c(O)c3)[o+]c2c1
REMARK SMILES IDX 10 1 20 2 21 3 22 4 2 5 3 6 4 7 6 8 7 9 8 10 11 11 12 12
REMARK SMILES IDX 13 13 19 14 15 15 17 16 14 17 16 19 18 21 9 23 1 25 5 27
REMARK H PARENT 14 18 16 20 18 22 9 24 1 26 5 28
REMARK Flexibility Score: inf
ROOT
ATOM      1  C   UNL     1       5.541  33.908  -6.128  1.00  0.00     0.402 A 
ATOM      2  O   UNL     1       4.696  34.689  -5.459  1.00  0.00    -0.202 OA
ATOM      3  C   UNL     1       4.769  36.016  -5.461  1.00  0.00     0.368 A 
ATOM      4  C   UNL     1       3.834  36.750  -4.729  1.00  0.00     0.162 A 
ATOM      5  C   UNL     1       3.887  38.147  -4.717  1.00  0.00     0.128 A 
ATOM      6  C   UNL     1       4.881  38.812  -5.439  1.00  0.00     0.093 A 
ATOM      7  C   UNL     1       5.831  38.098  -6.181  1.00  0.00     0.136 A 
ATOM      8  C   UNL     1       5.782  36.680  -6.195  1.00  0.00     0.125 A 
ATOM      9  C   UNL     1       6.699  35.883  -6.899  1.00  0.00     0.078 A 
ATOM     10  C   UNL     1       6.591  34.489  -6.861  1.00  0.00     0.223 A 
ENDROOT
BRANCH   1  11
ATOM     11  C   UNL     1       5.347  32.442  -6.055  1.00  0.00     0.091 A 
ATOM     12  C   UNL     1       5.720  31.753  -4.893  1.00  0.00     0.068 A 
ATOM     13  C   UNL     1       5.534  30.371  -4.781  1.00  0.00     0.162 A 
ATOM     14  C   UNL     1       4.744  31.732  -7.105  1.00  0.00     0.068 A 
ATOM     15  C   UNL     1       4.946  29.657  -5.854  1.00  0.00     0.200 A 
ATOM     16  C   UNL     1       4.550  30.348  -7.008  1.00  0.00     0.162 A 
BRANCH  13  17
ATOM     17  O   UNL     1       5.942  29.753  -3.597  1.00  0.00    -0.504 OA
ATOM     18  H   UNL     1       6.361  30.242  -2.819  1.00  0.00     0.293 HD
ENDBRANCH  13  17
BRANCH  15  19
ATOM     19  O   UNL     1       4.736  28.277  -5.811  1.00  0.00    -0.502 OA
ATOM     20  H   UNL     1       4.227  27.759  -6.513  1.00  0.00     0.293 HD
ENDBRANCH  15  19
BRANCH  16  21
ATOM     21  O   UNL     1       3.957  29.648  -8.057  1.00  0.00    -0.504 OA
ATOM     22  H   UNL     1       3.500  28.755  -7.909  1.00  0.00     0.293 HD
ENDBRANCH  16  21
ENDBRANCH   1  11
BRANCH  10  23
ATOM     23  O   UNL     1       7.532  33.697  -7.519  1.00  0.00    -0.500 OA
ATOM     24  H   UNL     1       7.513  32.686  -7.459  1.00  0.00     0.294 HD
ENDBRANCH  10  23
BRANCH   5  25
ATOM     25  O   UNL     1       2.957  38.886  -3.990  1.00  0.00    -0.507 OA
ATOM     26  H   UNL     1       3.159  39.218  -3.054  1.00  0.00     0.293 HD
ENDBRANCH   5  25
BRANCH   7  27
ATOM     27  O   UNL     1       6.790  38.838  -6.879  1.00  0.00    -0.507 OA
ATOM     28  H   UNL     1       6.604  39.714  -7.346  1.00  0.00     0.293 HD
ENDBRANCH   7  27
TORSDOF 7
ENDMDL
MODEL 5
REMARK VINA RESULT:    -5.365     11.358     12.894
REMARK INTER + INTRA:          -6.895
REMARK INTER:                  -6.601
REMARK INTRA:                  -0.293
REMARK UNBOUND:                -0.276
REMARK SMILES Oc1cc(O)c2cc(O)c(-c3cc(O)c(O)c(O)c3)[o+]c2c1
REMARK SMILES IDX 10 1 20 2 21 3 22 4 2 5 3 6 4 7 6 8 7 9 8 10 11 11 12 12
REMARK SMILES IDX 13 13 19 14 15 15 17 16 14 17 16 19 18 21 9 23 1 25 5 27
REMARK H PARENT 14 18 16 20 18 22 9 24 1 26 5 28
REMARK Flexibility Score: inf
ROOT
ATOM      1  C   UNL     1       8.340  30.696   5.468  1.00  0.00     0.402 A 
ATOM      2  O   UNL     1       9.503  31.071   5.995  1.00  0.00    -0.202 OA
ATOM      3  C   UNL     1       9.632  32.105   6.820  1.00  0.00     0.368 A 
ATOM      4  C   UNL     1      10.897  32.420   7.323  1.00  0.00     0.162 A 
ATOM      5  C   UNL     1      11.060  33.500   8.196  1.00  0.00     0.128 A 
ATOM      6  C   UNL     1       9.954  34.269   8.565  1.00  0.00     0.093 A 
ATOM      7  C   UNL     1       8.676  33.974   8.073  1.00  0.00     0.136 A 
ATOM      8  C   UNL     1       8.505  32.880   7.186  1.00  0.00     0.125 A 
ATOM      9  C   UNL     1       7.265  32.519   6.635  1.00  0.00     0.078 A 
ATOM     10  C   UNL     1       7.176  31.430   5.762  1.00  0.00     0.223 A 
ENDROOT
BRANCH   1  11
ATOM     11  C   UNL     1       8.325  29.519   4.570  1.00  0.00     0.091 A 
ATOM     12  C   UNL     1       8.994  29.581   3.340  1.00  0.00     0.068 A 
ATOM     13  C   UNL     1       9.018  28.482   2.475  1.00  0.00     0.162 A 
ATOM     14  C   UNL     1       7.700  28.320   4.947  1.00  0.00     0.068 A 
ATOM     15  C   UNL     1       8.366  27.283   2.852  1.00  0.00     0.200 A 
ATOM     16  C   UNL     1       7.715  27.211   4.092  1.00  0.00     0.162 A 
BRANCH  13  17
ATOM     17  O   UNL     1       9.695  28.623   1.262  1.00  0.00    -0.504 OA
ATOM     18  H   UNL     1       9.533  28.041   0.453  1.00  0.00     0.293 HD
ENDBRANCH  13  17
BRANCH  15  19
ATOM     19  O   UNL     1       8.345  26.150   2.034  1.00  0.00    -0.502 OA
ATOM     20  H   UNL     1       8.176  26.173   1.039  1.00  0.00     0.293 HD
ENDBRANCH  15  19
BRANCH  16  21
ATOM     21  O   UNL     1       7.086  26.026   4.470  1.00  0.00    -0.504 OA
ATOM     22  H   UNL     1       6.113  26.008   4.752  1.00  0.00     0.293 HD
ENDBRANCH  16  21
ENDBRANCH   1  11
BRANCH  10  23
ATOM     23  O   UNL     1       5.954  31.102   5.176  1.00  0.00    -0.500 OA
ATOM     24  H   UNL     1       5.535  31.681   4.457  1.00  0.00     0.294 HD
ENDBRANCH  10  23
BRANCH   5  25
ATOM     25  O   UNL     1      12.318  33.819   8.702  1.00  0.00    -0.507 OA
ATOM     26  H   UNL     1      13.083  34.084   8.092  1.00  0.00     0.293 HD
ENDBRANCH   5  25
BRANCH   7  27
ATOM     27  O   UNL     1       7.621  34.790   8.494  1.00  0.00    -0.507 OA
ATOM     28  H   UNL     1       7.475  35.085   9.449  1.00  0.00     0.293 HD
ENDBRANCH   7  27
TORSDOF 7
ENDMDL
MODEL 6
REMARK VINA RESULT:    -5.324     11.209     13.996
REMARK INTER + INTRA:          -6.845
REMARK INTER:                  -6.462
REMARK INTRA:                  -0.383
REMARK UNBOUND:                -0.276
REMARK SMILES Oc1cc(O)c2cc(O)c(-c3cc(O)c(O)c(O)c3)[o+]c2c1
REMARK SMILES IDX 10 1 20 2 21 3 22 4 2 5 3 6 4 7 6 8 7 9 8 10 11 11 12 12
REMARK SMILES IDX 13 13 19 14 15 15 17 16 14 17 16 19 18 21 9 23 1 25 5 27
REMARK H PARENT 14 18 16 20 18 22 9 24 1 26 5 28
REMARK Flexibility Score: inf
ROOT
ATOM      1  C   UNL     1       9.061  30.287   5.480  1.00  0.00     0.402 A 
ATOM      2  O   UNL     1       8.458  29.245   6.047  1.00  0.00    -0.202 OA
ATOM      3  C   UNL     1       7.972  28.218   5.358  1.00  0.00     0.368 A 
ATOM      4  C   UNL     1       7.357  27.168   6.045  1.00  0.00     0.162 A 
ATOM      5  C   UNL     1       6.840  26.075   5.344  1.00  0.00     0.128 A 
ATOM      6  C   UNL     1       6.937  26.032   3.951  1.00  0.00     0.093 A 
ATOM      7  C   UNL     1       7.547  27.073   3.240  1.00  0.00     0.136 A 
ATOM      8  C   UNL     1       8.072  28.186   3.946  1.00  0.00     0.125 A 
ATOM      9  C   UNL     1       8.689  29.279   3.316  1.00  0.00     0.078 A 
ATOM     10  C   UNL     1       9.178  30.343   4.079  1.00  0.00     0.223 A 
ENDROOT
BRANCH   1  11
ATOM     11  C   UNL     1       9.571  31.364   6.358  1.00  0.00     0.091 A 
ATOM     12  C   UNL     1       8.688  32.345   6.832  1.00  0.00     0.068 A 
ATOM     13  C   UNL     1       9.131  33.367   7.680  1.00  0.00     0.162 A 
ATOM     14  C   UNL     1      10.911  31.395   6.774  1.00  0.00     0.068 A 
ATOM     15  C   UNL     1      10.490  33.404   8.076  1.00  0.00     0.200 A 
ATOM     16  C   UNL     1      11.369  32.411   7.622  1.00  0.00     0.162 A 
BRANCH  13  17
ATOM     17  O   UNL     1       8.195  34.314   8.101  1.00  0.00    -0.504 OA
ATOM     18  H   UNL     1       7.873  34.406   9.053  1.00  0.00     0.293 HD
ENDBRANCH  13  17
BRANCH  15  19
ATOM     19  O   UNL     1      10.999  34.398   8.915  1.00  0.00    -0.502 OA
ATOM     20  H   UNL     1      10.469  35.196   9.235  1.00  0.00     0.293 HD
ENDBRANCH  15  19
BRANCH  16  21
ATOM     21  O   UNL     1      12.703  32.440   8.024  1.00  0.00    -0.504 OA
ATOM     22  H   UNL     1      13.431  31.984   7.485  1.00  0.00     0.293 HD
ENDBRANCH  16  21
ENDBRANCH   1  11
BRANCH  10  23
ATOM     23  O   UNL     1       9.746  31.452   3.450  1.00  0.00    -0.500 OA
ATOM     24  H   UNL     1      10.632  31.841   3.752  1.00  0.00     0.294 HD
ENDBRANCH  10  23
BRANCH   5  25
ATOM     25  O   UNL     1       6.226  25.024   6.022  1.00  0.00    -0.507 OA
ATOM     26  H   UNL     1       5.994  24.155   5.554  1.00  0.00     0.293 HD
ENDBRANCH   5  25
BRANCH   7  27
ATOM     27  O   UNL     1       7.607  26.952   1.848  1.00  0.00    -0.507 OA
ATOM     28  H   UNL     1       7.368  27.690   1.202  1.00  0.00     0.293 HD
ENDBRANCH   7  27
TORSDOF 7
ENDMDL
MODEL 7
REMARK VINA RESULT:    -5.261     10.493     12.971
REMARK INTER + INTRA:          -6.767
REMARK INTER:                  -6.499
REMARK INTRA:                  -0.268
REMARK UNBOUND:                -0.276
REMARK SMILES Oc1cc(O)c2cc(O)c(-c3cc(O)c(O)c(O)c3)[o+]c2c1
REMARK SMILES IDX 10 1 20 2 21 3 22 4 2 5 3 6 4 7 6 8 7 9 8 10 11 11 12 12
REMARK SMILES IDX 13 13 19 14 15 15 17 16 14 17 16 19 18 21 9 23 1 25 5 27
REMARK H PARENT 14 18 16 20 18 22 9 24 1 26 5 28
REMARK Flexibility Score: inf
ROOT
ATOM      1  C   UNL     1       7.135  33.295   7.109  1.00  0.00     0.402 A 
ATOM      2  O   UNL     1       6.691  33.502   5.872  1.00  0.00    -0.202 OA
ATOM      3  C   UNL     1       5.410  33.705   5.580  1.00  0.00     0.368 A 
ATOM      4  C   UNL     1       5.041  33.916   4.249  1.00  0.00     0.162 A 
ATOM      5  C   UNL     1       3.702  34.136   3.915  1.00  0.00     0.128 A 
ATOM      6  C   UNL     1       2.727  34.144   4.916  1.00  0.00     0.093 A 
ATOM      7  C   UNL     1       3.072  33.936   6.258  1.00  0.00     0.136 A 
ATOM      8  C   UNL     1       4.430  33.710   6.602  1.00  0.00     0.125 A 
ATOM      9  C   UNL     1       4.866  33.479   7.917  1.00  0.00     0.078 A 
ATOM     10  C   UNL     1       6.221  33.259   8.178  1.00  0.00     0.223 A 
ENDROOT
BRANCH   1  11
ATOM     11  C   UNL     1       8.588  33.091   7.306  1.00  0.00     0.091 A 
ATOM     12  C   UNL     1       9.216  31.983   6.721  1.00  0.00     0.068 A 
ATOM     13  C   UNL     1      10.590  31.769   6.871  1.00  0.00     0.162 A 
ATOM     14  C   UNL     1       9.365  34.016   8.022  1.00  0.00     0.068 A 
ATOM     15  C   UNL     1      11.364  32.693   7.613  1.00  0.00     0.200 A 
ATOM     16  C   UNL     1      10.742  33.816   8.180  1.00  0.00     0.162 A 
BRANCH  13  17
ATOM     17  O   UNL     1      11.141  30.636   6.268  1.00  0.00    -0.504 OA
ATOM     18  H   UNL     1      10.601  29.842   5.956  1.00  0.00     0.293 HD
ENDBRANCH  13  17
BRANCH  15  19
ATOM     19  O   UNL     1      12.738  32.538   7.806  1.00  0.00    -0.502 OA
ATOM     20  H   UNL     1      13.346  33.262   8.163  1.00  0.00     0.293 HD
ENDBRANCH  15  19
BRANCH  16  21
ATOM     21  O   UNL     1      11.506  34.734   8.897  1.00  0.00    -0.504 OA
ATOM     22  H   UNL     1      12.399  35.069   8.551  1.00  0.00     0.293 HD
ENDBRANCH  16  21
ENDBRANCH   1  11
BRANCH  10  23
ATOM     23  O   UNL     1       6.646  32.980   9.477  1.00  0.00    -0.500 OA
ATOM     24  H   UNL     1       6.543  32.059   9.886  1.00  0.00     0.294 HD
ENDBRANCH  10  23
BRANCH   5  25
ATOM     25  O   UNL     1       3.326  34.346   2.590  1.00  0.00    -0.507 OA
ATOM     26  H   UNL     1       3.978  34.713   1.907  1.00  0.00     0.293 HD
ENDBRANCH   5  25
BRANCH   7  27
ATOM     27  O   UNL     1       2.038  33.963   7.199  1.00  0.00    -0.507 OA
ATOM     28  H   UNL     1       2.101  34.412   8.101  1.00  0.00     0.293 HD
ENDBRANCH   7  27
TORSDOF 7
ENDMDL
MODEL 8
REMARK VINA RESULT:    -5.223     10.280     12.157
REMARK INTER + INTRA:          -6.719
REMARK INTER:                  -6.366
REMARK INTRA:                  -0.354
REMARK UNBOUND:                -0.276
REMARK SMILES Oc1cc(O)c2cc(O)c(-c3cc(O)c(O)c(O)c3)[o+]c2c1
REMARK SMILES IDX 10 1 20 2 21 3 22 4 2 5 3 6 4 7 6 8 7 9 8 10 11 11 12 12
REMARK SMILES IDX 13 13 19 14 15 15 17 16 14 17 16 19 18 21 9 23 1 25 5 27
REMARK H PARENT 14 18 16 20 18 22 9 24 1 26 5 28
REMARK Flexibility Score: inf
ROOT
ATOM      1  C   UNL     1       5.117  34.966  -6.663  1.00  0.00     0.402 A 
ATOM      2  O   UNL     1       5.072  34.300  -5.512  1.00  0.00    -0.202 OA
ATOM      3  C   UNL     1       5.206  32.980  -5.426  1.00  0.00     0.368 A 
ATOM      4  C   UNL     1       5.146  32.371  -4.171  1.00  0.00     0.162 A 
ATOM      5  C   UNL     1       5.287  30.985  -4.052  1.00  0.00     0.128 A 
ATOM      6  C   UNL     1       5.487  30.206  -5.194  1.00  0.00     0.093 A 
ATOM      7  C   UNL     1       5.551  30.793  -6.464  1.00  0.00     0.136 A 
ATOM      8  C   UNL     1       5.406  32.199  -6.591  1.00  0.00     0.125 A 
ATOM      9  C   UNL     1       5.443  32.872  -7.822  1.00  0.00     0.078 A 
ATOM     10  C   UNL     1       5.288  34.260  -7.868  1.00  0.00     0.223 A 
ENDROOT
BRANCH   1  11
ATOM     11  C   UNL     1       4.966  36.438  -6.626  1.00  0.00     0.091 A 
ATOM     12  C   UNL     1       3.701  36.997  -6.395  1.00  0.00     0.068 A 
ATOM     13  C   UNL     1       3.524  38.384  -6.334  1.00  0.00     0.162 A 
ATOM     14  C   UNL     1       6.073  37.291  -6.762  1.00  0.00     0.068 A 
ATOM     15  C   UNL     1       4.642  39.237  -6.495  1.00  0.00     0.200 A 
ATOM     16  C   UNL     1       5.912  38.680  -6.703  1.00  0.00     0.162 A 
BRANCH  13  17
ATOM     17  O   UNL     1       2.232  38.865  -6.113  1.00  0.00    -0.504 OA
ATOM     18  H   UNL     1       2.026  39.766  -5.706  1.00  0.00     0.293 HD
ENDBRANCH  13  17
BRANCH  15  19
ATOM     19  O   UNL     1       4.535  40.629  -6.451  1.00  0.00    -0.502 OA
ATOM     20  H   UNL     1       4.502  41.168  -5.597  1.00  0.00     0.293 HD
ENDBRANCH  15  19
BRANCH  16  21
ATOM     21  O   UNL     1       7.015  39.520  -6.846  1.00  0.00    -0.504 OA
ATOM     22  H   UNL     1       7.129  40.350  -6.274  1.00  0.00     0.293 HD
ENDBRANCH  16  21
ENDBRANCH   1  11
BRANCH  10  23
ATOM     23  O   UNL     1       5.274  34.922  -9.096  1.00  0.00    -0.500 OA
ATOM     24  H   UNL     1       4.708  35.748  -9.250  1.00  0.00     0.294 HD
ENDBRANCH  10  23
BRANCH   5  25
ATOM     25  O   UNL     1       5.229  30.370  -2.804  1.00  0.00    -0.507 OA
ATOM     26  H   UNL     1       6.069  30.094  -2.309  1.00  0.00     0.293 HD
ENDBRANCH   5  25
BRANCH   7  27
ATOM     27  O   UNL     1       5.757  29.944  -7.556  1.00  0.00    -0.507 OA
ATOM     28  H   UNL     1       6.659  29.757  -7.969  1.00  0.00     0.293 HD
ENDBRANCH   7  27
TORSDOF 7
ENDMDL
MODEL 9
REMARK VINA RESULT:    -5.203     11.112     13.087
REMARK INTER + INTRA:          -6.695
REMARK INTER:                  -6.761
REMARK INTRA:                   0.066
REMARK UNBOUND:                -0.276
REMARK SMILES Oc1cc(O)c2cc(O)c(-c3cc(O)c(O)c(O)c3)[o+]c2c1
REMARK SMILES IDX 10 1 20 2 21 3 22 4 2 5 3 6 4 7 6 8 7 9 8 10 11 11 12 12
REMARK SMILES IDX 13 13 19 14 15 15 17 16 14 17 16 19 18 21 9 23 1 25 5 27
REMARK H PARENT 14 18 16 20 18 22 9 24 1 26 5 28
REMARK Flexibility Score: inf
ROOT
ATOM      1  C   UNL     1       7.135  33.524   7.672  1.00  0.00     0.402 A 
ATOM      2  O   UNL     1       6.617  34.216   8.684  1.00  0.00    -0.202 OA
ATOM      3  C   UNL     1       5.323  34.500   8.789  1.00  0.00     0.368 A 
ATOM      4  C   UNL     1       4.874  35.232   9.891  1.00  0.00     0.162 A 
ATOM      5  C   UNL     1       3.517  35.541  10.026  1.00  0.00     0.128 A 
ATOM      6  C   UNL     1       2.607  35.118   9.056  1.00  0.00     0.093 A 
ATOM      7  C   UNL     1       3.032  34.383   7.942  1.00  0.00     0.136 A 
ATOM      8  C   UNL     1       4.408  34.068   7.798  1.00  0.00     0.125 A 
ATOM      9  C   UNL     1       4.926  33.349   6.709  1.00  0.00     0.078 A 
ATOM     10  C   UNL     1       6.296  33.081   6.633  1.00  0.00     0.223 A 
ENDROOT
BRANCH   1  11
ATOM     11  C   UNL     1       8.592  33.263   7.676  1.00  0.00     0.091 A 
ATOM     12  C   UNL     1       9.465  34.229   8.196  1.00  0.00     0.068 A 
ATOM     13  C   UNL     1      10.846  34.009   8.233  1.00  0.00     0.162 A 
ATOM     14  C   UNL     1       9.118  32.045   7.218  1.00  0.00     0.068 A 
ATOM     15  C   UNL     1      11.371  32.786   7.749  1.00  0.00     0.200 A 
ATOM     16  C   UNL     1      10.498  31.809   7.249  1.00  0.00     0.162 A 
BRANCH  13  17
ATOM     17  O   UNL     1      11.653  35.022   8.756  1.00  0.00    -0.504 OA
ATOM     18  H   UNL     1      12.487  35.370   8.306  1.00  0.00     0.293 HD
ENDBRANCH  13  17
BRANCH  15  19
ATOM     19  O   UNL     1      12.739  32.503   7.752  1.00  0.00    -0.502 OA
ATOM     20  H   UNL     1      13.454  33.159   7.469  1.00  0.00     0.293 HD
ENDBRANCH  15  19
BRANCH  16  21
ATOM     21  O   UNL     1      11.013  30.600   6.787  1.00  0.00    -0.504 OA
ATOM     22  H   UNL     1      12.002  30.385   6.849  1.00  0.00     0.293 HD
ENDBRANCH  16  21
ENDBRANCH   1  11
BRANCH  10  23
ATOM     23  O   UNL     1       6.817  32.409   5.527  1.00  0.00    -0.500 OA
ATOM     24  H   UNL     1       7.783  32.522   5.241  1.00  0.00     0.294 HD
ENDBRANCH  10  23
BRANCH   5  25
ATOM     25  O   UNL     1       3.062  36.270  11.123  1.00  0.00    -0.507 OA
ATOM     26  H   UNL     1       2.827  35.819  11.999  1.00  0.00     0.293 HD
ENDBRANCH   5  25
BRANCH   7  27
ATOM     27  O   UNL     1       2.057  33.994   7.018  1.00  0.00    -0.507 OA
ATOM     28  H   UNL     1       1.418  33.224   7.154  1.00  0.00     0.293 HD
ENDBRANCH   7  27
TORSDOF 7
ENDMDL
