MODEL 1
REMARK VINA RESULT:    -5.254      0.000      0.000
REMARK INTER + INTRA:         -13.500
REMARK INTER:                 -11.397
REMARK INTRA:                  -2.103
REMARK UNBOUND:                -2.103
REMARK SMILES CCCCCCCCCCCCCCCCCCCCCC(=O)[O-]
REMARK SMILES IDX 12 1 11 2 10 3 9 4 8 5 7 6 6 7 5 8 4 9 3 10 2 11 1 12 13 13
REMARK SMILES IDX 14 14 15 15 16 16 17 17 18 18 19 19 20 20 21 21 22 22 23 23
REMARK SMILES IDX 24 24
REMARK H PARENT
REMARK Flexibility Score: inf
ROOT
ATOM      1  C   UNL     1       2.825  19.091 -11.237  1.00  0.00     0.000 C 
ENDROOT
BRANCH   1   2
ATOM      2  C   UNL     1       2.094  18.016 -10.414  1.00  0.00     0.000 C 
BRANCH   2   3
ATOM      3  C   UNL     1       0.574  18.249 -10.342  1.00  0.00     0.000 C 
BRANCH   3   4
ATOM      4  C   UNL     1      -0.068  17.718  -9.042  1.00  0.00    -0.000 C 
BRANCH   4   5
ATOM      5  C   UNL     1       0.955  17.598  -7.899  1.00  0.00    -0.000 C 
BRANCH   5   6
ATOM      6  C   UNL     1       0.288  17.418  -6.526  1.00  0.00    -0.000 C 
BRANCH   6   7
ATOM      7  C   UNL     1       0.712  18.498  -5.519  1.00  0.00    -0.000 C 
BRANCH   7   8
ATOM      8  C   UNL     1      -0.103  19.785  -5.721  1.00  0.00    -0.000 C 
BRANCH   8   9
ATOM      9  C   UNL     1       0.767  20.985  -6.137  1.00  0.00    -0.000 C 
BRANCH   9  10
ATOM     10  C   UNL     1       0.699  21.351  -7.635  1.00  0.00    -0.000 C 
BRANCH  10  11
ATOM     11  C   UNL     1       2.063  21.436  -8.344  1.00  0.00    -0.003 C 
ATOM     12  C   UNL     1       3.140  20.587  -7.668  1.00  0.00     0.004 C 
ENDBRANCH  10  11
ENDBRANCH   9  10
ENDBRANCH   8   9
ENDBRANCH   7   8
ENDBRANCH   6   7
ENDBRANCH   5   6
ENDBRANCH   4   5
ENDBRANCH   3   4
ENDBRANCH   2   3
ENDBRANCH   1   2
BRANCH   1  13
ATOM     13  C   UNL     1       2.408  19.082 -12.723  1.00  0.00     0.000 C 
BRANCH  13  14
ATOM     14  C   UNL     1       2.169  20.487 -13.308  1.00  0.00     0.000 C 
BRANCH  14  15
ATOM     15  C   UNL     1       2.545  20.641 -14.794  1.00  0.00     0.000 C 
BRANCH  15  16
ATOM     16  C   UNL     1       2.982  22.059 -15.211  1.00  0.00     0.000 C 
BRANCH  16  17
ATOM     17  C   UNL     1       2.792  22.392 -16.705  1.00  0.00     0.000 C 
BRANCH  17  18
ATOM     18  C   UNL     1       1.790  21.493 -17.451  1.00  0.00     0.000 C 
BRANCH  18  19
ATOM     19  C   UNL     1       1.372  22.067 -18.812  1.00  0.00     0.000 C 
BRANCH  19  20
ATOM     20  C   UNL     1       1.094  20.944 -19.823  1.00  0.00     0.006 C 
BRANCH  20  21
ATOM     21  C   UNL     1       2.192  19.873 -19.817  1.00  0.00     0.053 C 
BRANCH  21  22
ATOM     22  C   UNL     1       3.147  20.053 -20.956  1.00  0.00     0.041 C 
ATOM     23  O   UNL     1       3.678  19.051 -21.503  1.00  0.00    -0.550 OA
ATOM     24  O   UNL     1       3.489  21.331 -21.382  1.00  0.00    -0.550 OA
ENDBRANCH  21  22
ENDBRANCH  20  21
ENDBRANCH  19  20
ENDBRANCH  18  19
ENDBRANCH  17  18
ENDBRANCH  16  17
ENDBRANCH  15  16
ENDBRANCH  14  15
ENDBRANCH  13  14
ENDBRANCH   1  13
TORSDOF 20
ENDMDL
MODEL 2
REMARK VINA RESULT:    -5.103      3.911     10.883
REMARK INTER + INTRA:         -13.172
REMARK INTER:                 -11.763
REMARK INTRA:                  -1.409
REMARK UNBOUND:                -2.103
REMARK SMILES CCCCCCCCCCCCCCCCCCCCCC(=O)[O-]
REMARK SMILES IDX 12 1 11 2 10 3 9 4 8 5 7 6 6 7 5 8 4 9 3 10 2 11 1 12 13 13
REMARK SMILES IDX 14 14 15 15 16 16 17 17 18 18 19 19 20 20 21 21 22 22 23 23
REMARK SMILES IDX 24 24
REMARK H PARENT
REMARK Flexibility Score: inf
ROOT
ATOM      1  C   UNL     1       0.826  19.184 -12.158  1.00  0.00     0.000 C 
ENDROOT
BRANCH   1   2
ATOM      2  C   UNL     1       2.176  19.525 -12.812  1.00  0.00     0.000 C 
BRANCH   2   3
ATOM      3  C   UNL     1       2.172  20.895 -13.513  1.00  0.00     0.000 C 
BRANCH   3   4
ATOM      4  C   UNL     1       2.537  20.822 -15.011  1.00  0.00    -0.000 C 
BRANCH   4   5
ATOM      5  C   UNL     1       3.321  22.062 -15.476  1.00  0.00    -0.000 C 
BRANCH   5   6
ATOM      6  C   UNL     1       3.166  22.328 -16.981  1.00  0.00    -0.000 C 
BRANCH   6   7
ATOM      7  C   UNL     1       1.779  22.883 -17.341  1.00  0.00    -0.000 C 
BRANCH   7   8
ATOM      8  C   UNL     1       1.421  22.560 -18.800  1.00  0.00    -0.000 C 
BRANCH   8   9
ATOM      9  C   UNL     1       2.308  21.456 -19.404  1.00  0.00    -0.000 C 
BRANCH   9  10
ATOM     10  C   UNL     1       1.542  20.249 -19.983  1.00  0.00    -0.000 C 
BRANCH  10  11
ATOM     11  C   UNL     1       2.428  19.164 -20.620  1.00  0.00    -0.003 C 
ATOM     12  C   UNL     1       3.687  19.731 -21.278  1.00  0.00     0.004 C 
ENDBRANCH  10  11
ENDBRANCH   9  10
ENDBRANCH   8   9
ENDBRANCH   7   8
ENDBRANCH   6   7
ENDBRANCH   5   6
ENDBRANCH   4   5
ENDBRANCH   3   4
ENDBRANCH   2   3
ENDBRANCH   1   2
BRANCH   1  13
ATOM     13  C   UNL     1       0.987  18.635 -10.724  1.00  0.00     0.000 C 
BRANCH  13  14
ATOM     14  C   UNL     1      -0.110  17.632 -10.319  1.00  0.00     0.000 C 
BRANCH  14  15
ATOM     15  C   UNL     1      -0.342  17.506  -8.801  1.00  0.00     0.000 C 
BRANCH  15  16
ATOM     16  C   UNL     1       0.924  17.215  -7.972  1.00  0.00     0.000 C 
BRANCH  16  17
ATOM     17  C   UNL     1       0.823  17.567  -6.473  1.00  0.00     0.000 C 
BRANCH  17  18
ATOM     18  C   UNL     1      -0.188  18.676  -6.132  1.00  0.00     0.000 C 
BRANCH  18  19
ATOM     19  C   UNL     1       0.376  19.721  -5.158  1.00  0.00     0.000 C 
BRANCH  19  20
ATOM     20  C   UNL     1       0.590  21.071  -5.859  1.00  0.00     0.006 C 
BRANCH  20  21
ATOM     21  C   UNL     1       0.607  20.935  -7.386  1.00  0.00     0.053 C 
BRANCH  21  22
ATOM     22  C   UNL     1       1.958  21.244  -7.954  1.00  0.00     0.041 C 
ATOM     23  O   UNL     1       2.061  21.811  -9.074  1.00  0.00    -0.550 OA
ATOM     24  O   UNL     1       3.104  20.860  -7.269  1.00  0.00    -0.550 OA
ENDBRANCH  21  22
ENDBRANCH  20  21
ENDBRANCH  19  20
ENDBRANCH  18  19
ENDBRANCH  17  18
ENDBRANCH  16  17
ENDBRANCH  15  16
ENDBRANCH  14  15
ENDBRANCH  13  14
ENDBRANCH   1  13
TORSDOF 20
ENDMDL
MODEL 3
REMARK VINA RESULT:    -5.101      1.103      2.561
REMARK INTER + INTRA:         -13.168
REMARK INTER:                 -11.362
REMARK INTRA:                  -1.806
REMARK UNBOUND:                -2.103
REMARK SMILES CCCCCCCCCCCCCCCCCCCCCC(=O)[O-]
REMARK SMILES IDX 12 1 11 2 10 3 9 4 8 5 7 6 6 7 5 8 4 9 3 10 2 11 1 12 13 13
REMARK SMILES IDX 14 14 15 15 16 16 17 17 18 18 19 19 20 20 21 21 22 22 23 23
REMARK SMILES IDX 24 24
REMARK H PARENT
REMARK Flexibility Score: inf
ROOT
ATOM      1  C   UNL     1       1.091  19.525 -12.273  1.00  0.00     0.000 C 
ENDROOT
BRANCH   1   2
ATOM      2  C   UNL     1       1.578  18.591 -11.152  1.00  0.00     0.000 C 
BRANCH   2   3
ATOM      3  C   UNL     1       2.828  19.124 -10.431  1.00  0.00     0.000 C 
BRANCH   3   4
ATOM      4  C   UNL     1       2.619  19.342  -8.917  1.00  0.00    -0.000 C 
BRANCH   4   5
ATOM      5  C   UNL     1       2.923  20.791  -8.495  1.00  0.00    -0.000 C 
BRANCH   5   6
ATOM      6  C   UNL     1       1.649  21.622  -8.279  1.00  0.00    -0.000 C 
BRANCH   6   7
ATOM      7  C   UNL     1       0.567  20.851  -7.508  1.00  0.00    -0.000 C 
BRANCH   7   8
ATOM      8  C   UNL     1       0.788  20.963  -5.992  1.00  0.00    -0.000 C 
BRANCH   8   9
ATOM      9  C   UNL     1       0.453  19.663  -5.240  1.00  0.00    -0.000 C 
BRANCH   9  10
ATOM     10  C   UNL     1       1.419  18.489  -5.504  1.00  0.00    -0.000 C 
BRANCH  10  11
ATOM     11  C   UNL     1       0.740  17.171  -5.916  1.00  0.00    -0.003 C 
ATOM     12  C   UNL     1      -0.416  17.376  -6.897  1.00  0.00     0.004 C 
ENDBRANCH  10  11
ENDBRANCH   9  10
ENDBRANCH   8   9
ENDBRANCH   7   8
ENDBRANCH   6   7
ENDBRANCH   5   6
ENDBRANCH   4   5
ENDBRANCH   3   4
ENDBRANCH   2   3
ENDBRANCH   1   2
BRANCH   1  13
ATOM     13  C   UNL     1       2.183  20.515 -12.734  1.00  0.00     0.000 C 
BRANCH  13  14
ATOM     14  C   UNL     1       2.475  20.454 -14.245  1.00  0.00     0.000 C 
BRANCH  14  15
ATOM     15  C   UNL     1       2.599  21.827 -14.935  1.00  0.00     0.000 C 
BRANCH  15  16
ATOM     16  C   UNL     1       3.607  21.880 -16.100  1.00  0.00     0.000 C 
BRANCH  16  17
ATOM     17  C   UNL     1       3.195  22.777 -17.285  1.00  0.00     0.000 C 
BRANCH  17  18
ATOM     18  C   UNL     1       1.682  22.831 -17.565  1.00  0.00     0.000 C 
BRANCH  18  19
ATOM     19  C   UNL     1       1.315  22.309 -18.962  1.00  0.00     0.000 C 
BRANCH  19  20
ATOM     20  C   UNL     1       1.924  20.922 -19.211  1.00  0.00     0.006 C 
BRANCH  20  21
ATOM     21  C   UNL     1       2.724  20.866 -20.517  1.00  0.00     0.053 C 
BRANCH  21  22
ATOM     22  C   UNL     1       3.187  19.474 -20.824  1.00  0.00     0.041 C 
ATOM     23  O   UNL     1       4.414  19.231 -20.966  1.00  0.00    -0.550 OA
ATOM     24  O   UNL     1       2.258  18.456 -21.003  1.00  0.00    -0.550 OA
ENDBRANCH  21  22
ENDBRANCH  20  21
ENDBRANCH  19  20
ENDBRANCH  18  19
ENDBRANCH  17  18
ENDBRANCH  16  17
ENDBRANCH  15  16
ENDBRANCH  14  15
ENDBRANCH  13  14
ENDBRANCH   1  13
TORSDOF 20
ENDMDL
MODEL 4
REMARK VINA RESULT:    -4.915      4.841     10.790
REMARK INTER + INTRA:         -12.764
REMARK INTER:                 -10.419
REMARK INTRA:                  -2.345
REMARK UNBOUND:                -2.103
REMARK SMILES CCCCCCCCCCCCCCCCCCCCCC(=O)[O-]
REMARK SMILES IDX 12 1 11 2 10 3 9 4 8 5 7 6 6 7 5 8 4 9 3 10 2 11 1 12 13 13
REMARK SMILES IDX 14 14 15 15 16 16 17 17 18 18 19 19 20 20 21 21 22 22 23 23
REMARK SMILES IDX 24 24
REMARK H PARENT
REMARK Flexibility Score: inf
ROOT
ATOM      1  C   UNL     1       1.914  20.144 -12.341  1.00  0.00     0.000 C 
ENDROOT
BRANCH   1   2
ATOM      2  C   UNL     1       2.147  21.662 -12.433  1.00  0.00     0.000 C 
BRANCH   2   3
ATOM      3  C   UNL     1       2.575  22.119 -13.839  1.00  0.00     0.000 C 
BRANCH   3   4
ATOM      4  C   UNL     1       2.601  20.975 -14.875  1.00  0.00    -0.000 C 
BRANCH   4   5
ATOM      5  C   UNL     1       2.250  21.469 -16.290  1.00  0.00    -0.000 C 
BRANCH   5   6
ATOM      6  C   UNL     1       3.361  22.333 -16.905  1.00  0.00    -0.000 C 
BRANCH   6   7
ATOM      7  C   UNL     1       2.836  23.273 -18.002  1.00  0.00    -0.000 C 
BRANCH   7   8
ATOM      8  C   UNL     1       1.702  22.608 -18.797  1.00  0.00    -0.000 C 
BRANCH   8   9
ATOM      9  C   UNL     1       2.216  21.665 -19.900  1.00  0.00    -0.000 C 
BRANCH   9  10
ATOM     10  C   UNL     1       1.616  20.244 -19.875  1.00  0.00    -0.000 C 
BRANCH  10  11
ATOM     11  C   UNL     1       2.484  19.162 -20.541  1.00  0.00    -0.003 C 
ATOM     12  C   UNL     1       3.708  19.735 -21.257  1.00  0.00     0.004 C 
ENDBRANCH  10  11
ENDBRANCH   9  10
ENDBRANCH   8   9
ENDBRANCH   7   8
ENDBRANCH   6   7
ENDBRANCH   5   6
ENDBRANCH   4   5
ENDBRANCH   3   4
ENDBRANCH   2   3
ENDBRANCH   1   2
BRANCH   1  13
ATOM     13  C   UNL     1       0.528  19.793 -11.758  1.00  0.00     0.000 C 
BRANCH  13  14
ATOM     14  C   UNL     1       0.481  18.421 -11.059  1.00  0.00     0.000 C 
BRANCH  14  15
ATOM     15  C   UNL     1       1.764  17.580 -11.198  1.00  0.00     0.000 C 
BRANCH  15  16
ATOM     16  C   UNL     1       2.527  17.334  -9.881  1.00  0.00     0.000 C 
BRANCH  16  17
ATOM     17  C   UNL     1       3.505  18.454  -9.470  1.00  0.00     0.000 C 
BRANCH  17  18
ATOM     18  C   UNL     1       3.060  19.296  -8.261  1.00  0.00     0.000 C 
BRANCH  18  19
ATOM     19  C   UNL     1       2.770  20.759  -8.625  1.00  0.00     0.000 C 
BRANCH  19  20
ATOM     20  C   UNL     1       1.335  21.150  -8.243  1.00  0.00     0.006 C 
BRANCH  20  21
ATOM     21  C   UNL     1       0.570  19.989  -7.597  1.00  0.00     0.053 C 
BRANCH  21  22
ATOM     22  C   UNL     1       0.333  20.226  -6.137  1.00  0.00     0.041 C 
ATOM     23  O   UNL     1       0.682  21.313  -5.607  1.00  0.00    -0.550 OA
ATOM     24  O   UNL     1      -0.228  19.226  -5.352  1.00  0.00    -0.550 OA
ENDBRANCH  21  22
ENDBRANCH  20  21
ENDBRANCH  19  20
ENDBRANCH  18  19
ENDBRANCH  17  18
ENDBRANCH  16  17
ENDBRANCH  15  16
ENDBRANCH  14  15
ENDBRANCH  13  14
ENDBRANCH   1  13
TORSDOF 20
ENDMDL
MODEL 5
REMARK VINA RESULT:    -4.874     10.265     13.427
REMARK INTER + INTRA:         -12.675
REMARK INTER:                  -9.724
REMARK INTRA:                  -2.951
REMARK UNBOUND:                -2.103
REMARK SMILES CCCCCCCCCCCCCCCCCCCCCC(=O)[O-]
REMARK SMILES IDX 12 1 11 2 10 3 9 4 8 5 7 6 6 7 5 8 4 9 3 10 2 11 1 12 13 13
REMARK SMILES IDX 14 14 15 15 16 16 17 17 18 18 19 19 20 20 21 21 22 22 23 23
REMARK SMILES IDX 24 24
REMARK H PARENT
REMARK Flexibility Score: inf
ROOT
ATOM      1  C   UNL     1       6.932  28.399 -14.141  1.00  0.00     0.000 C 
ENDROOT
BRANCH   1   2
ATOM      2  C   UNL     1       7.549  29.350 -13.101  1.00  0.00     0.000 C 
BRANCH   2   3
ATOM      3  C   UNL     1       9.069  29.165 -12.950  1.00  0.00     0.000 C 
BRANCH   3   4
ATOM      4  C   UNL     1       9.884  29.812 -14.090  1.00  0.00    -0.000 C 
BRANCH   4   5
ATOM      5  C   UNL     1      10.827  28.805 -14.770  1.00  0.00    -0.000 C 
BRANCH   5   6
ATOM      6  C   UNL     1      10.101  27.529 -15.223  1.00  0.00    -0.000 C 
BRANCH   6   7
ATOM      7  C   UNL     1      10.718  26.256 -14.624  1.00  0.00    -0.000 C 
BRANCH   7   8
ATOM      8  C   UNL     1       9.676  25.470 -13.813  1.00  0.00    -0.000 C 
BRANCH   8   9
ATOM      9  C   UNL     1       9.755  25.755 -12.302  1.00  0.00    -0.000 C 
BRANCH   9  10
ATOM     10  C   UNL     1       9.436  24.549 -11.394  1.00  0.00    -0.000 C 
BRANCH  10  11
ATOM     11  C   UNL     1       7.950  24.152 -11.341  1.00  0.00    -0.003 C 
ATOM     12  C   UNL     1       7.640  23.144 -10.234  1.00  0.00     0.004 C 
ENDBRANCH  10  11
ENDBRANCH   9  10
ENDBRANCH   8   9
ENDBRANCH   7   8
ENDBRANCH   6   7
ENDBRANCH   5   6
ENDBRANCH   4   5
ENDBRANCH   3   4
ENDBRANCH   2   3
ENDBRANCH   1   2
BRANCH   1  13
ATOM     13  C   UNL     1       6.386  29.150 -15.375  1.00  0.00     0.000 C 
BRANCH  13  14
ATOM     14  C   UNL     1       5.880  30.571 -15.062  1.00  0.00     0.000 C 
BRANCH  14  15
ATOM     15  C   UNL     1       5.969  31.563 -16.237  1.00  0.00     0.000 C 
BRANCH  15  16
ATOM     16  C   UNL     1       6.807  32.827 -15.959  1.00  0.00     0.000 C 
BRANCH  16  17
ATOM     17  C   UNL     1       7.898  32.667 -14.880  1.00  0.00     0.000 C 
BRANCH  17  18
ATOM     18  C   UNL     1       7.727  33.566 -13.643  1.00  0.00     0.000 C 
BRANCH  18  19
ATOM     19  C   UNL     1       7.759  32.780 -12.324  1.00  0.00     0.000 C 
BRANCH  19  20
ATOM     20  C   UNL     1       6.537  33.110 -11.455  1.00  0.00     0.006 C 
BRANCH  20  21
ATOM     21  C   UNL     1       5.274  32.381 -11.929  1.00  0.00     0.053 C 
BRANCH  21  22
ATOM     22  C   UNL     1       4.332  33.308 -12.633  1.00  0.00     0.041 C 
ATOM     23  O   UNL     1       3.727  32.930 -13.671  1.00  0.00    -0.550 OA
ATOM     24  O   UNL     1       4.160  34.608 -12.171  1.00  0.00    -0.550 OA
ENDBRANCH  21  22
ENDBRANCH  20  21
ENDBRANCH  19  20
ENDBRANCH  18  19
ENDBRANCH  17  18
ENDBRANCH  16  17
ENDBRANCH  15  16
ENDBRANCH  14  15
ENDBRANCH  13  14
ENDBRANCH   1  13
TORSDOF 20
ENDMDL
MODEL 6
REMARK VINA RESULT:    -4.858     10.201     13.300
REMARK INTER + INTRA:         -12.641
REMARK INTER:                  -9.540
REMARK INTRA:                  -3.101
REMARK UNBOUND:                -2.103
REMARK SMILES CCCCCCCCCCCCCCCCCCCCCC(=O)[O-]
REMARK SMILES IDX 12 1 11 2 10 3 9 4 8 5 7 6 6 7 5 8 4 9 3 10 2 11 1 12 13 13
REMARK SMILES IDX 14 14 15 15 16 16 17 17 18 18 19 19 20 20 21 21 22 22 23 23
REMARK SMILES IDX 24 24
REMARK H PARENT
REMARK Flexibility Score: inf
ROOT
ATOM      1  C   UNL     1       6.347  28.987 -15.050  1.00  0.00     0.000 C 
ENDROOT
BRANCH   1   2
ATOM      2  C   UNL     1       6.153  30.414 -14.509  1.00  0.00     0.000 C 
BRANCH   2   3
ATOM      3  C   UNL     1       5.901  31.447 -15.621  1.00  0.00     0.000 C 
BRANCH   3   4
ATOM      4  C   UNL     1       4.912  32.560 -15.215  1.00  0.00    -0.000 C 
BRANCH   4   5
ATOM      5  C   UNL     1       4.140  32.207 -13.932  1.00  0.00    -0.000 C 
BRANCH   5   6
ATOM      6  C   UNL     1       4.432  33.181 -12.780  1.00  0.00    -0.000 C 
BRANCH   6   7
ATOM      7  C   UNL     1       5.115  32.494 -11.587  1.00  0.00    -0.000 C 
BRANCH   7   8
ATOM      8  C   UNL     1       6.440  33.189 -11.240  1.00  0.00    -0.000 C 
BRANCH   8   9
ATOM      9  C   UNL     1       7.606  32.740 -12.140  1.00  0.00    -0.000 C 
BRANCH   9  10
ATOM     10  C   UNL     1       8.000  33.742 -13.245  1.00  0.00    -0.000 C 
BRANCH  10  11
ATOM     11  C   UNL     1       8.979  33.194 -14.298  1.00  0.00    -0.003 C 
ATOM     12  C   UNL     1      10.001  32.219 -13.713  1.00  0.00     0.004 C 
ENDBRANCH  10  11
ENDBRANCH   9  10
ENDBRANCH   8   9
ENDBRANCH   7   8
ENDBRANCH   6   7
ENDBRANCH   5   6
ENDBRANCH   4   5
ENDBRANCH   3   4
ENDBRANCH   2   3
ENDBRANCH   1   2
BRANCH   1  13
ATOM     13  C   UNL     1       7.039  28.057 -14.030  1.00  0.00     0.000 C 
BRANCH  13  14
ATOM     14  C   UNL     1       7.919  28.804 -13.009  1.00  0.00     0.000 C 
BRANCH  14  15
ATOM     15  C   UNL     1       9.436  28.631 -13.215  1.00  0.00     0.000 C 
BRANCH  15  16
ATOM     16  C   UNL     1       9.897  28.633 -14.686  1.00  0.00     0.000 C 
BRANCH  16  17
ATOM     17  C   UNL     1      10.641  27.362 -15.143  1.00  0.00     0.000 C 
BRANCH  17  18
ATOM     18  C   UNL     1      10.688  26.226 -14.106  1.00  0.00     0.000 C 
BRANCH  18  19
ATOM     19  C   UNL     1      10.244  24.873 -14.681  1.00  0.00     0.000 C 
BRANCH  19  20
ATOM     20  C   UNL     1       9.294  24.148 -13.716  1.00  0.00     0.006 C 
BRANCH  20  21
ATOM     21  C   UNL     1       8.768  25.074 -12.614  1.00  0.00     0.053 C 
BRANCH  21  22
ATOM     22  C   UNL     1       9.251  24.654 -11.260  1.00  0.00     0.041 C 
ATOM     23  O   UNL     1      10.297  25.159 -10.775  1.00  0.00    -0.550 OA
ATOM     24  O   UNL     1       8.573  23.665 -10.556  1.00  0.00    -0.550 OA
ENDBRANCH  21  22
ENDBRANCH  20  21
ENDBRANCH  19  20
ENDBRANCH  18  19
ENDBRANCH  17  18
ENDBRANCH  16  17
ENDBRANCH  15  16
ENDBRANCH  14  15
ENDBRANCH  13  14
ENDBRANCH   1  13
TORSDOF 20
ENDMDL
MODEL 7
REMARK VINA RESULT:    -4.841      1.349      2.077
REMARK INTER + INTRA:         -12.605
REMARK INTER:                 -10.600
REMARK INTRA:                  -2.005
REMARK UNBOUND:                -2.103
REMARK SMILES CCCCCCCCCCCCCCCCCCCCCC(=O)[O-]
REMARK SMILES IDX 12 1 11 2 10 3 9 4 8 5 7 6 6 7 5 8 4 9 3 10 2 11 1 12 13 13
REMARK SMILES IDX 14 14 15 15 16 16 17 17 18 18 19 19 20 20 21 21 22 22 23 23
REMARK SMILES IDX 24 24
REMARK H PARENT
REMARK Flexibility Score: inf
ROOT
ATOM      1  C   UNL     1       1.958  21.428 -11.062  1.00  0.00     0.000 C 
ENDROOT
BRANCH   1   2
ATOM      2  C   UNL     1       2.139  19.946 -10.692  1.00  0.00     0.000 C 
BRANCH   2   3
ATOM      3  C   UNL     1       3.221  19.725  -9.620  1.00  0.00     0.000 C 
BRANCH   3   4
ATOM      4  C   UNL     1       3.343  18.255  -9.163  1.00  0.00    -0.000 C 
BRANCH   4   5
ATOM      5  C   UNL     1       1.969  17.619  -8.889  1.00  0.00    -0.000 C 
BRANCH   5   6
ATOM      6  C   UNL     1       1.576  17.678  -7.405  1.00  0.00    -0.000 C 
BRANCH   6   7
ATOM      7  C   UNL     1       2.779  17.476  -6.470  1.00  0.00    -0.000 C 
BRANCH   7   8
ATOM      8  C   UNL     1       2.725  18.457  -5.288  1.00  0.00    -0.000 C 
BRANCH   8   9
ATOM      9  C   UNL     1       2.483  19.912  -5.729  1.00  0.00    -0.000 C 
BRANCH   9  10
ATOM     10  C   UNL     1       1.271  20.601  -5.066  1.00  0.00    -0.000 C 
BRANCH  10  11
ATOM     11  C   UNL     1       0.125  20.962  -6.027  1.00  0.00    -0.003 C 
ATOM     12  C   UNL     1       0.609  21.271  -7.445  1.00  0.00     0.004 C 
ENDBRANCH  10  11
ENDBRANCH   9  10
ENDBRANCH   8   9
ENDBRANCH   7   8
ENDBRANCH   6   7
ENDBRANCH   5   6
ENDBRANCH   4   5
ENDBRANCH   3   4
ENDBRANCH   2   3
ENDBRANCH   1   2
BRANCH   1  13
ATOM     13  C   UNL     1       2.138  21.686 -12.574  1.00  0.00     0.000 C 
BRANCH  13  14
ATOM     14  C   UNL     1       2.167  20.400 -13.422  1.00  0.00     0.000 C 
BRANCH  14  15
ATOM     15  C   UNL     1       2.559  20.607 -14.897  1.00  0.00     0.000 C 
BRANCH  15  16
ATOM     16  C   UNL     1       2.937  22.054 -15.272  1.00  0.00     0.000 C 
BRANCH  16  17
ATOM     17  C   UNL     1       3.114  22.316 -16.782  1.00  0.00     0.000 C 
BRANCH  17  18
ATOM     18  C   UNL     1       1.970  23.103 -17.446  1.00  0.00     0.000 C 
BRANCH  18  19
ATOM     19  C   UNL     1       1.131  22.245 -18.403  1.00  0.00     0.000 C 
BRANCH  19  20
ATOM     20  C   UNL     1       1.899  20.987 -18.834  1.00  0.00     0.006 C 
BRANCH  20  21
ATOM     21  C   UNL     1       2.650  21.191 -20.155  1.00  0.00     0.053 C 
BRANCH  21  22
ATOM     22  C   UNL     1       3.033  19.885 -20.781  1.00  0.00     0.041 C 
ATOM     23  O   UNL     1       4.070  19.801 -21.490  1.00  0.00    -0.550 OA
ATOM     24  O   UNL     1       2.215  18.772 -20.623  1.00  0.00    -0.550 OA
ENDBRANCH  21  22
ENDBRANCH  20  21
ENDBRANCH  19  20
ENDBRANCH  18  19
ENDBRANCH  17  18
ENDBRANCH  16  17
ENDBRANCH  15  16
ENDBRANCH  14  15
ENDBRANCH  13  14
ENDBRANCH   1  13
TORSDOF 20
ENDMDL
MODEL 8
REMARK VINA RESULT:    -4.821     10.218     13.691
REMARK INTER + INTRA:         -12.561
REMARK INTER:                  -9.450
REMARK INTRA:                  -3.111
REMARK UNBOUND:                -2.103
REMARK SMILES CCCCCCCCCCCCCCCCCCCCCC(=O)[O-]
REMARK SMILES IDX 12 1 11 2 10 3 9 4 8 5 7 6 6 7 5 8 4 9 3 10 2 11 1 12 13 13
REMARK SMILES IDX 14 14 15 15 16 16 17 17 18 18 19 19 20 20 21 21 22 22 23 23
REMARK SMILES IDX 24 24
REMARK H PARENT
REMARK Flexibility Score: inf
ROOT
ATOM      1  C   UNL     1       6.610  30.407 -14.978  1.00  0.00     0.000 C 
ENDROOT
BRANCH   1   2
ATOM      2  C   UNL     1       5.358  31.302 -14.982  1.00  0.00     0.000 C 
BRANCH   2   3
ATOM      3  C   UNL     1       5.437  32.436 -16.019  1.00  0.00     0.000 C 
BRANCH   3   4
ATOM      4  C   UNL     1       6.879  32.910 -16.304  1.00  0.00    -0.000 C 
BRANCH   4   5
ATOM      5  C   UNL     1       7.187  34.259 -15.631  1.00  0.00    -0.000 C 
BRANCH   5   6
ATOM      6  C   UNL     1       8.592  34.301 -15.010  1.00  0.00    -0.000 C 
BRANCH   6   7
ATOM      7  C   UNL     1       8.968  32.983 -14.315  1.00  0.00    -0.000 C 
BRANCH   7   8
ATOM      8  C   UNL     1       8.916  33.136 -12.787  1.00  0.00    -0.000 C 
BRANCH   8   9
ATOM      9  C   UNL     1       7.723  32.399 -12.151  1.00  0.00    -0.000 C 
BRANCH   9  10
ATOM     10  C   UNL     1       6.530  33.300 -11.768  1.00  0.00    -0.000 C 
BRANCH  10  11
ATOM     11  C   UNL     1       5.196  32.558 -11.568  1.00  0.00    -0.003 C 
ATOM     12  C   UNL     1       3.995  33.333 -12.112  1.00  0.00     0.004 C 
ENDBRANCH  10  11
ENDBRANCH   9  10
ENDBRANCH   8   9
ENDBRANCH   7   8
ENDBRANCH   6   7
ENDBRANCH   5   6
ENDBRANCH   4   5
ENDBRANCH   3   4
ENDBRANCH   2   3
ENDBRANCH   1   2
BRANCH   1  13
ATOM     13  C   UNL     1       6.261  28.904 -15.014  1.00  0.00     0.000 C 
BRANCH  13  14
ATOM     14  C   UNL     1       6.977  28.076 -13.930  1.00  0.00     0.000 C 
BRANCH  14  15
ATOM     15  C   UNL     1       7.797  28.903 -12.922  1.00  0.00     0.000 C 
BRANCH  15  16
ATOM     16  C   UNL     1       9.327  28.786 -13.078  1.00  0.00     0.000 C 
BRANCH  16  17
ATOM     17  C   UNL     1       9.810  28.289 -14.456  1.00  0.00     0.000 C 
BRANCH  17  18
ATOM     18  C   UNL     1      10.521  26.924 -14.443  1.00  0.00     0.000 C 
BRANCH  18  19
ATOM     19  C   UNL     1      10.389  26.194 -13.099  1.00  0.00     0.000 C 
BRANCH  19  20
ATOM     20  C   UNL     1       9.264  25.150 -13.146  1.00  0.00     0.006 C 
BRANCH  20  21
ATOM     21  C   UNL     1       8.780  24.754 -11.746  1.00  0.00     0.053 C 
BRANCH  21  22
ATOM     22  C   UNL     1       7.343  24.334 -11.754  1.00  0.00     0.041 C 
ATOM     23  O   UNL     1       6.905  23.554 -10.868  1.00  0.00    -0.550 OA
ATOM     24  O   UNL     1       6.499  24.763 -12.772  1.00  0.00    -0.550 OA
ENDBRANCH  21  22
ENDBRANCH  20  21
ENDBRANCH  19  20
ENDBRANCH  18  19
ENDBRANCH  17  18
ENDBRANCH  16  17
ENDBRANCH  15  16
ENDBRANCH  14  15
ENDBRANCH  13  14
ENDBRANCH   1  13
TORSDOF 20
ENDMDL
MODEL 9
REMARK VINA RESULT:    -4.765     10.274     13.110
REMARK INTER + INTRA:         -12.440
REMARK INTER:                 -10.033
REMARK INTRA:                  -2.407
REMARK UNBOUND:                -2.103
REMARK SMILES CCCCCCCCCCCCCCCCCCCCCC(=O)[O-]
REMARK SMILES IDX 12 1 11 2 10 3 9 4 8 5 7 6 6 7 5 8 4 9 3 10 2 11 1 12 13 13
REMARK SMILES IDX 14 14 15 15 16 16 17 17 18 18 19 19 20 20 21 21 22 22 23 23
REMARK SMILES IDX 24 24
REMARK H PARENT
REMARK Flexibility Score: inf
ROOT
ATOM      1  C   UNL     1       6.667  29.094 -15.294  1.00  0.00     0.000 C 
ENDROOT
BRANCH   1   2
ATOM      2  C   UNL     1       5.650  30.208 -14.993  1.00  0.00     0.000 C 
BRANCH   2   3
ATOM      3  C   UNL     1       6.013  31.546 -15.659  1.00  0.00     0.000 C 
BRANCH   3   4
ATOM      4  C   UNL     1       6.062  32.732 -14.672  1.00  0.00    -0.000 C 
BRANCH   4   5
ATOM      5  C   UNL     1       7.399  32.796 -13.912  1.00  0.00    -0.000 C 
BRANCH   5   6
ATOM      6  C   UNL     1       7.211  32.803 -12.387  1.00  0.00    -0.000 C 
BRANCH   6   7
ATOM      7  C   UNL     1       5.871  32.186 -11.956  1.00  0.00    -0.000 C 
BRANCH   7   8
ATOM      8  C   UNL     1       5.212  33.025 -10.850  1.00  0.00    -0.000 C 
BRANCH   8   9
ATOM      9  C   UNL     1       6.214  33.926 -10.106  1.00  0.00    -0.000 C 
BRANCH   9  10
ATOM     10  C   UNL     1       6.279  33.707  -8.580  1.00  0.00    -0.000 C 
BRANCH  10  11
ATOM     11  C   UNL     1       5.088  32.936  -7.984  1.00  0.00    -0.003 C 
ATOM     12  C   UNL     1       4.219  33.797  -7.066  1.00  0.00     0.004 C 
ENDBRANCH  10  11
ENDBRANCH   9  10
ENDBRANCH   8   9
ENDBRANCH   7   8
ENDBRANCH   6   7
ENDBRANCH   5   6
ENDBRANCH   4   5
ENDBRANCH   3   4
ENDBRANCH   2   3
ENDBRANCH   1   2
BRANCH   1  13
ATOM     13  C   UNL     1       7.018  28.260 -14.043  1.00  0.00     0.000 C 
BRANCH  13  14
ATOM     14  C   UNL     1       7.675  29.081 -12.917  1.00  0.00     0.000 C 
BRANCH  14  15
ATOM     15  C   UNL     1       9.076  29.629 -13.249  1.00  0.00     0.000 C 
BRANCH  15  16
ATOM     16  C   UNL     1      10.226  28.616 -13.081  1.00  0.00     0.000 C 
BRANCH  16  17
ATOM     17  C   UNL     1      10.486  27.711 -14.303  1.00  0.00     0.000 C 
BRANCH  17  18
ATOM     18  C   UNL     1      10.882  26.261 -13.968  1.00  0.00     0.000 C 
BRANCH  18  19
ATOM     19  C   UNL     1       9.670  25.338 -13.786  1.00  0.00     0.000 C 
BRANCH  19  20
ATOM     20  C   UNL     1       9.068  25.485 -12.381  1.00  0.00     0.006 C 
BRANCH  20  21
ATOM     21  C   UNL     1       7.916  24.502 -12.137  1.00  0.00     0.053 C 
BRANCH  21  22
ATOM     22  C   UNL     1       8.210  23.579 -10.994  1.00  0.00     0.041 C 
ATOM     23  O   UNL     1       8.428  24.043  -9.844  1.00  0.00    -0.550 OA
ATOM     24  O   UNL     1       8.292  22.209 -11.211  1.00  0.00    -0.550 OA
ENDBRANCH  21  22
ENDBRANCH  20  21
ENDBRANCH  19  20
ENDBRANCH  18  19
ENDBRANCH  17  18
ENDBRANCH  16  17
ENDBRANCH  15  16
ENDBRANCH  14  15
ENDBRANCH  13  14
ENDBRANCH   1  13
TORSDOF 20
ENDMDL
