MODEL 1
REMARK VINA RESULT:    -7.050      0.000      0.000
REMARK INTER + INTRA:         -11.644
REMARK INTER:                 -10.347
REMARK INTRA:                  -1.297
REMARK UNBOUND:                -1.297
REMARK SMILES O=c1c(O[C@H]2O[C@@H](CO)[C@H](O)[C@H](O)[C@H]2O)c(-c2ccc(O)c(O)c2)oc2cc(O)cc(O)c12
REMARK SMILES IDX 4 1 3 2 16 3 25 4 2 5 26 6 1 7 33 8 27 9 31 10 28 11 30 12
REMARK SMILES IDX 17 13 18 14 19 15 20 16 24 17 22 18 21 19 23 21 32 23 29 25
REMARK SMILES IDX 5 27 14 28 6 29 12 30 7 31 10 32 15 33 13 35 8 37 9 38 11 40
REMARK H PARENT 21 20 23 22 32 24 29 26 15 34 13 36 9 39 11 41
REMARK Flexibility Score: inf
ROOT
ATOM      1  O   UNL     1      13.695 -35.239  -1.148  1.00  0.00    -0.454 OA
ENDROOT
BRANCH   1   2
ATOM      2  C   UNL     1      13.092 -36.021  -2.141  1.00  0.00     0.214 A 
ATOM      3  C   UNL     1      13.736 -37.142  -2.698  1.00  0.00     0.180 A 
ATOM      4  O   UNL     1      13.097 -37.889  -3.591  1.00  0.00    -0.452 OA
ATOM      5  C   UNL     1      11.816 -35.673  -2.599  1.00  0.00     0.239 A 
ATOM      6  C   UNL     1      11.868 -37.626  -4.021  1.00  0.00     0.146 A 
ATOM      7  O   UNL     1      11.299 -34.608  -2.174  1.00  0.00    -0.285 OA
ATOM      8  C   UNL     1      11.148 -36.505  -3.529  1.00  0.00     0.111 A 
ATOM      9  C   UNL     1      11.304 -38.467  -4.983  1.00  0.00     0.094 A 
ATOM     10  C   UNL     1       9.824 -36.283  -4.013  1.00  0.00     0.134 A 
ATOM     11  C   UNL     1      10.031 -38.211  -5.485  1.00  0.00     0.123 A 
ATOM     12  C   UNL     1       9.301 -37.122  -5.004  1.00  0.00     0.093 A 
BRANCH   3  13
ATOM     13  C   UNL     1      15.124 -37.514  -2.348  1.00  0.00     0.025 A 
ATOM     14  C   UNL     1      15.364 -38.325  -1.228  1.00  0.00     0.016 A 
ATOM     15  C   UNL     1      16.668 -38.690  -0.885  1.00  0.00     0.051 A 
ATOM     16  C   UNL     1      17.751 -38.260  -1.664  1.00  0.00     0.157 A 
ATOM     17  C   UNL     1      16.211 -37.106  -3.142  1.00  0.00     0.062 A 
ATOM     18  C   UNL     1      17.519 -37.467  -2.801  1.00  0.00     0.158 A 
BRANCH  16  19
ATOM     19  O   UNL     1      19.052 -38.621  -1.317  1.00  0.00    -0.504 OA
ATOM     20  H   UNL     1      19.608 -38.054  -0.687  1.00  0.00     0.293 HD
ENDBRANCH  16  19
BRANCH  18  21
ATOM     21  O   UNL     1      18.572 -37.031  -3.603  1.00  0.00    -0.504 OA
ATOM     22  H   UNL     1      18.816 -36.051  -3.686  1.00  0.00     0.293 HD
ENDBRANCH  18  21
ENDBRANCH   3  13
BRANCH  10  23
ATOM     23  O   UNL     1       8.975 -35.279  -3.539  1.00  0.00    -0.507 OA
ATOM     24  H   UNL     1       8.610 -34.520  -4.094  1.00  0.00     0.293 HD
ENDBRANCH  10  23
BRANCH  11  25
ATOM     25  O   UNL     1       9.496 -39.051  -6.460  1.00  0.00    -0.508 OA
ATOM     26  H   UNL     1       8.549 -39.405  -6.394  1.00  0.00     0.293 HD
ENDBRANCH  11  25
ENDBRANCH   1   2
BRANCH   1  27
ATOM     27  C   UNL     1      13.320 -35.294   0.233  1.00  0.00     0.339 C 
ATOM     28  C   UNL     1      12.902 -33.908   0.763  1.00  0.00     0.214 C 
ATOM     29  O   UNL     1      14.358 -35.876   1.010  1.00  0.00    -0.332 OA
ATOM     30  C   UNL     1      14.117 -32.976   0.812  1.00  0.00     0.180 C 
ATOM     31  C   UNL     1      15.530 -35.070   1.115  1.00  0.00     0.179 C 
ATOM     32  C   UNL     1      15.239 -33.639   1.627  1.00  0.00     0.177 C 
BRANCH  28  33
ATOM     33  O   UNL     1      11.909 -33.346  -0.055  1.00  0.00    -0.384 OA
ATOM     34  H   UNL     1      12.307 -33.240  -0.958  1.00  0.00     0.211 HD
ENDBRANCH  28  33
BRANCH  30  35
ATOM     35  O   UNL     1      13.766 -31.751   1.404  1.00  0.00    -0.387 OA
ATOM     36  H   UNL     1      14.601 -31.219   1.486  1.00  0.00     0.211 HD
ENDBRANCH  30  35
BRANCH  31  37
ATOM     37  C   UNL     1      16.390 -35.106  -0.165  1.00  0.00     0.191 C 
BRANCH  37  38
ATOM     38  O   UNL     1      17.707 -35.462   0.157  1.00  0.00    -0.394 OA
ATOM     39  H   UNL     1      17.640 -36.198   0.820  1.00  0.00     0.210 HD
ENDBRANCH  37  38
ENDBRANCH  31  37
BRANCH  32  40
ATOM     40  O   UNL     1      14.874 -33.713   2.984  1.00  0.00    -0.387 OA
ATOM     41  H   UNL     1      14.282 -34.505   3.085  1.00  0.00     0.211 HD
ENDBRANCH  32  40
ENDBRANCH   1  27
TORSDOF 12
ENDMDL
MODEL 2
REMARK VINA RESULT:    -6.845      1.947      2.920
REMARK INTER + INTRA:         -11.343
REMARK INTER:                  -9.668
REMARK INTRA:                  -1.675
REMARK UNBOUND:                -1.297
REMARK SMILES O=c1c(O[C@H]2O[C@@H](CO)[C@H](O)[C@H](O)[C@H]2O)c(-c2ccc(O)c(O)c2)oc2cc(O)cc(O)c12
REMARK SMILES IDX 4 1 3 2 16 3 25 4 2 5 26 6 1 7 33 8 27 9 31 10 28 11 30 12
REMARK SMILES IDX 17 13 18 14 19 15 20 16 24 17 22 18 21 19 23 21 32 23 29 25
REMARK SMILES IDX 5 27 14 28 6 29 12 30 7 31 10 32 15 33 13 35 8 37 9 38 11 40
REMARK H PARENT 21 20 23 22 32 24 29 26 15 34 13 36 9 39 11 41
REMARK Flexibility Score: inf
ROOT
ATOM      1  O   UNL     1      13.371 -36.425  -3.069  1.00  0.00    -0.454 OA
ENDROOT
BRANCH   1   2
ATOM      2  C   UNL     1      13.232 -37.716  -3.596  1.00  0.00     0.214 A 
ATOM      3  C   UNL     1      14.128 -38.753  -3.269  1.00  0.00     0.180 A 
ATOM      4  O   UNL     1      13.916 -39.975  -3.744  1.00  0.00    -0.452 OA
ATOM      5  C   UNL     1      12.179 -37.981  -4.478  1.00  0.00     0.239 A 
ATOM      6  C   UNL     1      12.904 -40.284  -4.546  1.00  0.00     0.146 A 
ATOM      7  O   UNL     1      11.454 -37.021  -4.846  1.00  0.00    -0.285 OA
ATOM      8  C   UNL     1      11.961 -39.300  -4.943  1.00  0.00     0.111 A 
ATOM      9  C   UNL     1      12.796 -41.599  -5.005  1.00  0.00     0.094 A 
ATOM     10  C   UNL     1      10.883 -39.694  -5.791  1.00  0.00     0.134 A 
ATOM     11  C   UNL     1      11.769 -41.961  -5.873  1.00  0.00     0.123 A 
ATOM     12  C   UNL     1      10.824 -41.011  -6.265  1.00  0.00     0.093 A 
BRANCH   3  13
ATOM     13  C   UNL     1      15.326 -38.530  -2.431  1.00  0.00     0.025 A 
ATOM     14  C   UNL     1      15.221 -38.612  -1.034  1.00  0.00     0.016 A 
ATOM     15  C   UNL     1      16.343 -38.409  -0.228  1.00  0.00     0.051 A 
ATOM     16  C   UNL     1      17.590 -38.136  -0.806  1.00  0.00     0.157 A 
ATOM     17  C   UNL     1      16.584 -38.281  -3.009  1.00  0.00     0.062 A 
ATOM     18  C   UNL     1      17.710 -38.075  -2.205  1.00  0.00     0.158 A 
BRANCH  16  19
ATOM     19  O   UNL     1      18.708 -37.929   0.001  1.00  0.00    -0.504 OA
ATOM     20  H   UNL     1      19.639 -37.861  -0.392  1.00  0.00     0.293 HD
ENDBRANCH  16  19
BRANCH  18  21
ATOM     21  O   UNL     1      18.937 -37.816  -2.813  1.00  0.00    -0.504 OA
ATOM     22  H   UNL     1      19.444 -36.952  -2.656  1.00  0.00     0.293 HD
ENDBRANCH  18  21
ENDBRANCH   3  13
BRANCH  10  23
ATOM     23  O   UNL     1       9.837 -38.849  -6.173  1.00  0.00    -0.507 OA
ATOM     24  H   UNL     1       9.701 -38.480  -7.101  1.00  0.00     0.293 HD
ENDBRANCH  10  23
BRANCH  11  25
ATOM     25  O   UNL     1      11.692 -43.273  -6.336  1.00  0.00    -0.508 OA
ATOM     26  H   UNL     1      11.406 -44.034  -5.730  1.00  0.00     0.293 HD
ENDBRANCH  11  25
ENDBRANCH   1   2
BRANCH   1  27
ATOM     27  C   UNL     1      12.799 -36.020  -1.821  1.00  0.00     0.339 C 
ATOM     28  C   UNL     1      11.813 -34.848  -2.003  1.00  0.00     0.214 C 
ATOM     29  O   UNL     1      13.819 -35.722  -0.877  1.00  0.00    -0.332 OA
ATOM     30  C   UNL     1      12.572 -33.584  -2.418  1.00  0.00     0.180 C 
ATOM     31  C   UNL     1      14.574 -34.552  -1.183  1.00  0.00     0.179 C 
ATOM     32  C   UNL     1      13.691 -33.300  -1.403  1.00  0.00     0.177 C 
BRANCH  28  33
ATOM     33  O   UNL     1      10.849 -35.161  -2.974  1.00  0.00    -0.384 OA
ATOM     34  H   UNL     1      11.276 -35.794  -3.609  1.00  0.00     0.211 HD
ENDBRANCH  28  33
BRANCH  30  35
ATOM     35  O   UNL     1      11.696 -32.486  -2.470  1.00  0.00    -0.387 OA
ATOM     36  H   UNL     1      10.782 -32.836  -2.300  1.00  0.00     0.211 HD
ENDBRANCH  30  35
BRANCH  31  37
ATOM     37  C   UNL     1      15.604 -34.789  -2.306  1.00  0.00     0.191 C 
BRANCH  37  38
ATOM     38  O   UNL     1      16.894 -34.854  -1.762  1.00  0.00    -0.394 OA
ATOM     39  H   UNL     1      17.068 -35.814  -1.578  1.00  0.00     0.210 HD
ENDBRANCH  37  38
ENDBRANCH  31  37
BRANCH  32  40
ATOM     40  O   UNL     1      13.139 -32.916  -0.168  1.00  0.00    -0.387 OA
ATOM     41  H   UNL     1      13.301 -31.941  -0.065  1.00  0.00     0.211 HD
ENDBRANCH  32  40
ENDBRANCH   1  27
TORSDOF 12
ENDMDL
MODEL 3
REMARK VINA RESULT:    -6.674      1.917      5.162
REMARK INTER + INTRA:         -11.092
REMARK INTER:                  -9.345
REMARK INTRA:                  -1.748
REMARK UNBOUND:                -1.297
REMARK SMILES O=c1c(O[C@H]2O[C@@H](CO)[C@H](O)[C@H](O)[C@H]2O)c(-c2ccc(O)c(O)c2)oc2cc(O)cc(O)c12
REMARK SMILES IDX 4 1 3 2 16 3 25 4 2 5 26 6 1 7 33 8 27 9 31 10 28 11 30 12
REMARK SMILES IDX 17 13 18 14 19 15 20 16 24 17 22 18 21 19 23 21 32 23 29 25
REMARK SMILES IDX 5 27 14 28 6 29 12 30 7 31 10 32 15 33 13 35 8 37 9 38 11 40
REMARK H PARENT 21 20 23 22 32 24 29 26 15 34 13 36 9 39 11 41
REMARK Flexibility Score: inf
ROOT
ATOM      1  O   UNL     1      14.655 -38.192  -1.442  1.00  0.00    -0.454 OA
ENDROOT
BRANCH   1   2
ATOM      2  C   UNL     1      13.683 -38.224  -2.451  1.00  0.00     0.214 A 
ATOM      3  C   UNL     1      12.945 -37.079  -2.809  1.00  0.00     0.180 A 
ATOM      4  O   UNL     1      12.082 -37.145  -3.815  1.00  0.00    -0.452 OA
ATOM      5  C   UNL     1      13.434 -39.429  -3.118  1.00  0.00     0.239 A 
ATOM      6  C   UNL     1      11.845 -38.253  -4.508  1.00  0.00     0.146 A 
ATOM      7  O   UNL     1      14.020 -40.466  -2.714  1.00  0.00    -0.285 OA
ATOM      8  C   UNL     1      12.530 -39.461  -4.206  1.00  0.00     0.111 A 
ATOM      9  C   UNL     1      10.895 -38.211  -5.530  1.00  0.00     0.094 A 
ATOM     10  C   UNL     1      12.250 -40.616  -4.996  1.00  0.00     0.134 A 
ATOM     11  C   UNL     1      10.593 -39.357  -6.261  1.00  0.00     0.123 A 
ATOM     12  C   UNL     1      11.264 -40.551  -5.989  1.00  0.00     0.093 A 
BRANCH   3  13
ATOM     13  C   UNL     1      13.071 -35.796  -2.084  1.00  0.00     0.025 A 
ATOM     14  C   UNL     1      13.640 -34.687  -2.729  1.00  0.00     0.016 A 
ATOM     15  C   UNL     1      13.763 -33.467  -2.061  1.00  0.00     0.051 A 
ATOM     16  C   UNL     1      13.307 -33.333  -0.743  1.00  0.00     0.157 A 
ATOM     17  C   UNL     1      12.591 -35.651  -0.770  1.00  0.00     0.062 A 
ATOM     18  C   UNL     1      12.714 -34.431  -0.096  1.00  0.00     0.158 A 
BRANCH  16  19
ATOM     19  O   UNL     1      13.435 -32.115  -0.076  1.00  0.00    -0.504 OA
ATOM     20  H   UNL     1      14.344 -31.714   0.123  1.00  0.00     0.293 HD
ENDBRANCH  16  19
BRANCH  18  21
ATOM     21  O   UNL     1      12.241 -34.329   1.210  1.00  0.00    -0.504 OA
ATOM     22  H   UNL     1      12.865 -34.267   2.006  1.00  0.00     0.293 HD
ENDBRANCH  18  21
ENDBRANCH   3  13
BRANCH  10  23
ATOM     23  O   UNL     1      12.923 -41.834  -4.868  1.00  0.00    -0.507 OA
ATOM     24  H   UNL     1      13.794 -41.966  -4.379  1.00  0.00     0.293 HD
ENDBRANCH  10  23
BRANCH  11  25
ATOM     25  O   UNL     1       9.626 -39.297  -7.262  1.00  0.00    -0.508 OA
ATOM     26  H   UNL     1       9.661 -38.596  -7.993  1.00  0.00     0.293 HD
ENDBRANCH  11  25
ENDBRANCH   1   2
BRANCH   1  27
ATOM     27  C   UNL     1      15.942 -37.590  -1.609  1.00  0.00     0.339 C 
ATOM     28  C   UNL     1      17.066 -38.646  -1.608  1.00  0.00     0.214 C 
ATOM     29  O   UNL     1      16.153 -36.581  -0.631  1.00  0.00    -0.332 OA
ATOM     30  C   UNL     1      17.198 -39.272  -0.216  1.00  0.00     0.180 C 
ATOM     31  C   UNL     1      16.294 -37.077   0.699  1.00  0.00     0.179 C 
ATOM     32  C   UNL     1      17.390 -38.162   0.830  1.00  0.00     0.177 C 
BRANCH  28  33
ATOM     33  O   UNL     1      16.801 -39.650  -2.554  1.00  0.00    -0.384 OA
ATOM     34  H   UNL     1      17.080 -40.510  -2.145  1.00  0.00     0.211 HD
ENDBRANCH  28  33
BRANCH  30  35
ATOM     35  O   UNL     1      18.296 -40.148  -0.179  1.00  0.00    -0.387 OA
ATOM     36  H   UNL     1      18.437 -40.476  -1.105  1.00  0.00     0.211 HD
ENDBRANCH  30  35
BRANCH  31  37
ATOM     37  C   UNL     1      14.944 -37.483   1.325  1.00  0.00     0.191 C 
BRANCH  37  38
ATOM     38  O   UNL     1      14.451 -36.434   2.114  1.00  0.00    -0.394 OA
ATOM     39  H   UNL     1      15.180 -35.762   2.166  1.00  0.00     0.210 HD
ENDBRANCH  37  38
ENDBRANCH  31  37
BRANCH  32  40
ATOM     40  O   UNL     1      18.647 -37.553   0.664  1.00  0.00    -0.387 OA
ATOM     41  H   UNL     1      18.684 -36.782   1.290  1.00  0.00     0.211 HD
ENDBRANCH  32  40
ENDBRANCH   1  27
TORSDOF 12
ENDMDL
MODEL 4
REMARK VINA RESULT:    -6.642      1.313      2.421
REMARK INTER + INTRA:         -11.046
REMARK INTER:                  -9.892
REMARK INTRA:                  -1.154
REMARK UNBOUND:                -1.297
REMARK SMILES O=c1c(O[C@H]2O[C@@H](CO)[C@H](O)[C@H](O)[C@H]2O)c(-c2ccc(O)c(O)c2)oc2cc(O)cc(O)c12
REMARK SMILES IDX 4 1 3 2 16 3 25 4 2 5 26 6 1 7 33 8 27 9 31 10 28 11 30 12
REMARK SMILES IDX 17 13 18 14 19 15 20 16 24 17 22 18 21 19 23 21 32 23 29 25
REMARK SMILES IDX 5 27 14 28 6 29 12 30 7 31 10 32 15 33 13 35 8 37 9 38 11 40
REMARK H PARENT 21 20 23 22 32 24 29 26 15 34 13 36 9 39 11 41
REMARK Flexibility Score: inf
ROOT
ATOM      1  O   UNL     1      14.320 -36.272  -0.633  1.00  0.00    -0.454 OA
ENDROOT
BRANCH   1   2
ATOM      2  C   UNL     1      13.734 -36.804  -1.789  1.00  0.00     0.214 A 
ATOM      3  C   UNL     1      14.466 -37.592  -2.698  1.00  0.00     0.180 A 
ATOM      4  O   UNL     1      13.850 -38.126  -3.746  1.00  0.00    -0.452 OA
ATOM      5  C   UNL     1      12.386 -36.538  -2.052  1.00  0.00     0.239 A 
ATOM      6  C   UNL     1      12.562 -37.941  -4.011  1.00  0.00     0.146 A 
ATOM      7  O   UNL     1      11.774 -35.744  -1.291  1.00  0.00    -0.285 OA
ATOM      8  C   UNL     1      11.749 -37.147  -3.160  1.00  0.00     0.111 A 
ATOM      9  C   UNL     1      12.026 -38.533  -5.158  1.00  0.00     0.094 A 
ATOM     10  C   UNL     1      10.367 -36.999  -3.484  1.00  0.00     0.134 A 
ATOM     11  C   UNL     1      10.688 -38.340  -5.492  1.00  0.00     0.123 A 
ATOM     12  C   UNL     1       9.868 -37.573  -4.661  1.00  0.00     0.093 A 
BRANCH   3  13
ATOM     13  C   UNL     1      15.918 -37.830  -2.550  1.00  0.00     0.025 A 
ATOM     14  C   UNL     1      16.824 -37.124  -3.358  1.00  0.00     0.016 A 
ATOM     15  C   UNL     1      18.198 -37.334  -3.228  1.00  0.00     0.051 A 
ATOM     16  C   UNL     1      18.690 -38.241  -2.280  1.00  0.00     0.157 A 
ATOM     17  C   UNL     1      16.416 -38.721  -1.582  1.00  0.00     0.062 A 
ATOM     18  C   UNL     1      17.792 -38.935  -1.450  1.00  0.00     0.158 A 
BRANCH  16  19
ATOM     19  O   UNL     1      20.062 -38.452  -2.156  1.00  0.00    -0.504 OA
ATOM     20  H   UNL     1      20.733 -37.879  -2.654  1.00  0.00     0.293 HD
ENDBRANCH  16  19
BRANCH  18  21
ATOM     21  O   UNL     1      18.248 -39.836  -0.491  1.00  0.00    -0.504 OA
ATOM     22  H   UNL     1      17.668 -40.590  -0.141  1.00  0.00     0.293 HD
ENDBRANCH  18  21
ENDBRANCH   3  13
BRANCH  10  23
ATOM     23  O   UNL     1       9.441 -36.329  -2.680  1.00  0.00    -0.507 OA
ATOM     24  H   UNL     1       9.609 -35.452  -2.212  1.00  0.00     0.293 HD
ENDBRANCH  10  23
BRANCH  11  25
ATOM     25  O   UNL     1      10.179 -38.921  -6.651  1.00  0.00    -0.508 OA
ATOM     26  H   UNL     1      10.582 -39.765  -7.043  1.00  0.00     0.293 HD
ENDBRANCH  11  25
ENDBRANCH   1   2
BRANCH   1  27
ATOM     27  C   UNL     1      14.481 -34.868  -0.407  1.00  0.00     0.339 C 
ATOM     28  C   UNL     1      15.950 -34.507  -0.107  1.00  0.00     0.214 C 
ATOM     29  O   UNL     1      13.599 -34.421   0.613  1.00  0.00    -0.332 OA
ATOM     30  C   UNL     1      16.367 -35.085   1.249  1.00  0.00     0.180 C 
ATOM     31  C   UNL     1      13.918 -34.908   1.915  1.00  0.00     0.179 C 
ATOM     32  C   UNL     1      15.380 -34.618   2.331  1.00  0.00     0.177 C 
BRANCH  28  33
ATOM     33  O   UNL     1      16.795 -35.004  -1.112  1.00  0.00    -0.384 OA
ATOM     34  H   UNL     1      16.841 -34.308  -1.819  1.00  0.00     0.211 HD
ENDBRANCH  28  33
BRANCH  30  35
ATOM     35  O   UNL     1      17.665 -34.661   1.581  1.00  0.00    -0.387 OA
ATOM     36  H   UNL     1      17.719 -33.695   1.360  1.00  0.00     0.211 HD
ENDBRANCH  30  35
BRANCH  31  37
ATOM     37  C   UNL     1      13.497 -36.378   2.117  1.00  0.00     0.191 C 
BRANCH  37  38
ATOM     38  O   UNL     1      12.231 -36.591   1.555  1.00  0.00    -0.394 OA
ATOM     39  H   UNL     1      11.573 -36.388   2.271  1.00  0.00     0.210 HD
ENDBRANCH  37  38
ENDBRANCH  31  37
BRANCH  32  40
ATOM     40  O   UNL     1      15.520 -33.235   2.549  1.00  0.00    -0.387 OA
ATOM     41  H   UNL     1      16.318 -32.938   2.038  1.00  0.00     0.211 HD
ENDBRANCH  32  40
ENDBRANCH   1  27
TORSDOF 12
ENDMDL
MODEL 5
REMARK VINA RESULT:    -6.451      2.042      5.938
REMARK INTER + INTRA:         -10.766
REMARK INTER:                  -9.179
REMARK INTRA:                  -1.587
REMARK UNBOUND:                -1.297
REMARK SMILES O=c1c(O[C@H]2O[C@@H](CO)[C@H](O)[C@H](O)[C@H]2O)c(-c2ccc(O)c(O)c2)oc2cc(O)cc(O)c12
REMARK SMILES IDX 4 1 3 2 16 3 25 4 2 5 26 6 1 7 33 8 27 9 31 10 28 11 30 12
REMARK SMILES IDX 17 13 18 14 19 15 20 16 24 17 22 18 21 19 23 21 32 23 29 25
REMARK SMILES IDX 5 27 14 28 6 29 12 30 7 31 10 32 15 33 13 35 8 37 9 38 11 40
REMARK H PARENT 21 20 23 22 32 24 29 26 15 34 13 36 9 39 11 41
REMARK Flexibility Score: inf
ROOT
ATOM      1  O   UNL     1      15.034 -36.662  -0.692  1.00  0.00    -0.454 OA
ENDROOT
BRANCH   1   2
ATOM      2  C   UNL     1      13.841 -35.991  -0.394  1.00  0.00     0.214 A 
ATOM      3  C   UNL     1      12.671 -36.179  -1.155  1.00  0.00     0.180 A 
ATOM      4  O   UNL     1      11.549 -35.569  -0.793  1.00  0.00    -0.452 OA
ATOM      5  C   UNL     1      13.812 -35.103   0.688  1.00  0.00     0.239 A 
ATOM      6  C   UNL     1      11.462 -34.755   0.253  1.00  0.00     0.146 A 
ATOM      7  O   UNL     1      14.891 -34.862   1.290  1.00  0.00    -0.285 OA
ATOM      8  C   UNL     1      12.594 -34.492   1.068  1.00  0.00     0.111 A 
ATOM      9  C   UNL     1      10.233 -34.148   0.524  1.00  0.00     0.094 A 
ATOM     10  C   UNL     1      12.437 -33.624   2.190  1.00  0.00     0.134 A 
ATOM     11  C   UNL     1      10.104 -33.263   1.592  1.00  0.00     0.123 A 
ATOM     12  C   UNL     1      11.202 -33.001   2.414  1.00  0.00     0.093 A 
BRANCH   3  13
ATOM     13  C   UNL     1      12.645 -37.015  -2.375  1.00  0.00     0.025 A 
ATOM     14  C   UNL     1      13.114 -36.488  -3.588  1.00  0.00     0.016 A 
ATOM     15  C   UNL     1      13.101 -37.265  -4.749  1.00  0.00     0.051 A 
ATOM     16  C   UNL     1      12.632 -38.585  -4.711  1.00  0.00     0.157 A 
ATOM     17  C   UNL     1      12.200 -38.349  -2.335  1.00  0.00     0.062 A 
ATOM     18  C   UNL     1      12.183 -39.130  -3.495  1.00  0.00     0.158 A 
BRANCH  16  19
ATOM     19  O   UNL     1      12.615 -39.357  -5.871  1.00  0.00    -0.504 OA
ATOM     20  H   UNL     1      11.782 -39.853  -6.165  1.00  0.00     0.293 HD
ENDBRANCH  16  19
BRANCH  18  21
ATOM     21  O   UNL     1      11.720 -40.442  -3.421  1.00  0.00    -0.504 OA
ATOM     22  H   UNL     1      12.009 -41.074  -2.684  1.00  0.00     0.293 HD
ENDBRANCH  18  21
ENDBRANCH   3  13
BRANCH  10  23
ATOM     23  O   UNL     1      13.442 -33.361   3.125  1.00  0.00    -0.507 OA
ATOM     24  H   UNL     1      13.286 -33.091   4.084  1.00  0.00     0.293 HD
ENDBRANCH  10  23
BRANCH  11  25
ATOM     25  O   UNL     1       8.875 -32.652   1.832  1.00  0.00    -0.508 OA
ATOM     26  H   UNL     1       8.810 -31.761   2.311  1.00  0.00     0.293 HD
ENDBRANCH  11  25
ENDBRANCH   1   2
BRANCH   1  27
ATOM     27  C   UNL     1      15.308 -38.003  -0.274  1.00  0.00     0.339 C 
ATOM     28  C   UNL     1      16.463 -38.054   0.747  1.00  0.00     0.214 C 
ATOM     29  O   UNL     1      15.548 -38.839  -1.398  1.00  0.00    -0.332 OA
ATOM     30  C   UNL     1      17.781 -37.669   0.068  1.00  0.00     0.180 C 
ATOM     31  C   UNL     1      16.762 -38.553  -2.089  1.00  0.00     0.179 C 
ATOM     32  C   UNL     1      18.003 -38.561  -1.165  1.00  0.00     0.177 C 
BRANCH  28  33
ATOM     33  O   UNL     1      16.212 -37.183   1.819  1.00  0.00    -0.384 OA
ATOM     34  H   UNL     1      16.728 -37.526   2.594  1.00  0.00     0.211 HD
ENDBRANCH  28  33
BRANCH  30  35
ATOM     35  O   UNL     1      18.853 -37.827   0.962  1.00  0.00    -0.387 OA
ATOM     36  H   UNL     1      19.482 -37.077   0.795  1.00  0.00     0.211 HD
ENDBRANCH  30  35
BRANCH  31  37
ATOM     37  C   UNL     1      16.657 -37.295  -2.975  1.00  0.00     0.191 C 
BRANCH  37  38
ATOM     38  O   UNL     1      17.584 -37.373  -4.023  1.00  0.00    -0.394 OA
ATOM     39  H   UNL     1      17.502 -38.289  -4.398  1.00  0.00     0.210 HD
ENDBRANCH  37  38
ENDBRANCH  31  37
BRANCH  32  40
ATOM     40  O   UNL     1      18.258 -39.885  -0.764  1.00  0.00    -0.387 OA
ATOM     41  H   UNL     1      19.243 -40.014  -0.789  1.00  0.00     0.211 HD
ENDBRANCH  32  40
ENDBRANCH   1  27
TORSDOF 12
ENDMDL
MODEL 6
REMARK VINA RESULT:    -6.451      1.832      3.496
REMARK INTER + INTRA:         -10.766
REMARK INTER:                  -9.883
REMARK INTRA:                  -0.883
REMARK UNBOUND:                -1.297
REMARK SMILES O=c1c(O[C@H]2O[C@@H](CO)[C@H](O)[C@H](O)[C@H]2O)c(-c2ccc(O)c(O)c2)oc2cc(O)cc(O)c12
REMARK SMILES IDX 4 1 3 2 16 3 25 4 2 5 26 6 1 7 33 8 27 9 31 10 28 11 30 12
REMARK SMILES IDX 17 13 18 14 19 15 20 16 24 17 22 18 21 19 23 21 32 23 29 25
REMARK SMILES IDX 5 27 14 28 6 29 12 30 7 31 10 32 15 33 13 35 8 37 9 38 11 40
REMARK H PARENT 21 20 23 22 32 24 29 26 15 34 13 36 9 39 11 41
REMARK Flexibility Score: inf
ROOT
ATOM      1  O   UNL     1      12.958 -36.336  -2.665  1.00  0.00    -0.454 OA
ENDROOT
BRANCH   1   2
ATOM      2  C   UNL     1      12.821 -37.512  -3.414  1.00  0.00     0.214 A 
ATOM      3  C   UNL     1      13.808 -38.516  -3.407  1.00  0.00     0.180 A 
ATOM      4  O   UNL     1      13.603 -39.641  -4.082  1.00  0.00    -0.452 OA
ATOM      5  C   UNL     1      11.675 -37.690  -4.197  1.00  0.00     0.239 A 
ATOM      6  C   UNL     1      12.511 -39.875  -4.801  1.00  0.00     0.146 A 
ATOM      7  O   UNL     1      10.855 -36.739  -4.280  1.00  0.00    -0.285 OA
ATOM      8  C   UNL     1      11.470 -38.912  -4.881  1.00  0.00     0.111 A 
ATOM      9  C   UNL     1      12.414 -41.085  -5.492  1.00  0.00     0.094 A 
ATOM     10  C   UNL     1      10.311 -39.226  -5.653  1.00  0.00     0.134 A 
ATOM     11  C   UNL     1      11.302 -41.360  -6.283  1.00  0.00     0.123 A 
ATOM     12  C   UNL     1      10.262 -40.431  -6.364  1.00  0.00     0.093 A 
BRANCH   3  13
ATOM     13  C   UNL     1      15.094 -38.359  -2.693  1.00  0.00     0.025 A 
ATOM     14  C   UNL     1      15.182 -38.712  -1.337  1.00  0.00     0.016 A 
ATOM     15  C   UNL     1      16.390 -38.574  -0.648  1.00  0.00     0.051 A 
ATOM     16  C   UNL     1      17.530 -38.096  -1.308  1.00  0.00     0.157 A 
ATOM     17  C   UNL     1      16.246 -37.904  -3.358  1.00  0.00     0.062 A 
ATOM     18  C   UNL     1      17.457 -37.763  -2.672  1.00  0.00     0.158 A 
BRANCH  16  19
ATOM     19  O   UNL     1      18.733 -37.955  -0.617  1.00  0.00    -0.504 OA
ATOM     20  H   UNL     1      19.580 -37.654  -1.085  1.00  0.00     0.293 HD
ENDBRANCH  16  19
BRANCH  18  21
ATOM     21  O   UNL     1      18.574 -37.294  -3.359  1.00  0.00    -0.504 OA
ATOM     22  H   UNL     1      18.830 -37.646  -4.275  1.00  0.00     0.293 HD
ENDBRANCH  18  21
ENDBRANCH   3  13
BRANCH  10  23
ATOM     23  O   UNL     1       9.179 -38.411  -5.733  1.00  0.00    -0.507 OA
ATOM     24  H   UNL     1       8.470 -38.332  -5.020  1.00  0.00     0.293 HD
ENDBRANCH  10  23
BRANCH  11  25
ATOM     25  O   UNL     1      11.236 -42.564  -6.981  1.00  0.00    -0.508 OA
ATOM     26  H   UNL     1      10.570 -42.706  -7.732  1.00  0.00     0.293 HD
ENDBRANCH  11  25
ENDBRANCH   1   2
BRANCH   1  27
ATOM     27  C   UNL     1      13.617 -35.163  -3.155  1.00  0.00     0.339 C 
ATOM     28  C   UNL     1      14.415 -34.454  -2.042  1.00  0.00     0.214 C 
ATOM     29  O   UNL     1      12.687 -34.294  -3.786  1.00  0.00    -0.332 OA
ATOM     30  C   UNL     1      13.456 -33.857  -1.007  1.00  0.00     0.180 C 
ATOM     31  C   UNL     1      11.756 -33.686  -2.892  1.00  0.00     0.179 C 
ATOM     32  C   UNL     1      12.438 -32.949  -1.715  1.00  0.00     0.177 C 
BRANCH  28  33
ATOM     33  O   UNL     1      15.289 -35.355  -1.411  1.00  0.00    -0.384 OA
ATOM     34  H   UNL     1      16.037 -34.817  -1.043  1.00  0.00     0.211 HD
ENDBRANCH  28  33
BRANCH  30  35
ATOM     35  O   UNL     1      14.171 -33.111  -0.055  1.00  0.00    -0.387 OA
ATOM     36  H   UNL     1      13.513 -32.795   0.619  1.00  0.00     0.211 HD
ENDBRANCH  30  35
BRANCH  31  37
ATOM     37  C   UNL     1      10.639 -34.655  -2.453  1.00  0.00     0.191 C 
BRANCH  37  38
ATOM     38  O   UNL     1       9.500 -34.458  -3.245  1.00  0.00    -0.394 OA
ATOM     39  H   UNL     1       9.752 -33.784  -3.929  1.00  0.00     0.210 HD
ENDBRANCH  37  38
ENDBRANCH  31  37
BRANCH  32  40
ATOM     40  O   UNL     1      13.079 -31.800  -2.214  1.00  0.00    -0.387 OA
ATOM     41  H   UNL     1      12.554 -31.015  -1.906  1.00  0.00     0.211 HD
ENDBRANCH  32  40
ENDBRANCH   1  27
TORSDOF 12
ENDMDL
MODEL 7
REMARK VINA RESULT:    -6.425      2.121      4.929
REMARK INTER + INTRA:         -10.727
REMARK INTER:                 -10.384
REMARK INTRA:                  -0.343
REMARK UNBOUND:                -1.297
REMARK SMILES O=c1c(O[C@H]2O[C@@H](CO)[C@H](O)[C@H](O)[C@H]2O)c(-c2ccc(O)c(O)c2)oc2cc(O)cc(O)c12
REMARK SMILES IDX 4 1 3 2 16 3 25 4 2 5 26 6 1 7 33 8 27 9 31 10 28 11 30 12
REMARK SMILES IDX 17 13 18 14 19 15 20 16 24 17 22 18 21 19 23 21 32 23 29 25
REMARK SMILES IDX 5 27 14 28 6 29 12 30 7 31 10 32 15 33 13 35 8 37 9 38 11 40
REMARK H PARENT 21 20 23 22 32 24 29 26 15 34 13 36 9 39 11 41
REMARK Flexibility Score: inf
ROOT
ATOM      1  O   UNL     1      14.759 -37.765  -2.831  1.00  0.00    -0.454 OA
ENDROOT
BRANCH   1   2
ATOM      2  C   UNL     1      13.653 -38.100  -3.623  1.00  0.00     0.214 A 
ATOM      3  C   UNL     1      12.695 -37.141  -4.007  1.00  0.00     0.180 A 
ATOM      4  O   UNL     1      11.701 -37.495  -4.812  1.00  0.00    -0.452 OA
ATOM      5  C   UNL     1      13.492 -39.426  -4.040  1.00  0.00     0.239 A 
ATOM      6  C   UNL     1      11.533 -38.730  -5.270  1.00  0.00     0.146 A 
ATOM      7  O   UNL     1      14.292 -40.292  -3.600  1.00  0.00    -0.285 OA
ATOM      8  C   UNL     1      12.439 -39.767  -4.922  1.00  0.00     0.111 A 
ATOM      9  C   UNL     1      10.433 -38.993  -6.091  1.00  0.00     0.094 A 
ATOM     10  C   UNL     1      12.220 -41.070  -5.461  1.00  0.00     0.134 A 
ATOM     11  C   UNL     1      10.201 -40.280  -6.569  1.00  0.00     0.123 A 
ATOM     12  C   UNL     1      11.088 -41.310  -6.249  1.00  0.00     0.093 A 
BRANCH   3  13
ATOM     13  C   UNL     1      12.734 -35.745  -3.522  1.00  0.00     0.025 A 
ATOM     14  C   UNL     1      13.938 -35.211  -3.037  1.00  0.00     0.016 A 
ATOM     15  C   UNL     1      13.994 -33.893  -2.579  1.00  0.00     0.051 A 
ATOM     16  C   UNL     1      12.850 -33.084  -2.613  1.00  0.00     0.157 A 
ATOM     17  C   UNL     1      11.595 -34.922  -3.578  1.00  0.00     0.062 A 
ATOM     18  C   UNL     1      11.645 -33.602  -3.119  1.00  0.00     0.158 A 
BRANCH  16  19
ATOM     19  O   UNL     1      12.907 -31.769  -2.151  1.00  0.00    -0.504 OA
ATOM     20  H   UNL     1      13.633 -31.132  -2.456  1.00  0.00     0.293 HD
ENDBRANCH  16  19
BRANCH  18  21
ATOM     21  O   UNL     1      10.493 -32.821  -3.175  1.00  0.00    -0.504 OA
ATOM     22  H   UNL     1       9.585 -33.214  -3.397  1.00  0.00     0.293 HD
ENDBRANCH  18  21
ENDBRANCH   3  13
BRANCH  10  23
ATOM     23  O   UNL     1      13.088 -42.150  -5.277  1.00  0.00    -0.507 OA
ATOM     24  H   UNL     1      14.019 -42.216  -5.658  1.00  0.00     0.293 HD
ENDBRANCH  10  23
BRANCH  11  25
ATOM     25  O   UNL     1       9.087 -40.524  -7.369  1.00  0.00    -0.508 OA
ATOM     26  H   UNL     1       9.179 -40.882  -8.313  1.00  0.00     0.293 HD
ENDBRANCH  11  25
ENDBRANCH   1   2
BRANCH   1  27
ATOM     27  C   UNL     1      15.165 -38.523  -1.686  1.00  0.00     0.339 C 
ATOM     28  C   UNL     1      14.810 -37.798  -0.372  1.00  0.00     0.214 C 
ATOM     29  O   UNL     1      16.546 -38.847  -1.765  1.00  0.00    -0.332 OA
ATOM     30  C   UNL     1      15.664 -36.535  -0.222  1.00  0.00     0.180 C 
ATOM     31  C   UNL     1      17.417 -37.727  -1.629  1.00  0.00     0.179 C 
ATOM     32  C   UNL     1      17.152 -36.903  -0.346  1.00  0.00     0.177 C 
BRANCH  28  33
ATOM     33  O   UNL     1      13.450 -37.453  -0.350  1.00  0.00    -0.384 OA
ATOM     34  H   UNL     1      12.948 -38.282  -0.130  1.00  0.00     0.211 HD
ENDBRANCH  28  33
BRANCH  30  35
ATOM     35  O   UNL     1      15.431 -35.935   1.027  1.00  0.00    -0.387 OA
ATOM     36  H   UNL     1      15.444 -36.661   1.704  1.00  0.00     0.211 HD
ENDBRANCH  30  35
BRANCH  31  37
ATOM     37  C   UNL     1      17.486 -36.871  -2.910  1.00  0.00     0.191 C 
BRANCH  37  38
ATOM     38  O   UNL     1      17.503 -37.703  -4.038  1.00  0.00    -0.394 OA
ATOM     39  H   UNL     1      17.062 -37.191  -4.766  1.00  0.00     0.210 HD
ENDBRANCH  37  38
ENDBRANCH  31  37
BRANCH  32  40
ATOM     40  O   UNL     1      17.557 -37.662   0.768  1.00  0.00    -0.387 OA
ATOM     41  H   UNL     1      18.330 -37.191   1.177  1.00  0.00     0.211 HD
ENDBRANCH  32  40
ENDBRANCH   1  27
TORSDOF 12
ENDMDL
MODEL 8
REMARK VINA RESULT:    -6.387      1.724      6.100
REMARK INTER + INTRA:         -10.671
REMARK INTER:                  -9.085
REMARK INTRA:                  -1.586
REMARK UNBOUND:                -1.297
REMARK SMILES O=c1c(O[C@H]2O[C@@H](CO)[C@H](O)[C@H](O)[C@H]2O)c(-c2ccc(O)c(O)c2)oc2cc(O)cc(O)c12
REMARK SMILES IDX 4 1 3 2 16 3 25 4 2 5 26 6 1 7 33 8 27 9 31 10 28 11 30 12
REMARK SMILES IDX 17 13 18 14 19 15 20 16 24 17 22 18 21 19 23 21 32 23 29 25
REMARK SMILES IDX 5 27 14 28 6 29 12 30 7 31 10 32 15 33 13 35 8 37 9 38 11 40
REMARK H PARENT 21 20 23 22 32 24 29 26 15 34 13 36 9 39 11 41
REMARK Flexibility Score: inf
ROOT
ATOM      1  O   UNL     1      12.843 -37.117  -2.251  1.00  0.00    -0.454 OA
ENDROOT
BRANCH   1   2
ATOM      2  C   UNL     1      13.036 -36.113  -1.293  1.00  0.00     0.214 A 
ATOM      3  C   UNL     1      14.300 -35.533  -1.068  1.00  0.00     0.180 A 
ATOM      4  O   UNL     1      14.418 -34.540  -0.195  1.00  0.00    -0.452 OA
ATOM      5  C   UNL     1      11.944 -35.678  -0.534  1.00  0.00     0.239 A 
ATOM      6  C   UNL     1      13.402 -34.061   0.514  1.00  0.00     0.146 A 
ATOM      7  O   UNL     1      10.846 -36.279  -0.669  1.00  0.00    -0.285 OA
ATOM      8  C   UNL     1      12.095 -34.596   0.366  1.00  0.00     0.111 A 
ATOM      9  C   UNL     1      13.650 -33.030   1.422  1.00  0.00     0.094 A 
ATOM     10  C   UNL     1      11.037 -34.029   1.139  1.00  0.00     0.134 A 
ATOM     11  C   UNL     1      12.621 -32.520   2.209  1.00  0.00     0.123 A 
ATOM     12  C   UNL     1      11.325 -33.022   2.069  1.00  0.00     0.093 A 
BRANCH   3  13
ATOM     13  C   UNL     1      15.523 -36.009  -1.750  1.00  0.00     0.025 A 
ATOM     14  C   UNL     1      16.299 -35.106  -2.494  1.00  0.00     0.016 A 
ATOM     15  C   UNL     1      17.459 -35.538  -3.140  1.00  0.00     0.051 A 
ATOM     16  C   UNL     1      17.869 -36.874  -3.042  1.00  0.00     0.157 A 
ATOM     17  C   UNL     1      15.951 -37.344  -1.632  1.00  0.00     0.062 A 
ATOM     18  C   UNL     1      17.111 -37.780  -2.280  1.00  0.00     0.158 A 
BRANCH  16  19
ATOM     19  O   UNL     1      19.025 -37.303  -3.692  1.00  0.00    -0.504 OA
ATOM     20  H   UNL     1      19.163 -38.277  -3.939  1.00  0.00     0.293 HD
ENDBRANCH  16  19
BRANCH  18  21
ATOM     21  O   UNL     1      17.495 -39.114  -2.154  1.00  0.00    -0.504 OA
ATOM     22  H   UNL     1      18.119 -39.428  -1.419  1.00  0.00     0.293 HD
ENDBRANCH  18  21
ENDBRANCH   3  13
BRANCH  10  23
ATOM     23  O   UNL     1       9.694 -34.396   1.017  1.00  0.00    -0.507 OA
ATOM     24  H   UNL     1       9.291 -35.247   1.377  1.00  0.00     0.293 HD
ENDBRANCH  10  23
BRANCH  11  25
ATOM     25  O   UNL     1      12.895 -31.506   3.124  1.00  0.00    -0.508 OA
ATOM     26  H   UNL     1      12.448 -31.476   4.033  1.00  0.00     0.293 HD
ENDBRANCH  11  25
ENDBRANCH   1   2
BRANCH   1  27
ATOM     27  C   UNL     1      12.878 -36.877  -3.661  1.00  0.00     0.339 C 
ATOM     28  C   UNL     1      11.471 -36.961  -4.286  1.00  0.00     0.214 C 
ATOM     29  O   UNL     1      13.800 -37.753  -4.295  1.00  0.00    -0.332 OA
ATOM     30  C   UNL     1      10.958 -38.403  -4.234  1.00  0.00     0.180 C 
ATOM     31  C   UNL     1      13.398 -39.121  -4.297  1.00  0.00     0.179 C 
ATOM     32  C   UNL     1      11.986 -39.338  -4.892  1.00  0.00     0.177 C 
BRANCH  28  33
ATOM     33  O   UNL     1      10.578 -36.117  -3.606  1.00  0.00    -0.384 OA
ATOM     34  H   UNL     1      10.543 -36.434  -2.666  1.00  0.00     0.211 HD
ENDBRANCH  28  33
BRANCH  30  35
ATOM     35  O   UNL     1       9.729 -38.508  -4.906  1.00  0.00    -0.387 OA
ATOM     36  H   UNL     1       9.855 -38.104  -5.805  1.00  0.00     0.211 HD
ENDBRANCH  30  35
BRANCH  31  37
ATOM     37  C   UNL     1      13.604 -39.802  -2.929  1.00  0.00     0.191 C 
BRANCH  37  38
ATOM     38  O   UNL     1      14.882 -40.374  -2.870  1.00  0.00    -0.394 OA
ATOM     39  H   UNL     1      15.409 -39.811  -2.245  1.00  0.00     0.210 HD
ENDBRANCH  37  38
ENDBRANCH  31  37
BRANCH  32  40
ATOM     40  O   UNL     1      12.040 -39.099  -6.278  1.00  0.00    -0.387 OA
ATOM     41  H   UNL     1      12.506 -38.231  -6.407  1.00  0.00     0.211 HD
ENDBRANCH  32  40
ENDBRANCH   1  27
TORSDOF 12
ENDMDL
MODEL 9
REMARK VINA RESULT:    -6.310      2.242      7.930
REMARK INTER + INTRA:         -10.558
REMARK INTER:                  -9.162
REMARK INTRA:                  -1.397
REMARK UNBOUND:                -1.297
REMARK SMILES O=c1c(O[C@H]2O[C@@H](CO)[C@H](O)[C@H](O)[C@H]2O)c(-c2ccc(O)c(O)c2)oc2cc(O)cc(O)c12
REMARK SMILES IDX 4 1 3 2 16 3 25 4 2 5 26 6 1 7 33 8 27 9 31 10 28 11 30 12
REMARK SMILES IDX 17 13 18 14 19 15 20 16 24 17 22 18 21 19 23 21 32 23 29 25
REMARK SMILES IDX 5 27 14 28 6 29 12 30 7 31 10 32 15 33 13 35 8 37 9 38 11 40
REMARK H PARENT 21 20 23 22 32 24 29 26 15 34 13 36 9 39 11 41
REMARK Flexibility Score: inf
ROOT
ATOM      1  O   UNL     1      13.856 -38.031  -2.679  1.00  0.00    -0.454 OA
ENDROOT
BRANCH   1   2
ATOM      2  C   UNL     1      14.632 -37.474  -1.654  1.00  0.00     0.214 A 
ATOM      3  C   UNL     1      14.343 -36.208  -1.107  1.00  0.00     0.180 A 
ATOM      4  O   UNL     1      15.069 -35.752  -0.094  1.00  0.00    -0.452 OA
ATOM      5  C   UNL     1      15.729 -38.191  -1.165  1.00  0.00     0.239 A 
ATOM      6  C   UNL     1      16.090 -36.417   0.435  1.00  0.00     0.146 A 
ATOM      7  O   UNL     1      16.040 -39.268  -1.736  1.00  0.00    -0.285 OA
ATOM      8  C   UNL     1      16.465 -37.693  -0.063  1.00  0.00     0.111 A 
ATOM      9  C   UNL     1      16.799 -35.826   1.483  1.00  0.00     0.094 A 
ATOM     10  C   UNL     1      17.557 -38.370   0.557  1.00  0.00     0.134 A 
ATOM     11  C   UNL     1      17.895 -36.474   2.047  1.00  0.00     0.123 A 
ATOM     12  C   UNL     1      18.272 -37.735   1.580  1.00  0.00     0.093 A 
BRANCH   3  13
ATOM     13  C   UNL     1      13.270 -35.341  -1.639  1.00  0.00     0.025 A 
ATOM     14  C   UNL     1      13.553 -34.446  -2.683  1.00  0.00     0.016 A 
ATOM     15  C   UNL     1      12.551 -33.623  -3.201  1.00  0.00     0.051 A 
ATOM     16  C   UNL     1      11.247 -33.692  -2.692  1.00  0.00     0.157 A 
ATOM     17  C   UNL     1      11.954 -35.425  -1.149  1.00  0.00     0.062 A 
ATOM     18  C   UNL     1      10.948 -34.601  -1.663  1.00  0.00     0.158 A 
BRANCH  16  19
ATOM     19  O   UNL     1      10.248 -32.866  -3.207  1.00  0.00    -0.504 OA
ATOM     20  H   UNL     1      10.250 -31.866  -3.040  1.00  0.00     0.293 HD
ENDBRANCH  16  19
BRANCH  18  21
ATOM     21  O   UNL     1       9.659 -34.701  -1.142  1.00  0.00    -0.504 OA
ATOM     22  H   UNL     1       9.029 -35.451  -1.402  1.00  0.00     0.293 HD
ENDBRANCH  18  21
ENDBRANCH   3  13
BRANCH  10  23
ATOM     23  O   UNL     1      17.963 -39.667   0.229  1.00  0.00    -0.507 OA
ATOM     24  H   UNL     1      18.859 -39.911  -0.165  1.00  0.00     0.293 HD
ENDBRANCH  10  23
BRANCH  11  25
ATOM     25  O   UNL     1      18.602 -35.858   3.078  1.00  0.00    -0.508 OA
ATOM     26  H   UNL     1      19.161 -35.028   2.916  1.00  0.00     0.293 HD
ENDBRANCH  11  25
ENDBRANCH   1   2
BRANCH   1  27
ATOM     27  C   UNL     1      12.729 -38.879  -2.439  1.00  0.00     0.339 C 
ATOM     28  C   UNL     1      12.894 -40.250  -3.128  1.00  0.00     0.214 C 
ATOM     29  O   UNL     1      11.523 -38.230  -2.819  1.00  0.00    -0.332 OA
ATOM     30  C   UNL     1      12.834 -40.083  -4.649  1.00  0.00     0.180 C 
ATOM     31  C   UNL     1      11.381 -38.038  -4.225  1.00  0.00     0.179 C 
ATOM     32  C   UNL     1      11.541 -39.347  -5.035  1.00  0.00     0.177 C 
BRANCH  28  33
ATOM     33  O   UNL     1      14.115 -40.840  -2.764  1.00  0.00    -0.384 OA
ATOM     34  H   UNL     1      14.752 -40.661  -3.505  1.00  0.00     0.211 HD
ENDBRANCH  28  33
BRANCH  30  35
ATOM     35  O   UNL     1      12.866 -41.340  -5.278  1.00  0.00    -0.387 OA
ATOM     36  H   UNL     1      13.532 -41.891  -4.789  1.00  0.00     0.211 HD
ENDBRANCH  30  35
BRANCH  31  37
ATOM     37  C   UNL     1      12.243 -36.874  -4.754  1.00  0.00     0.191 C 
BRANCH  37  38
ATOM     38  O   UNL     1      13.321 -37.379  -5.495  1.00  0.00    -0.394 OA
ATOM     39  H   UNL     1      13.111 -38.332  -5.676  1.00  0.00     0.210 HD
ENDBRANCH  37  38
ENDBRANCH  31  37
BRANCH  32  40
ATOM     40  O   UNL     1      10.425 -40.168  -4.788  1.00  0.00    -0.387 OA
ATOM     41  H   UNL     1      10.705 -40.851  -4.123  1.00  0.00     0.211 HD
ENDBRANCH  32  40
ENDBRANCH   1  27
TORSDOF 12
ENDMDL
