MODEL 1
REMARK VINA RESULT:    -4.772      0.000      0.000
REMARK INTER + INTRA:          -8.320
REMARK INTER:                  -7.561
REMARK INTRA:                  -0.758
REMARK UNBOUND:                -0.758
REMARK SMILES CCCCCCCCCCCC(=O)[O-]
REMARK SMILES IDX 7 1 8 2 9 3 10 4 11 5 12 6 13 7 14 8 6 9 5 10 4 11 3 12 2 13
REMARK SMILES IDX 1 14
REMARK H PARENT
REMARK Flexibility Score: inf
ROOT
ATOM      1  C   UNL     1      47.202   5.055 130.248  1.00  0.00     0.000 C 
ENDROOT
BRANCH   1   2
ATOM      2  C   UNL     1      46.791   4.424 131.589  1.00  0.00     0.000 C 
BRANCH   2   3
ATOM      3  C   UNL     1      45.326   3.949 131.664  1.00  0.00     0.000 C 
BRANCH   3   4
ATOM      4  C   UNL     1      45.021   2.945 132.790  1.00  0.00     0.006 C 
BRANCH   4   5
ATOM      5  C   UNL     1      43.654   2.267 132.629  1.00  0.00     0.053 C 
BRANCH   5   6
ATOM      6  C   UNL     1      43.824   0.862 132.145  1.00  0.00     0.041 C 
ATOM      7  O   UNL     1      44.908   0.252 132.340  1.00  0.00    -0.550 OA
ATOM      8  O   UNL     1      42.803   0.242 131.438  1.00  0.00    -0.550 OA
ENDBRANCH   5   6
ENDBRANCH   4   5
ENDBRANCH   3   4
ENDBRANCH   2   3
ENDBRANCH   1   2
BRANCH   1   9
ATOM      9  C   UNL     1      45.993   5.485 129.398  1.00  0.00     0.000 C 
BRANCH   9  10
ATOM     10  C   UNL     1      46.017   6.981 129.047  1.00  0.00    -0.000 C 
BRANCH  10  11
ATOM     11  C   UNL     1      44.606   7.569 128.876  1.00  0.00    -0.000 C 
BRANCH  11  12
ATOM     12  C   UNL     1      43.503   6.595 129.323  1.00  0.00    -0.000 C 
BRANCH  12  13
ATOM     13  C   UNL     1      42.429   6.381 128.247  1.00  0.00    -0.003 C 
ATOM     14  C   UNL     1      42.997   5.627 127.048  1.00  0.00     0.004 C 
ENDBRANCH  12  13
ENDBRANCH  11  12
ENDBRANCH  10  11
ENDBRANCH   9  10
ENDBRANCH   1   9
TORSDOF 10
ENDMDL
MODEL 2
REMARK VINA RESULT:    -4.759      1.126      1.565
REMARK INTER + INTRA:          -8.299
REMARK INTER:                  -7.202
REMARK INTRA:                  -1.098
REMARK UNBOUND:                -0.758
REMARK SMILES CCCCCCCCCCCC(=O)[O-]
REMARK SMILES IDX 7 1 8 2 9 3 10 4 11 5 12 6 13 7 14 8 6 9 5 10 4 11 3 12 2 13
REMARK SMILES IDX 1 14
REMARK H PARENT
REMARK Flexibility Score: inf
ROOT
ATOM      1  C   UNL     1      46.824   4.885 129.130  1.00  0.00     0.000 C 
ENDROOT
BRANCH   1   2
ATOM      2  C   UNL     1      47.328   4.902 130.584  1.00  0.00     0.000 C 
BRANCH   2   3
ATOM      3  C   UNL     1      46.389   4.229 131.606  1.00  0.00     0.000 C 
BRANCH   3   4
ATOM      4  C   UNL     1      44.901   4.209 131.213  1.00  0.00     0.006 C 
BRANCH   4   5
ATOM      5  C   UNL     1      43.975   3.930 132.404  1.00  0.00     0.053 C 
BRANCH   5   6
ATOM      6  C   UNL     1      44.073   2.495 132.814  1.00  0.00     0.041 C 
ATOM      7  O   UNL     1      43.906   1.581 131.965  1.00  0.00    -0.550 OA
ATOM      8  O   UNL     1      44.301   2.166 134.144  1.00  0.00    -0.550 OA
ENDBRANCH   5   6
ENDBRANCH   4   5
ENDBRANCH   3   4
ENDBRANCH   2   3
ENDBRANCH   1   2
BRANCH   1   9
ATOM      9  C   UNL     1      47.067   6.219 128.402  1.00  0.00     0.000 C 
BRANCH   9  10
ATOM     10  C   UNL     1      46.235   7.372 128.987  1.00  0.00    -0.000 C 
BRANCH  10  11
ATOM     11  C   UNL     1      44.883   7.545 128.272  1.00  0.00    -0.000 C 
BRANCH  11  12
ATOM     12  C   UNL     1      43.695   7.102 129.142  1.00  0.00    -0.000 C 
BRANCH  12  13
ATOM     13  C   UNL     1      42.604   6.383 128.336  1.00  0.00    -0.003 C 
ATOM     14  C   UNL     1      43.202   5.642 127.144  1.00  0.00     0.004 C 
ENDBRANCH  12  13
ENDBRANCH  11  12
ENDBRANCH  10  11
ENDBRANCH   9  10
ENDBRANCH   1   9
TORSDOF 10
ENDMDL
MODEL 3
REMARK VINA RESULT:    -4.722      1.530      2.402
REMARK INTER + INTRA:          -8.241
REMARK INTER:                  -7.205
REMARK INTRA:                  -1.036
REMARK UNBOUND:                -0.758
REMARK SMILES CCCCCCCCCCCC(=O)[O-]
REMARK SMILES IDX 7 1 8 2 9 3 10 4 11 5 12 6 13 7 14 8 6 9 5 10 4 11 3 12 2 13
REMARK SMILES IDX 1 14
REMARK H PARENT
REMARK Flexibility Score: inf
ROOT
ATOM      1  C   UNL     1      46.685   6.178 129.466  1.00  0.00     0.000 C 
ENDROOT
BRANCH   1   2
ATOM      2  C   UNL     1      47.575   5.112 130.129  1.00  0.00     0.000 C 
BRANCH   2   3
ATOM      3  C   UNL     1      47.025   4.534 131.449  1.00  0.00     0.000 C 
BRANCH   3   4
ATOM      4  C   UNL     1      45.535   4.151 131.423  1.00  0.00     0.006 C 
BRANCH   4   5
ATOM      5  C   UNL     1      44.915   4.081 132.825  1.00  0.00     0.053 C 
BRANCH   5   6
ATOM      6  C   UNL     1      45.229   2.767 133.468  1.00  0.00     0.041 C 
ATOM      7  O   UNL     1      45.313   2.678 134.721  1.00  0.00    -0.550 OA
ATOM      8  O   UNL     1      45.475   1.649 132.681  1.00  0.00    -0.550 OA
ENDBRANCH   5   6
ENDBRANCH   4   5
ENDBRANCH   3   4
ENDBRANCH   2   3
ENDBRANCH   1   2
BRANCH   1   9
ATOM      9  C   UNL     1      46.606   6.018 127.937  1.00  0.00     0.000 C 
BRANCH   9  10
ATOM     10  C   UNL     1      46.026   4.659 127.513  1.00  0.00    -0.000 C 
BRANCH  10  11
ATOM     11  C   UNL     1      44.526   4.533 127.832  1.00  0.00    -0.000 C 
BRANCH  11  12
ATOM     12  C   UNL     1      43.641   5.248 126.798  1.00  0.00    -0.000 C 
BRANCH  12  13
ATOM     13  C   UNL     1      42.508   6.057 127.445  1.00  0.00    -0.003 C 
ATOM     14  C   UNL     1      42.898   6.526 128.844  1.00  0.00     0.004 C 
ENDBRANCH  12  13
ENDBRANCH  11  12
ENDBRANCH  10  11
ENDBRANCH   9  10
ENDBRANCH   1   9
TORSDOF 10
ENDMDL
MODEL 4
REMARK VINA RESULT:    -4.667      3.098      5.589
REMARK INTER + INTRA:          -8.155
REMARK INTER:                  -7.393
REMARK INTRA:                  -0.762
REMARK UNBOUND:                -0.758
REMARK SMILES CCCCCCCCCCCC(=O)[O-]
REMARK SMILES IDX 7 1 8 2 9 3 10 4 11 5 12 6 13 7 14 8 6 9 5 10 4 11 3 12 2 13
REMARK SMILES IDX 1 14
REMARK H PARENT
REMARK Flexibility Score: inf
ROOT
ATOM      1  C   UNL     1      47.013   4.522 131.643  1.00  0.00     0.000 C 
ENDROOT
BRANCH   1   2
ATOM      2  C   UNL     1      47.580   4.835 130.248  1.00  0.00     0.000 C 
BRANCH   2   3
ATOM      3  C   UNL     1      46.612   5.575 129.303  1.00  0.00     0.000 C 
BRANCH   3   4
ATOM      4  C   UNL     1      45.215   4.943 129.172  1.00  0.00     0.006 C 
BRANCH   4   5
ATOM      5  C   UNL     1      44.786   4.744 127.713  1.00  0.00     0.053 C 
BRANCH   5   6
ATOM      6  C   UNL     1      43.626   5.632 127.385  1.00  0.00     0.041 C 
ATOM      7  O   UNL     1      42.921   5.403 126.368  1.00  0.00    -0.550 OA
ATOM      8  O   UNL     1      43.354   6.739 128.178  1.00  0.00    -0.550 OA
ENDBRANCH   5   6
ENDBRANCH   4   5
ENDBRANCH   3   4
ENDBRANCH   2   3
ENDBRANCH   1   2
BRANCH   1   9
ATOM      9  C   UNL     1      47.328   3.088 132.104  1.00  0.00     0.000 C 
BRANCH   9  10
ATOM     10  C   UNL     1      46.150   2.430 132.840  1.00  0.00    -0.000 C 
BRANCH  10  11
ATOM     11  C   UNL     1      44.888   3.311 132.838  1.00  0.00    -0.000 C 
BRANCH  11  12
ATOM     12  C   UNL     1      43.597   2.492 132.670  1.00  0.00    -0.000 C 
BRANCH  12  13
ATOM     13  C   UNL     1      43.859   1.079 132.127  1.00  0.00    -0.003 C 
ATOM     14  C   UNL     1      42.551   0.325 131.909  1.00  0.00     0.004 C 
ENDBRANCH  12  13
ENDBRANCH  11  12
ENDBRANCH  10  11
ENDBRANCH   9  10
ENDBRANCH   1   9
TORSDOF 10
ENDMDL
MODEL 5
REMARK VINA RESULT:    -4.646      1.722      2.174
REMARK INTER + INTRA:          -8.120
REMARK INTER:                  -7.298
REMARK INTRA:                  -0.823
REMARK UNBOUND:                -0.758
REMARK SMILES CCCCCCCCCCCC(=O)[O-]
REMARK SMILES IDX 7 1 8 2 9 3 10 4 11 5 12 6 13 7 14 8 6 9 5 10 4 11 3 12 2 13
REMARK SMILES IDX 1 14
REMARK H PARENT
REMARK Flexibility Score: inf
ROOT
ATOM      1  C   UNL     1      46.890   5.154 129.216  1.00  0.00     0.000 C 
ENDROOT
BRANCH   1   2
ATOM      2  C   UNL     1      46.614   4.822 130.693  1.00  0.00     0.000 C 
BRANCH   2   3
ATOM      3  C   UNL     1      45.158   4.424 131.010  1.00  0.00     0.000 C 
BRANCH   3   4
ATOM      4  C   UNL     1      44.985   3.496 132.226  1.00  0.00     0.006 C 
BRANCH   4   5
ATOM      5  C   UNL     1      45.802   3.950 133.442  1.00  0.00     0.053 C 
BRANCH   5   6
ATOM      6  C   UNL     1      45.639   2.981 134.570  1.00  0.00     0.041 C 
ATOM      7  O   UNL     1      46.459   2.977 135.525  1.00  0.00    -0.550 OA
ATOM      8  O   UNL     1      44.609   2.049 134.542  1.00  0.00    -0.550 OA
ENDBRANCH   5   6
ENDBRANCH   4   5
ENDBRANCH   3   4
ENDBRANCH   2   3
ENDBRANCH   1   2
BRANCH   1   9
ATOM      9  C   UNL     1      47.301   6.621 129.004  1.00  0.00     0.000 C 
BRANCH   9  10
ATOM     10  C   UNL     1      46.110   7.589 129.092  1.00  0.00    -0.000 C 
BRANCH  10  11
ATOM     11  C   UNL     1      44.932   7.156 128.202  1.00  0.00    -0.000 C 
BRANCH  11  12
ATOM     12  C   UNL     1      43.588   7.178 128.950  1.00  0.00    -0.000 C 
BRANCH  12  13
ATOM     13  C   UNL     1      42.482   6.418 128.205  1.00  0.00    -0.003 C 
ATOM     14  C   UNL     1      43.045   5.675 126.997  1.00  0.00     0.004 C 
ENDBRANCH  12  13
ENDBRANCH  11  12
ENDBRANCH  10  11
ENDBRANCH   9  10
ENDBRANCH   1   9
TORSDOF 10
ENDMDL
MODEL 6
REMARK VINA RESULT:    -4.642      3.164      6.086
REMARK INTER + INTRA:          -8.115
REMARK INTER:                  -7.444
REMARK INTRA:                  -0.671
REMARK UNBOUND:                -0.758
REMARK SMILES CCCCCCCCCCCC(=O)[O-]
REMARK SMILES IDX 7 1 8 2 9 3 10 4 11 5 12 6 13 7 14 8 6 9 5 10 4 11 3 12 2 13
REMARK SMILES IDX 1 14
REMARK H PARENT
REMARK Flexibility Score: inf
ROOT
ATOM      1  C   UNL     1      47.803   4.941 130.221  1.00  0.00     0.000 C 
ENDROOT
BRANCH   1   2
ATOM      2  C   UNL     1      46.857   5.852 129.421  1.00  0.00     0.000 C 
BRANCH   2   3
ATOM      3  C   UNL     1      46.587   5.400 127.972  1.00  0.00     0.000 C 
BRANCH   3   4
ATOM      4  C   UNL     1      45.172   4.854 127.710  1.00  0.00     0.006 C 
BRANCH   4   5
ATOM      5  C   UNL     1      44.267   5.866 126.995  1.00  0.00     0.053 C 
BRANCH   5   6
ATOM      6  C   UNL     1      43.244   6.409 127.942  1.00  0.00     0.041 C 
ATOM      7  O   UNL     1      42.023   6.155 127.770  1.00  0.00    -0.550 OA
ATOM      8  O   UNL     1      43.634   7.236 128.987  1.00  0.00    -0.550 OA
ENDBRANCH   5   6
ENDBRANCH   4   5
ENDBRANCH   3   4
ENDBRANCH   2   3
ENDBRANCH   1   2
BRANCH   1   9
ATOM      9  C   UNL     1      47.161   4.404 131.512  1.00  0.00     0.000 C 
BRANCH   9  10
ATOM     10  C   UNL     1      45.644   4.194 131.375  1.00  0.00    -0.000 C 
BRANCH  10  11
ATOM     11  C   UNL     1      44.949   4.010 132.736  1.00  0.00    -0.000 C 
BRANCH  11  12
ATOM     12  C   UNL     1      45.949   3.942 133.903  1.00  0.00    -0.000 C 
BRANCH  12  13
ATOM     13  C   UNL     1      45.797   2.662 134.739  1.00  0.00    -0.003 C 
ATOM     14  C   UNL     1      46.452   2.820 136.107  1.00  0.00     0.004 C 
ENDBRANCH  12  13
ENDBRANCH  11  12
ENDBRANCH  10  11
ENDBRANCH   9  10
ENDBRANCH   1   9
TORSDOF 10
ENDMDL
MODEL 7
REMARK VINA RESULT:    -4.591      2.891      5.369
REMARK INTER + INTRA:          -8.033
REMARK INTER:                  -7.033
REMARK INTRA:                  -1.000
REMARK UNBOUND:                -0.758
REMARK SMILES CCCCCCCCCCCC(=O)[O-]
REMARK SMILES IDX 7 1 8 2 9 3 10 4 11 5 12 6 13 7 14 8 6 9 5 10 4 11 3 12 2 13
REMARK SMILES IDX 1 14
REMARK H PARENT
REMARK Flexibility Score: inf
ROOT
ATOM      1  C   UNL     1      46.583   5.313 129.975  1.00  0.00     0.000 C 
ENDROOT
BRANCH   1   2
ATOM      2  C   UNL     1      46.734   6.705 129.337  1.00  0.00     0.000 C 
BRANCH   2   3
ATOM      3  C   UNL     1      45.407   7.401 128.973  1.00  0.00     0.000 C 
BRANCH   3   4
ATOM      4  C   UNL     1      44.137   6.582 129.264  1.00  0.00     0.006 C 
BRANCH   4   5
ATOM      5  C   UNL     1      43.323   6.277 128.000  1.00  0.00     0.053 C 
BRANCH   5   6
ATOM      6  C   UNL     1      44.151   5.505 127.022  1.00  0.00     0.041 C 
ATOM      7  O   UNL     1      44.561   4.350 127.311  1.00  0.00    -0.550 OA
ATOM      8  O   UNL     1      44.510   6.079 125.809  1.00  0.00    -0.550 OA
ENDBRANCH   5   6
ENDBRANCH   4   5
ENDBRANCH   3   4
ENDBRANCH   2   3
ENDBRANCH   1   2
BRANCH   1   9
ATOM      9  C   UNL     1      47.934   4.692 130.372  1.00  0.00     0.000 C 
BRANCH   9  10
ATOM     10  C   UNL     1      47.831   3.797 131.617  1.00  0.00    -0.000 C 
BRANCH  10  11
ATOM     11  C   UNL     1      46.597   4.122 132.476  1.00  0.00    -0.000 C 
BRANCH  11  12
ATOM     12  C   UNL     1      45.856   2.859 132.947  1.00  0.00    -0.000 C 
BRANCH  12  13
ATOM     13  C   UNL     1      44.418   2.782 132.414  1.00  0.00    -0.003 C 
ATOM     14  C   UNL     1      43.827   4.176 132.227  1.00  0.00     0.004 C 
ENDBRANCH  12  13
ENDBRANCH  11  12
ENDBRANCH  10  11
ENDBRANCH   9  10
ENDBRANCH   1   9
TORSDOF 10
ENDMDL
MODEL 8
REMARK VINA RESULT:    -4.575      6.378      8.589
REMARK INTER + INTRA:          -8.008
REMARK INTER:                  -7.304
REMARK INTRA:                  -0.704
REMARK UNBOUND:                -0.758
REMARK SMILES CCCCCCCCCCCC(=O)[O-]
REMARK SMILES IDX 7 1 8 2 9 3 10 4 11 5 12 6 13 7 14 8 6 9 5 10 4 11 3 12 2 13
REMARK SMILES IDX 1 14
REMARK H PARENT
REMARK Flexibility Score: inf
ROOT
ATOM      1  C   UNL     1      46.598   7.471 126.337  1.00  0.00     0.000 C 
ENDROOT
BRANCH   1   2
ATOM      2  C   UNL     1      47.897   7.886 125.623  1.00  0.00     0.000 C 
BRANCH   2   3
ATOM      3  C   UNL     1      47.702   8.515 124.229  1.00  0.00     0.000 C 
BRANCH   3   4
ATOM      4  C   UNL     1      46.247   8.861 123.866  1.00  0.00     0.006 C 
BRANCH   4   5
ATOM      5  C   UNL     1      46.130  10.147 123.038  1.00  0.00     0.053 C 
BRANCH   5   6
ATOM      6  C   UNL     1      45.946  11.329 123.937  1.00  0.00     0.041 C 
ATOM      7  O   UNL     1      44.792  11.773 124.172  1.00  0.00    -0.550 OA
ATOM      8  O   UNL     1      47.053  11.971 124.477  1.00  0.00    -0.550 OA
ENDBRANCH   5   6
ENDBRANCH   4   5
ENDBRANCH   3   4
ENDBRANCH   2   3
ENDBRANCH   1   2
BRANCH   1   9
ATOM      9  C   UNL     1      46.845   6.946 127.762  1.00  0.00     0.000 C 
BRANCH   9  10
ATOM     10  C   UNL     1      46.597   5.434 127.887  1.00  0.00    -0.000 C 
BRANCH  10  11
ATOM     11  C   UNL     1      45.112   5.065 127.723  1.00  0.00    -0.000 C 
BRANCH  11  12
ATOM     12  C   UNL     1      44.204   5.826 128.703  1.00  0.00    -0.000 C 
BRANCH  12  13
ATOM     13  C   UNL     1      42.917   6.340 128.041  1.00  0.00    -0.003 C 
ATOM     14  C   UNL     1      42.686   5.665 126.693  1.00  0.00     0.004 C 
ENDBRANCH  12  13
ENDBRANCH  11  12
ENDBRANCH  10  11
ENDBRANCH   9  10
ENDBRANCH   1   9
TORSDOF 10
ENDMDL
MODEL 9
REMARK VINA RESULT:    -4.399      4.802      6.204
REMARK INTER + INTRA:          -7.729
REMARK INTER:                  -7.162
REMARK INTRA:                  -0.567
REMARK UNBOUND:                -0.758
REMARK SMILES CCCCCCCCCCCC(=O)[O-]
REMARK SMILES IDX 7 1 8 2 9 3 10 4 11 5 12 6 13 7 14 8 6 9 5 10 4 11 3 12 2 13
REMARK SMILES IDX 1 14
REMARK H PARENT
REMARK Flexibility Score: inf
ROOT
ATOM      1  C   UNL     1      47.049   7.429 126.513  1.00  0.00     0.000 C 
ENDROOT
BRANCH   1   2
ATOM      2  C   UNL     1      47.567   7.132 127.931  1.00  0.00     0.000 C 
BRANCH   2   3
ATOM      3  C   UNL     1      46.472   6.876 128.985  1.00  0.00     0.000 C 
BRANCH   3   4
ATOM      4  C   UNL     1      45.085   7.449 128.639  1.00  0.00     0.006 C 
BRANCH   4   5
ATOM      5  C   UNL     1      43.949   6.449 128.891  1.00  0.00     0.053 C 
BRANCH   5   6
ATOM      6  C   UNL     1      43.547   5.786 127.611  1.00  0.00     0.041 C 
ATOM      7  O   UNL     1      42.410   6.003 127.116  1.00  0.00    -0.550 OA
ATOM      8  O   UNL     1      44.409   4.890 126.992  1.00  0.00    -0.550 OA
ENDBRANCH   5   6
ENDBRANCH   4   5
ENDBRANCH   3   4
ENDBRANCH   2   3
ENDBRANCH   1   2
BRANCH   1   9
ATOM      9  C   UNL     1      48.124   8.050 125.605  1.00  0.00     0.000 C 
BRANCH   9  10
ATOM     10  C   UNL     1      47.675   8.150 124.138  1.00  0.00    -0.000 C 
BRANCH  10  11
ATOM     11  C   UNL     1      47.522   9.608 123.667  1.00  0.00    -0.000 C 
BRANCH  11  12
ATOM     12  C   UNL     1      46.090   9.931 123.208  1.00  0.00    -0.000 C 
BRANCH  12  13
ATOM     13  C   UNL     1      45.498  11.150 123.929  1.00  0.00    -0.003 C 
ATOM     14  C   UNL     1      44.457  11.849 123.060  1.00  0.00     0.004 C 
ENDBRANCH  12  13
ENDBRANCH  11  12
ENDBRANCH  10  11
ENDBRANCH   9  10
ENDBRANCH   1   9
TORSDOF 10
ENDMDL
