MODEL 1
REMARK VINA RESULT:    -5.729      0.000      0.000
REMARK INTER + INTRA:         -16.797
REMARK INTER:                 -13.098
REMARK INTRA:                  -3.699
REMARK UNBOUND:                -3.699
REMARK SMILES CCCCCCCCCCCCCCCCCCCCCCCC(=O)[O-]
REMARK SMILES IDX 13 1 14 2 15 3 16 4 17 5 18 6 19 7 20 8 21 9 22 10 23 11
REMARK SMILES IDX 24 12 25 13 26 14 12 15 11 16 10 17 9 18 8 19 7 20 6 21 5 22
REMARK SMILES IDX 4 23 3 24 2 25 1 26
REMARK H PARENT
REMARK Flexibility Score: inf
ROOT
ATOM      1  C   UNL     1     -16.282   6.760 -24.684  1.00  0.00     0.000 C 
ENDROOT
BRANCH   1   2
ATOM      2  C   UNL     1     -17.735   6.414 -24.322  1.00  0.00     0.000 C 
BRANCH   2   3
ATOM      3  C   UNL     1     -17.873   5.008 -23.709  1.00  0.00     0.000 C 
BRANCH   3   4
ATOM      4  C   UNL     1     -17.771   5.020 -22.176  1.00  0.00     0.000 C 
BRANCH   4   5
ATOM      5  C   UNL     1     -17.586   3.612 -21.585  1.00  0.00     0.000 C 
BRANCH   5   6
ATOM      6  C   UNL     1     -16.922   3.633 -20.198  1.00  0.00     0.000 C 
BRANCH   6   7
ATOM      7  C   UNL     1     -15.466   3.126 -20.161  1.00  0.00     0.000 C 
BRANCH   7   8
ATOM      8  C   UNL     1     -15.278   1.822 -19.356  1.00  0.00     0.000 C 
BRANCH   8   9
ATOM      9  C   UNL     1     -14.425   0.786 -20.111  1.00  0.00     0.000 C 
BRANCH   9  10
ATOM     10  C   UNL     1     -14.752  -0.667 -19.713  1.00  0.00     0.006 C 
BRANCH  10  11
ATOM     11  C   UNL     1     -13.674  -1.682 -20.131  1.00  0.00     0.053 C 
BRANCH  11  12
ATOM     12  C   UNL     1     -14.003  -2.371 -21.421  1.00  0.00     0.041 C 
ATOM     13  O   UNL     1     -14.165  -1.699 -22.473  1.00  0.00    -0.550 OA
ATOM     14  O   UNL     1     -14.151  -3.753 -21.457  1.00  0.00    -0.550 OA
ENDBRANCH  11  12
ENDBRANCH  10  11
ENDBRANCH   9  10
ENDBRANCH   8   9
ENDBRANCH   7   8
ENDBRANCH   6   7
ENDBRANCH   5   6
ENDBRANCH   4   5
ENDBRANCH   3   4
ENDBRANCH   2   3
ENDBRANCH   1   2
BRANCH   1  15
ATOM     15  C   UNL     1     -15.870   8.161 -24.198  1.00  0.00     0.000 C 
BRANCH  15  16
ATOM     16  C   UNL     1     -16.506   8.539 -22.848  1.00  0.00     0.000 C 
BRANCH  16  17
ATOM     17  C   UNL     1     -15.518   9.002 -21.760  1.00  0.00     0.000 C 
BRANCH  17  18
ATOM     18  C   UNL     1     -15.244   7.923 -20.700  1.00  0.00    -0.000 C 
BRANCH  18  19
ATOM     19  C   UNL     1     -13.747   7.768 -20.381  1.00  0.00    -0.000 C 
BRANCH  19  20
ATOM     20  C   UNL     1     -13.106   6.516 -21.018  1.00  0.00    -0.000 C 
BRANCH  20  21
ATOM     21  C   UNL     1     -14.135   5.671 -21.790  1.00  0.00    -0.000 C 
BRANCH  21  22
ATOM     22  C   UNL     1     -13.502   4.856 -22.931  1.00  0.00    -0.000 C 
BRANCH  22  23
ATOM     23  C   UNL     1     -14.445   3.837 -23.602  1.00  0.00    -0.000 C 
BRANCH  23  24
ATOM     24  C   UNL     1     -14.106   2.356 -23.334  1.00  0.00    -0.000 C 
BRANCH  24  25
ATOM     25  C   UNL     1     -15.157   1.351 -23.835  1.00  0.00    -0.003 C 
ATOM     26  C   UNL     1     -16.058   1.926 -24.927  1.00  0.00     0.004 C 
ENDBRANCH  24  25
ENDBRANCH  23  24
ENDBRANCH  22  23
ENDBRANCH  21  22
ENDBRANCH  20  21
ENDBRANCH  19  20
ENDBRANCH  18  19
ENDBRANCH  17  18
ENDBRANCH  16  17
ENDBRANCH  15  16
ENDBRANCH   1  15
TORSDOF 22
ENDMDL
MODEL 2
REMARK VINA RESULT:    -5.654      1.595      4.230
REMARK INTER + INTRA:         -16.625
REMARK INTER:                 -12.209
REMARK INTRA:                  -4.416
REMARK UNBOUND:                -3.699
REMARK SMILES CCCCCCCCCCCCCCCCCCCCCCCC(=O)[O-]
REMARK SMILES IDX 13 1 14 2 15 3 16 4 17 5 18 6 19 7 20 8 21 9 22 10 23 11
REMARK SMILES IDX 24 12 25 13 26 14 12 15 11 16 10 17 9 18 8 19 7 20 6 21 5 22
REMARK SMILES IDX 4 23 3 24 2 25 1 26
REMARK H PARENT
REMARK Flexibility Score: inf
ROOT
ATOM      1  C   UNL     1     -13.372   7.089 -20.627  1.00  0.00     0.000 C 
ENDROOT
BRANCH   1   2
ATOM      2  C   UNL     1     -14.108   8.399 -20.951  1.00  0.00     0.000 C 
BRANCH   2   3
ATOM      3  C   UNL     1     -15.612   8.328 -20.631  1.00  0.00     0.000 C 
BRANCH   3   4
ATOM      4  C   UNL     1     -16.485   8.839 -21.788  1.00  0.00     0.000 C 
BRANCH   4   5
ATOM      5  C   UNL     1     -17.646   7.885 -22.118  1.00  0.00     0.000 C 
BRANCH   5   6
ATOM      6  C   UNL     1     -17.912   6.864 -20.998  1.00  0.00     0.000 C 
BRANCH   6   7
ATOM      7  C   UNL     1     -17.806   5.385 -21.420  1.00  0.00     0.000 C 
BRANCH   7   8
ATOM      8  C   UNL     1     -17.291   4.451 -20.303  1.00  0.00     0.000 C 
BRANCH   8   9
ATOM      9  C   UNL     1     -16.714   3.137 -20.857  1.00  0.00     0.000 C 
BRANCH   9  10
ATOM     10  C   UNL     1     -15.667   2.498 -19.924  1.00  0.00     0.006 C 
BRANCH  10  11
ATOM     11  C   UNL     1     -14.511   1.808 -20.668  1.00  0.00     0.053 C 
BRANCH  11  12
ATOM     12  C   UNL     1     -14.391   0.355 -20.321  1.00  0.00     0.041 C 
ATOM     13  O   UNL     1     -13.874  -0.450 -21.141  1.00  0.00    -0.550 OA
ATOM     14  O   UNL     1     -14.868  -0.115 -19.103  1.00  0.00    -0.550 OA
ENDBRANCH  11  12
ENDBRANCH  10  11
ENDBRANCH   9  10
ENDBRANCH   8   9
ENDBRANCH   7   8
ENDBRANCH   6   7
ENDBRANCH   5   6
ENDBRANCH   4   5
ENDBRANCH   3   4
ENDBRANCH   2   3
ENDBRANCH   1   2
BRANCH   1  15
ATOM     15  C   UNL     1     -14.174   5.844 -21.048  1.00  0.00     0.000 C 
BRANCH  15  16
ATOM     16  C   UNL     1     -13.595   5.149 -22.294  1.00  0.00     0.000 C 
BRANCH  16  17
ATOM     17  C   UNL     1     -14.623   4.777 -23.379  1.00  0.00     0.000 C 
BRANCH  17  18
ATOM     18  C   UNL     1     -15.347   6.001 -23.965  1.00  0.00    -0.000 C 
BRANCH  18  19
ATOM     19  C   UNL     1     -16.102   5.680 -25.266  1.00  0.00    -0.000 C 
BRANCH  19  20
ATOM     20  C   UNL     1     -17.426   4.919 -25.041  1.00  0.00    -0.000 C 
BRANCH  20  21
ATOM     21  C   UNL     1     -17.816   4.068 -26.262  1.00  0.00    -0.000 C 
BRANCH  21  22
ATOM     22  C   UNL     1     -17.739   2.556 -25.985  1.00  0.00    -0.000 C 
BRANCH  22  23
ATOM     23  C   UNL     1     -16.340   2.037 -25.596  1.00  0.00    -0.000 C 
BRANCH  23  24
ATOM     24  C   UNL     1     -16.223   1.479 -24.164  1.00  0.00    -0.000 C 
BRANCH  24  25
ATOM     25  C   UNL     1     -17.532   0.928 -23.574  1.00  0.00    -0.003 C 
ATOM     26  C   UNL     1     -17.305  -0.213 -22.583  1.00  0.00     0.004 C 
ENDBRANCH  24  25
ENDBRANCH  23  24
ENDBRANCH  22  23
ENDBRANCH  21  22
ENDBRANCH  20  21
ENDBRANCH  19  20
ENDBRANCH  18  19
ENDBRANCH  17  18
ENDBRANCH  16  17
ENDBRANCH  15  16
ENDBRANCH   1  15
TORSDOF 22
ENDMDL
MODEL 3
REMARK VINA RESULT:    -5.615      4.055      6.984
REMARK INTER + INTRA:         -16.536
REMARK INTER:                 -12.471
REMARK INTRA:                  -4.065
REMARK UNBOUND:                -3.699
REMARK SMILES CCCCCCCCCCCCCCCCCCCCCCCC(=O)[O-]
REMARK SMILES IDX 13 1 14 2 15 3 16 4 17 5 18 6 19 7 20 8 21 9 22 10 23 11
REMARK SMILES IDX 24 12 25 13 26 14 12 15 11 16 10 17 9 18 8 19 7 20 6 21 5 22
REMARK SMILES IDX 4 23 3 24 2 25 1 26
REMARK H PARENT
REMARK Flexibility Score: inf
ROOT
ATOM      1  C   UNL     1     -15.436   4.986 -24.045  1.00  0.00     0.000 C 
ENDROOT
BRANCH   1   2
ATOM      2  C   UNL     1     -15.144   5.817 -22.785  1.00  0.00     0.000 C 
BRANCH   2   3
ATOM      3  C   UNL     1     -13.860   5.368 -22.064  1.00  0.00     0.000 C 
BRANCH   3   4
ATOM      4  C   UNL     1     -13.745   5.949 -20.646  1.00  0.00     0.000 C 
BRANCH   4   5
ATOM      5  C   UNL     1     -12.942   7.261 -20.608  1.00  0.00     0.000 C 
BRANCH   5   6
ATOM      6  C   UNL     1     -13.830   8.493 -20.362  1.00  0.00     0.000 C 
BRANCH   6   7
ATOM      7  C   UNL     1     -15.234   8.189 -19.801  1.00  0.00     0.000 C 
BRANCH   7   8
ATOM      8  C   UNL     1     -16.387   8.753 -20.660  1.00  0.00     0.000 C 
BRANCH   8   9
ATOM      9  C   UNL     1     -17.534   7.742 -20.837  1.00  0.00     0.000 C 
BRANCH   9  10
ATOM     10  C   UNL     1     -18.510   8.130 -21.965  1.00  0.00     0.006 C 
BRANCH  10  11
ATOM     11  C   UNL     1     -17.816   8.487 -23.291  1.00  0.00     0.053 C 
BRANCH  11  12
ATOM     12  C   UNL     1     -18.403   9.706 -23.937  1.00  0.00     0.041 C 
ATOM     13  O   UNL     1     -18.916  10.612 -23.229  1.00  0.00    -0.550 OA
ATOM     14  O   UNL     1     -18.401   9.831 -25.322  1.00  0.00    -0.550 OA
ENDBRANCH  11  12
ENDBRANCH  10  11
ENDBRANCH   9  10
ENDBRANCH   8   9
ENDBRANCH   7   8
ENDBRANCH   6   7
ENDBRANCH   5   6
ENDBRANCH   4   5
ENDBRANCH   3   4
ENDBRANCH   2   3
ENDBRANCH   1   2
BRANCH   1  15
ATOM     15  C   UNL     1     -16.848   4.376 -24.035  1.00  0.00     0.000 C 
BRANCH  15  16
ATOM     16  C   UNL     1     -17.607   4.638 -22.722  1.00  0.00     0.000 C 
BRANCH  16  17
ATOM     17  C   UNL     1     -17.568   3.488 -21.697  1.00  0.00     0.000 C 
BRANCH  17  18
ATOM     18  C   UNL     1     -17.228   3.963 -20.275  1.00  0.00    -0.000 C 
BRANCH  18  19
ATOM     19  C   UNL     1     -16.042   3.202 -19.659  1.00  0.00    -0.000 C 
BRANCH  19  20
ATOM     20  C   UNL     1     -15.257   2.351 -20.682  1.00  0.00    -0.000 C 
BRANCH  20  21
ATOM     21  C   UNL     1     -14.845   0.987 -20.101  1.00  0.00    -0.000 C 
BRANCH  21  22
ATOM     22  C   UNL     1     -14.266   0.036 -21.163  1.00  0.00    -0.000 C 
BRANCH  22  23
ATOM     23  C   UNL     1     -14.290   0.581 -22.606  1.00  0.00    -0.000 C 
BRANCH  23  24
ATOM     24  C   UNL     1     -15.306  -0.099 -23.546  1.00  0.00    -0.000 C 
BRANCH  24  25
ATOM     25  C   UNL     1     -16.682   0.585 -23.616  1.00  0.00    -0.003 C 
ATOM     26  C   UNL     1     -17.727  -0.087 -22.725  1.00  0.00     0.004 C 
ENDBRANCH  24  25
ENDBRANCH  23  24
ENDBRANCH  22  23
ENDBRANCH  21  22
ENDBRANCH  20  21
ENDBRANCH  19  20
ENDBRANCH  18  19
ENDBRANCH  17  18
ENDBRANCH  16  17
ENDBRANCH  15  16
ENDBRANCH   1  15
TORSDOF 22
ENDMDL
MODEL 4
REMARK VINA RESULT:    -5.615      3.033      6.704
REMARK INTER + INTRA:         -16.536
REMARK INTER:                 -12.840
REMARK INTRA:                  -3.696
REMARK UNBOUND:                -3.699
REMARK SMILES CCCCCCCCCCCCCCCCCCCCCCCC(=O)[O-]
REMARK SMILES IDX 13 1 14 2 15 3 16 4 17 5 18 6 19 7 20 8 21 9 22 10 23 11
REMARK SMILES IDX 24 12 25 13 26 14 12 15 11 16 10 17 9 18 8 19 7 20 6 21 5 22
REMARK SMILES IDX 4 23 3 24 2 25 1 26
REMARK H PARENT
REMARK Flexibility Score: inf
ROOT
ATOM      1  C   UNL     1     -14.316   5.716 -22.304  1.00  0.00     0.000 C 
ENDROOT
BRANCH   1   2
ATOM      2  C   UNL     1     -13.752   5.898 -20.885  1.00  0.00     0.000 C 
BRANCH   2   3
ATOM      3  C   UNL     1     -13.149   7.297 -20.663  1.00  0.00     0.000 C 
BRANCH   3   4
ATOM      4  C   UNL     1     -14.106   8.241 -19.919  1.00  0.00     0.000 C 
BRANCH   4   5
ATOM      5  C   UNL     1     -14.459   9.493 -20.740  1.00  0.00     0.000 C 
BRANCH   5   6
ATOM      6  C   UNL     1     -15.526   9.217 -21.813  1.00  0.00     0.000 C 
BRANCH   6   7
ATOM      7  C   UNL     1     -16.933   8.895 -21.271  1.00  0.00     0.000 C 
BRANCH   7   8
ATOM      8  C   UNL     1     -17.221   7.384 -21.134  1.00  0.00     0.000 C 
BRANCH   8   9
ATOM      9  C   UNL     1     -18.312   6.904 -22.108  1.00  0.00     0.000 C 
BRANCH   9  10
ATOM     10  C   UNL     1     -18.218   7.571 -23.494  1.00  0.00     0.006 C 
BRANCH  10  11
ATOM     11  C   UNL     1     -17.622   6.661 -24.582  1.00  0.00     0.053 C 
BRANCH  11  12
ATOM     12  C   UNL     1     -16.367   7.223 -25.177  1.00  0.00     0.041 C 
ATOM     13  O   UNL     1     -15.651   6.512 -25.931  1.00  0.00    -0.550 OA
ATOM     14  O   UNL     1     -15.976   8.524 -24.883  1.00  0.00    -0.550 OA
ENDBRANCH  11  12
ENDBRANCH  10  11
ENDBRANCH   9  10
ENDBRANCH   8   9
ENDBRANCH   7   8
ENDBRANCH   6   7
ENDBRANCH   5   6
ENDBRANCH   4   5
ENDBRANCH   3   4
ENDBRANCH   2   3
ENDBRANCH   1   2
BRANCH   1  15
ATOM     15  C   UNL     1     -13.904   4.374 -22.934  1.00  0.00     0.000 C 
BRANCH  15  16
ATOM     16  C   UNL     1     -14.912   3.867 -23.981  1.00  0.00     0.000 C 
BRANCH  16  17
ATOM     17  C   UNL     1     -15.934   2.835 -23.467  1.00  0.00     0.000 C 
BRANCH  17  18
ATOM     18  C   UNL     1     -17.238   3.479 -22.967  1.00  0.00    -0.000 C 
BRANCH  18  19
ATOM     19  C   UNL     1     -17.602   3.055 -21.534  1.00  0.00    -0.000 C 
BRANCH  19  20
ATOM     20  C   UNL     1     -16.772   3.773 -20.448  1.00  0.00    -0.000 C 
BRANCH  20  21
ATOM     21  C   UNL     1     -16.084   2.779 -19.497  1.00  0.00    -0.000 C 
BRANCH  21  22
ATOM     22  C   UNL     1     -14.697   2.337 -19.997  1.00  0.00    -0.000 C 
BRANCH  22  23
ATOM     23  C   UNL     1     -14.651   0.930 -20.627  1.00  0.00    -0.000 C 
BRANCH  23  24
ATOM     24  C   UNL     1     -14.628  -0.237 -19.620  1.00  0.00    -0.000 C 
BRANCH  24  25
ATOM     25  C   UNL     1     -14.420  -1.627 -20.245  1.00  0.00    -0.003 C 
ATOM     26  C   UNL     1     -14.660  -1.643 -21.755  1.00  0.00     0.004 C 
ENDBRANCH  24  25
ENDBRANCH  23  24
ENDBRANCH  22  23
ENDBRANCH  21  22
ENDBRANCH  20  21
ENDBRANCH  19  20
ENDBRANCH  18  19
ENDBRANCH  17  18
ENDBRANCH  16  17
ENDBRANCH  15  16
ENDBRANCH   1  15
TORSDOF 22
ENDMDL
MODEL 5
REMARK VINA RESULT:    -5.591      2.973      6.514
REMARK INTER + INTRA:         -16.481
REMARK INTER:                 -11.811
REMARK INTRA:                  -4.671
REMARK UNBOUND:                -3.699
REMARK SMILES CCCCCCCCCCCCCCCCCCCCCCCC(=O)[O-]
REMARK SMILES IDX 13 1 14 2 15 3 16 4 17 5 18 6 19 7 20 8 21 9 22 10 23 11
REMARK SMILES IDX 24 12 25 13 26 14 12 15 11 16 10 17 9 18 8 19 7 20 6 21 5 22
REMARK SMILES IDX 4 23 3 24 2 25 1 26
REMARK H PARENT
REMARK Flexibility Score: inf
ROOT
ATOM      1  C   UNL     1     -15.246   7.513 -19.907  1.00  0.00     0.000 C 
ENDROOT
BRANCH   1   2
ATOM      2  C   UNL     1     -16.356   8.085 -20.804  1.00  0.00     0.000 C 
BRANCH   2   3
ATOM      3  C   UNL     1     -17.528   7.105 -20.991  1.00  0.00     0.000 C 
BRANCH   3   4
ATOM      4  C   UNL     1     -18.757   7.771 -21.631  1.00  0.00     0.000 C 
BRANCH   4   5
ATOM      5  C   UNL     1     -18.505   9.243 -22.001  1.00  0.00     0.000 C 
BRANCH   5   6
ATOM      6  C   UNL     1     -19.090   9.617 -23.374  1.00  0.00     0.000 C 
BRANCH   6   7
ATOM      7  C   UNL     1     -18.292   9.104 -24.589  1.00  0.00     0.000 C 
BRANCH   7   8
ATOM      8  C   UNL     1     -16.782   9.415 -24.523  1.00  0.00     0.000 C 
BRANCH   8   9
ATOM      9  C   UNL     1     -15.916   8.146 -24.617  1.00  0.00     0.000 C 
BRANCH   9  10
ATOM     10  C   UNL     1     -16.747   6.848 -24.594  1.00  0.00     0.006 C 
BRANCH  10  11
ATOM     11  C   UNL     1     -16.543   5.959 -25.833  1.00  0.00     0.053 C 
BRANCH  11  12
ATOM     12  C   UNL     1     -17.813   5.306 -26.288  1.00  0.00     0.041 C 
ATOM     13  O   UNL     1     -17.799   4.118 -26.706  1.00  0.00    -0.550 OA
ATOM     14  O   UNL     1     -19.008   6.015 -26.270  1.00  0.00    -0.550 OA
ENDBRANCH  11  12
ENDBRANCH  10  11
ENDBRANCH   9  10
ENDBRANCH   8   9
ENDBRANCH   7   8
ENDBRANCH   6   7
ENDBRANCH   5   6
ENDBRANCH   4   5
ENDBRANCH   3   4
ENDBRANCH   2   3
ENDBRANCH   1   2
BRANCH   1  15
ATOM     15  C   UNL     1     -13.921   7.312 -20.663  1.00  0.00     0.000 C 
BRANCH  15  16
ATOM     16  C   UNL     1     -13.701   5.858 -21.117  1.00  0.00     0.000 C 
BRANCH  16  17
ATOM     17  C   UNL     1     -14.324   5.490 -22.477  1.00  0.00     0.000 C 
BRANCH  17  18
ATOM     18  C   UNL     1     -13.532   4.405 -23.226  1.00  0.00    -0.000 C 
BRANCH  18  19
ATOM     19  C   UNL     1     -14.253   3.047 -23.245  1.00  0.00    -0.000 C 
BRANCH  19  20
ATOM     20  C   UNL     1     -15.371   2.956 -24.306  1.00  0.00    -0.000 C 
BRANCH  20  21
ATOM     21  C   UNL     1     -16.706   2.494 -23.699  1.00  0.00    -0.000 C 
BRANCH  21  22
ATOM     22  C   UNL     1     -17.285   3.504 -22.692  1.00  0.00    -0.000 C 
BRANCH  22  23
ATOM     23  C   UNL     1     -17.456   2.967 -21.257  1.00  0.00    -0.000 C 
BRANCH  23  24
ATOM     24  C   UNL     1     -16.622   3.692 -20.182  1.00  0.00    -0.000 C 
BRANCH  24  25
ATOM     25  C   UNL     1     -15.315   2.982 -19.788  1.00  0.00    -0.003 C 
ATOM     26  C   UNL     1     -15.325   1.490 -20.119  1.00  0.00     0.004 C 
ENDBRANCH  24  25
ENDBRANCH  23  24
ENDBRANCH  22  23
ENDBRANCH  21  22
ENDBRANCH  20  21
ENDBRANCH  19  20
ENDBRANCH  18  19
ENDBRANCH  17  18
ENDBRANCH  16  17
ENDBRANCH  15  16
ENDBRANCH   1  15
TORSDOF 22
ENDMDL
MODEL 6
REMARK VINA RESULT:    -5.585      3.093      6.622
REMARK INTER + INTRA:         -16.467
REMARK INTER:                 -12.078
REMARK INTRA:                  -4.389
REMARK UNBOUND:                -3.699
REMARK SMILES CCCCCCCCCCCCCCCCCCCCCCCC(=O)[O-]
REMARK SMILES IDX 13 1 14 2 15 3 16 4 17 5 18 6 19 7 20 8 21 9 22 10 23 11
REMARK SMILES IDX 24 12 25 13 26 14 12 15 11 16 10 17 9 18 8 19 7 20 6 21 5 22
REMARK SMILES IDX 4 23 3 24 2 25 1 26
REMARK H PARENT
REMARK Flexibility Score: inf
ROOT
ATOM      1  C   UNL     1     -16.840   5.597 -24.360  1.00  0.00     0.000 C 
ENDROOT
BRANCH   1   2
ATOM      2  C   UNL     1     -17.036   6.887 -25.173  1.00  0.00     0.000 C 
BRANCH   2   3
ATOM      3  C   UNL     1     -15.964   7.948 -24.865  1.00  0.00     0.000 C 
BRANCH   3   4
ATOM      4  C   UNL     1     -16.567   9.257 -24.331  1.00  0.00     0.000 C 
BRANCH   4   5
ATOM      5  C   UNL     1     -18.092   9.326 -24.521  1.00  0.00     0.000 C 
BRANCH   5   6
ATOM      6  C   UNL     1     -18.849   9.477 -23.190  1.00  0.00     0.000 C 
BRANCH   6   7
ATOM      7  C   UNL     1     -18.028   9.149 -21.927  1.00  0.00     0.000 C 
BRANCH   7   8
ATOM      8  C   UNL     1     -18.098   7.667 -21.502  1.00  0.00     0.000 C 
BRANCH   8   9
ATOM      9  C   UNL     1     -16.902   7.250 -20.626  1.00  0.00     0.000 C 
BRANCH   9  10
ATOM     10  C   UNL     1     -15.544   7.459 -21.323  1.00  0.00     0.006 C 
BRANCH  10  11
ATOM     11  C   UNL     1     -14.730   8.636 -20.758  1.00  0.00     0.053 C 
BRANCH  11  12
ATOM     12  C   UNL     1     -13.330   8.245 -20.395  1.00  0.00     0.041 C 
ATOM     13  O   UNL     1     -12.547   9.093 -19.891  1.00  0.00    -0.550 OA
ATOM     14  O   UNL     1     -12.882   6.950 -20.633  1.00  0.00    -0.550 OA
ENDBRANCH  11  12
ENDBRANCH  10  11
ENDBRANCH   9  10
ENDBRANCH   8   9
ENDBRANCH   7   8
ENDBRANCH   6   7
ENDBRANCH   5   6
ENDBRANCH   4   5
ENDBRANCH   3   4
ENDBRANCH   2   3
ENDBRANCH   1   2
BRANCH   1  15
ATOM     15  C   UNL     1     -15.532   4.868 -24.716  1.00  0.00     0.000 C 
BRANCH  15  16
ATOM     16  C   UNL     1     -14.567   4.748 -23.524  1.00  0.00     0.000 C 
BRANCH  16  17
ATOM     17  C   UNL     1     -14.096   3.317 -23.199  1.00  0.00     0.000 C 
BRANCH  17  18
ATOM     18  C   UNL     1     -14.688   2.261 -24.146  1.00  0.00    -0.000 C 
BRANCH  18  19
ATOM     19  C   UNL     1     -15.665   1.306 -23.439  1.00  0.00    -0.000 C 
BRANCH  19  20
ATOM     20  C   UNL     1     -17.135   1.776 -23.491  1.00  0.00    -0.000 C 
BRANCH  20  21
ATOM     21  C   UNL     1     -17.706   2.037 -22.087  1.00  0.00    -0.000 C 
BRANCH  21  22
ATOM     22  C   UNL     1     -17.514   3.492 -21.626  1.00  0.00    -0.000 C 
BRANCH  22  23
ATOM     23  C   UNL     1     -16.916   3.653 -20.214  1.00  0.00    -0.000 C 
BRANCH  23  24
ATOM     24  C   UNL     1     -15.449   3.202 -20.069  1.00  0.00    -0.000 C 
BRANCH  24  25
ATOM     25  C   UNL     1     -15.238   1.960 -19.186  1.00  0.00    -0.003 C 
ATOM     26  C   UNL     1     -14.782   0.736 -19.979  1.00  0.00     0.004 C 
ENDBRANCH  24  25
ENDBRANCH  23  24
ENDBRANCH  22  23
ENDBRANCH  21  22
ENDBRANCH  20  21
ENDBRANCH  19  20
ENDBRANCH  18  19
ENDBRANCH  17  18
ENDBRANCH  16  17
ENDBRANCH  15  16
ENDBRANCH   1  15
TORSDOF 22
ENDMDL
MODEL 7
REMARK VINA RESULT:    -5.581      3.591      7.168
REMARK INTER + INTRA:         -16.458
REMARK INTER:                 -12.395
REMARK INTRA:                  -4.062
REMARK UNBOUND:                -3.699
REMARK SMILES CCCCCCCCCCCCCCCCCCCCCCCC(=O)[O-]
REMARK SMILES IDX 13 1 14 2 15 3 16 4 17 5 18 6 19 7 20 8 21 9 22 10 23 11
REMARK SMILES IDX 24 12 25 13 26 14 12 15 11 16 10 17 9 18 8 19 7 20 6 21 5 22
REMARK SMILES IDX 4 23 3 24 2 25 1 26
REMARK H PARENT
REMARK Flexibility Score: inf
ROOT
ATOM      1  C   UNL     1     -17.736   4.633 -22.568  1.00  0.00     0.000 C 
ENDROOT
BRANCH   1   2
ATOM      2  C   UNL     1     -17.230   5.208 -23.900  1.00  0.00     0.000 C 
BRANCH   2   3
ATOM      3  C   UNL     1     -16.048   6.176 -23.716  1.00  0.00     0.000 C 
BRANCH   3   4
ATOM      4  C   UNL     1     -15.932   7.191 -24.864  1.00  0.00     0.000 C 
BRANCH   4   5
ATOM      5  C   UNL     1     -16.009   8.648 -24.375  1.00  0.00     0.000 C 
BRANCH   5   6
ATOM      6  C   UNL     1     -17.360   9.311 -24.696  1.00  0.00     0.000 C 
BRANCH   6   7
ATOM      7  C   UNL     1     -18.243   9.627 -23.472  1.00  0.00     0.000 C 
BRANCH   7   8
ATOM      8  C   UNL     1     -19.002   8.403 -22.916  1.00  0.00     0.000 C 
BRANCH   8   9
ATOM      9  C   UNL     1     -18.487   7.974 -21.530  1.00  0.00     0.000 C 
BRANCH   9  10
ATOM     10  C   UNL     1     -17.448   8.949 -20.945  1.00  0.00     0.006 C 
BRANCH  10  11
ATOM     11  C   UNL     1     -16.155   8.266 -20.466  1.00  0.00     0.053 C 
BRANCH  11  12
ATOM     12  C   UNL     1     -15.049   9.244 -20.208  1.00  0.00     0.041 C 
ATOM     13  O   UNL     1     -15.306  10.373 -19.712  1.00  0.00    -0.550 OA
ATOM     14  O   UNL     1     -13.738   8.918 -20.534  1.00  0.00    -0.550 OA
ENDBRANCH  11  12
ENDBRANCH  10  11
ENDBRANCH   9  10
ENDBRANCH   8   9
ENDBRANCH   7   8
ENDBRANCH   6   7
ENDBRANCH   5   6
ENDBRANCH   4   5
ENDBRANCH   3   4
ENDBRANCH   2   3
ENDBRANCH   1   2
BRANCH   1  15
ATOM     15  C   UNL     1     -16.681   4.716 -21.451  1.00  0.00     0.000 C 
BRANCH  15  16
ATOM     16  C   UNL     1     -16.766   3.545 -20.455  1.00  0.00     0.000 C 
BRANCH  16  17
ATOM     17  C   UNL     1     -15.503   2.668 -20.359  1.00  0.00     0.000 C 
BRANCH  17  18
ATOM     18  C   UNL     1     -15.489   1.771 -19.111  1.00  0.00    -0.000 C 
BRANCH  18  19
ATOM     19  C   UNL     1     -14.894   0.379 -19.383  1.00  0.00    -0.000 C 
BRANCH  19  20
ATOM     20  C   UNL     1     -14.394   0.194 -20.833  1.00  0.00    -0.000 C 
BRANCH  20  21
ATOM     21  C   UNL     1     -14.903  -1.118 -21.455  1.00  0.00    -0.000 C 
BRANCH  21  22
ATOM     22  C   UNL     1     -15.664  -0.896 -22.774  1.00  0.00    -0.000 C 
BRANCH  22  23
ATOM     23  C   UNL     1     -16.991  -0.123 -22.637  1.00  0.00    -0.000 C 
BRANCH  23  24
ATOM     24  C   UNL     1     -17.085   1.169 -23.473  1.00  0.00    -0.000 C 
BRANCH  24  25
ATOM     25  C   UNL     1     -15.932   1.381 -24.469  1.00  0.00    -0.003 C 
ATOM     26  C   UNL     1     -14.894   2.387 -23.973  1.00  0.00     0.004 C 
ENDBRANCH  24  25
ENDBRANCH  23  24
ENDBRANCH  22  23
ENDBRANCH  21  22
ENDBRANCH  20  21
ENDBRANCH  19  20
ENDBRANCH  18  19
ENDBRANCH  17  18
ENDBRANCH  16  17
ENDBRANCH  15  16
ENDBRANCH   1  15
TORSDOF 22
ENDMDL
MODEL 8
REMARK VINA RESULT:    -5.562      1.426      3.950
REMARK INTER + INTRA:         -16.414
REMARK INTER:                 -12.504
REMARK INTRA:                  -3.910
REMARK UNBOUND:                -3.699
REMARK SMILES CCCCCCCCCCCCCCCCCCCCCCCC(=O)[O-]
REMARK SMILES IDX 13 1 14 2 15 3 16 4 17 5 18 6 19 7 20 8 21 9 22 10 23 11
REMARK SMILES IDX 24 12 25 13 26 14 12 15 11 16 10 17 9 18 8 19 7 20 6 21 5 22
REMARK SMILES IDX 4 23 3 24 2 25 1 26
REMARK H PARENT
REMARK Flexibility Score: inf
ROOT
ATOM      1  C   UNL     1     -17.676   4.608 -22.664  1.00  0.00     0.000 C 
ENDROOT
BRANCH   1   2
ATOM      2  C   UNL     1     -17.346   3.910 -23.993  1.00  0.00     0.000 C 
BRANCH   2   3
ATOM      3  C   UNL     1     -16.897   2.450 -23.799  1.00  0.00     0.000 C 
BRANCH   3   4
ATOM      4  C   UNL     1     -15.440   2.218 -24.230  1.00  0.00     0.000 C 
BRANCH   4   5
ATOM      5  C   UNL     1     -14.428   2.844 -23.254  1.00  0.00     0.000 C 
BRANCH   5   6
ATOM      6  C   UNL     1     -13.745   1.799 -22.356  1.00  0.00     0.000 C 
BRANCH   6   7
ATOM      7  C   UNL     1     -14.330   1.673 -20.935  1.00  0.00     0.000 C 
BRANCH   7   8
ATOM      8  C   UNL     1     -15.452   0.619 -20.811  1.00  0.00     0.000 C 
BRANCH   8   9
ATOM      9  C   UNL     1     -15.039  -0.748 -21.386  1.00  0.00     0.000 C 
BRANCH   9  10
ATOM     10  C   UNL     1     -14.124  -1.547 -20.439  1.00  0.00     0.006 C 
BRANCH  10  11
ATOM     11  C   UNL     1     -13.708  -2.922 -20.991  1.00  0.00     0.053 C 
BRANCH  11  12
ATOM     12  C   UNL     1     -12.609  -3.554 -20.193  1.00  0.00     0.041 C 
ATOM     13  O   UNL     1     -11.525  -3.871 -20.750  1.00  0.00    -0.550 OA
ATOM     14  O   UNL     1     -12.788  -3.812 -18.839  1.00  0.00    -0.550 OA
ENDBRANCH  11  12
ENDBRANCH  10  11
ENDBRANCH   9  10
ENDBRANCH   8   9
ENDBRANCH   7   8
ENDBRANCH   6   7
ENDBRANCH   5   6
ENDBRANCH   4   5
ENDBRANCH   3   4
ENDBRANCH   2   3
ENDBRANCH   1   2
BRANCH   1  15
ATOM     15  C   UNL     1     -17.806   3.618 -21.494  1.00  0.00     0.000 C 
BRANCH  15  16
ATOM     16  C   UNL     1     -17.001   4.043 -20.253  1.00  0.00     0.000 C 
BRANCH  16  17
ATOM     17  C   UNL     1     -16.317   5.420 -20.352  1.00  0.00     0.000 C 
BRANCH  17  18
ATOM     18  C   UNL     1     -14.799   5.354 -20.119  1.00  0.00    -0.000 C 
BRANCH  18  19
ATOM     19  C   UNL     1     -13.993   6.015 -21.251  1.00  0.00    -0.000 C 
BRANCH  19  20
ATOM     20  C   UNL     1     -13.117   7.196 -20.778  1.00  0.00    -0.000 C 
BRANCH  20  21
ATOM     21  C   UNL     1     -13.955   8.310 -20.127  1.00  0.00    -0.000 C 
BRANCH  21  22
ATOM     22  C   UNL     1     -14.736   9.147 -21.154  1.00  0.00    -0.000 C 
BRANCH  22  23
ATOM     23  C   UNL     1     -16.270   9.013 -21.071  1.00  0.00    -0.000 C 
BRANCH  23  24
ATOM     24  C   UNL     1     -16.960   8.559 -22.373  1.00  0.00    -0.000 C 
BRANCH  24  25
ATOM     25  C   UNL     1     -16.105   8.707 -23.643  1.00  0.00    -0.003 C 
ATOM     26  C   UNL     1     -15.894   7.383 -24.377  1.00  0.00     0.004 C 
ENDBRANCH  24  25
ENDBRANCH  23  24
ENDBRANCH  22  23
ENDBRANCH  21  22
ENDBRANCH  20  21
ENDBRANCH  19  20
ENDBRANCH  18  19
ENDBRANCH  17  18
ENDBRANCH  16  17
ENDBRANCH  15  16
ENDBRANCH   1  15
TORSDOF 22
ENDMDL
MODEL 9
REMARK VINA RESULT:    -5.551      1.680      4.889
REMARK INTER + INTRA:         -16.390
REMARK INTER:                 -12.114
REMARK INTRA:                  -4.276
REMARK UNBOUND:                -3.699
REMARK SMILES CCCCCCCCCCCCCCCCCCCCCCCC(=O)[O-]
REMARK SMILES IDX 13 1 14 2 15 3 16 4 17 5 18 6 19 7 20 8 21 9 22 10 23 11
REMARK SMILES IDX 24 12 25 13 26 14 12 15 11 16 10 17 9 18 8 19 7 20 6 21 5 22
REMARK SMILES IDX 4 23 3 24 2 25 1 26
REMARK H PARENT
REMARK Flexibility Score: inf
ROOT
ATOM      1  C   UNL     1     -14.684   5.319 -20.044  1.00  0.00     0.000 C 
ENDROOT
BRANCH   1   2
ATOM      2  C   UNL     1     -14.498   3.808 -19.836  1.00  0.00     0.000 C 
BRANCH   2   3
ATOM      3  C   UNL     1     -15.809   3.021 -20.008  1.00  0.00     0.000 C 
BRANCH   3   4
ATOM      4  C   UNL     1     -17.011   3.933 -20.301  1.00  0.00     0.000 C 
BRANCH   4   5
ATOM      5  C   UNL     1     -17.624   3.676 -21.688  1.00  0.00     0.000 C 
BRANCH   5   6
ATOM      6  C   UNL     1     -17.329   4.808 -22.687  1.00  0.00     0.000 C 
BRANCH   6   7
ATOM      7  C   UNL     1     -16.442   4.411 -23.884  1.00  0.00     0.000 C 
BRANCH   7   8
ATOM      8  C   UNL     1     -14.955   4.792 -23.714  1.00  0.00     0.000 C 
BRANCH   8   9
ATOM      9  C   UNL     1     -14.075   3.576 -23.371  1.00  0.00     0.000 C 
BRANCH   9  10
ATOM     10  C   UNL     1     -14.750   2.231 -23.701  1.00  0.00     0.006 C 
BRANCH  10  11
ATOM     11  C   UNL     1     -14.394   1.100 -22.721  1.00  0.00     0.053 C 
BRANCH  11  12
ATOM     12  C   UNL     1     -14.508  -0.258 -23.344  1.00  0.00     0.041 C 
ATOM     13  O   UNL     1     -14.470  -0.385 -24.596  1.00  0.00    -0.550 OA
ATOM     14  O   UNL     1     -14.677  -1.381 -22.543  1.00  0.00    -0.550 OA
ENDBRANCH  11  12
ENDBRANCH  10  11
ENDBRANCH   9  10
ENDBRANCH   8   9
ENDBRANCH   7   8
ENDBRANCH   6   7
ENDBRANCH   5   6
ENDBRANCH   4   5
ENDBRANCH   3   4
ENDBRANCH   2   3
ENDBRANCH   1   2
BRANCH   1  15
ATOM     15  C   UNL     1     -13.407   6.005 -20.559  1.00  0.00     0.000 C 
BRANCH  15  16
ATOM     16  C   UNL     1     -13.523   7.540 -20.600  1.00  0.00     0.000 C 
BRANCH  16  17
ATOM     17  C   UNL     1     -14.763   8.126 -19.899  1.00  0.00     0.000 C 
BRANCH  17  18
ATOM     18  C   UNL     1     -15.754   8.778 -20.877  1.00  0.00    -0.000 C 
BRANCH  18  19
ATOM     19  C   UNL     1     -15.812   8.058 -22.235  1.00  0.00    -0.000 C 
BRANCH  19  20
ATOM     20  C   UNL     1     -15.831   9.018 -23.444  1.00  0.00    -0.000 C 
BRANCH  20  21
ATOM     21  C   UNL     1     -16.229   8.300 -24.744  1.00  0.00    -0.000 C 
BRANCH  21  22
ATOM     22  C   UNL     1     -17.698   8.543 -25.135  1.00  0.00    -0.000 C 
BRANCH  22  23
ATOM     23  C   UNL     1     -18.330   9.811 -24.527  1.00  0.00    -0.000 C 
BRANCH  23  24
ATOM     24  C   UNL     1     -19.582   9.567 -23.660  1.00  0.00    -0.000 C 
BRANCH  24  25
ATOM     25  C   UNL     1     -19.538   8.289 -22.805  1.00  0.00    -0.003 C 
ATOM     26  C   UNL     1     -19.415   8.576 -21.309  1.00  0.00     0.004 C 
ENDBRANCH  24  25
ENDBRANCH  23  24
ENDBRANCH  22  23
ENDBRANCH  21  22
ENDBRANCH  20  21
ENDBRANCH  19  20
ENDBRANCH  18  19
ENDBRANCH  17  18
ENDBRANCH  16  17
ENDBRANCH  15  16
ENDBRANCH   1  15
TORSDOF 22
ENDMDL
