MODEL 1
REMARK VINA RESULT:    -5.875      0.000      0.000
REMARK INTER + INTRA:          -6.047
REMARK INTER:                  -6.047
REMARK INTRA:                   0.000
REMARK UNBOUND:                 0.000
REMARK SMILES O=c1ccc2ccc(O)cc2o1
REMARK SMILES IDX 6 1 7 2 8 3 10 4 11 5 5 6 4 7 3 8 2 9 1 10 12 11 9 12
REMARK H PARENT 9 13
REMARK Flexibility Score: inf
ROOT
ATOM      1  C   UNL     1      58.622 154.181   1.834  1.00  0.00     0.016 A 
ATOM      2  C   UNL     1      59.102 154.506   0.562  1.00  0.00     0.047 A 
ATOM      3  C   UNL     1      60.357 154.049   0.141  1.00  0.00     0.119 A 
ATOM      4  C   UNL     1      61.138 153.260   0.998  1.00  0.00     0.094 A 
ATOM      5  C   UNL     1      60.666 152.930   2.272  1.00  0.00     0.142 A 
ATOM      6  C   UNL     1      59.400 153.392   2.695  1.00  0.00     0.018 A 
ATOM      7  C   UNL     1      58.956 153.046   3.973  1.00  0.00     0.019 A 
ATOM      8  C   UNL     1      59.767 152.260   4.791  1.00  0.00     0.094 A 
ATOM      9  C   UNL     1      61.010 151.837   4.306  1.00  0.00     0.336 A 
ATOM     10  O   UNL     1      61.757 151.127   5.029  1.00  0.00    -0.246 OA
ATOM     11  O   UNL     1      61.409 152.181   3.085  1.00  0.00    -0.423 OA
ENDROOT
BRANCH   3  12
ATOM     12  O   UNL     1      60.817 154.383  -1.131  1.00  0.00    -0.508 OA
ATOM     13  H   UNL     1      61.413 153.757  -1.660  1.00  0.00     0.293 HD
ENDBRANCH   3  12
TORSDOF 1
ENDMDL
MODEL 2
REMARK VINA RESULT:    -5.651      5.123      6.068
REMARK INTER + INTRA:          -5.817
REMARK INTER:                  -5.817
REMARK INTRA:                   0.000
REMARK UNBOUND:                 0.000
REMARK SMILES O=c1ccc2ccc(O)cc2o1
REMARK SMILES IDX 6 1 7 2 8 3 10 4 11 5 5 6 4 7 3 8 2 9 1 10 12 11 9 12
REMARK H PARENT 9 13
REMARK Flexibility Score: inf
ROOT
ATOM      1  C   UNL     1      64.694 149.728   4.940  1.00  0.00     0.016 A 
ATOM      2  C   UNL     1      64.997 151.092   4.938  1.00  0.00     0.047 A 
ATOM      3  C   UNL     1      64.047 152.029   5.364  1.00  0.00     0.119 A 
ATOM      4  C   UNL     1      62.785 151.598   5.797  1.00  0.00     0.094 A 
ATOM      5  C   UNL     1      62.473 150.235   5.803  1.00  0.00     0.142 A 
ATOM      6  C   UNL     1      63.432 149.292   5.372  1.00  0.00     0.018 A 
ATOM      7  C   UNL     1      63.092 147.937   5.390  1.00  0.00     0.019 A 
ATOM      8  C   UNL     1      61.824 147.556   5.828  1.00  0.00     0.094 A 
ATOM      9  C   UNL     1      60.924 148.545   6.241  1.00  0.00     0.336 A 
ATOM     10  O   UNL     1      59.774 148.220   6.640  1.00  0.00    -0.246 OA
ATOM     11  O   UNL     1      61.273 149.828   6.214  1.00  0.00    -0.423 OA
ENDROOT
BRANCH   3  12
ATOM     12  O   UNL     1      64.369 153.384   5.355  1.00  0.00    -0.508 OA
ATOM     13  H   UNL     1      64.335 153.931   4.501  1.00  0.00     0.293 HD
ENDBRANCH   3  12
TORSDOF 1
ENDMDL
MODEL 3
REMARK VINA RESULT:    -5.481      5.368      6.689
REMARK INTER + INTRA:          -5.641
REMARK INTER:                  -5.641
REMARK INTRA:                   0.000
REMARK UNBOUND:                 0.000
REMARK SMILES O=c1ccc2ccc(O)cc2o1
REMARK SMILES IDX 6 1 7 2 8 3 10 4 11 5 5 6 4 7 3 8 2 9 1 10 12 11 9 12
REMARK H PARENT 9 13
REMARK Flexibility Score: inf
ROOT
ATOM      1  C   UNL     1      62.950 147.790   5.372  1.00  0.00     0.016 A 
ATOM      2  C   UNL     1      61.622 147.601   5.768  1.00  0.00     0.047 A 
ATOM      3  C   UNL     1      60.836 148.694   6.151  1.00  0.00     0.119 A 
ATOM      4  C   UNL     1      61.380 149.987   6.138  1.00  0.00     0.094 A 
ATOM      5  C   UNL     1      62.707 150.186   5.743  1.00  0.00     0.142 A 
ATOM      6  C   UNL     1      63.498 149.081   5.357  1.00  0.00     0.018 A 
ATOM      7  C   UNL     1      64.820 149.311   4.967  1.00  0.00     0.019 A 
ATOM      8  C   UNL     1      65.318 150.613   4.971  1.00  0.00     0.094 A 
ATOM      9  C   UNL     1      64.476 151.660   5.365  1.00  0.00     0.336 A 
ATOM     10  O   UNL     1      64.908 152.843   5.375  1.00  0.00    -0.246 OA
ATOM     11  O   UNL     1      63.222 151.414   5.731  1.00  0.00    -0.423 OA
ENDROOT
BRANCH   3  12
ATOM     12  O   UNL     1      59.515 148.485   6.542  1.00  0.00    -0.508 OA
ATOM     13  H   UNL     1      59.076 149.058   7.254  1.00  0.00     0.293 HD
ENDBRANCH   3  12
TORSDOF 1
ENDMDL
MODEL 4
REMARK VINA RESULT:    -5.319      1.632      2.561
REMARK INTER + INTRA:          -5.474
REMARK INTER:                  -5.474
REMARK INTRA:                   0.000
REMARK UNBOUND:                 0.000
REMARK SMILES O=c1ccc2ccc(O)cc2o1
REMARK SMILES IDX 6 1 7 2 8 3 10 4 11 5 5 6 4 7 3 8 2 9 1 10 12 11 9 12
REMARK H PARENT 9 13
REMARK Flexibility Score: inf
ROOT
ATOM      1  C   UNL     1      61.368 152.869   1.395  1.00  0.00     0.016 A 
ATOM      2  C   UNL     1      60.218 153.542   0.973  1.00  0.00     0.047 A 
ATOM      3  C   UNL     1      59.134 153.707   1.845  1.00  0.00     0.119 A 
ATOM      4  C   UNL     1      59.202 153.195   3.149  1.00  0.00     0.094 A 
ATOM      5  C   UNL     1      60.349 152.521   3.580  1.00  0.00     0.142 A 
ATOM      6  C   UNL     1      61.440 152.356   2.699  1.00  0.00     0.018 A 
ATOM      7  C   UNL     1      62.572 151.677   3.157  1.00  0.00     0.019 A 
ATOM      8  C   UNL     1      62.594 151.186   4.462  1.00  0.00     0.094 A 
ATOM      9  C   UNL     1      61.476 151.386   5.280  1.00  0.00     0.336 A 
ATOM     10  O   UNL     1      61.477 150.950   6.462  1.00  0.00    -0.246 OA
ATOM     11  O   UNL     1      60.411 152.036   4.819  1.00  0.00    -0.423 OA
ENDROOT
BRANCH   3  12
ATOM     12  O   UNL     1      57.997 154.381   1.406  1.00  0.00    -0.508 OA
ATOM     13  H   UNL     1      57.415 154.009   0.664  1.00  0.00     0.293 HD
ENDBRANCH   3  12
TORSDOF 1
ENDMDL
MODEL 5
REMARK VINA RESULT:    -5.284     20.027     21.055
REMARK INTER + INTRA:          -5.438
REMARK INTER:                  -5.438
REMARK INTRA:                   0.000
REMARK UNBOUND:                 0.000
REMARK SMILES O=c1ccc2ccc(O)cc2o1
REMARK SMILES IDX 6 1 7 2 8 3 10 4 11 5 5 6 4 7 3 8 2 9 1 10 12 11 9 12
REMARK H PARENT 9 13
REMARK Flexibility Score: inf
ROOT
ATOM      1  C   UNL     1      72.805 137.616  -8.811  1.00  0.00     0.016 A 
ATOM      2  C   UNL     1      73.116 138.522  -9.828  1.00  0.00     0.047 A 
ATOM      3  C   UNL     1      72.390 139.713  -9.961  1.00  0.00     0.119 A 
ATOM      4  C   UNL     1      71.346 139.999  -9.069  1.00  0.00     0.094 A 
ATOM      5  C   UNL     1      71.029 139.098  -8.047  1.00  0.00     0.142 A 
ATOM      6  C   UNL     1      71.762 137.898  -7.916  1.00  0.00     0.018 A 
ATOM      7  C   UNL     1      71.422 137.017  -6.886  1.00  0.00     0.019 A 
ATOM      8  C   UNL     1      70.376 137.344  -6.024  1.00  0.00     0.094 A 
ATOM      9  C   UNL     1      69.693 138.551  -6.214  1.00  0.00     0.336 A 
ATOM     10  O   UNL     1      68.746 138.864  -5.445  1.00  0.00    -0.246 OA
ATOM     11  O   UNL     1      70.037 139.372  -7.202  1.00  0.00    -0.423 OA
ENDROOT
BRANCH   3  12
ATOM     12  O   UNL     1      72.716 140.604 -10.981  1.00  0.00    -0.508 OA
ATOM     13  H   UNL     1      73.646 140.633 -11.382  1.00  0.00     0.293 HD
ENDBRANCH   3  12
TORSDOF 1
ENDMDL
MODEL 6
REMARK VINA RESULT:    -5.236      1.671      2.391
REMARK INTER + INTRA:          -5.389
REMARK INTER:                  -5.389
REMARK INTRA:                   0.000
REMARK UNBOUND:                 0.000
REMARK SMILES O=c1ccc2ccc(O)cc2o1
REMARK SMILES IDX 6 1 7 2 8 3 10 4 11 5 5 6 4 7 3 8 2 9 1 10 12 11 9 12
REMARK H PARENT 9 13
REMARK Flexibility Score: inf
ROOT
ATOM      1  C   UNL     1      59.563 152.761   4.008  1.00  0.00     0.016 A 
ATOM      2  C   UNL     1      59.011 153.295   2.840  1.00  0.00     0.047 A 
ATOM      3  C   UNL     1      59.754 153.319   1.653  1.00  0.00     0.119 A 
ATOM      4  C   UNL     1      61.059 152.804   1.634  1.00  0.00     0.094 A 
ATOM      5  C   UNL     1      61.618 152.267   2.798  1.00  0.00     0.142 A 
ATOM      6  C   UNL     1      60.867 152.244   3.993  1.00  0.00     0.018 A 
ATOM      7  C   UNL     1      61.453 151.701   5.140  1.00  0.00     0.019 A 
ATOM      8  C   UNL     1      62.753 151.201   5.073  1.00  0.00     0.094 A 
ATOM      9  C   UNL     1      63.438 151.257   3.853  1.00  0.00     0.336 A 
ATOM     10  O   UNL     1      64.613 150.810   3.773  1.00  0.00    -0.246 OA
ATOM     11  O   UNL     1      62.857 151.779   2.777  1.00  0.00    -0.423 OA
ENDROOT
BRANCH   3  12
ATOM     12  O   UNL     1      59.186 153.856   0.500  1.00  0.00    -0.508 OA
ATOM     13  H   UNL     1      59.730 154.417  -0.146  1.00  0.00     0.293 HD
ENDBRANCH   3  12
TORSDOF 1
ENDMDL
MODEL 7
REMARK VINA RESULT:    -5.121      3.663      5.637
REMARK INTER + INTRA:          -5.271
REMARK INTER:                  -5.271
REMARK INTRA:                   0.000
REMARK UNBOUND:                 0.000
REMARK SMILES O=c1ccc2ccc(O)cc2o1
REMARK SMILES IDX 6 1 7 2 8 3 10 4 11 5 5 6 4 7 3 8 2 9 1 10 12 11 9 12
REMARK H PARENT 9 13
REMARK Flexibility Score: inf
ROOT
ATOM      1  C   UNL     1      63.874 151.163   3.586  1.00  0.00     0.016 A 
ATOM      2  C   UNL     1      64.883 150.334   4.086  1.00  0.00     0.047 A 
ATOM      3  C   UNL     1      64.706 149.656   5.298  1.00  0.00     0.119 A 
ATOM      4  C   UNL     1      63.510 149.807   6.016  1.00  0.00     0.094 A 
ATOM      5  C   UNL     1      62.495 150.634   5.524  1.00  0.00     0.142 A 
ATOM      6  C   UNL     1      62.677 151.317   4.301  1.00  0.00     0.018 A 
ATOM      7  C   UNL     1      61.646 152.136   3.834  1.00  0.00     0.019 A 
ATOM      8  C   UNL     1      60.475 152.256   4.583  1.00  0.00     0.094 A 
ATOM      9  C   UNL     1      60.365 151.549   5.786  1.00  0.00     0.336 A 
ATOM     10  O   UNL     1      59.315 151.645   6.475  1.00  0.00    -0.246 OA
ATOM     11  O   UNL     1      61.361 150.776   6.207  1.00  0.00    -0.423 OA
ENDROOT
BRANCH   3  12
ATOM     12  O   UNL     1      65.723 148.834   5.779  1.00  0.00    -0.508 OA
ATOM     13  H   UNL     1      65.573 148.211   6.565  1.00  0.00     0.293 HD
ENDBRANCH   3  12
TORSDOF 1
ENDMDL
MODEL 8
REMARK VINA RESULT:    -5.082     20.567     21.803
REMARK INTER + INTRA:          -5.230
REMARK INTER:                  -5.230
REMARK INTRA:                   0.000
REMARK UNBOUND:                 0.000
REMARK SMILES O=c1ccc2ccc(O)cc2o1
REMARK SMILES IDX 6 1 7 2 8 3 10 4 11 5 5 6 4 7 3 8 2 9 1 10 12 11 9 12
REMARK H PARENT 9 13
REMARK Flexibility Score: inf
ROOT
ATOM      1  C   UNL     1      69.830 139.660  -8.454  1.00  0.00     0.016 A 
ATOM      2  C   UNL     1      69.509 139.277  -7.148  1.00  0.00     0.047 A 
ATOM      3  C   UNL     1      70.304 138.345  -6.469  1.00  0.00     0.119 A 
ATOM      4  C   UNL     1      71.429 137.793  -7.099  1.00  0.00     0.094 A 
ATOM      5  C   UNL     1      71.758 138.171  -8.405  1.00  0.00     0.142 A 
ATOM      6  C   UNL     1      70.954 139.111  -9.088  1.00  0.00     0.018 A 
ATOM      7  C   UNL     1      71.308 139.469 -10.391  1.00  0.00     0.019 A 
ATOM      8  C   UNL     1      72.435 138.893 -10.977  1.00  0.00     0.094 A 
ATOM      9  C   UNL     1      73.185 137.969 -10.241  1.00  0.00     0.336 A 
ATOM     10  O   UNL     1      74.205 137.439 -10.753  1.00  0.00    -0.246 OA
ATOM     11  O   UNL     1      72.826 137.646  -9.002  1.00  0.00    -0.423 OA
ENDROOT
BRANCH   3  12
ATOM     12  O   UNL     1      69.967 137.976  -5.169  1.00  0.00    -0.508 OA
ATOM     13  H   UNL     1      69.499 138.619  -4.540  1.00  0.00     0.293 HD
ENDBRANCH   3  12
TORSDOF 1
ENDMDL
MODEL 9
REMARK VINA RESULT:    -5.056     19.901     21.237
REMARK INTER + INTRA:          -5.203
REMARK INTER:                  -5.203
REMARK INTRA:                   0.000
REMARK UNBOUND:                 0.000
REMARK SMILES O=c1ccc2ccc(O)cc2o1
REMARK SMILES IDX 6 1 7 2 8 3 10 4 11 5 5 6 4 7 3 8 2 9 1 10 12 11 9 12
REMARK H PARENT 9 13
REMARK Flexibility Score: inf
ROOT
ATOM      1  C   UNL     1      71.545 137.298  -6.324  1.00  0.00     0.016 A 
ATOM      2  C   UNL     1      70.455 137.591  -5.498  1.00  0.00     0.047 A 
ATOM      3  C   UNL     1      69.478 138.504  -5.913  1.00  0.00     0.119 A 
ATOM      4  C   UNL     1      69.590 139.130  -7.163  1.00  0.00     0.094 A 
ATOM      5  C   UNL     1      70.677 138.843  -7.997  1.00  0.00     0.142 A 
ATOM      6  C   UNL     1      71.661 137.921  -7.576  1.00  0.00     0.018 A 
ATOM      7  C   UNL     1      72.734 137.655  -8.430  1.00  0.00     0.019 A 
ATOM      8  C   UNL     1      72.804 138.301  -9.664  1.00  0.00     0.094 A 
ATOM      9  C   UNL     1      71.792 139.203 -10.015  1.00  0.00     0.336 A 
ATOM     10  O   UNL     1      71.838 139.796 -11.124  1.00  0.00    -0.246 OA
ATOM     11  O   UNL     1      70.781 139.438  -9.183  1.00  0.00    -0.423 OA
ENDROOT
BRANCH   3  12
ATOM     12  O   UNL     1      68.400 138.782  -5.075  1.00  0.00    -0.508 OA
ATOM     13  H   UNL     1      68.034 138.086  -4.435  1.00  0.00     0.293 HD
ENDBRANCH   3  12
TORSDOF 1
ENDMDL
