MODEL 1
REMARK VINA RESULT:    -6.865      0.000      0.000
REMARK INTER + INTRA:         -13.883
REMARK INTER:                 -12.083
REMARK INTRA:                  -1.800
REMARK UNBOUND:                -1.800
REMARK SMILES COc1cc(-c2[o+]c3cc(O)cc(O[C@@H]4O[C@@H](CO)[C@@H](O)[C@H](O)[C@H]4O)c3cc2O[C@@H]2O[C@@H](CO)[C@@H](O)[C@@H](O)[C@@H]2O)ccc1O
REMARK SMILES IDX 6 1 28 2 27 3 26 4 13 5 12 6 10 7 9 8 8 9 7 10 5 11 3 12
REMARK SMILES IDX 43 13 4 14 42 15 41 16 2 17 1 18 44 19 29 21 30 22 39 23
REMARK SMILES IDX 31 24 37 25 32 26 35 27 40 28 38 30 33 32 34 33 36 35 14 37
REMARK SMILES IDX 15 38 24 39 16 40 22 41 17 42 20 43 25 44 23 46 18 48 19 49
REMARK SMILES IDX 21 51 11 53
REMARK H PARENT 44 20 40 29 38 31 34 34 36 36 25 45 23 47 19 50 21 52 11 54
REMARK Flexibility Score: inf
ROOT
ATOM      1  C   UNL     1      -5.098   4.644  15.181  1.00  0.00     0.402 A 
ATOM      2  C   UNL     1      -4.195   5.615  14.684  1.00  0.00     0.229 A 
ATOM      3  C   UNL     1      -3.051   5.749  15.463  1.00  0.00     0.079 A 
ATOM      4  C   UNL     1      -2.567   4.585  16.095  1.00  0.00     0.126 A 
ATOM      5  C   UNL     1      -1.413   4.556  16.901  1.00  0.00     0.143 A 
ATOM      6  C   UNL     1      -0.877   3.333  17.304  1.00  0.00     0.094 A 
ATOM      7  C   UNL     1      -1.523   2.134  16.978  1.00  0.00     0.128 A 
ATOM      8  C   UNL     1      -2.755   2.155  16.291  1.00  0.00     0.162 A 
ATOM      9  C   UNL     1      -3.303   3.378  15.889  1.00  0.00     0.368 A 
ATOM     10  O   UNL     1      -4.545   3.444  15.380  1.00  0.00    -0.202 OA
ENDROOT
BRANCH   1  11
ATOM     11  C   UNL     1      -5.995   5.121  16.291  1.00  0.00     0.087 A 
ATOM     12  C   UNL     1      -7.733   6.797  16.714  1.00  0.00     0.161 A 
ATOM     13  C   UNL     1      -7.022   7.278  17.816  1.00  0.00     0.157 A 
ATOM     14  C   UNL     1      -7.255   5.686  16.004  1.00  0.00     0.068 A 
ATOM     15  C   UNL     1      -5.891   6.584  18.262  1.00  0.00     0.051 A 
ATOM     16  C   UNL     1      -5.393   5.512  17.512  1.00  0.00     0.022 A 
BRANCH  12  17
ATOM     17  O   UNL     1      -8.832   7.498  16.207  1.00  0.00    -0.493 OA
ATOM     18  C   UNL     1      -9.123   7.521  14.808  1.00  0.00     0.278 C 
ENDBRANCH  12  17
BRANCH  13  19
ATOM     19  O   UNL     1      -7.388   8.482  18.420  1.00  0.00    -0.504 OA
ATOM     20  H   UNL     1      -6.870   9.342  18.204  1.00  0.00     0.293 HD
ENDBRANCH  13  19
ENDBRANCH   1  11
BRANCH   2  21
ATOM     21  O   UNL     1      -4.096   6.090  13.366  1.00  0.00    -0.452 OA
BRANCH  21  22
ATOM     22  C   UNL     1      -4.430   7.341  12.773  1.00  0.00     0.339 C 
ATOM     23  C   UNL     1      -4.256   7.229  11.210  1.00  0.00     0.214 C 
ATOM     24  O   UNL     1      -5.760   7.614  13.200  1.00  0.00    -0.332 OA
ATOM     25  C   UNL     1      -5.249   8.042  10.332  1.00  0.00     0.180 C 
ATOM     26  C   UNL     1      -6.444   8.628  12.478  1.00  0.00     0.179 C 
ATOM     27  C   UNL     1      -6.608   8.201  11.011  1.00  0.00     0.177 C 
BRANCH  23  28
ATOM     28  O   UNL     1      -4.250   5.869  10.784  1.00  0.00    -0.384 OA
ATOM     29  H   UNL     1      -5.181   5.632  10.529  1.00  0.00     0.211 HD
ENDBRANCH  23  28
BRANCH  25  30
ATOM     30  O   UNL     1      -4.703   9.304  10.015  1.00  0.00    -0.387 OA
ATOM     31  H   UNL     1      -4.104   9.565  10.768  1.00  0.00     0.211 HD
ENDBRANCH  25  30
BRANCH  26  32
ATOM     32  C   UNL     1      -5.860  10.017  12.750  1.00  0.00     0.191 C 
BRANCH  32  33
ATOM     33  O   UNL     1      -5.477  10.123  14.098  1.00  0.00    -0.394 OA
ATOM     34  H   UNL     1      -6.282  10.460  14.597  1.00  0.00     0.210 HD
ENDBRANCH  32  33
ENDBRANCH  26  32
BRANCH  27  35
ATOM     35  O   UNL     1      -7.420   9.084  10.281  1.00  0.00    -0.387 OA
ATOM     36  H   UNL     1      -8.355   8.777  10.492  1.00  0.00     0.211 HD
ENDBRANCH  27  35
ENDBRANCH  21  22
ENDBRANCH   2  21
BRANCH   5  37
ATOM     37  O   UNL     1      -0.868   5.726  17.396  1.00  0.00    -0.461 OA
BRANCH  37  38
ATOM     38  C   UNL     1       0.528   5.981  17.494  1.00  0.00     0.339 C 
ATOM     39  C   UNL     1       0.891   7.376  16.891  1.00  0.00     0.214 C 
ATOM     40  O   UNL     1       0.945   5.864  18.841  1.00  0.00    -0.332 OA
ATOM     41  C   UNL     1       1.112   8.419  18.010  1.00  0.00     0.180 C 
ATOM     42  C   UNL     1       0.250   6.755  19.723  1.00  0.00     0.179 C 
ATOM     43  C   UNL     1       0.072   8.192  19.128  1.00  0.00     0.177 C 
BRANCH  39  44
ATOM     44  O   UNL     1       2.050   7.306  16.081  1.00  0.00    -0.384 OA
ATOM     45  H   UNL     1       1.924   7.965  15.346  1.00  0.00     0.211 HD
ENDBRANCH  39  44
BRANCH  41  46
ATOM     46  O   UNL     1       1.044   9.717  17.481  1.00  0.00    -0.387 OA
ATOM     47  H   UNL     1       0.829  10.340  18.232  1.00  0.00     0.211 HD
ENDBRANCH  41  46
BRANCH  42  48
ATOM     48  C   UNL     1       1.028   6.756  21.063  1.00  0.00     0.191 C 
BRANCH  48  49
ATOM     49  O   UNL     1       0.186   7.067  22.144  1.00  0.00    -0.394 OA
ATOM     50  H   UNL     1      -0.722   6.692  21.906  1.00  0.00     0.210 HD
ENDBRANCH  48  49
ENDBRANCH  42  48
BRANCH  43  51
ATOM     51  O   UNL     1       0.176   9.201  20.098  1.00  0.00    -0.387 OA
ATOM     52  H   UNL     1      -0.335   9.986  19.762  1.00  0.00     0.211 HD
ENDBRANCH  43  51
ENDBRANCH  37  38
ENDBRANCH   5  37
BRANCH   7  53
ATOM     53  O   UNL     1      -0.944   0.917  17.381  1.00  0.00    -0.507 OA
ATOM     54  H   UNL     1      -0.528   0.278  16.713  1.00  0.00     0.293 HD
ENDBRANCH   7  53
TORSDOF 18
ENDMDL
MODEL 2
REMARK VINA RESULT:    -5.573     11.710     15.253
REMARK INTER + INTRA:         -11.608
REMARK INTER:                  -8.580
REMARK INTRA:                  -3.029
REMARK UNBOUND:                -1.800
REMARK SMILES COc1cc(-c2[o+]c3cc(O)cc(O[C@@H]4O[C@@H](CO)[C@@H](O)[C@H](O)[C@H]4O)c3cc2O[C@@H]2O[C@@H](CO)[C@@H](O)[C@@H](O)[C@@H]2O)ccc1O
REMARK SMILES IDX 6 1 28 2 27 3 26 4 13 5 12 6 10 7 9 8 8 9 7 10 5 11 3 12
REMARK SMILES IDX 43 13 4 14 42 15 41 16 2 17 1 18 44 19 29 21 30 22 39 23
REMARK SMILES IDX 31 24 37 25 32 26 35 27 40 28 38 30 33 32 34 33 36 35 14 37
REMARK SMILES IDX 15 38 24 39 16 40 22 41 17 42 20 43 25 44 23 46 18 48 19 49
REMARK SMILES IDX 21 51 11 53
REMARK H PARENT 44 20 40 29 38 31 34 34 36 36 25 45 23 47 19 50 21 52 11 54
REMARK Flexibility Score: inf
ROOT
ATOM      1  C   UNL     1      -8.121  -6.850  21.255  1.00  0.00     0.402 A 
ATOM      2  C   UNL     1      -7.321  -5.808  21.784  1.00  0.00     0.229 A 
ATOM      3  C   UNL     1      -6.090  -6.248  22.258  1.00  0.00     0.079 A 
ATOM      4  C   UNL     1      -5.491  -7.328  21.577  1.00  0.00     0.126 A 
ATOM      5  C   UNL     1      -4.242  -7.875  21.925  1.00  0.00     0.143 A 
ATOM      6  C   UNL     1      -3.619  -8.787  21.072  1.00  0.00     0.094 A 
ATOM      7  C   UNL     1      -4.264  -9.222  19.908  1.00  0.00     0.128 A 
ATOM      8  C   UNL     1      -5.576  -8.789  19.618  1.00  0.00     0.162 A 
ATOM      9  C   UNL     1      -6.209  -7.880  20.472  1.00  0.00     0.368 A 
ATOM     10  O   UNL     1      -7.508  -7.575  20.314  1.00  0.00    -0.202 OA
ENDROOT
BRANCH   1  11
ATOM     11  C   UNL     1      -8.880  -7.650  22.279  1.00  0.00     0.087 A 
ATOM     12  C   UNL     1      -9.034  -7.927  24.710  1.00  0.00     0.161 A 
ATOM     13  C   UNL     1      -8.832  -9.303  24.579  1.00  0.00     0.157 A 
ATOM     14  C   UNL     1      -9.125  -7.123  23.564  1.00  0.00     0.068 A 
ATOM     15  C   UNL     1      -8.823  -9.882  23.304  1.00  0.00     0.051 A 
ATOM     16  C   UNL     1      -8.858  -9.061  22.170  1.00  0.00     0.022 A 
BRANCH  12  17
ATOM     17  O   UNL     1      -8.990  -7.311  25.964  1.00  0.00    -0.493 OA
ATOM     18  C   UNL     1      -8.841  -5.895  26.095  1.00  0.00     0.278 C 
ENDBRANCH  12  17
BRANCH  13  19
ATOM     19  O   UNL     1      -8.564 -10.086  25.704  1.00  0.00    -0.504 OA
ATOM     20  H   UNL     1      -8.102 -10.997  25.597  1.00  0.00     0.293 HD
ENDBRANCH  13  19
ENDBRANCH   1  11
BRANCH   2  21
ATOM     21  O   UNL     1      -7.409  -4.437  21.496  1.00  0.00    -0.452 OA
BRANCH  21  22
ATOM     22  C   UNL     1      -7.614  -3.726  20.278  1.00  0.00     0.339 C 
ATOM     23  C   UNL     1      -8.525  -2.471  20.564  1.00  0.00     0.214 C 
ATOM     24  O   UNL     1      -6.308  -3.411  19.806  1.00  0.00    -0.332 OA
ATOM     25  C   UNL     1      -8.241  -1.191  19.728  1.00  0.00     0.180 C 
ATOM     26  C   UNL     1      -6.242  -2.418  18.793  1.00  0.00     0.179 C 
ATOM     27  C   UNL     1      -6.768  -1.081  19.341  1.00  0.00     0.177 C 
BRANCH  23  28
ATOM     28  O   UNL     1      -8.533  -2.141  21.951  1.00  0.00    -0.384 OA
ATOM     29  H   UNL     1      -7.667  -1.699  22.157  1.00  0.00     0.211 HD
ENDBRANCH  23  28
BRANCH  25  30
ATOM     30  O   UNL     1      -9.060  -1.165  18.579  1.00  0.00    -0.387 OA
ATOM     31  H   UNL     1      -8.471  -1.330  17.792  1.00  0.00     0.211 HD
ENDBRANCH  25  30
BRANCH  26  32
ATOM     32  C   UNL     1      -6.818  -2.915  17.464  1.00  0.00     0.191 C 
BRANCH  32  33
ATOM     33  O   UNL     1      -6.599  -1.958  16.458  1.00  0.00    -0.394 OA
ATOM     34  H   UNL     1      -7.276  -1.230  16.607  1.00  0.00     0.210 HD
ENDBRANCH  32  33
ENDBRANCH  26  32
BRANCH  27  35
ATOM     35  O   UNL     1      -6.576  -0.019  18.443  1.00  0.00    -0.387 OA
ATOM     36  H   UNL     1      -5.602   0.211  18.550  1.00  0.00     0.211 HD
ENDBRANCH  27  35
ENDBRANCH  21  22
ENDBRANCH   2  21
BRANCH   5  37
ATOM     37  O   UNL     1      -3.674  -7.611  23.158  1.00  0.00    -0.461 OA
BRANCH  37  38
ATOM     38  C   UNL     1      -3.427  -8.597  24.153  1.00  0.00     0.339 C 
ATOM     39  C   UNL     1      -2.120  -8.280  24.950  1.00  0.00     0.214 C 
ATOM     40  O   UNL     1      -4.550  -8.710  25.007  1.00  0.00    -0.332 OA
ATOM     41  C   UNL     1      -2.451  -7.664  26.328  1.00  0.00     0.180 C 
ATOM     42  C   UNL     1      -4.892  -7.477  25.653  1.00  0.00     0.179 C 
ATOM     43  C   UNL     1      -3.642  -6.693  26.178  1.00  0.00     0.177 C 
BRANCH  39  44
ATOM     44  O   UNL     1      -1.330  -9.440  25.134  1.00  0.00    -0.384 OA
ATOM     45  H   UNL     1      -1.876 -10.074  25.672  1.00  0.00     0.211 HD
ENDBRANCH  39  44
BRANCH  41  46
ATOM     46  O   UNL     1      -1.318  -7.030  26.860  1.00  0.00    -0.387 OA
ATOM     47  H   UNL     1      -1.472  -6.902  27.838  1.00  0.00     0.211 HD
ENDBRANCH  41  46
BRANCH  42  48
ATOM     48  C   UNL     1      -5.895  -7.825  26.780  1.00  0.00     0.191 C 
BRANCH  48  49
ATOM     49  O   UNL     1      -6.119  -9.211  26.856  1.00  0.00    -0.394 OA
ATOM     50  H   UNL     1      -7.063  -9.358  26.526  1.00  0.00     0.210 HD
ENDBRANCH  48  49
ENDBRANCH  42  48
BRANCH  43  51
ATOM     51  O   UNL     1      -3.884  -6.031  27.391  1.00  0.00    -0.387 OA
ATOM     52  H   UNL     1      -4.312  -5.160  27.172  1.00  0.00     0.211 HD
ENDBRANCH  43  51
ENDBRANCH  37  38
ENDBRANCH   5  37
BRANCH   7  53
ATOM     53  O   UNL     1      -3.600 -10.125  19.058  1.00  0.00    -0.507 OA
ATOM     54  H   UNL     1      -2.591 -10.117  18.957  1.00  0.00     0.293 HD
ENDBRANCH   7  53
TORSDOF 18
ENDMDL
