MODEL 1
REMARK VINA RESULT:    -4.792      0.000      0.000
REMARK INTER + INTRA:         -10.282
REMARK INTER:                  -9.275
REMARK INTRA:                  -1.007
REMARK UNBOUND:                -1.007
REMARK SMILES CCCCCCCCCCCCCCCCCC(=O)[O-]
REMARK SMILES IDX 10 1 11 2 12 3 13 4 14 5 15 6 16 7 17 8 18 9 19 10 20 11
REMARK SMILES IDX 9 12 8 13 7 14 6 15 5 16 4 17 3 18 2 19 1 20
REMARK H PARENT
REMARK Flexibility Score: inf
ROOT
ATOM      1  C   UNL     1     111.173 101.813 111.192  1.00  0.00     0.000 C 
ENDROOT
BRANCH   1   2
ATOM      2  C   UNL     1     112.131 102.288 112.297  1.00  0.00     0.000 C 
BRANCH   2   3
ATOM      3  C   UNL     1     113.604 101.975 111.979  1.00  0.00     0.000 C 
BRANCH   3   4
ATOM      4  C   UNL     1     114.281 103.078 111.151  1.00  0.00     0.000 C 
BRANCH   4   5
ATOM      5  C   UNL     1     114.358 104.418 111.905  1.00  0.00     0.000 C 
BRANCH   5   6
ATOM      6  C   UNL     1     114.975 104.275 113.305  1.00  0.00     0.000 C 
BRANCH   6   7
ATOM      7  C   UNL     1     116.214 105.166 113.502  1.00  0.00     0.006 C 
BRANCH   7   8
ATOM      8  C   UNL     1     117.441 104.624 112.759  1.00  0.00     0.053 C 
BRANCH   8   9
ATOM      9  C   UNL     1     118.720 105.077 113.394  1.00  0.00     0.041 C 
ATOM     10  O   UNL     1     119.130 104.533 114.453  1.00  0.00    -0.550 OA
ATOM     11  O   UNL     1     119.470 106.087 112.804  1.00  0.00    -0.550 OA
ENDBRANCH   8   9
ENDBRANCH   7   8
ENDBRANCH   6   7
ENDBRANCH   5   6
ENDBRANCH   4   5
ENDBRANCH   3   4
ENDBRANCH   2   3
ENDBRANCH   1   2
BRANCH   1  12
ATOM     12  C   UNL     1     110.543 102.982 110.416  1.00  0.00     0.000 C 
BRANCH  12  13
ATOM     13  C   UNL     1     109.986 104.075 111.342  1.00  0.00    -0.000 C 
BRANCH  13  14
ATOM     14  C   UNL     1     108.850 104.887 110.693  1.00  0.00    -0.000 C 
BRANCH  14  15
ATOM     15  C   UNL     1     109.091 106.408 110.798  1.00  0.00    -0.000 C 
BRANCH  15  16
ATOM     16  C   UNL     1     107.937 107.170 111.473  1.00  0.00    -0.000 C 
BRANCH  16  17
ATOM     17  C   UNL     1     107.721 106.752 112.937  1.00  0.00    -0.000 C 
BRANCH  17  18
ATOM     18  C   UNL     1     106.396 105.998 113.156  1.00  0.00    -0.000 C 
BRANCH  18  19
ATOM     19  C   UNL     1     105.202 106.887 113.549  1.00  0.00    -0.003 C 
ATOM     20  C   UNL     1     103.884 106.120 113.627  1.00  0.00     0.004 C 
ENDBRANCH  18  19
ENDBRANCH  17  18
ENDBRANCH  16  17
ENDBRANCH  15  16
ENDBRANCH  14  15
ENDBRANCH  13  14
ENDBRANCH  12  13
ENDBRANCH   1  12
TORSDOF 16
ENDMDL
MODEL 2
REMARK VINA RESULT:    -4.296      1.141      1.670
REMARK INTER + INTRA:          -9.320
REMARK INTER:                  -8.630
REMARK INTRA:                  -0.690
REMARK UNBOUND:                -1.007
REMARK SMILES CCCCCCCCCCCCCCCCCC(=O)[O-]
REMARK SMILES IDX 10 1 11 2 12 3 13 4 14 5 15 6 16 7 17 8 18 9 19 10 20 11
REMARK SMILES IDX 9 12 8 13 7 14 6 15 5 16 4 17 3 18 2 19 1 20
REMARK H PARENT
REMARK Flexibility Score: inf
ROOT
ATOM      1  C   UNL     1     110.765 103.029 110.746  1.00  0.00     0.000 C 
ENDROOT
BRANCH   1   2
ATOM      2  C   UNL     1     111.474 102.049 111.696  1.00  0.00     0.000 C 
BRANCH   2   3
ATOM      3  C   UNL     1     112.792 102.615 112.256  1.00  0.00     0.000 C 
BRANCH   3   4
ATOM      4  C   UNL     1     113.828 102.904 111.158  1.00  0.00     0.000 C 
BRANCH   4   5
ATOM      5  C   UNL     1     115.122 103.521 111.717  1.00  0.00     0.000 C 
BRANCH   5   6
ATOM      6  C   UNL     1     114.892 104.298 113.023  1.00  0.00     0.000 C 
BRANCH   6   7
ATOM      7  C   UNL     1     116.142 105.067 113.485  1.00  0.00     0.006 C 
BRANCH   7   8
ATOM      8  C   UNL     1     117.439 104.419 112.982  1.00  0.00     0.053 C 
BRANCH   8   9
ATOM      9  C   UNL     1     118.639 105.254 113.309  1.00  0.00     0.041 C 
ATOM     10  O   UNL     1     119.337 104.991 114.323  1.00  0.00    -0.550 OA
ATOM     11  O   UNL     1     119.000 106.310 112.481  1.00  0.00    -0.550 OA
ENDBRANCH   8   9
ENDBRANCH   7   8
ENDBRANCH   6   7
ENDBRANCH   5   6
ENDBRANCH   4   5
ENDBRANCH   3   4
ENDBRANCH   2   3
ENDBRANCH   1   2
BRANCH   1  12
ATOM     12  C   UNL     1     109.984 104.118 111.500  1.00  0.00     0.000 C 
BRANCH  12  13
ATOM     13  C   UNL     1     108.889 104.766 110.638  1.00  0.00    -0.000 C 
BRANCH  13  14
ATOM     14  C   UNL     1     108.497 106.172 111.128  1.00  0.00    -0.000 C 
BRANCH  14  15
ATOM     15  C   UNL     1     108.004 106.159 112.591  1.00  0.00    -0.000 C 
BRANCH  15  16
ATOM     16  C   UNL     1     106.802 107.086 112.845  1.00  0.00    -0.000 C 
BRANCH  16  17
ATOM     17  C   UNL     1     105.700 106.418 113.683  1.00  0.00    -0.000 C 
BRANCH  17  18
ATOM     18  C   UNL     1     104.827 107.432 114.445  1.00  0.00    -0.000 C 
BRANCH  18  19
ATOM     19  C   UNL     1     104.955 107.374 115.979  1.00  0.00    -0.003 C 
ATOM     20  C   UNL     1     105.387 108.704 116.594  1.00  0.00     0.004 C 
ENDBRANCH  18  19
ENDBRANCH  17  18
ENDBRANCH  16  17
ENDBRANCH  15  16
ENDBRANCH  14  15
ENDBRANCH  13  14
ENDBRANCH  12  13
ENDBRANCH   1  12
TORSDOF 16
ENDMDL
MODEL 3
REMARK VINA RESULT:    -4.294      4.649      9.370
REMARK INTER + INTRA:          -9.317
REMARK INTER:                  -8.418
REMARK INTRA:                  -0.899
REMARK UNBOUND:                -1.007
REMARK SMILES CCCCCCCCCCCCCCCCCC(=O)[O-]
REMARK SMILES IDX 10 1 11 2 12 3 13 4 14 5 15 6 16 7 17 8 18 9 19 10 20 11
REMARK SMILES IDX 9 12 8 13 7 14 6 15 5 16 4 17 3 18 2 19 1 20
REMARK H PARENT
REMARK Flexibility Score: inf
ROOT
ATOM      1  C   UNL     1     111.419 101.988 111.034  1.00  0.00     0.000 C 
ENDROOT
BRANCH   1   2
ATOM      2  C   UNL     1     110.016 102.618 111.009  1.00  0.00     0.000 C 
BRANCH   2   3
ATOM      3  C   UNL     1     110.054 104.154 111.101  1.00  0.00     0.000 C 
BRANCH   3   4
ATOM      4  C   UNL     1     108.682 104.798 110.845  1.00  0.00     0.000 C 
BRANCH   4   5
ATOM      5  C   UNL     1     108.775 106.321 110.641  1.00  0.00     0.000 C 
BRANCH   5   6
ATOM      6  C   UNL     1     108.488 107.110 111.928  1.00  0.00     0.000 C 
BRANCH   6   7
ATOM      7  C   UNL     1     107.419 106.440 112.809  1.00  0.00     0.006 C 
BRANCH   7   8
ATOM      8  C   UNL     1     106.090 107.205 112.789  1.00  0.00     0.053 C 
BRANCH   8   9
ATOM      9  C   UNL     1     105.160 106.731 113.863  1.00  0.00     0.041 C 
ATOM     10  O   UNL     1     105.209 107.239 115.014  1.00  0.00    -0.550 OA
ATOM     11  O   UNL     1     104.224 105.742 113.587  1.00  0.00    -0.550 OA
ENDBRANCH   8   9
ENDBRANCH   7   8
ENDBRANCH   6   7
ENDBRANCH   5   6
ENDBRANCH   4   5
ENDBRANCH   3   4
ENDBRANCH   2   3
ENDBRANCH   1   2
BRANCH   1  12
ATOM     12  C   UNL     1     112.254 102.461 112.236  1.00  0.00     0.000 C 
BRANCH  12  13
ATOM     13  C   UNL     1     113.745 102.114 112.095  1.00  0.00    -0.000 C 
BRANCH  13  14
ATOM     14  C   UNL     1     114.526 103.159 111.277  1.00  0.00    -0.000 C 
BRANCH  14  15
ATOM     15  C   UNL     1     114.412 104.573 111.884  1.00  0.00    -0.000 C 
BRANCH  15  16
ATOM     16  C   UNL     1     114.845 104.648 113.359  1.00  0.00    -0.000 C 
BRANCH  16  17
ATOM     17  C   UNL     1     116.194 105.361 113.551  1.00  0.00    -0.000 C 
BRANCH  17  18
ATOM     18  C   UNL     1     117.378 104.569 112.967  1.00  0.00    -0.000 C 
BRANCH  18  19
ATOM     19  C   UNL     1     118.770 105.100 113.361  1.00  0.00    -0.003 C 
ATOM     20  C   UNL     1     119.231 106.271 112.496  1.00  0.00     0.004 C 
ENDBRANCH  18  19
ENDBRANCH  17  18
ENDBRANCH  16  17
ENDBRANCH  15  16
ENDBRANCH  14  15
ENDBRANCH  13  14
ENDBRANCH  12  13
ENDBRANCH   1  12
TORSDOF 16
ENDMDL
MODEL 4
REMARK VINA RESULT:    -4.011      4.739      9.703
REMARK INTER + INTRA:          -8.769
REMARK INTER:                  -7.964
REMARK INTRA:                  -0.805
REMARK UNBOUND:                -1.007
REMARK SMILES CCCCCCCCCCCCCCCCCC(=O)[O-]
REMARK SMILES IDX 10 1 11 2 12 3 13 4 14 5 15 6 16 7 17 8 18 9 19 10 20 11
REMARK SMILES IDX 9 12 8 13 7 14 6 15 5 16 4 17 3 18 2 19 1 20
REMARK H PARENT
REMARK Flexibility Score: inf
ROOT
ATOM      1  C   UNL     1     110.354 104.298 111.057  1.00  0.00     0.000 C 
ENDROOT
BRANCH   1   2
ATOM      2  C   UNL     1     108.887 104.616 110.722  1.00  0.00     0.000 C 
BRANCH   2   3
ATOM      3  C   UNL     1     108.495 106.059 111.087  1.00  0.00     0.000 C 
BRANCH   3   4
ATOM      4  C   UNL     1     108.284 106.254 112.597  1.00  0.00     0.000 C 
BRANCH   4   5
ATOM      5  C   UNL     1     106.946 106.942 112.921  1.00  0.00     0.000 C 
BRANCH   5   6
ATOM      6  C   UNL     1     105.885 105.958 113.439  1.00  0.00     0.000 C 
BRANCH   6   7
ATOM      7  C   UNL     1     104.773 106.653 114.244  1.00  0.00     0.006 C 
BRANCH   7   8
ATOM      8  C   UNL     1     105.217 108.018 114.785  1.00  0.00     0.053 C 
BRANCH   8   9
ATOM      9  C   UNL     1     105.190 108.058 116.282  1.00  0.00     0.041 C 
ATOM     10  O   UNL     1     105.837 108.942 116.904  1.00  0.00    -0.550 OA
ATOM     11  O   UNL     1     104.434 107.132 116.990  1.00  0.00    -0.550 OA
ENDBRANCH   8   9
ENDBRANCH   7   8
ENDBRANCH   6   7
ENDBRANCH   5   6
ENDBRANCH   4   5
ENDBRANCH   3   4
ENDBRANCH   2   3
ENDBRANCH   1   2
BRANCH   1  12
ATOM     12  C   UNL     1     110.516 102.938 111.757  1.00  0.00     0.000 C 
BRANCH  12  13
ATOM     13  C   UNL     1     111.659 102.099 111.165  1.00  0.00    -0.000 C 
BRANCH  13  14
ATOM     14  C   UNL     1     112.965 102.214 111.973  1.00  0.00    -0.000 C 
BRANCH  14  15
ATOM     15  C   UNL     1     114.064 102.967 111.193  1.00  0.00    -0.000 C 
BRANCH  15  16
ATOM     16  C   UNL     1     114.486 104.294 111.848  1.00  0.00    -0.000 C 
BRANCH  16  17
ATOM     17  C   UNL     1     115.151 104.096 113.221  1.00  0.00    -0.000 C 
BRANCH  17  18
ATOM     18  C   UNL     1     116.336 105.049 113.456  1.00  0.00    -0.000 C 
BRANCH  18  19
ATOM     19  C   UNL     1     117.679 104.570 112.875  1.00  0.00    -0.003 C 
ATOM     20  C   UNL     1     118.878 104.960 113.737  1.00  0.00     0.004 C 
ENDBRANCH  18  19
ENDBRANCH  17  18
ENDBRANCH  16  17
ENDBRANCH  15  16
ENDBRANCH  14  15
ENDBRANCH  13  14
ENDBRANCH  12  13
ENDBRANCH   1  12
TORSDOF 16
ENDMDL
MODEL 5
REMARK VINA RESULT:    -3.659      4.530      9.578
REMARK INTER + INTRA:          -8.089
REMARK INTER:                  -7.166
REMARK INTRA:                  -0.923
REMARK UNBOUND:                -1.007
REMARK SMILES CCCCCCCCCCCCCCCCCC(=O)[O-]
REMARK SMILES IDX 10 1 11 2 12 3 13 4 14 5 15 6 16 7 17 8 18 9 19 10 20 11
REMARK SMILES IDX 9 12 8 13 7 14 6 15 5 16 4 17 3 18 2 19 1 20
REMARK H PARENT
REMARK Flexibility Score: inf
ROOT
ATOM      1  C   UNL     1     112.862 102.229 112.041  1.00  0.00     0.000 C 
ENDROOT
BRANCH   1   2
ATOM      2  C   UNL     1     111.666 102.011 111.099  1.00  0.00     0.000 C 
BRANCH   2   3
ATOM      3  C   UNL     1     110.390 102.720 111.587  1.00  0.00     0.000 C 
BRANCH   3   4
ATOM      4  C   UNL     1     110.282 104.166 111.078  1.00  0.00     0.000 C 
BRANCH   4   5
ATOM      5  C   UNL     1     108.837 104.560 110.724  1.00  0.00     0.000 C 
BRANCH   5   6
ATOM      6  C   UNL     1     108.525 106.027 111.062  1.00  0.00     0.000 C 
BRANCH   6   7
ATOM      7  C   UNL     1     108.125 106.225 112.534  1.00  0.00     0.006 C 
BRANCH   7   8
ATOM      8  C   UNL     1     106.870 107.095 112.682  1.00  0.00     0.053 C 
BRANCH   8   9
ATOM      9  C   UNL     1     105.840 106.442 113.551  1.00  0.00     0.041 C 
ATOM     10  O   UNL     1     105.250 107.106 114.444  1.00  0.00    -0.550 OA
ATOM     11  O   UNL     1     105.516 105.104 113.363  1.00  0.00    -0.550 OA
ENDBRANCH   8   9
ENDBRANCH   7   8
ENDBRANCH   6   7
ENDBRANCH   5   6
ENDBRANCH   4   5
ENDBRANCH   3   4
ENDBRANCH   2   3
ENDBRANCH   1   2
BRANCH   1  12
ATOM     12  C   UNL     1     114.049 102.907 111.336  1.00  0.00     0.000 C 
BRANCH  12  13
ATOM     13  C   UNL     1     114.357 104.302 111.903  1.00  0.00    -0.000 C 
BRANCH  13  14
ATOM     14  C   UNL     1     114.864 104.257 113.357  1.00  0.00    -0.000 C 
BRANCH  14  15
ATOM     15  C   UNL     1     115.976 105.296 113.614  1.00  0.00    -0.000 C 
BRANCH  15  16
ATOM     16  C   UNL     1     117.126 105.234 112.593  1.00  0.00    -0.000 C 
BRANCH  16  17
ATOM     17  C   UNL     1     118.241 104.258 113.009  1.00  0.00    -0.000 C 
BRANCH  17  18
ATOM     18  C   UNL     1     119.166 104.834 114.096  1.00  0.00    -0.000 C 
BRANCH  18  19
ATOM     19  C   UNL     1     119.233 104.007 115.394  1.00  0.00    -0.003 C 
ATOM     20  C   UNL     1     119.607 104.842 116.617  1.00  0.00     0.004 C 
ENDBRANCH  18  19
ENDBRANCH  17  18
ENDBRANCH  16  17
ENDBRANCH  15  16
ENDBRANCH  14  15
ENDBRANCH  13  14
ENDBRANCH  12  13
ENDBRANCH   1  12
TORSDOF 16
ENDMDL
MODEL 6
REMARK VINA RESULT:    -3.522      0.818      1.645
REMARK INTER + INTRA:          -7.823
REMARK INTER:                  -7.173
REMARK INTRA:                  -0.650
REMARK UNBOUND:                -1.007
REMARK SMILES CCCCCCCCCCCCCCCCCC(=O)[O-]
REMARK SMILES IDX 10 1 11 2 12 3 13 4 14 5 15 6 16 7 17 8 18 9 19 10 20 11
REMARK SMILES IDX 9 12 8 13 7 14 6 15 5 16 4 17 3 18 2 19 1 20
REMARK H PARENT
REMARK Flexibility Score: inf
ROOT
ATOM      1  C   UNL     1     109.571 103.127 110.465  1.00  0.00     0.000 C 
ENDROOT
BRANCH   1   2
ATOM      2  C   UNL     1     110.793 103.231 111.393  1.00  0.00     0.000 C 
BRANCH   2   3
ATOM      3  C   UNL     1     111.768 102.052 111.223  1.00  0.00     0.000 C 
BRANCH   3   4
ATOM      4  C   UNL     1     112.998 102.162 112.138  1.00  0.00     0.000 C 
BRANCH   4   5
ATOM      5  C   UNL     1     113.990 103.239 111.665  1.00  0.00     0.000 C 
BRANCH   5   6
ATOM      6  C   UNL     1     114.944 103.695 112.780  1.00  0.00     0.000 C 
BRANCH   6   7
ATOM      7  C   UNL     1     116.283 104.224 112.237  1.00  0.00     0.006 C 
BRANCH   7   8
ATOM      8  C   UNL     1     116.960 105.196 113.210  1.00  0.00     0.053 C 
BRANCH   8   9
ATOM      9  C   UNL     1     118.442 104.985 113.266  1.00  0.00     0.041 C 
ATOM     10  O   UNL     1     118.912 103.899 113.697  1.00  0.00    -0.550 OA
ATOM     11  O   UNL     1     119.305 105.979 112.822  1.00  0.00    -0.550 OA
ENDBRANCH   8   9
ENDBRANCH   7   8
ENDBRANCH   6   7
ENDBRANCH   5   6
ENDBRANCH   4   5
ENDBRANCH   3   4
ENDBRANCH   2   3
ENDBRANCH   1   2
BRANCH   1  12
ATOM     12  C   UNL     1     108.914 104.493 110.203  1.00  0.00     0.000 C 
BRANCH  12  13
ATOM     13  C   UNL     1     109.014 105.440 111.409  1.00  0.00    -0.000 C 
BRANCH  13  14
ATOM     14  C   UNL     1     109.008 106.926 111.005  1.00  0.00    -0.000 C 
BRANCH  14  15
ATOM     15  C   UNL     1     107.724 107.647 111.468  1.00  0.00    -0.000 C 
BRANCH  15  16
ATOM     16  C   UNL     1     107.010 106.944 112.637  1.00  0.00    -0.000 C 
BRANCH  16  17
ATOM     17  C   UNL     1     105.659 107.592 112.987  1.00  0.00    -0.000 C 
BRANCH  17  18
ATOM     18  C   UNL     1     104.912 106.850 114.110  1.00  0.00    -0.000 C 
BRANCH  18  19
ATOM     19  C   UNL     1     103.945 105.752 113.630  1.00  0.00    -0.003 C 
ATOM     20  C   UNL     1     102.627 106.307 113.092  1.00  0.00     0.004 C 
ENDBRANCH  18  19
ENDBRANCH  17  18
ENDBRANCH  16  17
ENDBRANCH  15  16
ENDBRANCH  14  15
ENDBRANCH  13  14
ENDBRANCH  12  13
ENDBRANCH   1  12
TORSDOF 16
ENDMDL
MODEL 7
REMARK VINA RESULT:    -3.276      1.622      3.132
REMARK INTER + INTRA:          -7.348
REMARK INTER:                  -6.531
REMARK INTRA:                  -0.816
REMARK UNBOUND:                -1.007
REMARK SMILES CCCCCCCCCCCCCCCCCC(=O)[O-]
REMARK SMILES IDX 10 1 11 2 12 3 13 4 14 5 15 6 16 7 17 8 18 9 19 10 20 11
REMARK SMILES IDX 9 12 8 13 7 14 6 15 5 16 4 17 3 18 2 19 1 20
REMARK H PARENT
REMARK Flexibility Score: inf
ROOT
ATOM      1  C   UNL     1     108.715 104.595 110.898  1.00  0.00     0.000 C 
ENDROOT
BRANCH   1   2
ATOM      2  C   UNL     1     110.152 104.080 110.714  1.00  0.00     0.000 C 
BRANCH   2   3
ATOM      3  C   UNL     1     110.438 102.813 111.540  1.00  0.00     0.000 C 
BRANCH   3   4
ATOM      4  C   UNL     1     111.642 102.018 111.011  1.00  0.00     0.000 C 
BRANCH   4   5
ATOM      5  C   UNL     1     112.868 102.119 111.936  1.00  0.00     0.000 C 
BRANCH   5   6
ATOM      6  C   UNL     1     113.896 103.151 111.445  1.00  0.00     0.000 C 
BRANCH   6   7
ATOM      7  C   UNL     1     114.819 103.650 112.570  1.00  0.00     0.006 C 
BRANCH   7   8
ATOM      8  C   UNL     1     116.249 103.903 112.076  1.00  0.00     0.053 C 
BRANCH   8   9
ATOM      9  C   UNL     1     117.032 104.737 113.044  1.00  0.00     0.041 C 
ATOM     10  O   UNL     1     116.468 105.664 113.683  1.00  0.00    -0.550 OA
ATOM     11  O   UNL     1     118.380 104.477 113.256  1.00  0.00    -0.550 OA
ENDBRANCH   8   9
ENDBRANCH   7   8
ENDBRANCH   6   7
ENDBRANCH   5   6
ENDBRANCH   4   5
ENDBRANCH   3   4
ENDBRANCH   2   3
ENDBRANCH   1   2
BRANCH   1  12
ATOM     12  C   UNL     1     108.570 106.080 110.524  1.00  0.00     0.000 C 
BRANCH  12  13
ATOM     13  C   UNL     1     108.629 107.008 111.749  1.00  0.00    -0.000 C 
BRANCH  13  14
ATOM     14  C   UNL     1     107.839 106.460 112.952  1.00  0.00    -0.000 C 
BRANCH  14  15
ATOM     15  C   UNL     1     106.372 106.943 112.949  1.00  0.00    -0.000 C 
BRANCH  15  16
ATOM     16  C   UNL     1     105.474 106.192 113.949  1.00  0.00    -0.000 C 
BRANCH  16  17
ATOM     17  C   UNL     1     104.287 107.039 114.437  1.00  0.00    -0.000 C 
BRANCH  17  18
ATOM     18  C   UNL     1     103.927 106.774 115.910  1.00  0.00    -0.000 C 
BRANCH  18  19
ATOM     19  C   UNL     1     104.956 107.290 116.932  1.00  0.00    -0.003 C 
ATOM     20  C   UNL     1     105.362 108.743 116.692  1.00  0.00     0.004 C 
ENDBRANCH  18  19
ENDBRANCH  17  18
ENDBRANCH  16  17
ENDBRANCH  15  16
ENDBRANCH  14  15
ENDBRANCH  13  14
ENDBRANCH  12  13
ENDBRANCH   1  12
TORSDOF 16
ENDMDL
MODEL 8
REMARK VINA RESULT:    -3.008      3.806      8.904
REMARK INTER + INTRA:          -6.828
REMARK INTER:                  -5.383
REMARK INTRA:                  -1.445
REMARK UNBOUND:                -1.007
REMARK SMILES CCCCCCCCCCCCCCCCCC(=O)[O-]
REMARK SMILES IDX 10 1 11 2 12 3 13 4 14 5 15 6 16 7 17 8 18 9 19 10 20 11
REMARK SMILES IDX 9 12 8 13 7 14 6 15 5 16 4 17 3 18 2 19 1 20
REMARK H PARENT
REMARK Flexibility Score: inf
ROOT
ATOM      1  C   UNL     1     113.686 102.143 111.996  1.00  0.00     0.000 C 
ENDROOT
BRANCH   1   2
ATOM      2  C   UNL     1     112.767 101.250 111.146  1.00  0.00     0.000 C 
BRANCH   2   3
ATOM      3  C   UNL     1     111.280 101.621 111.289  1.00  0.00     0.000 C 
BRANCH   3   4
ATOM      4  C   UNL     1     111.019 102.586 112.457  1.00  0.00     0.000 C 
BRANCH   4   5
ATOM      5  C   UNL     1     110.399 103.916 111.994  1.00  0.00     0.000 C 
BRANCH   5   6
ATOM      6  C   UNL     1     109.772 103.822 110.594  1.00  0.00     0.000 C 
BRANCH   6   7
ATOM      7  C   UNL     1     108.724 104.919 110.338  1.00  0.00     0.006 C 
BRANCH   7   8
ATOM      8  C   UNL     1     108.519 105.822 111.561  1.00  0.00     0.053 C 
BRANCH   8   9
ATOM      9  C   UNL     1     108.377 107.261 111.172  1.00  0.00     0.041 C 
ATOM     10  O   UNL     1     109.369 107.900 110.732  1.00  0.00    -0.550 OA
ATOM     11  O   UNL     1     107.144 107.892 111.274  1.00  0.00    -0.550 OA
ENDBRANCH   8   9
ENDBRANCH   7   8
ENDBRANCH   6   7
ENDBRANCH   5   6
ENDBRANCH   4   5
ENDBRANCH   3   4
ENDBRANCH   2   3
ENDBRANCH   1   2
BRANCH   1  12
ATOM     12  C   UNL     1     114.316 103.284 111.180  1.00  0.00     0.000 C 
BRANCH  12  13
ATOM     13  C   UNL     1     114.478 104.577 111.996  1.00  0.00    -0.000 C 
BRANCH  13  14
ATOM     14  C   UNL     1     115.089 104.332 113.388  1.00  0.00    -0.000 C 
BRANCH  14  15
ATOM     15  C   UNL     1     115.931 105.534 113.870  1.00  0.00    -0.000 C 
BRANCH  15  16
ATOM     16  C   UNL     1     117.255 105.706 113.103  1.00  0.00    -0.000 C 
BRANCH  16  17
ATOM     17  C   UNL     1     117.871 104.366 112.668  1.00  0.00    -0.000 C 
BRANCH  17  18
ATOM     18  C   UNL     1     118.917 103.836 113.666  1.00  0.00    -0.000 C 
BRANCH  18  19
ATOM     19  C   UNL     1     119.593 104.916 114.532  1.00  0.00    -0.003 C 
ATOM     20  C   UNL     1     119.435 104.668 116.030  1.00  0.00     0.004 C 
ENDBRANCH  18  19
ENDBRANCH  17  18
ENDBRANCH  16  17
ENDBRANCH  15  16
ENDBRANCH  14  15
ENDBRANCH  13  14
ENDBRANCH  12  13
ENDBRANCH   1  12
TORSDOF 16
ENDMDL
MODEL 9
REMARK VINA RESULT:    -2.669      1.421      3.085
REMARK INTER + INTRA:          -6.171
REMARK INTER:                  -5.377
REMARK INTRA:                  -0.795
REMARK UNBOUND:                -1.007
REMARK SMILES CCCCCCCCCCCCCCCCCC(=O)[O-]
REMARK SMILES IDX 10 1 11 2 12 3 13 4 14 5 15 6 16 7 17 8 18 9 19 10 20 11
REMARK SMILES IDX 9 12 8 13 7 14 6 15 5 16 4 17 3 18 2 19 1 20
REMARK H PARENT
REMARK Flexibility Score: inf
ROOT
ATOM      1  C   UNL     1     108.775 104.945 110.355  1.00  0.00     0.000 C 
ENDROOT
BRANCH   1   2
ATOM      2  C   UNL     1     109.433 103.555 110.347  1.00  0.00     0.000 C 
BRANCH   2   3
ATOM      3  C   UNL     1     110.634 103.462 111.306  1.00  0.00     0.000 C 
BRANCH   3   4
ATOM      4  C   UNL     1     111.253 102.056 111.347  1.00  0.00     0.000 C 
BRANCH   4   5
ATOM      5  C   UNL     1     112.683 102.058 111.917  1.00  0.00     0.000 C 
BRANCH   5   6
ATOM      6  C   UNL     1     113.569 103.145 111.289  1.00  0.00     0.000 C 
BRANCH   6   7
ATOM      7  C   UNL     1     114.258 104.032 112.341  1.00  0.00     0.006 C 
BRANCH   7   8
ATOM      8  C   UNL     1     115.786 103.926 112.277  1.00  0.00     0.053 C 
BRANCH   8   9
ATOM      9  C   UNL     1     116.449 104.862 113.241  1.00  0.00     0.041 C 
ATOM     10  O   UNL     1     117.655 104.692 113.562  1.00  0.00    -0.550 OA
ATOM     11  O   UNL     1     115.741 105.935 113.768  1.00  0.00    -0.550 OA
ENDBRANCH   8   9
ENDBRANCH   7   8
ENDBRANCH   6   7
ENDBRANCH   5   6
ENDBRANCH   4   5
ENDBRANCH   3   4
ENDBRANCH   2   3
ENDBRANCH   1   2
BRANCH   1  12
ATOM     12  C   UNL     1     109.424 105.897 111.374  1.00  0.00     0.000 C 
BRANCH  12  13
ATOM     13  C   UNL     1     108.806 107.304 111.347  1.00  0.00    -0.000 C 
BRANCH  13  14
ATOM     14  C   UNL     1     107.288 107.294 111.606  1.00  0.00    -0.000 C 
BRANCH  14  15
ATOM     15  C   UNL     1     106.933 106.598 112.938  1.00  0.00    -0.000 C 
BRANCH  15  16
ATOM     16  C   UNL     1     105.562 107.012 113.504  1.00  0.00    -0.000 C 
BRANCH  16  17
ATOM     17  C   UNL     1     104.632 105.812 113.752  1.00  0.00    -0.000 C 
BRANCH  17  18
ATOM     18  C   UNL     1     103.141 106.195 113.727  1.00  0.00    -0.000 C 
BRANCH  18  19
ATOM     19  C   UNL     1     102.596 106.593 112.343  1.00  0.00    -0.003 C 
ATOM     20  C   UNL     1     101.074 106.504 112.250  1.00  0.00     0.004 C 
ENDBRANCH  18  19
ENDBRANCH  17  18
ENDBRANCH  16  17
ENDBRANCH  15  16
ENDBRANCH  14  15
ENDBRANCH  13  14
ENDBRANCH  12  13
ENDBRANCH   1  12
TORSDOF 16
ENDMDL
