MODEL 1
REMARK VINA RESULT:    -5.028      0.000      0.000
REMARK INTER + INTRA:         -16.262
REMARK INTER:                 -12.670
REMARK INTRA:                  -3.592
REMARK UNBOUND:                -3.592
REMARK SMILES CCCCCCCCCCCCCCCCCCCCCCCCCCCC(=O)[O-]
REMARK SMILES IDX 15 1 16 2 17 3 18 4 19 5 20 6 21 7 22 8 23 9 24 10 25 11
REMARK SMILES IDX 26 12 27 13 28 14 29 15 30 16 14 17 13 18 12 19 11 20 10 21
REMARK SMILES IDX 9 22 8 23 7 24 6 25 5 26 4 27 3 28 2 29 1 30
REMARK H PARENT
REMARK Flexibility Score: inf
ROOT
ATOM      1  C   UNL     1      36.486   6.212  11.071  1.00  0.00     0.000 C 
ENDROOT
BRANCH   1   2
ATOM      2  C   UNL     1      35.728   7.491  10.685  1.00  0.00     0.000 C 
BRANCH   2   3
ATOM      3  C   UNL     1      34.576   7.814  11.651  1.00  0.00     0.000 C 
BRANCH   3   4
ATOM      4  C   UNL     1      33.209   7.319  11.139  1.00  0.00     0.000 C 
BRANCH   4   5
ATOM      5  C   UNL     1      32.136   7.128  12.227  1.00  0.00     0.000 C 
BRANCH   5   6
ATOM      6  C   UNL     1      31.563   5.702  12.343  1.00  0.00     0.000 C 
BRANCH   6   7
ATOM      7  C   UNL     1      32.225   4.680  11.396  1.00  0.00     0.000 C 
BRANCH   7   8
ATOM      8  C   UNL     1      33.381   3.915  12.060  1.00  0.00     0.000 C 
BRANCH   8   9
ATOM      9  C   UNL     1      33.033   3.541  13.505  1.00  0.00     0.000 C 
BRANCH   9  10
ATOM     10  C   UNL     1      34.103   4.057  14.480  1.00  0.00     0.000 C 
BRANCH  10  11
ATOM     11  C   UNL     1      34.741   5.373  14.009  1.00  0.00     0.000 C 
BRANCH  11  12
ATOM     12  C   UNL     1      36.050   5.685  14.755  1.00  0.00     0.006 C 
BRANCH  12  13
ATOM     13  C   UNL     1      36.129   4.974  16.113  1.00  0.00     0.053 C 
BRANCH  13  14
ATOM     14  C   UNL     1      37.452   5.181  16.788  1.00  0.00     0.041 C 
ATOM     15  O   UNL     1      38.219   6.103  16.404  1.00  0.00    -0.550 OA
ATOM     16  O   UNL     1      37.824   4.380  17.862  1.00  0.00    -0.550 OA
ENDBRANCH  13  14
ENDBRANCH  12  13
ENDBRANCH  11  12
ENDBRANCH  10  11
ENDBRANCH   9  10
ENDBRANCH   8   9
ENDBRANCH   7   8
ENDBRANCH   6   7
ENDBRANCH   5   6
ENDBRANCH   4   5
ENDBRANCH   3   4
ENDBRANCH   2   3
ENDBRANCH   1   2
BRANCH   1  17
ATOM     17  C   UNL     1      36.806   5.326   9.854  1.00  0.00     0.000 C 
BRANCH  17  18
ATOM     18  C   UNL     1      35.588   4.516   9.379  1.00  0.00     0.000 C 
BRANCH  18  19
ATOM     19  C   UNL     1      35.070   4.987   8.008  1.00  0.00     0.000 C 
BRANCH  19  20
ATOM     20  C   UNL     1      33.583   5.373   8.041  1.00  0.00     0.000 C 
BRANCH  20  21
ATOM     21  C   UNL     1      32.904   5.234   6.665  1.00  0.00     0.000 C 
BRANCH  21  22
ATOM     22  C   UNL     1      32.036   3.968   6.561  1.00  0.00    -0.000 C 
BRANCH  22  23
ATOM     23  C   UNL     1      31.526   3.652   5.141  1.00  0.00    -0.000 C 
BRANCH  23  24
ATOM     24  C   UNL     1      31.287   4.906   4.274  1.00  0.00    -0.000 C 
BRANCH  24  25
ATOM     25  C   UNL     1      30.314   4.637   3.112  1.00  0.00    -0.000 C 
BRANCH  25  26
ATOM     26  C   UNL     1      29.452   3.384   3.346  1.00  0.00    -0.000 C 
BRANCH  26  27
ATOM     27  C   UNL     1      28.024   3.729   3.806  1.00  0.00    -0.000 C 
BRANCH  27  28
ATOM     28  C   UNL     1      27.497   2.772   4.889  1.00  0.00    -0.000 C 
BRANCH  28  29
ATOM     29  C   UNL     1      27.629   3.293   6.332  1.00  0.00    -0.003 C 
ATOM     30  C   UNL     1      28.195   4.710   6.411  1.00  0.00     0.004 C 
ENDBRANCH  28  29
ENDBRANCH  27  28
ENDBRANCH  26  27
ENDBRANCH  25  26
ENDBRANCH  24  25
ENDBRANCH  23  24
ENDBRANCH  22  23
ENDBRANCH  21  22
ENDBRANCH  20  21
ENDBRANCH  19  20
ENDBRANCH  18  19
ENDBRANCH  17  18
ENDBRANCH   1  17
TORSDOF 26
ENDMDL
MODEL 2
REMARK VINA RESULT:    -4.763      4.571      8.447
REMARK INTER + INTRA:         -15.593
REMARK INTER:                 -12.056
REMARK INTRA:                  -3.537
REMARK UNBOUND:                -3.592
REMARK SMILES CCCCCCCCCCCCCCCCCCCCCCCCCCCC(=O)[O-]
REMARK SMILES IDX 15 1 16 2 17 3 18 4 19 5 20 6 21 7 22 8 23 9 24 10 25 11
REMARK SMILES IDX 26 12 27 13 28 14 29 15 30 16 14 17 13 18 12 19 11 20 10 21
REMARK SMILES IDX 9 22 8 23 7 24 6 25 5 26 4 27 3 28 2 29 1 30
REMARK H PARENT
REMARK Flexibility Score: inf
ROOT
ATOM      1  C   UNL     1      32.096   7.372  12.796  1.00  0.00     0.000 C 
ENDROOT
BRANCH   1   2
ATOM      2  C   UNL     1      31.549   6.039  12.262  1.00  0.00     0.000 C 
BRANCH   2   3
ATOM      3  C   UNL     1      31.813   4.864  13.219  1.00  0.00     0.000 C 
BRANCH   3   4
ATOM      4  C   UNL     1      33.057   4.042  12.830  1.00  0.00     0.000 C 
BRANCH   4   5
ATOM      5  C   UNL     1      33.142   3.655  11.342  1.00  0.00     0.000 C 
BRANCH   5   6
ATOM      6  C   UNL     1      32.623   2.245  10.998  1.00  0.00     0.000 C 
BRANCH   6   7
ATOM      7  C   UNL     1      32.660   1.912   9.492  1.00  0.00     0.000 C 
BRANCH   7   8
ATOM      8  C   UNL     1      32.082   3.038   8.620  1.00  0.00     0.000 C 
BRANCH   8   9
ATOM      9  C   UNL     1      32.002   2.608   7.150  1.00  0.00     0.000 C 
BRANCH   9  10
ATOM     10  C   UNL     1      31.725   3.814   6.239  1.00  0.00     0.000 C 
BRANCH  10  11
ATOM     11  C   UNL     1      31.359   3.395   4.806  1.00  0.00     0.000 C 
BRANCH  11  12
ATOM     12  C   UNL     1      30.577   4.492   4.061  1.00  0.00     0.006 C 
BRANCH  12  13
ATOM     13  C   UNL     1      29.428   3.917   3.220  1.00  0.00     0.053 C 
BRANCH  13  14
ATOM     14  C   UNL     1      28.352   3.307   4.069  1.00  0.00     0.041 C 
ATOM     15  O   UNL     1      27.603   4.043   4.764  1.00  0.00    -0.550 OA
ATOM     16  O   UNL     1      28.153   1.931   4.065  1.00  0.00    -0.550 OA
ENDBRANCH  13  14
ENDBRANCH  12  13
ENDBRANCH  11  12
ENDBRANCH  10  11
ENDBRANCH   9  10
ENDBRANCH   8   9
ENDBRANCH   7   8
ENDBRANCH   6   7
ENDBRANCH   5   6
ENDBRANCH   4   5
ENDBRANCH   3   4
ENDBRANCH   2   3
ENDBRANCH   1   2
BRANCH   1  17
ATOM     17  C   UNL     1      32.805   8.197  11.707  1.00  0.00     0.000 C 
BRANCH  17  18
ATOM     18  C   UNL     1      34.337   8.131  11.825  1.00  0.00     0.000 C 
BRANCH  18  19
ATOM     19  C   UNL     1      34.807   6.947  12.689  1.00  0.00     0.000 C 
BRANCH  19  20
ATOM     20  C   UNL     1      36.172   6.398  12.243  1.00  0.00     0.000 C 
BRANCH  20  21
ATOM     21  C   UNL     1      36.769   7.182  11.060  1.00  0.00     0.000 C 
BRANCH  21  22
ATOM     22  C   UNL     1      37.107   6.277   9.863  1.00  0.00    -0.000 C 
BRANCH  22  23
ATOM     23  C   UNL     1      36.649   4.813  10.014  1.00  0.00    -0.000 C 
BRANCH  23  24
ATOM     24  C   UNL     1      35.379   4.473   9.206  1.00  0.00    -0.000 C 
BRANCH  24  25
ATOM     25  C   UNL     1      35.112   5.489   8.081  1.00  0.00    -0.000 C 
BRANCH  25  26
ATOM     26  C   UNL     1      33.736   6.164   8.213  1.00  0.00    -0.000 C 
BRANCH  26  27
ATOM     27  C   UNL     1      33.840   7.695   8.328  1.00  0.00    -0.000 C 
BRANCH  27  28
ATOM     28  C   UNL     1      33.469   8.420   7.023  1.00  0.00    -0.000 C 
BRANCH  28  29
ATOM     29  C   UNL     1      33.437   9.957   7.123  1.00  0.00    -0.003 C 
ATOM     30  C   UNL     1      32.374  10.596   6.230  1.00  0.00     0.004 C 
ENDBRANCH  28  29
ENDBRANCH  27  28
ENDBRANCH  26  27
ENDBRANCH  25  26
ENDBRANCH  24  25
ENDBRANCH  23  24
ENDBRANCH  22  23
ENDBRANCH  21  22
ENDBRANCH  20  21
ENDBRANCH  19  20
ENDBRANCH  18  19
ENDBRANCH  17  18
ENDBRANCH   1  17
TORSDOF 26
ENDMDL
MODEL 3
REMARK VINA RESULT:    -4.646      4.121      9.021
REMARK INTER + INTRA:         -15.300
REMARK INTER:                 -11.347
REMARK INTRA:                  -3.953
REMARK UNBOUND:                -3.592
REMARK SMILES CCCCCCCCCCCCCCCCCCCCCCCCCCCC(=O)[O-]
REMARK SMILES IDX 15 1 16 2 17 3 18 4 19 5 20 6 21 7 22 8 23 9 24 10 25 11
REMARK SMILES IDX 26 12 27 13 28 14 29 15 30 16 14 17 13 18 12 19 11 20 10 21
REMARK SMILES IDX 9 22 8 23 7 24 6 25 5 26 4 27 3 28 2 29 1 30
REMARK H PARENT
REMARK Flexibility Score: inf
ROOT
ATOM      1  C   UNL     1      33.501   3.994  12.874  1.00  0.00     0.000 C 
ENDROOT
BRANCH   1   2
ATOM      2  C   UNL     1      33.201   2.494  12.729  1.00  0.00     0.000 C 
BRANCH   2   3
ATOM      3  C   UNL     1      33.608   1.937  11.354  1.00  0.00     0.000 C 
BRANCH   3   4
ATOM      4  C   UNL     1      32.431   1.880  10.360  1.00  0.00     0.000 C 
BRANCH   4   5
ATOM      5  C   UNL     1      32.396   3.021   9.326  1.00  0.00     0.000 C 
BRANCH   5   6
ATOM      6  C   UNL     1      32.118   2.585   7.874  1.00  0.00     0.000 C 
BRANCH   6   7
ATOM      7  C   UNL     1      31.366   3.639   7.035  1.00  0.00     0.000 C 
BRANCH   7   8
ATOM      8  C   UNL     1      31.780   3.627   5.555  1.00  0.00     0.000 C 
BRANCH   8   9
ATOM      9  C   UNL     1      31.546   4.996   4.907  1.00  0.00     0.000 C 
BRANCH   9  10
ATOM     10  C   UNL     1      30.735   4.859   3.609  1.00  0.00     0.000 C 
BRANCH  10  11
ATOM     11  C   UNL     1      29.922   3.556   3.558  1.00  0.00     0.000 C 
BRANCH  11  12
ATOM     12  C   UNL     1      28.408   3.810   3.662  1.00  0.00     0.006 C 
BRANCH  12  13
ATOM     13  C   UNL     1      27.725   2.857   4.653  1.00  0.00     0.053 C 
BRANCH  13  14
ATOM     14  C   UNL     1      27.686   3.417   6.045  1.00  0.00     0.041 C 
ATOM     15  O   UNL     1      28.071   4.597   6.262  1.00  0.00    -0.550 OA
ATOM     16  O   UNL     1      27.193   2.651   7.095  1.00  0.00    -0.550 OA
ENDBRANCH  13  14
ENDBRANCH  12  13
ENDBRANCH  11  12
ENDBRANCH  10  11
ENDBRANCH   9  10
ENDBRANCH   8   9
ENDBRANCH   7   8
ENDBRANCH   6   7
ENDBRANCH   5   6
ENDBRANCH   4   5
ENDBRANCH   3   4
ENDBRANCH   2   3
ENDBRANCH   1   2
BRANCH   1  17
ATOM     17  C   UNL     1      32.262   4.805  13.294  1.00  0.00     0.000 C 
BRANCH  17  18
ATOM     18  C   UNL     1      31.754   5.723  12.170  1.00  0.00     0.000 C 
BRANCH  18  19
ATOM     19  C   UNL     1      31.707   7.201  12.597  1.00  0.00     0.000 C 
BRANCH  19  20
ATOM     20  C   UNL     1      32.631   8.090  11.749  1.00  0.00     0.000 C 
BRANCH  20  21
ATOM     21  C   UNL     1      33.275   7.326  10.576  1.00  0.00     0.000 C 
BRANCH  21  22
ATOM     22  C   UNL     1      33.572   8.236   9.373  1.00  0.00    -0.000 C 
BRANCH  22  23
ATOM     23  C   UNL     1      33.981   7.491   8.087  1.00  0.00    -0.000 C 
BRANCH  23  24
ATOM     24  C   UNL     1      33.821   5.958   8.180  1.00  0.00    -0.000 C 
BRANCH  24  25
ATOM     25  C   UNL     1      35.173   5.224   8.136  1.00  0.00    -0.000 C 
BRANCH  25  26
ATOM     26  C   UNL     1      35.517   4.547   9.473  1.00  0.00    -0.000 C 
BRANCH  26  27
ATOM     27  C   UNL     1      36.901   4.962  10.005  1.00  0.00    -0.000 C 
BRANCH  27  28
ATOM     28  C   UNL     1      37.132   6.482   9.948  1.00  0.00    -0.000 C 
BRANCH  28  29
ATOM     29  C   UNL     1      36.506   7.276  11.108  1.00  0.00    -0.003 C 
ATOM     30  C   UNL     1      36.195   6.412  12.330  1.00  0.00     0.004 C 
ENDBRANCH  28  29
ENDBRANCH  27  28
ENDBRANCH  26  27
ENDBRANCH  25  26
ENDBRANCH  24  25
ENDBRANCH  23  24
ENDBRANCH  22  23
ENDBRANCH  21  22
ENDBRANCH  20  21
ENDBRANCH  19  20
ENDBRANCH  18  19
ENDBRANCH  17  18
ENDBRANCH   1  17
TORSDOF 26
ENDMDL
MODEL 4
REMARK VINA RESULT:    -4.476      3.848      9.079
REMARK INTER + INTRA:         -14.871
REMARK INTER:                 -10.734
REMARK INTRA:                  -4.137
REMARK UNBOUND:                -3.592
REMARK SMILES CCCCCCCCCCCCCCCCCCCCCCCCCCCC(=O)[O-]
REMARK SMILES IDX 15 1 16 2 17 3 18 4 19 5 20 6 21 7 22 8 23 9 24 10 25 11
REMARK SMILES IDX 26 12 27 13 28 14 29 15 30 16 14 17 13 18 12 19 11 20 10 21
REMARK SMILES IDX 9 22 8 23 7 24 6 25 5 26 4 27 3 28 2 29 1 30
REMARK H PARENT
REMARK Flexibility Score: inf
ROOT
ATOM      1  C   UNL     1      32.417   5.976  12.572  1.00  0.00     0.000 C 
ENDROOT
BRANCH   1   2
ATOM      2  C   UNL     1      32.022   4.773  11.702  1.00  0.00     0.000 C 
BRANCH   2   3
ATOM      3  C   UNL     1      33.059   3.638  11.749  1.00  0.00     0.000 C 
BRANCH   3   4
ATOM      4  C   UNL     1      33.298   2.987  10.373  1.00  0.00     0.000 C 
BRANCH   4   5
ATOM      5  C   UNL     1      32.129   2.135   9.844  1.00  0.00     0.000 C 
BRANCH   5   6
ATOM      6  C   UNL     1      31.893   2.214   8.323  1.00  0.00     0.000 C 
BRANCH   6   7
ATOM      7  C   UNL     1      31.835   3.654   7.770  1.00  0.00     0.000 C 
BRANCH   7   8
ATOM      8  C   UNL     1      32.544   3.798   6.414  1.00  0.00     0.000 C 
BRANCH   8   9
ATOM      9  C   UNL     1      32.363   5.211   5.847  1.00  0.00     0.000 C 
BRANCH   9  10
ATOM     10  C   UNL     1      31.428   5.199   4.627  1.00  0.00     0.000 C 
BRANCH  10  11
ATOM     11  C   UNL     1      30.882   3.796   4.319  1.00  0.00     0.000 C 
BRANCH  11  12
ATOM     12  C   UNL     1      29.536   3.846   3.575  1.00  0.00     0.006 C 
BRANCH  12  13
ATOM     13  C   UNL     1      28.424   3.109   4.335  1.00  0.00     0.053 C 
BRANCH  13  14
ATOM     14  C   UNL     1      28.503   3.332   5.816  1.00  0.00     0.041 C 
ATOM     15  O   UNL     1      28.321   4.484   6.292  1.00  0.00    -0.550 OA
ATOM     16  O   UNL     1      28.742   2.264   6.673  1.00  0.00    -0.550 OA
ENDBRANCH  13  14
ENDBRANCH  12  13
ENDBRANCH  11  12
ENDBRANCH  10  11
ENDBRANCH   9  10
ENDBRANCH   8   9
ENDBRANCH   7   8
ENDBRANCH   6   7
ENDBRANCH   5   6
ENDBRANCH   4   5
ENDBRANCH   3   4
ENDBRANCH   2   3
ENDBRANCH   1   2
BRANCH   1  17
ATOM     17  C   UNL     1      31.612   7.242  12.229  1.00  0.00     0.000 C 
BRANCH  17  18
ATOM     18  C   UNL     1      32.513   8.413  11.803  1.00  0.00     0.000 C 
BRANCH  18  19
ATOM     19  C   UNL     1      33.812   7.937  11.128  1.00  0.00     0.000 C 
BRANCH  19  20
ATOM     20  C   UNL     1      33.698   7.891   9.596  1.00  0.00     0.000 C 
BRANCH  20  21
ATOM     21  C   UNL     1      33.663   6.453   9.047  1.00  0.00     0.000 C 
BRANCH  21  22
ATOM     22  C   UNL     1      34.936   6.089   8.265  1.00  0.00    -0.000 C 
BRANCH  22  23
ATOM     23  C   UNL     1      35.514   4.697   8.587  1.00  0.00    -0.000 C 
BRANCH  23  24
ATOM     24  C   UNL     1      36.512   4.696   9.764  1.00  0.00    -0.000 C 
BRANCH  24  25
ATOM     25  C   UNL     1      37.150   6.078   9.992  1.00  0.00    -0.000 C 
BRANCH  25  26
ATOM     26  C   UNL     1      37.164   6.482  11.476  1.00  0.00    -0.000 C 
BRANCH  26  27
ATOM     27  C   UNL     1      35.875   6.072  12.210  1.00  0.00    -0.000 C 
BRANCH  27  28
ATOM     28  C   UNL     1      35.962   6.275  13.733  1.00  0.00    -0.000 C 
BRANCH  28  29
ATOM     29  C   UNL     1      35.259   5.191  14.571  1.00  0.00    -0.003 C 
ATOM     30  C   UNL     1      35.847   5.040  15.974  1.00  0.00     0.004 C 
ENDBRANCH  28  29
ENDBRANCH  27  28
ENDBRANCH  26  27
ENDBRANCH  25  26
ENDBRANCH  24  25
ENDBRANCH  23  24
ENDBRANCH  22  23
ENDBRANCH  21  22
ENDBRANCH  20  21
ENDBRANCH  19  20
ENDBRANCH  18  19
ENDBRANCH  17  18
ENDBRANCH   1  17
TORSDOF 26
ENDMDL
MODEL 5
REMARK VINA RESULT:    -4.422      3.855      9.396
REMARK INTER + INTRA:         -14.735
REMARK INTER:                 -11.422
REMARK INTRA:                  -3.313
REMARK UNBOUND:                -3.592
REMARK SMILES CCCCCCCCCCCCCCCCCCCCCCCCCCCC(=O)[O-]
REMARK SMILES IDX 15 1 16 2 17 3 18 4 19 5 20 6 21 7 22 8 23 9 24 10 25 11
REMARK SMILES IDX 26 12 27 13 28 14 29 15 30 16 14 17 13 18 12 19 11 20 10 21
REMARK SMILES IDX 9 22 8 23 7 24 6 25 5 26 4 27 3 28 2 29 1 30
REMARK H PARENT
REMARK Flexibility Score: inf
ROOT
ATOM      1  C   UNL     1      37.694   6.632  10.992  1.00  0.00     0.000 C 
ENDROOT
BRANCH   1   2
ATOM      2  C   UNL     1      37.115   6.145   9.655  1.00  0.00     0.000 C 
BRANCH   2   3
ATOM      3  C   UNL     1      36.579   4.705   9.728  1.00  0.00     0.000 C 
BRANCH   3   4
ATOM      4  C   UNL     1      35.350   4.477   8.826  1.00  0.00     0.000 C 
BRANCH   4   5
ATOM      5  C   UNL     1      34.811   5.740   8.128  1.00  0.00     0.000 C 
BRANCH   5   6
ATOM      6  C   UNL     1      33.339   5.666   7.680  1.00  0.00     0.000 C 
BRANCH   6   7
ATOM      7  C   UNL     1      32.778   4.231   7.598  1.00  0.00     0.000 C 
BRANCH   7   8
ATOM      8  C   UNL     1      32.025   3.961   6.286  1.00  0.00     0.000 C 
BRANCH   8   9
ATOM      9  C   UNL     1      31.077   2.765   6.432  1.00  0.00     0.000 C 
BRANCH   9  10
ATOM     10  C   UNL     1      30.654   2.227   5.056  1.00  0.00     0.000 C 
BRANCH  10  11
ATOM     11  C   UNL     1      29.878   3.267   4.232  1.00  0.00     0.000 C 
BRANCH  11  12
ATOM     12  C   UNL     1      28.403   2.874   4.039  1.00  0.00     0.006 C 
BRANCH  12  13
ATOM     13  C   UNL     1      27.442   3.906   4.647  1.00  0.00     0.053 C 
BRANCH  13  14
ATOM     14  C   UNL     1      27.557   3.978   6.141  1.00  0.00     0.041 C 
ATOM     15  O   UNL     1      27.965   5.035   6.693  1.00  0.00    -0.550 OA
ATOM     16  O   UNL     1      27.183   2.893   6.926  1.00  0.00    -0.550 OA
ENDBRANCH  13  14
ENDBRANCH  12  13
ENDBRANCH  11  12
ENDBRANCH  10  11
ENDBRANCH   9  10
ENDBRANCH   8   9
ENDBRANCH   7   8
ENDBRANCH   6   7
ENDBRANCH   5   6
ENDBRANCH   4   5
ENDBRANCH   3   4
ENDBRANCH   2   3
ENDBRANCH   1   2
BRANCH   1  17
ATOM     17  C   UNL     1      36.680   7.452  11.810  1.00  0.00     0.000 C 
BRANCH  17  18
ATOM     18  C   UNL     1      35.230   6.997  11.574  1.00  0.00     0.000 C 
BRANCH  18  19
ATOM     19  C   UNL     1      34.209   8.096  11.919  1.00  0.00     0.000 C 
BRANCH  19  20
ATOM     20  C   UNL     1      32.830   7.837  11.289  1.00  0.00     0.000 C 
BRANCH  20  21
ATOM     21  C   UNL     1      31.791   7.350  12.316  1.00  0.00     0.000 C 
BRANCH  21  22
ATOM     22  C   UNL     1      31.578   5.828  12.263  1.00  0.00    -0.000 C 
BRANCH  22  23
ATOM     23  C   UNL     1      32.435   5.094  11.213  1.00  0.00    -0.000 C 
BRANCH  23  24
ATOM     24  C   UNL     1      33.174   3.858  11.769  1.00  0.00    -0.000 C 
BRANCH  24  25
ATOM     25  C   UNL     1      32.809   3.567  13.235  1.00  0.00    -0.000 C 
BRANCH  25  26
ATOM     26  C   UNL     1      34.009   3.729  14.183  1.00  0.00    -0.000 C 
BRANCH  26  27
ATOM     27  C   UNL     1      34.384   5.204  14.412  1.00  0.00    -0.000 C 
BRANCH  27  28
ATOM     28  C   UNL     1      35.855   5.392  14.823  1.00  0.00    -0.000 C 
BRANCH  28  29
ATOM     29  C   UNL     1      36.127   5.257  16.333  1.00  0.00    -0.003 C 
ATOM     30  C   UNL     1      37.615   5.287  16.681  1.00  0.00     0.004 C 
ENDBRANCH  28  29
ENDBRANCH  27  28
ENDBRANCH  26  27
ENDBRANCH  25  26
ENDBRANCH  24  25
ENDBRANCH  23  24
ENDBRANCH  22  23
ENDBRANCH  21  22
ENDBRANCH  20  21
ENDBRANCH  19  20
ENDBRANCH  18  19
ENDBRANCH  17  18
ENDBRANCH   1  17
TORSDOF 26
ENDMDL
MODEL 6
REMARK VINA RESULT:    -4.411      3.409      7.334
REMARK INTER + INTRA:         -14.707
REMARK INTER:                 -11.286
REMARK INTRA:                  -3.421
REMARK UNBOUND:                -3.592
REMARK SMILES CCCCCCCCCCCCCCCCCCCCCCCCCCCC(=O)[O-]
REMARK SMILES IDX 15 1 16 2 17 3 18 4 19 5 20 6 21 7 22 8 23 9 24 10 25 11
REMARK SMILES IDX 26 12 27 13 28 14 29 15 30 16 14 17 13 18 12 19 11 20 10 21
REMARK SMILES IDX 9 22 8 23 7 24 6 25 5 26 4 27 3 28 2 29 1 30
REMARK H PARENT
REMARK Flexibility Score: inf
ROOT
ATOM      1  C   UNL     1      32.556   3.424   9.973  1.00  0.00     0.000 C 
ENDROOT
BRANCH   1   2
ATOM      2  C   UNL     1      33.515   3.150  11.141  1.00  0.00     0.000 C 
BRANCH   2   3
ATOM      3  C   UNL     1      33.152   1.875  11.922  1.00  0.00     0.000 C 
BRANCH   3   4
ATOM      4  C   UNL     1      32.820   2.153  13.400  1.00  0.00     0.000 C 
BRANCH   4   5
ATOM      5  C   UNL     1      34.003   1.999  14.374  1.00  0.00     0.000 C 
BRANCH   5   6
ATOM      6  C   UNL     1      34.409   3.282  15.126  1.00  0.00     0.000 C 
BRANCH   6   7
ATOM      7  C   UNL     1      33.904   4.583  14.467  1.00  0.00     0.000 C 
BRANCH   7   8
ATOM      8  C   UNL     1      35.047   5.470  13.950  1.00  0.00     0.000 C 
BRANCH   8   9
ATOM      9  C   UNL     1      34.522   6.534  12.980  1.00  0.00     0.000 C 
BRANCH   9  10
ATOM     10  C   UNL     1      33.170   6.115  12.383  1.00  0.00     0.000 C 
BRANCH  10  11
ATOM     11  C   UNL     1      32.489   7.258  11.613  1.00  0.00     0.000 C 
BRANCH  11  12
ATOM     12  C   UNL     1      32.729   8.628  12.272  1.00  0.00     0.006 C 
BRANCH  12  13
ATOM     13  C   UNL     1      31.431   9.258  12.795  1.00  0.00     0.053 C 
BRANCH  13  14
ATOM     14  C   UNL     1      31.063  10.506  12.047  1.00  0.00     0.041 C 
ATOM     15  O   UNL     1      30.059  11.181  12.400  1.00  0.00    -0.550 OA
ATOM     16  O   UNL     1      31.846  10.942  10.984  1.00  0.00    -0.550 OA
ENDBRANCH  13  14
ENDBRANCH  12  13
ENDBRANCH  11  12
ENDBRANCH  10  11
ENDBRANCH   9  10
ENDBRANCH   8   9
ENDBRANCH   7   8
ENDBRANCH   6   7
ENDBRANCH   5   6
ENDBRANCH   4   5
ENDBRANCH   3   4
ENDBRANCH   2   3
ENDBRANCH   1   2
BRANCH   1  17
ATOM     17  C   UNL     1      32.478   2.246   8.985  1.00  0.00     0.000 C 
BRANCH  17  18
ATOM     18  C   UNL     1      31.398   2.451   7.910  1.00  0.00     0.000 C 
BRANCH  18  19
ATOM     19  C   UNL     1      31.858   1.978   6.520  1.00  0.00     0.000 C 
BRANCH  19  20
ATOM     20  C   UNL     1      31.598   3.024   5.424  1.00  0.00     0.000 C 
BRANCH  20  21
ATOM     21  C   UNL     1      31.586   4.464   5.971  1.00  0.00     0.000 C 
BRANCH  21  22
ATOM     22  C   UNL     1      33.001   5.047   6.128  1.00  0.00    -0.000 C 
BRANCH  22  23
ATOM     23  C   UNL     1      33.275   5.712   7.491  1.00  0.00    -0.000 C 
BRANCH  23  24
ATOM     24  C   UNL     1      34.700   5.464   8.029  1.00  0.00    -0.000 C 
BRANCH  24  25
ATOM     25  C   UNL     1      35.061   6.410   9.188  1.00  0.00    -0.000 C 
BRANCH  25  26
ATOM     26  C   UNL     1      36.236   5.885  10.031  1.00  0.00    -0.000 C 
BRANCH  26  27
ATOM     27  C   UNL     1      37.070   7.020  10.650  1.00  0.00    -0.000 C 
BRANCH  27  28
ATOM     28  C   UNL     1      38.585   6.756  10.582  1.00  0.00    -0.000 C 
BRANCH  28  29
ATOM     29  C   UNL     1      39.360   7.099  11.868  1.00  0.00    -0.003 C 
ATOM     30  C   UNL     1      40.805   6.602  11.851  1.00  0.00     0.004 C 
ENDBRANCH  28  29
ENDBRANCH  27  28
ENDBRANCH  26  27
ENDBRANCH  25  26
ENDBRANCH  24  25
ENDBRANCH  23  24
ENDBRANCH  22  23
ENDBRANCH  21  22
ENDBRANCH  20  21
ENDBRANCH  19  20
ENDBRANCH  18  19
ENDBRANCH  17  18
ENDBRANCH   1  17
TORSDOF 26
ENDMDL
MODEL 7
REMARK VINA RESULT:    -4.403      4.167      8.721
REMARK INTER + INTRA:         -14.686
REMARK INTER:                 -11.725
REMARK INTRA:                  -2.961
REMARK UNBOUND:                -3.592
REMARK SMILES CCCCCCCCCCCCCCCCCCCCCCCCCCCC(=O)[O-]
REMARK SMILES IDX 15 1 16 2 17 3 18 4 19 5 20 6 21 7 22 8 23 9 24 10 25 11
REMARK SMILES IDX 26 12 27 13 28 14 29 15 30 16 14 17 13 18 12 19 11 20 10 21
REMARK SMILES IDX 9 22 8 23 7 24 6 25 5 26 4 27 3 28 2 29 1 30
REMARK H PARENT
REMARK Flexibility Score: inf
ROOT
ATOM      1  C   UNL     1      37.193   6.748  10.010  1.00  0.00     0.000 C 
ENDROOT
BRANCH   1   2
ATOM      2  C   UNL     1      36.635   7.495  11.232  1.00  0.00     0.000 C 
BRANCH   2   3
ATOM      3  C   UNL     1      35.116   7.722  11.147  1.00  0.00     0.000 C 
BRANCH   3   4
ATOM      4  C   UNL     1      34.632   7.991   9.709  1.00  0.00     0.000 C 
BRANCH   4   5
ATOM      5  C   UNL     1      33.621   6.967   9.159  1.00  0.00     0.000 C 
BRANCH   5   6
ATOM      6  C   UNL     1      33.666   6.751   7.634  1.00  0.00     0.000 C 
BRANCH   6   7
ATOM      7  C   UNL     1      33.307   5.317   7.192  1.00  0.00     0.000 C 
BRANCH   7   8
ATOM      8  C   UNL     1      32.567   5.278   5.846  1.00  0.00     0.000 C 
BRANCH   8   9
ATOM      9  C   UNL     1      31.661   4.045   5.752  1.00  0.00     0.000 C 
BRANCH   9  10
ATOM     10  C   UNL     1      31.080   3.895   4.337  1.00  0.00     0.000 C 
BRANCH  10  11
ATOM     11  C   UNL     1      29.805   3.037   4.313  1.00  0.00     0.000 C 
BRANCH  11  12
ATOM     12  C   UNL     1      28.605   3.794   3.716  1.00  0.00     0.006 C 
BRANCH  12  13
ATOM     13  C   UNL     1      27.364   3.720   4.617  1.00  0.00     0.053 C 
BRANCH  13  14
ATOM     14  C   UNL     1      27.710   3.835   6.072  1.00  0.00     0.041 C 
ATOM     15  O   UNL     1      28.237   4.891   6.514  1.00  0.00    -0.550 OA
ATOM     16  O   UNL     1      27.421   2.793   6.946  1.00  0.00    -0.550 OA
ENDBRANCH  13  14
ENDBRANCH  12  13
ENDBRANCH  11  12
ENDBRANCH  10  11
ENDBRANCH   9  10
ENDBRANCH   8   9
ENDBRANCH   7   8
ENDBRANCH   6   7
ENDBRANCH   5   6
ENDBRANCH   4   5
ENDBRANCH   3   4
ENDBRANCH   2   3
ENDBRANCH   1   2
BRANCH   1  17
ATOM     17  C   UNL     1      37.262   5.226  10.230  1.00  0.00     0.000 C 
BRANCH  17  18
ATOM     18  C   UNL     1      36.092   4.484   9.562  1.00  0.00     0.000 C 
BRANCH  18  19
ATOM     19  C   UNL     1      34.950   4.183  10.548  1.00  0.00     0.000 C 
BRANCH  19  20
ATOM     20  C   UNL     1      33.788   3.422   9.890  1.00  0.00     0.000 C 
BRANCH  20  21
ATOM     21  C   UNL     1      32.663   3.082  10.885  1.00  0.00     0.000 C 
BRANCH  21  22
ATOM     22  C   UNL     1      33.187   2.387  12.153  1.00  0.00    -0.000 C 
BRANCH  22  23
ATOM     23  C   UNL     1      33.203   3.274  13.414  1.00  0.00    -0.000 C 
BRANCH  23  24
ATOM     24  C   UNL     1      32.163   4.414  13.384  1.00  0.00    -0.000 C 
BRANCH  24  25
ATOM     25  C   UNL     1      32.792   5.771  13.017  1.00  0.00    -0.000 C 
BRANCH  25  26
ATOM     26  C   UNL     1      31.757   6.771  12.476  1.00  0.00    -0.000 C 
BRANCH  26  27
ATOM     27  C   UNL     1      32.115   8.230  12.812  1.00  0.00    -0.000 C 
BRANCH  27  28
ATOM     28  C   UNL     1      31.401   9.246  11.904  1.00  0.00    -0.000 C 
BRANCH  28  29
ATOM     29  C   UNL     1      31.302  10.671  12.480  1.00  0.00    -0.003 C 
ATOM     30  C   UNL     1      29.996  11.376  12.117  1.00  0.00     0.004 C 
ENDBRANCH  28  29
ENDBRANCH  27  28
ENDBRANCH  26  27
ENDBRANCH  25  26
ENDBRANCH  24  25
ENDBRANCH  23  24
ENDBRANCH  22  23
ENDBRANCH  21  22
ENDBRANCH  20  21
ENDBRANCH  19  20
ENDBRANCH  18  19
ENDBRANCH  17  18
ENDBRANCH   1  17
TORSDOF 26
ENDMDL
MODEL 8
REMARK VINA RESULT:    -4.349      4.189      9.445
REMARK INTER + INTRA:         -14.550
REMARK INTER:                 -11.026
REMARK INTRA:                  -3.524
REMARK UNBOUND:                -3.592
REMARK SMILES CCCCCCCCCCCCCCCCCCCCCCCCCCCC(=O)[O-]
REMARK SMILES IDX 15 1 16 2 17 3 18 4 19 5 20 6 21 7 22 8 23 9 24 10 25 11
REMARK SMILES IDX 26 12 27 13 28 14 29 15 30 16 14 17 13 18 12 19 11 20 10 21
REMARK SMILES IDX 9 22 8 23 7 24 6 25 5 26 4 27 3 28 2 29 1 30
REMARK H PARENT
REMARK Flexibility Score: inf
ROOT
ATOM      1  C   UNL     1      32.176   6.573  12.618  1.00  0.00     0.000 C 
ENDROOT
BRANCH   1   2
ATOM      2  C   UNL     1      31.442   7.797  12.048  1.00  0.00     0.000 C 
BRANCH   2   3
ATOM      3  C   UNL     1      32.400   8.833  11.435  1.00  0.00     0.000 C 
BRANCH   3   4
ATOM      4  C   UNL     1      33.645   8.190  10.794  1.00  0.00     0.000 C 
BRANCH   4   5
ATOM      5  C   UNL     1      33.582   8.034   9.263  1.00  0.00     0.000 C 
BRANCH   5   6
ATOM      6  C   UNL     1      34.149   6.711   8.712  1.00  0.00     0.000 C 
BRANCH   6   7
ATOM      7  C   UNL     1      33.535   6.278   7.364  1.00  0.00     0.000 C 
BRANCH   7   8
ATOM      8  C   UNL     1      33.339   4.757   7.262  1.00  0.00     0.000 C 
BRANCH   8   9
ATOM      9  C   UNL     1      31.852   4.399   7.158  1.00  0.00     0.000 C 
BRANCH   9  10
ATOM     10  C   UNL     1      31.665   2.903   6.863  1.00  0.00     0.000 C 
BRANCH  10  11
ATOM     11  C   UNL     1      31.626   2.602   5.357  1.00  0.00     0.000 C 
BRANCH  11  12
ATOM     12  C   UNL     1      30.253   2.075   4.904  1.00  0.00     0.006 C 
BRANCH  12  13
ATOM     13  C   UNL     1      29.385   3.177   4.280  1.00  0.00     0.053 C 
BRANCH  13  14
ATOM     14  C   UNL     1      28.200   3.520   5.134  1.00  0.00     0.041 C 
ATOM     15  O   UNL     1      28.224   3.283   6.371  1.00  0.00    -0.550 OA
ATOM     16  O   UNL     1      27.086   4.134   4.573  1.00  0.00    -0.550 OA
ENDBRANCH  13  14
ENDBRANCH  12  13
ENDBRANCH  11  12
ENDBRANCH  10  11
ENDBRANCH   9  10
ENDBRANCH   8   9
ENDBRANCH   7   8
ENDBRANCH   6   7
ENDBRANCH   5   6
ENDBRANCH   4   5
ENDBRANCH   3   4
ENDBRANCH   2   3
ENDBRANCH   1   2
BRANCH   1  17
ATOM     17  C   UNL     1      31.640   5.246  12.051  1.00  0.00     0.000 C 
BRANCH  17  18
ATOM     18  C   UNL     1      32.495   4.717  10.888  1.00  0.00     0.000 C 
BRANCH  18  19
ATOM     19  C   UNL     1      32.510   3.179  10.825  1.00  0.00     0.000 C 
BRANCH  19  20
ATOM     20  C   UNL     1      33.610   2.563  11.705  1.00  0.00     0.000 C 
BRANCH  20  21
ATOM     21  C   UNL     1      33.059   1.979  13.020  1.00  0.00     0.000 C 
BRANCH  21  22
ATOM     22  C   UNL     1      33.809   2.501  14.257  1.00  0.00    -0.000 C 
BRANCH  22  23
ATOM     23  C   UNL     1      33.850   4.036  14.385  1.00  0.00    -0.000 C 
BRANCH  23  24
ATOM     24  C   UNL     1      35.025   4.558  15.239  1.00  0.00    -0.000 C 
BRANCH  24  25
ATOM     25  C   UNL     1      35.852   5.629  14.504  1.00  0.00    -0.000 C 
BRANCH  25  26
ATOM     26  C   UNL     1      35.166   6.121  13.219  1.00  0.00    -0.000 C 
BRANCH  26  27
ATOM     27  C   UNL     1      35.974   5.783  11.953  1.00  0.00    -0.000 C 
BRANCH  27  28
ATOM     28  C   UNL     1      36.714   7.000  11.372  1.00  0.00    -0.000 C 
BRANCH  28  29
ATOM     29  C   UNL     1      38.061   6.677  10.698  1.00  0.00    -0.003 C 
ATOM     30  C   UNL     1      39.247   6.746  11.660  1.00  0.00     0.004 C 
ENDBRANCH  28  29
ENDBRANCH  27  28
ENDBRANCH  26  27
ENDBRANCH  25  26
ENDBRANCH  24  25
ENDBRANCH  23  24
ENDBRANCH  22  23
ENDBRANCH  21  22
ENDBRANCH  20  21
ENDBRANCH  19  20
ENDBRANCH  18  19
ENDBRANCH  17  18
ENDBRANCH   1  17
TORSDOF 26
ENDMDL
MODEL 9
REMARK VINA RESULT:    -4.261      2.911      4.332
REMARK INTER + INTRA:         -14.329
REMARK INTER:                 -10.997
REMARK INTRA:                  -3.332
REMARK UNBOUND:                -3.592
REMARK SMILES CCCCCCCCCCCCCCCCCCCCCCCCCCCC(=O)[O-]
REMARK SMILES IDX 15 1 16 2 17 3 18 4 19 5 20 6 21 7 22 8 23 9 24 10 25 11
REMARK SMILES IDX 26 12 27 13 28 14 29 15 30 16 14 17 13 18 12 19 11 20 10 21
REMARK SMILES IDX 9 22 8 23 7 24 6 25 5 26 4 27 3 28 2 29 1 30
REMARK H PARENT
REMARK Flexibility Score: inf
ROOT
ATOM      1  C   UNL     1      36.121   7.202  11.111  1.00  0.00     0.000 C 
ENDROOT
BRANCH   1   2
ATOM      2  C   UNL     1      36.220   6.082  12.157  1.00  0.00     0.000 C 
BRANCH   2   3
ATOM      3  C   UNL     1      35.379   6.365  13.413  1.00  0.00     0.000 C 
BRANCH   3   4
ATOM      4  C   UNL     1      35.121   5.103  14.258  1.00  0.00     0.000 C 
BRANCH   4   5
ATOM      5  C   UNL     1      33.705   4.511  14.132  1.00  0.00     0.000 C 
BRANCH   5   6
ATOM      6  C   UNL     1      33.620   3.157  13.401  1.00  0.00     0.000 C 
BRANCH   6   7
ATOM      7  C   UNL     1      33.054   3.250  11.969  1.00  0.00     0.000 C 
BRANCH   7   8
ATOM      8  C   UNL     1      32.891   4.700  11.487  1.00  0.00     0.000 C 
BRANCH   8   9
ATOM      9  C   UNL     1      31.512   5.252  11.865  1.00  0.00     0.000 C 
BRANCH   9  10
ATOM     10  C   UNL     1      31.623   6.685  12.411  1.00  0.00     0.000 C 
BRANCH  10  11
ATOM     11  C   UNL     1      32.683   7.515  11.669  1.00  0.00     0.000 C 
BRANCH  11  12
ATOM     12  C   UNL     1      32.488   9.027  11.878  1.00  0.00     0.006 C 
BRANCH  12  13
ATOM     13  C   UNL     1      31.015   9.399  12.099  1.00  0.00     0.053 C 
BRANCH  13  14
ATOM     14  C   UNL     1      30.818  10.878  12.251  1.00  0.00     0.041 C 
ATOM     15  O   UNL     1      29.679  11.385  12.074  1.00  0.00    -0.550 OA
ATOM     16  O   UNL     1      31.883  11.692  12.621  1.00  0.00    -0.550 OA
ENDBRANCH  13  14
ENDBRANCH  12  13
ENDBRANCH  11  12
ENDBRANCH  10  11
ENDBRANCH   9  10
ENDBRANCH   8   9
ENDBRANCH   7   8
ENDBRANCH   6   7
ENDBRANCH   5   6
ENDBRANCH   4   5
ENDBRANCH   3   4
ENDBRANCH   2   3
ENDBRANCH   1   2
BRANCH   1  17
ATOM     17  C   UNL     1      35.786   6.670   9.706  1.00  0.00     0.000 C 
BRANCH  17  18
ATOM     18  C   UNL     1      36.000   5.152   9.588  1.00  0.00     0.000 C 
BRANCH  18  19
ATOM     19  C   UNL     1      34.999   4.493   8.621  1.00  0.00     0.000 C 
BRANCH  19  20
ATOM     20  C   UNL     1      34.252   5.521   7.755  1.00  0.00     0.000 C 
BRANCH  20  21
ATOM     21  C   UNL     1      32.941   4.963   7.172  1.00  0.00     0.000 C 
BRANCH  21  22
ATOM     22  C   UNL     1      32.431   3.731   7.939  1.00  0.00    -0.000 C 
BRANCH  22  23
ATOM     23  C   UNL     1      31.365   2.904   7.193  1.00  0.00    -0.000 C 
BRANCH  23  24
ATOM     24  C   UNL     1      31.759   2.545   5.744  1.00  0.00    -0.000 C 
BRANCH  24  25
ATOM     25  C   UNL     1      30.542   2.498   4.802  1.00  0.00    -0.000 C 
BRANCH  25  26
ATOM     26  C   UNL     1      30.352   3.810   4.022  1.00  0.00    -0.000 C 
BRANCH  26  27
ATOM     27  C   UNL     1      29.052   3.822   3.198  1.00  0.00    -0.000 C 
BRANCH  27  28
ATOM     28  C   UNL     1      27.927   2.994   3.843  1.00  0.00    -0.000 C 
BRANCH  28  29
ATOM     29  C   UNL     1      27.100   3.742   4.905  1.00  0.00    -0.003 C 
ATOM     30  C   UNL     1      27.149   3.080   6.281  1.00  0.00     0.004 C 
ENDBRANCH  28  29
ENDBRANCH  27  28
ENDBRANCH  26  27
ENDBRANCH  25  26
ENDBRANCH  24  25
ENDBRANCH  23  24
ENDBRANCH  22  23
ENDBRANCH  21  22
ENDBRANCH  20  21
ENDBRANCH  19  20
ENDBRANCH  18  19
ENDBRANCH  17  18
ENDBRANCH   1  17
TORSDOF 26
ENDMDL
