MODEL 1
REMARK VINA RESULT:    -6.509      0.000      0.000
REMARK INTER + INTRA:          -7.968
REMARK INTER:                  -7.651
REMARK INTRA:                  -0.317
REMARK UNBOUND:                -0.317
REMARK SMILES O=c1cc(-c2ccc(O)c(O)c2)oc2cc(O)cc(O)c12
REMARK SMILES IDX 4 1 3 2 2 3 1 4 21 5 19 6 18 7 16 8 15 9 14 10 13 11 5 12
REMARK SMILES IDX 6 13 7 14 8 15 12 16 10 17 9 18 11 20 20 22 17 24
REMARK H PARENT 9 19 11 21 20 23 17 25
REMARK Flexibility Score: inf
ROOT
ATOM      1  C   UNL     1      10.981  -6.986  -9.287  1.00  0.00     0.138 A 
ATOM      2  C   UNL     1      10.113  -8.063  -9.514  1.00  0.00     0.100 A 
ATOM      3  C   UNL     1       9.044  -8.283  -8.646  1.00  0.00     0.197 A 
ATOM      4  O   UNL     1       8.247  -9.220  -8.911  1.00  0.00    -0.289 OA
ATOM      5  C   UNL     1       8.862  -7.438  -7.526  1.00  0.00     0.107 A 
ATOM      6  C   UNL     1       7.832  -7.592  -6.549  1.00  0.00     0.134 A 
ATOM      7  C   UNL     1       7.680  -6.626  -5.548  1.00  0.00     0.093 A 
ATOM      8  C   UNL     1       8.559  -5.544  -5.450  1.00  0.00     0.123 A 
ATOM      9  C   UNL     1       9.601  -5.414  -6.366  1.00  0.00     0.094 A 
ATOM     10  C   UNL     1       9.758  -6.343  -7.397  1.00  0.00     0.146 A 
ATOM     11  O   UNL     1      10.756  -6.174  -8.258  1.00  0.00    -0.456 OA
ENDROOT
BRANCH   1  12
ATOM     12  C   UNL     1      12.135  -6.705 -10.178  1.00  0.00     0.021 A 
ATOM     13  C   UNL     1      12.445  -7.605 -11.213  1.00  0.00     0.016 A 
ATOM     14  C   UNL     1      13.522  -7.359 -12.070  1.00  0.00     0.051 A 
ATOM     15  C   UNL     1      14.299  -6.205 -11.912  1.00  0.00     0.157 A 
ATOM     16  C   UNL     1      12.914  -5.540 -10.035  1.00  0.00     0.062 A 
ATOM     17  C   UNL     1      13.993  -5.293 -10.897  1.00  0.00     0.158 A 
BRANCH  15  18
ATOM     18  O   UNL     1      15.374  -5.957 -12.764  1.00  0.00    -0.504 OA
ATOM     19  H   UNL     1      15.645  -5.014 -13.015  1.00  0.00     0.293 HD
ENDBRANCH  15  18
BRANCH  17  20
ATOM     20  O   UNL     1      14.763  -4.140 -10.751  1.00  0.00    -0.504 OA
ATOM     21  H   UNL     1      14.616  -3.326 -11.338  1.00  0.00     0.293 HD
ENDBRANCH  17  20
ENDBRANCH   1  12
BRANCH   6  22
ATOM     22  O   UNL     1       6.955  -8.680  -6.505  1.00  0.00    -0.507 OA
ATOM     23  H   UNL     1       6.211  -8.848  -7.165  1.00  0.00     0.293 HD
ENDBRANCH   6  22
BRANCH   8  24
ATOM     24  O   UNL     1       8.409  -4.595  -4.441  1.00  0.00    -0.508 OA
ATOM     25  H   UNL     1       9.190  -4.313  -3.859  1.00  0.00     0.293 HD
ENDBRANCH   8  24
TORSDOF 5
ENDMDL
MODEL 2
REMARK VINA RESULT:    -6.469      2.393      6.626
REMARK INTER + INTRA:          -7.921
REMARK INTER:                  -7.608
REMARK INTRA:                  -0.313
REMARK UNBOUND:                -0.317
REMARK SMILES O=c1cc(-c2ccc(O)c(O)c2)oc2cc(O)cc(O)c12
REMARK SMILES IDX 4 1 3 2 2 3 1 4 21 5 19 6 18 7 16 8 15 9 14 10 13 11 5 12
REMARK SMILES IDX 6 13 7 14 8 15 12 16 10 17 9 18 11 20 20 22 17 24
REMARK H PARENT 9 19 11 21 20 23 17 25
REMARK Flexibility Score: inf
ROOT
ATOM      1  C   UNL     1       9.117  -7.148  -9.381  1.00  0.00     0.138 A 
ATOM      2  C   UNL     1       8.048  -7.531 -10.203  1.00  0.00     0.100 A 
ATOM      3  C   UNL     1       8.306  -8.098 -11.451  1.00  0.00     0.197 A 
ATOM      4  O   UNL     1       7.328  -8.488 -12.140  1.00  0.00    -0.289 OA
ATOM      5  C   UNL     1       9.642  -8.254 -11.890  1.00  0.00     0.107 A 
ATOM      6  C   UNL     1      10.024  -8.781 -13.161  1.00  0.00     0.134 A 
ATOM      7  C   UNL     1      11.379  -8.997 -13.439  1.00  0.00     0.093 A 
ATOM      8  C   UNL     1      12.369  -8.647 -12.518  1.00  0.00     0.123 A 
ATOM      9  C   UNL     1      12.009  -8.081 -11.296  1.00  0.00     0.094 A 
ATOM     10  C   UNL     1      10.665  -7.886 -10.975  1.00  0.00     0.146 A 
ATOM     11  O   UNL     1      10.364  -7.356  -9.794  1.00  0.00    -0.456 OA
ENDROOT
BRANCH   1  12
ATOM     12  C   UNL     1       8.900  -6.540  -8.044  1.00  0.00     0.021 A 
ATOM     13  C   UNL     1       7.661  -6.704  -7.401  1.00  0.00     0.016 A 
ATOM     14  C   UNL     1       7.436  -6.147  -6.139  1.00  0.00     0.051 A 
ATOM     15  C   UNL     1       8.448  -5.426  -5.495  1.00  0.00     0.157 A 
ATOM     16  C   UNL     1       9.918  -5.824  -7.384  1.00  0.00     0.062 A 
ATOM     17  C   UNL     1       9.692  -5.266  -6.116  1.00  0.00     0.158 A 
BRANCH  15  18
ATOM     18  O   UNL     1       8.226  -4.868  -4.237  1.00  0.00    -0.504 OA
ATOM     19  H   UNL     1       8.933  -4.311  -3.772  1.00  0.00     0.293 HD
ENDBRANCH  15  18
BRANCH  17  20
ATOM     20  O   UNL     1      10.701  -4.556  -5.467  1.00  0.00    -0.504 OA
ATOM     21  H   UNL     1      10.552  -3.612  -5.130  1.00  0.00     0.293 HD
ENDBRANCH  17  20
ENDBRANCH   1  12
BRANCH   6  22
ATOM     22  O   UNL     1       9.121  -9.085 -14.184  1.00  0.00    -0.507 OA
ATOM     23  H   UNL     1       9.301  -9.725 -14.942  1.00  0.00     0.293 HD
ENDBRANCH   6  22
BRANCH   8  24
ATOM     24  O   UNL     1      13.717  -8.851 -12.809  1.00  0.00    -0.508 OA
ATOM     25  H   UNL     1      14.408  -8.952 -12.075  1.00  0.00     0.293 HD
ENDBRANCH   8  24
TORSDOF 5
ENDMDL
MODEL 3
REMARK VINA RESULT:    -6.401     10.060     14.077
REMARK INTER + INTRA:          -7.840
REMARK INTER:                  -7.527
REMARK INTRA:                  -0.314
REMARK UNBOUND:                -0.317
REMARK SMILES O=c1cc(-c2ccc(O)c(O)c2)oc2cc(O)cc(O)c12
REMARK SMILES IDX 4 1 3 2 2 3 1 4 21 5 19 6 18 7 16 8 15 9 14 10 13 11 5 12
REMARK SMILES IDX 6 13 7 14 8 15 12 16 10 17 9 18 11 20 20 22 17 24
REMARK H PARENT 9 19 11 21 20 23 17 25
REMARK Flexibility Score: inf
ROOT
ATOM      1  C   UNL     1      19.437  -1.030 -18.347  1.00  0.00     0.138 A 
ATOM      2  C   UNL     1      19.163  -0.289 -17.189  1.00  0.00     0.100 A 
ATOM      3  C   UNL     1      18.513  -0.901 -16.116  1.00  0.00     0.197 A 
ATOM      4  O   UNL     1      18.336  -0.228 -15.068  1.00  0.00    -0.289 OA
ATOM      5  C   UNL     1      18.107  -2.252 -16.218  1.00  0.00     0.107 A 
ATOM      6  C   UNL     1      17.400  -2.967 -15.205  1.00  0.00     0.134 A 
ATOM      7  C   UNL     1      17.154  -4.336 -15.370  1.00  0.00     0.093 A 
ATOM      8  C   UNL     1      17.535  -5.001 -16.538  1.00  0.00     0.123 A 
ATOM      9  C   UNL     1      18.177  -4.299 -17.556  1.00  0.00     0.094 A 
ATOM     10  C   UNL     1      18.468  -2.942 -17.407  1.00  0.00     0.146 A 
ATOM     11  O   UNL     1      19.095  -2.314 -18.396  1.00  0.00    -0.456 OA
ENDROOT
BRANCH   1  12
ATOM     12  C   UNL     1      20.126  -0.430 -19.518  1.00  0.00     0.021 A 
ATOM     13  C   UNL     1      20.846   0.767 -19.359  1.00  0.00     0.016 A 
ATOM     14  C   UNL     1      21.509   1.347 -20.444  1.00  0.00     0.051 A 
ATOM     15  C   UNL     1      21.471   0.735 -21.703  1.00  0.00     0.157 A 
ATOM     16  C   UNL     1      20.105  -1.046 -20.784  1.00  0.00     0.062 A 
ATOM     17  C   UNL     1      20.772  -0.464 -21.873  1.00  0.00     0.158 A 
BRANCH  15  18
ATOM     18  O   UNL     1      22.131   1.311 -22.787  1.00  0.00    -0.504 OA
ATOM     19  H   UNL     1      21.626   1.814 -23.508  1.00  0.00     0.293 HD
ENDBRANCH  15  18
BRANCH  17  20
ATOM     20  O   UNL     1      20.746  -1.076 -23.125  1.00  0.00    -0.504 OA
ATOM     21  H   UNL     1      21.518  -0.984 -23.776  1.00  0.00     0.293 HD
ENDBRANCH  17  20
ENDBRANCH   1  12
BRANCH   6  22
ATOM     22  O   UNL     1      16.901  -2.380 -14.039  1.00  0.00    -0.507 OA
ATOM     23  H   UNL     1      16.240  -1.619 -14.013  1.00  0.00     0.293 HD
ENDBRANCH   6  22
BRANCH   8  24
ATOM     24  O   UNL     1      17.272  -6.360 -16.700  1.00  0.00    -0.508 OA
ATOM     25  H   UNL     1      17.763  -6.915 -17.391  1.00  0.00     0.293 HD
ENDBRANCH   8  24
TORSDOF 5
ENDMDL
MODEL 4
REMARK VINA RESULT:    -6.357      2.487      6.799
REMARK INTER + INTRA:          -7.789
REMARK INTER:                  -7.493
REMARK INTRA:                  -0.296
REMARK UNBOUND:                -0.317
REMARK SMILES O=c1cc(-c2ccc(O)c(O)c2)oc2cc(O)cc(O)c12
REMARK SMILES IDX 4 1 3 2 2 3 1 4 21 5 19 6 18 7 16 8 15 9 14 10 13 11 5 12
REMARK SMILES IDX 6 13 7 14 8 15 12 16 10 17 9 18 11 20 20 22 17 24
REMARK H PARENT 9 19 11 21 20 23 17 25
REMARK Flexibility Score: inf
ROOT
ATOM      1  C   UNL     1       9.906  -6.973  -9.357  1.00  0.00     0.138 A 
ATOM      2  C   UNL     1      11.233  -6.818  -9.782  1.00  0.00     0.100 A 
ATOM      3  C   UNL     1      11.629  -7.340 -11.014  1.00  0.00     0.197 A 
ATOM      4  O   UNL     1      12.810  -7.131 -11.394  1.00  0.00    -0.289 OA
ATOM      5  C   UNL     1      10.698  -8.047 -11.810  1.00  0.00     0.107 A 
ATOM      6  C   UNL     1      11.000  -8.658 -13.064  1.00  0.00     0.134 A 
ATOM      7  C   UNL     1       9.969  -9.231 -13.819  1.00  0.00     0.093 A 
ATOM      8  C   UNL     1       8.658  -9.270 -13.336  1.00  0.00     0.123 A 
ATOM      9  C   UNL     1       8.363  -8.725 -12.088  1.00  0.00     0.094 A 
ATOM     10  C   UNL     1       9.363  -8.115 -11.328  1.00  0.00     0.146 A 
ATOM     11  O   UNL     1       9.037  -7.594 -10.150  1.00  0.00    -0.456 OA
ENDROOT
BRANCH   1  12
ATOM     12  C   UNL     1       9.430  -6.439  -8.056  1.00  0.00     0.021 A 
ATOM     13  C   UNL     1       8.111  -6.695  -7.644  1.00  0.00     0.016 A 
ATOM     14  C   UNL     1       7.641  -6.209  -6.420  1.00  0.00     0.051 A 
ATOM     15  C   UNL     1       8.486  -5.469  -5.584  1.00  0.00     0.157 A 
ATOM     16  C   UNL     1      10.278  -5.705  -7.203  1.00  0.00     0.062 A 
ATOM     17  C   UNL     1       9.807  -5.219  -5.974  1.00  0.00     0.158 A 
BRANCH  15  18
ATOM     18  O   UNL     1       8.021  -4.982  -4.364  1.00  0.00    -0.504 OA
ATOM     19  H   UNL     1       7.034  -4.971  -4.139  1.00  0.00     0.293 HD
ENDBRANCH  15  18
BRANCH  17  20
ATOM     20  O   UNL     1      10.648  -4.491  -5.134  1.00  0.00    -0.504 OA
ATOM     21  H   UNL     1      11.197  -3.712  -5.479  1.00  0.00     0.293 HD
ENDBRANCH  17  20
ENDBRANCH   1  12
BRANCH   6  22
ATOM     22  O   UNL     1      12.288  -8.749 -13.598  1.00  0.00    -0.507 OA
ATOM     23  H   UNL     1      13.121  -8.947 -13.065  1.00  0.00     0.293 HD
ENDBRANCH   6  22
BRANCH   8  24
ATOM     24  O   UNL     1       7.641  -9.857 -14.087  1.00  0.00    -0.508 OA
ATOM     25  H   UNL     1       6.979 -10.501 -13.669  1.00  0.00     0.293 HD
ENDBRANCH   8  24
TORSDOF 5
ENDMDL
MODEL 5
REMARK VINA RESULT:    -6.277      8.531     12.366
REMARK INTER + INTRA:          -7.695
REMARK INTER:                  -7.431
REMARK INTRA:                  -0.264
REMARK UNBOUND:                -0.317
REMARK SMILES O=c1cc(-c2ccc(O)c(O)c2)oc2cc(O)cc(O)c12
REMARK SMILES IDX 4 1 3 2 2 3 1 4 21 5 19 6 18 7 16 8 15 9 14 10 13 11 5 12
REMARK SMILES IDX 6 13 7 14 8 15 12 16 10 17 9 18 11 20 20 22 17 24
REMARK H PARENT 9 19 11 21 20 23 17 25
REMARK Flexibility Score: inf
ROOT
ATOM      1  C   UNL     1      18.462  -1.507 -16.967  1.00  0.00     0.138 A 
ATOM      2  C   UNL     1      17.784  -0.746 -16.004  1.00  0.00     0.100 A 
ATOM      3  C   UNL     1      17.078  -1.390 -14.988  1.00  0.00     0.197 A 
ATOM      4  O   UNL     1      16.532  -0.680 -14.104  1.00  0.00    -0.289 OA
ATOM      5  C   UNL     1      17.024  -2.803 -14.956  1.00  0.00     0.107 A 
ATOM      6  C   UNL     1      16.299  -3.567 -13.991  1.00  0.00     0.134 A 
ATOM      7  C   UNL     1      16.414  -4.962 -13.989  1.00  0.00     0.093 A 
ATOM      8  C   UNL     1      17.178  -5.625 -14.953  1.00  0.00     0.123 A 
ATOM      9  C   UNL     1      17.845  -4.891 -15.932  1.00  0.00     0.094 A 
ATOM     10  C   UNL     1      17.778  -3.496 -15.940  1.00  0.00     0.146 A 
ATOM     11  O   UNL     1      18.441  -2.834 -16.882  1.00  0.00    -0.456 OA
ENDROOT
BRANCH   1  12
ATOM     12  C   UNL     1      19.229  -0.874 -18.071  1.00  0.00     0.021 A 
ATOM     13  C   UNL     1      18.745  -0.958 -19.387  1.00  0.00     0.016 A 
ATOM     14  C   UNL     1      19.445  -0.365 -20.441  1.00  0.00     0.051 A 
ATOM     15  C   UNL     1      20.635   0.330 -20.195  1.00  0.00     0.157 A 
ATOM     16  C   UNL     1      20.421  -0.162 -17.829  1.00  0.00     0.062 A 
ATOM     17  C   UNL     1      21.122   0.435 -18.888  1.00  0.00     0.158 A 
BRANCH  15  18
ATOM     18  O   UNL     1      21.336   0.921 -21.244  1.00  0.00    -0.504 OA
ATOM     19  H   UNL     1      22.223   1.386 -21.093  1.00  0.00     0.293 HD
ENDBRANCH  15  18
BRANCH  17  20
ATOM     20  O   UNL     1      22.301   1.137 -18.645  1.00  0.00    -0.504 OA
ATOM     21  H   UNL     1      23.073   0.719 -18.137  1.00  0.00     0.293 HD
ENDBRANCH  17  20
ENDBRANCH   1  12
BRANCH   6  22
ATOM     22  O   UNL     1      15.442  -3.010 -13.038  1.00  0.00    -0.507 OA
ATOM     23  H   UNL     1      15.732  -2.405 -12.285  1.00  0.00     0.293 HD
ENDBRANCH   6  22
BRANCH   8  24
ATOM     24  O   UNL     1      17.274  -7.015 -14.953  1.00  0.00    -0.508 OA
ATOM     25  H   UNL     1      16.556  -7.596 -15.371  1.00  0.00     0.293 HD
ENDBRANCH   8  24
TORSDOF 5
ENDMDL
MODEL 6
REMARK VINA RESULT:    -6.230      1.521      6.956
REMARK INTER + INTRA:          -7.639
REMARK INTER:                  -7.331
REMARK INTRA:                  -0.308
REMARK UNBOUND:                -0.317
REMARK SMILES O=c1cc(-c2ccc(O)c(O)c2)oc2cc(O)cc(O)c12
REMARK SMILES IDX 4 1 3 2 2 3 1 4 21 5 19 6 18 7 16 8 15 9 14 10 13 11 5 12
REMARK SMILES IDX 6 13 7 14 8 15 12 16 10 17 9 18 11 20 20 22 17 24
REMARK H PARENT 9 19 11 21 20 23 17 25
REMARK Flexibility Score: inf
ROOT
ATOM      1  C   UNL     1      11.633  -6.936  -9.649  1.00  0.00     0.138 A 
ATOM      2  C   UNL     1      11.679  -7.886 -10.679  1.00  0.00     0.100 A 
ATOM      3  C   UNL     1      12.669  -7.795 -11.658  1.00  0.00     0.197 A 
ATOM      4  O   UNL     1      12.723  -8.697 -12.533  1.00  0.00    -0.289 OA
ATOM      5  C   UNL     1      13.597  -6.728 -11.622  1.00  0.00     0.107 A 
ATOM      6  C   UNL     1      14.624  -6.510 -12.591  1.00  0.00     0.134 A 
ATOM      7  C   UNL     1      15.558  -5.487 -12.388  1.00  0.00     0.093 A 
ATOM      8  C   UNL     1      15.466  -4.634 -11.285  1.00  0.00     0.123 A 
ATOM      9  C   UNL     1      14.435  -4.804 -10.362  1.00  0.00     0.094 A 
ATOM     10  C   UNL     1      13.509  -5.838 -10.518  1.00  0.00     0.146 A 
ATOM     11  O   UNL     1      12.551  -5.974  -9.608  1.00  0.00    -0.456 OA
ENDROOT
BRANCH   1  12
ATOM     12  C   UNL     1      10.601  -6.984  -8.582  1.00  0.00     0.021 A 
ATOM     13  C   UNL     1      10.021  -8.216  -8.235  1.00  0.00     0.016 A 
ATOM     14  C   UNL     1       9.054  -8.289  -7.229  1.00  0.00     0.051 A 
ATOM     15  C   UNL     1       8.658  -7.132  -6.547  1.00  0.00     0.157 A 
ATOM     16  C   UNL     1      10.207  -5.827  -7.882  1.00  0.00     0.062 A 
ATOM     17  C   UNL     1       9.237  -5.901  -6.871  1.00  0.00     0.158 A 
BRANCH  15  18
ATOM     18  O   UNL     1       7.692  -7.201  -5.544  1.00  0.00    -0.504 OA
ATOM     19  H   UNL     1       7.475  -8.072  -5.076  1.00  0.00     0.293 HD
ENDBRANCH  15  18
BRANCH  17  20
ATOM     20  O   UNL     1       8.848  -4.753  -6.182  1.00  0.00    -0.504 OA
ATOM     21  H   UNL     1       8.341  -4.004  -6.641  1.00  0.00     0.293 HD
ENDBRANCH  17  20
ENDBRANCH   1  12
BRANCH   6  22
ATOM     22  O   UNL     1      14.754  -7.249 -13.770  1.00  0.00    -0.507 OA
ATOM     23  H   UNL     1      14.338  -8.153 -13.933  1.00  0.00     0.293 HD
ENDBRANCH   6  22
BRANCH   8  24
ATOM     24  O   UNL     1      16.391  -3.609 -11.099  1.00  0.00    -0.508 OA
ATOM     25  H   UNL     1      16.808  -3.124 -11.885  1.00  0.00     0.293 HD
ENDBRANCH   8  24
TORSDOF 5
ENDMDL
MODEL 7
REMARK VINA RESULT:    -6.106     10.342     14.040
REMARK INTER + INTRA:          -7.494
REMARK INTER:                  -7.177
REMARK INTRA:                  -0.317
REMARK UNBOUND:                -0.317
REMARK SMILES O=c1cc(-c2ccc(O)c(O)c2)oc2cc(O)cc(O)c12
REMARK SMILES IDX 4 1 3 2 2 3 1 4 21 5 19 6 18 7 16 8 15 9 14 10 13 11 5 12
REMARK SMILES IDX 6 13 7 14 8 15 12 16 10 17 9 18 11 20 20 22 17 24
REMARK H PARENT 9 19 11 21 20 23 17 25
REMARK Flexibility Score: inf
ROOT
ATOM      1  C   UNL     1      19.481  -1.138 -18.808  1.00  0.00     0.138 A 
ATOM      2  C   UNL     1      19.195  -2.510 -18.851  1.00  0.00     0.100 A 
ATOM      3  C   UNL     1      18.533  -3.111 -17.780  1.00  0.00     0.197 A 
ATOM      4  O   UNL     1      18.236  -4.330 -17.875  1.00  0.00    -0.289 OA
ATOM      5  C   UNL     1      18.186  -2.339 -16.647  1.00  0.00     0.107 A 
ATOM      6  C   UNL     1      17.547  -2.854 -15.478  1.00  0.00     0.134 A 
ATOM      7  C   UNL     1      17.145  -1.973 -14.466  1.00  0.00     0.093 A 
ATOM      8  C   UNL     1      17.415  -0.605 -14.553  1.00  0.00     0.123 A 
ATOM      9  C   UNL     1      18.087  -0.100 -15.664  1.00  0.00     0.094 A 
ATOM     10  C   UNL     1      18.469  -0.948 -16.706  1.00  0.00     0.146 A 
ATOM     11  O   UNL     1      19.094  -0.424 -17.755  1.00  0.00    -0.456 OA
ENDROOT
BRANCH   1  12
ATOM     12  C   UNL     1      20.183  -0.447 -19.920  1.00  0.00     0.021 A 
ATOM     13  C   UNL     1      20.376  -1.117 -21.140  1.00  0.00     0.016 A 
ATOM     14  C   UNL     1      21.027  -0.486 -22.203  1.00  0.00     0.051 A 
ATOM     15  C   UNL     1      21.486   0.830 -22.067  1.00  0.00     0.157 A 
ATOM     16  C   UNL     1      20.636   0.882 -19.796  1.00  0.00     0.062 A 
ATOM     17  C   UNL     1      21.287   1.516 -20.864  1.00  0.00     0.158 A 
BRANCH  15  18
ATOM     18  O   UNL     1      22.137   1.463 -23.125  1.00  0.00    -0.504 OA
ATOM     19  H   UNL     1      22.109   1.087 -24.065  1.00  0.00     0.293 HD
ENDBRANCH  15  18
BRANCH  17  20
ATOM     20  O   UNL     1      21.736   2.829 -20.737  1.00  0.00    -0.504 OA
ATOM     21  H   UNL     1      21.880   3.422 -21.547  1.00  0.00     0.293 HD
ENDBRANCH  17  20
ENDBRANCH   1  12
BRANCH   6  22
ATOM     22  O   UNL     1      17.307  -4.213 -15.254  1.00  0.00    -0.507 OA
ATOM     23  H   UNL     1      16.417  -4.606 -14.989  1.00  0.00     0.293 HD
ENDBRANCH   6  22
BRANCH   8  24
ATOM     24  O   UNL     1      17.026   0.263 -13.534  1.00  0.00    -0.508 OA
ATOM     25  H   UNL     1      16.772  -0.081 -12.615  1.00  0.00     0.293 HD
ENDBRANCH   8  24
TORSDOF 5
ENDMDL
MODEL 8
REMARK VINA RESULT:    -6.007      8.874     12.318
REMARK INTER + INTRA:          -7.378
REMARK INTER:                  -7.113
REMARK INTRA:                  -0.265
REMARK UNBOUND:                -0.317
REMARK SMILES O=c1cc(-c2ccc(O)c(O)c2)oc2cc(O)cc(O)c12
REMARK SMILES IDX 4 1 3 2 2 3 1 4 21 5 19 6 18 7 16 8 15 9 14 10 13 11 5 12
REMARK SMILES IDX 6 13 7 14 8 15 12 16 10 17 9 18 11 20 20 22 17 24
REMARK H PARENT 9 19 11 21 20 23 17 25
REMARK Flexibility Score: inf
ROOT
ATOM      1  C   UNL     1      18.410  -1.164 -17.146  1.00  0.00     0.138 A 
ATOM      2  C   UNL     1      18.473  -2.501 -16.731  1.00  0.00     0.100 A 
ATOM      3  C   UNL     1      17.705  -2.924 -15.645  1.00  0.00     0.197 A 
ATOM      4  O   UNL     1      17.735  -4.143 -15.336  1.00  0.00    -0.289 OA
ATOM      5  C   UNL     1      16.895  -1.993 -14.953  1.00  0.00     0.107 A 
ATOM      6  C   UNL     1      16.103  -2.301 -13.806  1.00  0.00     0.134 A 
ATOM      7  C   UNL     1      15.250  -1.326 -13.274  1.00  0.00     0.093 A 
ATOM      8  C   UNL     1      15.208  -0.036 -13.809  1.00  0.00     0.123 A 
ATOM      9  C   UNL     1      16.019   0.290 -14.894  1.00  0.00     0.094 A 
ATOM     10  C   UNL     1      16.853  -0.670 -15.469  1.00  0.00     0.146 A 
ATOM     11  O   UNL     1      17.599  -0.322 -16.512  1.00  0.00    -0.456 OA
ENDROOT
BRANCH   1  12
ATOM     12  C   UNL     1      19.206  -0.660 -18.295  1.00  0.00     0.021 A 
ATOM     13  C   UNL     1      18.775  -0.928 -19.605  1.00  0.00     0.016 A 
ATOM     14  C   UNL     1      19.502  -0.458 -20.702  1.00  0.00     0.051 A 
ATOM     15  C   UNL     1      20.666   0.295 -20.507  1.00  0.00     0.157 A 
ATOM     16  C   UNL     1      20.370   0.111 -18.106  1.00  0.00     0.062 A 
ATOM     17  C   UNL     1      21.099   0.583 -19.208  1.00  0.00     0.158 A 
BRANCH  15  18
ATOM     18  O   UNL     1      21.394   0.765 -21.599  1.00  0.00    -0.504 OA
ATOM     19  H   UNL     1      21.779   0.132 -22.291  1.00  0.00     0.293 HD
ENDBRANCH  15  18
BRANCH  17  20
ATOM     20  O   UNL     1      22.251   1.343 -19.018  1.00  0.00    -0.504 OA
ATOM     21  H   UNL     1      22.213   2.276 -18.621  1.00  0.00     0.293 HD
ENDBRANCH  17  20
ENDBRANCH   1  12
BRANCH   6  22
ATOM     22  O   UNL     1      16.133  -3.532 -13.143  1.00  0.00    -0.507 OA
ATOM     23  H   UNL     1      16.945  -3.923 -12.690  1.00  0.00     0.293 HD
ENDBRANCH   6  22
BRANCH   8  24
ATOM     24  O   UNL     1      14.369   0.933 -13.263  1.00  0.00    -0.508 OA
ATOM     25  H   UNL     1      13.695   1.431 -13.833  1.00  0.00     0.293 HD
ENDBRANCH   8  24
TORSDOF 5
ENDMDL
MODEL 9
REMARK VINA RESULT:    -5.994      9.691     13.223
REMARK INTER + INTRA:          -7.363
REMARK INTER:                  -7.099
REMARK INTRA:                  -0.264
REMARK UNBOUND:                -0.317
REMARK SMILES O=c1cc(-c2ccc(O)c(O)c2)oc2cc(O)cc(O)c12
REMARK SMILES IDX 4 1 3 2 2 3 1 4 21 5 19 6 18 7 16 8 15 9 14 10 13 11 5 12
REMARK SMILES IDX 6 13 7 14 8 15 12 16 10 17 9 18 11 20 20 22 17 24
REMARK H PARENT 9 19 11 21 20 23 17 25
REMARK Flexibility Score: inf
ROOT
ATOM      1  C   UNL     1      17.861  -4.076 -16.792  1.00  0.00     0.138 A 
ATOM      2  C   UNL     1      17.667  -3.098 -15.807  1.00  0.00     0.100 A 
ATOM      3  C   UNL     1      18.142  -1.803 -16.017  1.00  0.00     0.197 A 
ATOM      4  O   UNL     1      17.899  -0.932 -15.142  1.00  0.00    -0.289 OA
ATOM      5  C   UNL     1      18.843  -1.496 -17.207  1.00  0.00     0.107 A 
ATOM      6  C   UNL     1      19.409  -0.221 -17.511  1.00  0.00     0.134 A 
ATOM      7  C   UNL     1      19.979  -0.001 -18.771  1.00  0.00     0.093 A 
ATOM      8  C   UNL     1      20.059  -1.028 -19.715  1.00  0.00     0.123 A 
ATOM      9  C   UNL     1      19.558  -2.292 -19.408  1.00  0.00     0.094 A 
ATOM     10  C   UNL     1      18.952  -2.532 -18.173  1.00  0.00     0.146 A 
ATOM     11  O   UNL     1      18.475  -3.747 -17.925  1.00  0.00    -0.456 OA
ENDROOT
BRANCH   1  12
ATOM     12  C   UNL     1      17.377  -5.470 -16.621  1.00  0.00     0.021 A 
ATOM     13  C   UNL     1      18.300  -6.494 -16.350  1.00  0.00     0.016 A 
ATOM     14  C   UNL     1      17.868  -7.812 -16.178  1.00  0.00     0.051 A 
ATOM     15  C   UNL     1      16.506  -8.126 -16.264  1.00  0.00     0.157 A 
ATOM     16  C   UNL     1      16.007  -5.790 -16.693  1.00  0.00     0.062 A 
ATOM     17  C   UNL     1      15.574  -7.113 -16.518  1.00  0.00     0.158 A 
BRANCH  15  18
ATOM     18  O   UNL     1      16.072  -9.439 -16.094  1.00  0.00    -0.504 OA
ATOM     19  H   UNL     1      16.019  -9.865 -15.176  1.00  0.00     0.293 HD
ENDBRANCH  15  18
BRANCH  17  20
ATOM     20  O   UNL     1      14.218  -7.428 -16.593  1.00  0.00    -0.504 OA
ATOM     21  H   UNL     1      13.504  -6.765 -16.312  1.00  0.00     0.293 HD
ENDBRANCH  17  20
ENDBRANCH   1  12
BRANCH   6  22
ATOM     22  O   UNL     1      19.458   0.847 -16.610  1.00  0.00    -0.507 OA
ATOM     23  H   UNL     1      20.163   0.971 -15.900  1.00  0.00     0.293 HD
ENDBRANCH   6  22
BRANCH   8  24
ATOM     24  O   UNL     1      20.642  -0.805 -20.961  1.00  0.00    -0.508 OA
ATOM     25  H   UNL     1      21.570  -1.148 -21.180  1.00  0.00     0.293 HD
ENDBRANCH   8  24
TORSDOF 5
ENDMDL
