MODEL 1
REMARK VINA RESULT:    27.288      0.000      0.000
REMARK INTER + INTRA:          71.377
REMARK INTER:                  71.956
REMARK INTRA:                  -0.579
REMARK UNBOUND:                -0.579
REMARK SMILES CCCCCCCCCCCCCCCCCCCCCCCCCCCCCC(=O)[O-]
REMARK SMILES IDX 16 1 17 2 18 3 19 4 20 5 21 6 22 7 23 8 24 9 25 10 26 11
REMARK SMILES IDX 27 12 28 13 29 14 30 15 31 16 32 17 15 18 14 19 13 20 12 21
REMARK SMILES IDX 11 22 10 23 9 24 8 25 7 26 6 27 5 28 4 29 3 30 2 31 1 32
REMARK H PARENT
REMARK Flexibility Score: inf
ROOT
ATOM      1  C   UNL     1     -13.314  35.018 -12.663  1.00  0.00     0.000 C 
ENDROOT
BRANCH   1   2
ATOM      2  C   UNL     1     -14.344  34.796 -11.538  1.00  0.00     0.000 C 
BRANCH   2   3
ATOM      3  C   UNL     1     -14.470  33.319 -11.132  1.00  0.00     0.000 C 
BRANCH   3   4
ATOM      4  C   UNL     1     -14.804  33.140  -9.640  1.00  0.00     0.000 C 
BRANCH   4   5
ATOM      5  C   UNL     1     -14.426  31.742  -9.125  1.00  0.00     0.000 C 
BRANCH   5   6
ATOM      6  C   UNL     1     -12.904  31.504  -9.124  1.00  0.00     0.000 C 
BRANCH   6   7
ATOM      7  C   UNL     1     -12.470  30.483  -8.061  1.00  0.00     0.000 C 
BRANCH   7   8
ATOM      8  C   UNL     1     -11.237  29.671  -8.500  1.00  0.00     0.000 C 
BRANCH   8   9
ATOM      9  C   UNL     1     -10.668  28.795  -7.370  1.00  0.00     0.000 C 
BRANCH   9  10
ATOM     10  C   UNL     1      -9.230  29.144  -6.940  1.00  0.00     0.000 C 
BRANCH  10  11
ATOM     11  C   UNL     1      -8.921  30.657  -6.979  1.00  0.00     0.000 C 
BRANCH  11  12
ATOM     12  C   UNL     1      -8.486  31.126  -8.378  1.00  0.00     0.000 C 
BRANCH  12  13
ATOM     13  C   UNL     1      -7.226  32.003  -8.349  1.00  0.00     0.006 C 
BRANCH  13  14
ATOM     14  C   UNL     1      -7.364  33.268  -9.205  1.00  0.00     0.053 C 
BRANCH  14  15
ATOM     15  C   UNL     1      -6.474  33.186 -10.407  1.00  0.00     0.041 C 
ATOM     16  O   UNL     1      -6.965  33.277 -11.565  1.00  0.00    -0.550 OA
ATOM     17  O   UNL     1      -5.110  32.976 -10.253  1.00  0.00    -0.550 OA
ENDBRANCH  14  15
ENDBRANCH  13  14
ENDBRANCH  12  13
ENDBRANCH  11  12
ENDBRANCH  10  11
ENDBRANCH   9  10
ENDBRANCH   8   9
ENDBRANCH   7   8
ENDBRANCH   6   7
ENDBRANCH   5   6
ENDBRANCH   4   5
ENDBRANCH   3   4
ENDBRANCH   2   3
ENDBRANCH   1   2
BRANCH   1  18
ATOM     18  C   UNL     1     -12.467  36.282 -12.448  1.00  0.00     0.000 C 
BRANCH  18  19
ATOM     19  C   UNL     1     -13.141  37.553 -12.991  1.00  0.00     0.000 C 
BRANCH  19  20
ATOM     20  C   UNL     1     -12.504  38.062 -14.296  1.00  0.00     0.000 C 
BRANCH  20  21
ATOM     21  C   UNL     1     -10.998  38.375 -14.179  1.00  0.00     0.000 C 
BRANCH  21  22
ATOM     22  C   UNL     1     -10.585  38.737 -12.742  1.00  0.00     0.000 C 
BRANCH  22  23
ATOM     23  C   UNL     1     -10.495  40.254 -12.505  1.00  0.00     0.000 C 
BRANCH  23  24
ATOM     24  C   UNL     1     -11.846  40.912 -12.152  1.00  0.00    -0.000 C 
BRANCH  24  25
ATOM     25  C   UNL     1     -11.785  41.737 -10.854  1.00  0.00    -0.000 C 
BRANCH  25  26
ATOM     26  C   UNL     1     -10.939  41.060  -9.763  1.00  0.00    -0.000 C 
BRANCH  26  27
ATOM     27  C   UNL     1     -10.333  42.063  -8.770  1.00  0.00    -0.000 C 
BRANCH  27  28
ATOM     28  C   UNL     1      -9.121  41.462  -8.050  1.00  0.00    -0.000 C 
BRANCH  28  29
ATOM     29  C   UNL     1      -9.345  41.431  -6.530  1.00  0.00    -0.000 C 
BRANCH  29  30
ATOM     30  C   UNL     1     -10.740  40.910  -6.137  1.00  0.00    -0.000 C 
BRANCH  30  31
ATOM     31  C   UNL     1     -11.856  41.970  -6.152  1.00  0.00    -0.003 C 
ATOM     32  C   UNL     1     -13.105  41.518  -6.911  1.00  0.00     0.004 C 
ENDBRANCH  30  31
ENDBRANCH  29  30
ENDBRANCH  28  29
ENDBRANCH  27  28
ENDBRANCH  26  27
ENDBRANCH  25  26
ENDBRANCH  24  25
ENDBRANCH  23  24
ENDBRANCH  22  23
ENDBRANCH  21  22
ENDBRANCH  20  21
ENDBRANCH  19  20
ENDBRANCH  18  19
ENDBRANCH   1  18
TORSDOF 28
ENDMDL
MODEL 2
REMARK VINA RESULT:    27.396      3.225     10.103
REMARK INTER + INTRA:          71.662
REMARK INTER:                  72.759
REMARK INTRA:                  -1.097
REMARK UNBOUND:                -0.579
REMARK SMILES CCCCCCCCCCCCCCCCCCCCCCCCCCCCCC(=O)[O-]
REMARK SMILES IDX 16 1 17 2 18 3 19 4 20 5 21 6 22 7 23 8 24 9 25 10 26 11
REMARK SMILES IDX 27 12 28 13 29 14 30 15 31 16 32 17 15 18 14 19 13 20 12 21
REMARK SMILES IDX 11 22 10 23 9 24 8 25 7 26 6 27 5 28 4 29 3 30 2 31 1 32
REMARK H PARENT
REMARK Flexibility Score: inf
ROOT
ATOM      1  C   UNL     1     -13.479  35.975 -11.881  1.00  0.00     0.000 C 
ENDROOT
BRANCH   1   2
ATOM      2  C   UNL     1     -12.506  36.430 -12.986  1.00  0.00     0.000 C 
BRANCH   2   3
ATOM      3  C   UNL     1     -12.437  37.959 -13.123  1.00  0.00     0.000 C 
BRANCH   3   4
ATOM      4  C   UNL     1     -11.016  38.464 -13.429  1.00  0.00     0.000 C 
BRANCH   4   5
ATOM      5  C   UNL     1     -10.701  39.784 -12.706  1.00  0.00     0.000 C 
BRANCH   5   6
ATOM      6  C   UNL     1     -11.965  40.479 -12.169  1.00  0.00     0.000 C 
BRANCH   6   7
ATOM      7  C   UNL     1     -11.644  41.549 -11.113  1.00  0.00     0.000 C 
BRANCH   7   8
ATOM      8  C   UNL     1     -10.609  41.059 -10.083  1.00  0.00     0.000 C 
BRANCH   8   9
ATOM      9  C   UNL     1     -10.159  42.170  -9.117  1.00  0.00     0.000 C 
BRANCH   9  10
ATOM     10  C   UNL     1      -9.073  41.750  -8.107  1.00  0.00     0.000 C 
BRANCH  10  11
ATOM     11  C   UNL     1      -9.566  40.737  -7.051  1.00  0.00     0.000 C 
BRANCH  11  12
ATOM     12  C   UNL     1      -9.950  41.419  -5.726  1.00  0.00     0.000 C 
BRANCH  12  13
ATOM     13  C   UNL     1     -11.408  41.898  -5.703  1.00  0.00     0.006 C 
BRANCH  13  14
ATOM     14  C   UNL     1     -12.206  41.428  -6.925  1.00  0.00     0.053 C 
BRANCH  14  15
ATOM     15  C   UNL     1     -13.674  41.620  -6.699  1.00  0.00     0.041 C 
ATOM     16  O   UNL     1     -14.135  41.656  -5.526  1.00  0.00    -0.550 OA
ATOM     17  O   UNL     1     -14.539  41.725  -7.780  1.00  0.00    -0.550 OA
ENDBRANCH  14  15
ENDBRANCH  13  14
ENDBRANCH  12  13
ENDBRANCH  11  12
ENDBRANCH  10  11
ENDBRANCH   9  10
ENDBRANCH   8   9
ENDBRANCH   7   8
ENDBRANCH   6   7
ENDBRANCH   5   6
ENDBRANCH   4   5
ENDBRANCH   3   4
ENDBRANCH   2   3
ENDBRANCH   1   2
BRANCH   1  18
ATOM     18  C   UNL     1     -13.683  34.452 -11.862  1.00  0.00     0.000 C 
BRANCH  18  19
ATOM     19  C   UNL     1     -14.608  33.987 -10.725  1.00  0.00     0.000 C 
BRANCH  19  20
ATOM     20  C   UNL     1     -14.503  32.478 -10.443  1.00  0.00     0.000 C 
BRANCH  20  21
ATOM     21  C   UNL     1     -14.403  32.125  -8.944  1.00  0.00     0.000 C 
BRANCH  21  22
ATOM     22  C   UNL     1     -13.189  31.235  -8.632  1.00  0.00     0.000 C 
BRANCH  22  23
ATOM     23  C   UNL     1     -13.254  30.595  -7.235  1.00  0.00     0.000 C 
BRANCH  23  24
ATOM     24  C   UNL     1     -12.056  29.677  -6.912  1.00  0.00    -0.000 C 
BRANCH  24  25
ATOM     25  C   UNL     1     -11.008  29.645  -8.040  1.00  0.00    -0.000 C 
BRANCH  25  26
ATOM     26  C   UNL     1      -9.577  29.464  -7.511  1.00  0.00    -0.000 C 
BRANCH  26  27
ATOM     27  C   UNL     1      -8.578  30.444  -8.145  1.00  0.00    -0.000 C 
BRANCH  27  28
ATOM     28  C   UNL     1      -8.087  31.472  -7.120  1.00  0.00    -0.000 C 
BRANCH  28  29
ATOM     29  C   UNL     1      -7.397  32.655  -7.816  1.00  0.00    -0.000 C 
BRANCH  29  30
ATOM     30  C   UNL     1      -7.664  32.701  -9.333  1.00  0.00    -0.000 C 
BRANCH  30  31
ATOM     31  C   UNL     1      -6.537  33.332 -10.170  1.00  0.00    -0.003 C 
ATOM     32  C   UNL     1      -6.592  32.938 -11.647  1.00  0.00     0.004 C 
ENDBRANCH  30  31
ENDBRANCH  29  30
ENDBRANCH  28  29
ENDBRANCH  27  28
ENDBRANCH  26  27
ENDBRANCH  25  26
ENDBRANCH  24  25
ENDBRANCH  23  24
ENDBRANCH  22  23
ENDBRANCH  21  22
ENDBRANCH  20  21
ENDBRANCH  19  20
ENDBRANCH  18  19
ENDBRANCH   1  18
TORSDOF 28
ENDMDL
MODEL 3
REMARK VINA RESULT:    27.478      1.018      2.158
REMARK INTER + INTRA:          71.878
REMARK INTER:                  73.388
REMARK INTRA:                  -1.510
REMARK UNBOUND:                -0.579
REMARK SMILES CCCCCCCCCCCCCCCCCCCCCCCCCCCCCC(=O)[O-]
REMARK SMILES IDX 16 1 17 2 18 3 19 4 20 5 21 6 22 7 23 8 24 9 25 10 26 11
REMARK SMILES IDX 27 12 28 13 29 14 30 15 31 16 32 17 15 18 14 19 13 20 12 21
REMARK SMILES IDX 11 22 10 23 9 24 8 25 7 26 6 27 5 28 4 29 3 30 2 31 1 32
REMARK H PARENT
REMARK Flexibility Score: inf
ROOT
ATOM      1  C   UNL     1     -14.389  33.802 -10.727  1.00  0.00     0.000 C 
ENDROOT
BRANCH   1   2
ATOM      2  C   UNL     1     -15.082  32.566 -10.122  1.00  0.00     0.000 C 
BRANCH   2   3
ATOM      3  C   UNL     1     -14.302  31.967  -8.941  1.00  0.00     0.000 C 
BRANCH   3   4
ATOM      4  C   UNL     1     -12.926  31.417  -9.358  1.00  0.00     0.000 C 
BRANCH   4   5
ATOM      5  C   UNL     1     -12.248  30.632  -8.222  1.00  0.00     0.000 C 
BRANCH   5   6
ATOM      6  C   UNL     1     -11.319  29.521  -8.746  1.00  0.00     0.000 C 
BRANCH   6   7
ATOM      7  C   UNL     1     -10.821  28.596  -7.625  1.00  0.00     0.000 C 
BRANCH   7   8
ATOM      8  C   UNL     1     -10.860  29.277  -6.244  1.00  0.00     0.000 C 
BRANCH   8   9
ATOM      9  C   UNL     1      -9.692  30.255  -6.030  1.00  0.00     0.000 C 
BRANCH   9  10
ATOM     10  C   UNL     1      -8.628  30.249  -7.144  1.00  0.00     0.000 C 
BRANCH  10  11
ATOM     11  C   UNL     1      -8.084  31.654  -7.490  1.00  0.00     0.000 C 
BRANCH  11  12
ATOM     12  C   UNL     1      -7.705  31.780  -8.976  1.00  0.00     0.000 C 
BRANCH  12  13
ATOM     13  C   UNL     1      -7.079  33.140  -9.318  1.00  0.00     0.006 C 
BRANCH  13  14
ATOM     14  C   UNL     1      -6.017  33.043 -10.420  1.00  0.00     0.053 C 
BRANCH  14  15
ATOM     15  C   UNL     1      -6.617  33.361 -11.756  1.00  0.00     0.041 C 
ATOM     16  O   UNL     1      -7.469  34.283 -11.864  1.00  0.00    -0.550 OA
ATOM     17  O   UNL     1      -6.263  32.617 -12.874  1.00  0.00    -0.550 OA
ENDBRANCH  14  15
ENDBRANCH  13  14
ENDBRANCH  12  13
ENDBRANCH  11  12
ENDBRANCH  10  11
ENDBRANCH   9  10
ENDBRANCH   8   9
ENDBRANCH   7   8
ENDBRANCH   6   7
ENDBRANCH   5   6
ENDBRANCH   4   5
ENDBRANCH   3   4
ENDBRANCH   2   3
ENDBRANCH   1   2
BRANCH   1  18
ATOM     18  C   UNL     1     -14.323  33.752 -12.262  1.00  0.00     0.000 C 
BRANCH  18  19
ATOM     19  C   UNL     1     -13.976  35.112 -12.890  1.00  0.00     0.000 C 
BRANCH  19  20
ATOM     20  C   UNL     1     -13.211  36.040 -11.931  1.00  0.00     0.000 C 
BRANCH  20  21
ATOM     21  C   UNL     1     -12.019  36.771 -12.583  1.00  0.00     0.000 C 
BRANCH  21  22
ATOM     22  C   UNL     1     -12.469  37.836 -13.597  1.00  0.00     0.000 C 
BRANCH  22  23
ATOM     23  C   UNL     1     -11.512  39.037 -13.675  1.00  0.00     0.000 C 
BRANCH  23  24
ATOM     24  C   UNL     1     -11.042  39.552 -12.297  1.00  0.00    -0.000 C 
BRANCH  24  25
ATOM     25  C   UNL     1     -11.958  40.652 -11.729  1.00  0.00    -0.000 C 
BRANCH  25  26
ATOM     26  C   UNL     1     -11.173  41.751 -10.995  1.00  0.00    -0.000 C 
BRANCH  26  27
ATOM     27  C   UNL     1     -10.291  41.200  -9.863  1.00  0.00    -0.000 C 
BRANCH  27  28
ATOM     28  C   UNL     1     -10.487  42.002  -8.572  1.00  0.00    -0.000 C 
BRANCH  28  29
ATOM     29  C   UNL     1     -11.080  41.120  -7.463  1.00  0.00    -0.000 C 
BRANCH  29  30
ATOM     30  C   UNL     1     -12.513  41.527  -7.070  1.00  0.00    -0.000 C 
BRANCH  30  31
ATOM     31  C   UNL     1     -12.702  41.882  -5.585  1.00  0.00    -0.003 C 
ATOM     32  C   UNL     1     -11.482  42.570  -4.971  1.00  0.00     0.004 C 
ENDBRANCH  30  31
ENDBRANCH  29  30
ENDBRANCH  28  29
ENDBRANCH  27  28
ENDBRANCH  26  27
ENDBRANCH  25  26
ENDBRANCH  24  25
ENDBRANCH  23  24
ENDBRANCH  22  23
ENDBRANCH  21  22
ENDBRANCH  20  21
ENDBRANCH  19  20
ENDBRANCH  18  19
ENDBRANCH   1  18
TORSDOF 28
ENDMDL
MODEL 4
REMARK VINA RESULT:    27.900      1.238      1.953
REMARK INTER + INTRA:          72.990
REMARK INTER:                  74.323
REMARK INTRA:                  -1.333
REMARK UNBOUND:                -0.579
REMARK SMILES CCCCCCCCCCCCCCCCCCCCCCCCCCCCCC(=O)[O-]
REMARK SMILES IDX 16 1 17 2 18 3 19 4 20 5 21 6 22 7 23 8 24 9 25 10 26 11
REMARK SMILES IDX 27 12 28 13 29 14 30 15 31 16 32 17 15 18 14 19 13 20 12 21
REMARK SMILES IDX 11 22 10 23 9 24 8 25 7 26 6 27 5 28 4 29 3 30 2 31 1 32
REMARK H PARENT
REMARK Flexibility Score: inf
ROOT
ATOM      1  C   UNL     1     -13.260  35.404 -11.450  1.00  0.00     0.000 C 
ENDROOT
BRANCH   1   2
ATOM      2  C   UNL     1     -13.811  34.097 -12.052  1.00  0.00     0.000 C 
BRANCH   2   3
ATOM      3  C   UNL     1     -14.885  33.443 -11.168  1.00  0.00     0.000 C 
BRANCH   3   4
ATOM      4  C   UNL     1     -14.462  33.352  -9.691  1.00  0.00     0.000 C 
BRANCH   4   5
ATOM      5  C   UNL     1     -14.266  31.897  -9.233  1.00  0.00     0.000 C 
BRANCH   5   6
ATOM      6  C   UNL     1     -12.821  31.405  -9.430  1.00  0.00     0.000 C 
BRANCH   6   7
ATOM      7  C   UNL     1     -12.260  30.714  -8.178  1.00  0.00     0.000 C 
BRANCH   7   8
ATOM      8  C   UNL     1     -11.496  29.420  -8.518  1.00  0.00     0.000 C 
BRANCH   8   9
ATOM      9  C   UNL     1     -10.127  29.336  -7.819  1.00  0.00     0.000 C 
BRANCH   9  10
ATOM     10  C   UNL     1      -9.819  30.497  -6.854  1.00  0.00     0.000 C 
BRANCH  10  11
ATOM     11  C   UNL     1      -8.405  31.094  -7.033  1.00  0.00     0.000 C 
BRANCH  11  12
ATOM     12  C   UNL     1      -8.058  31.330  -8.513  1.00  0.00     0.000 C 
BRANCH  12  13
ATOM     13  C   UNL     1      -7.494  32.734  -8.776  1.00  0.00     0.006 C 
BRANCH  13  14
ATOM     14  C   UNL     1      -6.259  32.716  -9.686  1.00  0.00     0.053 C 
BRANCH  14  15
ATOM     15  C   UNL     1      -6.619  33.170 -11.067  1.00  0.00     0.041 C 
ATOM     16  O   UNL     1      -6.015  32.696 -12.067  1.00  0.00    -0.550 OA
ATOM     17  O   UNL     1      -7.596  34.140 -11.251  1.00  0.00    -0.550 OA
ENDBRANCH  14  15
ENDBRANCH  13  14
ENDBRANCH  12  13
ENDBRANCH  11  12
ENDBRANCH  10  11
ENDBRANCH   9  10
ENDBRANCH   8   9
ENDBRANCH   7   8
ENDBRANCH   6   7
ENDBRANCH   5   6
ENDBRANCH   4   5
ENDBRANCH   3   4
ENDBRANCH   2   3
ENDBRANCH   1   2
BRANCH   1  18
ATOM     18  C   UNL     1     -12.263  36.110 -12.382  1.00  0.00     0.000 C 
BRANCH  18  19
ATOM     19  C   UNL     1     -12.914  37.224 -13.219  1.00  0.00     0.000 C 
BRANCH  19  20
ATOM     20  C   UNL     1     -12.091  38.524 -13.235  1.00  0.00     0.000 C 
BRANCH  20  21
ATOM     21  C   UNL     1     -12.945  39.807 -13.305  1.00  0.00     0.000 C 
BRANCH  21  22
ATOM     22  C   UNL     1     -12.474  40.880 -12.309  1.00  0.00     0.000 C 
BRANCH  22  23
ATOM     23  C   UNL     1     -11.294  40.417 -11.439  1.00  0.00     0.000 C 
BRANCH  23  24
ATOM     24  C   UNL     1     -10.870  41.442 -10.365  1.00  0.00    -0.000 C 
BRANCH  24  25
ATOM     25  C   UNL     1     -10.245  40.779  -9.123  1.00  0.00    -0.000 C 
BRANCH  25  26
ATOM     26  C   UNL     1     -10.618  41.502  -7.818  1.00  0.00    -0.000 C 
BRANCH  26  27
ATOM     27  C   UNL     1     -12.005  42.160  -7.878  1.00  0.00    -0.000 C 
BRANCH  27  28
ATOM     28  C   UNL     1     -12.901  41.660  -6.739  1.00  0.00    -0.000 C 
BRANCH  28  29
ATOM     29  C   UNL     1     -12.092  41.469  -5.447  1.00  0.00    -0.000 C 
BRANCH  29  30
ATOM     30  C   UNL     1     -11.222  42.690  -5.095  1.00  0.00    -0.000 C 
BRANCH  30  31
ATOM     31  C   UNL     1     -11.491  43.299  -3.707  1.00  0.00    -0.003 C 
ATOM     32  C   UNL     1     -10.514  44.416  -3.340  1.00  0.00     0.004 C 
ENDBRANCH  30  31
ENDBRANCH  29  30
ENDBRANCH  28  29
ENDBRANCH  27  28
ENDBRANCH  26  27
ENDBRANCH  25  26
ENDBRANCH  24  25
ENDBRANCH  23  24
ENDBRANCH  22  23
ENDBRANCH  21  22
ENDBRANCH  20  21
ENDBRANCH  19  20
ENDBRANCH  18  19
ENDBRANCH   1  18
TORSDOF 28
ENDMDL
MODEL 5
REMARK VINA RESULT:    28.456      3.130     10.074
REMARK INTER + INTRA:          74.456
REMARK INTER:                  75.063
REMARK INTRA:                  -0.607
REMARK UNBOUND:                -0.579
REMARK SMILES CCCCCCCCCCCCCCCCCCCCCCCCCCCCCC(=O)[O-]
REMARK SMILES IDX 16 1 17 2 18 3 19 4 20 5 21 6 22 7 23 8 24 9 25 10 26 11
REMARK SMILES IDX 27 12 28 13 29 14 30 15 31 16 32 17 15 18 14 19 13 20 12 21
REMARK SMILES IDX 11 22 10 23 9 24 8 25 7 26 6 27 5 28 4 29 3 30 2 31 1 32
REMARK H PARENT
REMARK Flexibility Score: inf
ROOT
ATOM      1  C   UNL     1     -14.107  34.979 -11.184  1.00  0.00     0.000 C 
ENDROOT
BRANCH   1   2
ATOM      2  C   UNL     1     -13.537  35.343 -12.569  1.00  0.00     0.000 C 
BRANCH   2   3
ATOM      3  C   UNL     1     -12.627  36.581 -12.530  1.00  0.00     0.000 C 
BRANCH   3   4
ATOM      4  C   UNL     1     -12.669  37.390 -13.838  1.00  0.00     0.000 C 
BRANCH   4   5
ATOM      5  C   UNL     1     -11.513  38.399 -13.934  1.00  0.00     0.000 C 
BRANCH   5   6
ATOM      6  C   UNL     1     -11.460  39.353 -12.727  1.00  0.00     0.000 C 
BRANCH   6   7
ATOM      7  C   UNL     1     -12.797  40.071 -12.487  1.00  0.00     0.000 C 
BRANCH   7   8
ATOM      8  C   UNL     1     -12.642  41.604 -12.470  1.00  0.00     0.000 C 
BRANCH   8   9
ATOM      9  C   UNL     1     -11.233  42.055 -12.050  1.00  0.00     0.000 C 
BRANCH   9  10
ATOM     10  C   UNL     1     -10.545  41.149 -11.010  1.00  0.00     0.000 C 
BRANCH  10  11
ATOM     11  C   UNL     1     -11.171  41.237  -9.600  1.00  0.00     0.000 C 
BRANCH  11  12
ATOM     12  C   UNL     1     -10.218  41.885  -8.581  1.00  0.00     0.000 C 
BRANCH  12  13
ATOM     13  C   UNL     1     -10.587  41.557  -7.127  1.00  0.00     0.006 C 
BRANCH  13  14
ATOM     14  C   UNL     1     -11.661  42.495  -6.562  1.00  0.00     0.053 C 
BRANCH  14  15
ATOM     15  C   UNL     1     -12.954  41.762  -6.379  1.00  0.00     0.041 C 
ATOM     16  O   UNL     1     -13.186  41.145  -5.305  1.00  0.00    -0.550 OA
ATOM     17  O   UNL     1     -13.889  41.730  -7.406  1.00  0.00    -0.550 OA
ENDBRANCH  14  15
ENDBRANCH  13  14
ENDBRANCH  12  13
ENDBRANCH  11  12
ENDBRANCH  10  11
ENDBRANCH   9  10
ENDBRANCH   8   9
ENDBRANCH   7   8
ENDBRANCH   6   7
ENDBRANCH   5   6
ENDBRANCH   4   5
ENDBRANCH   3   4
ENDBRANCH   2   3
ENDBRANCH   1   2
BRANCH   1  18
ATOM     18  C   UNL     1     -13.659  33.590 -10.706  1.00  0.00     0.000 C 
BRANCH  18  19
ATOM     19  C   UNL     1     -14.798  32.783 -10.062  1.00  0.00     0.000 C 
BRANCH  19  20
ATOM     20  C   UNL     1     -14.298  31.747  -9.039  1.00  0.00     0.000 C 
BRANCH  20  21
ATOM     21  C   UNL     1     -12.793  31.428  -9.153  1.00  0.00     0.000 C 
BRANCH  21  22
ATOM     22  C   UNL     1     -12.240  30.753  -7.886  1.00  0.00     0.000 C 
BRANCH  22  23
ATOM     23  C   UNL     1     -11.355  29.533  -8.191  1.00  0.00     0.000 C 
BRANCH  23  24
ATOM     24  C   UNL     1     -10.258  29.278  -7.136  1.00  0.00    -0.000 C 
BRANCH  24  25
ATOM     25  C   UNL     1      -9.460  30.548  -6.788  1.00  0.00    -0.000 C 
BRANCH  25  26
ATOM     26  C   UNL     1      -8.166  30.675  -7.609  1.00  0.00    -0.000 C 
BRANCH  26  27
ATOM     27  C   UNL     1      -8.359  31.479  -8.904  1.00  0.00    -0.000 C 
BRANCH  27  28
ATOM     28  C   UNL     1      -7.649  32.835  -8.821  1.00  0.00    -0.000 C 
BRANCH  28  29
ATOM     29  C   UNL     1      -6.160  32.697  -9.173  1.00  0.00    -0.000 C 
BRANCH  29  30
ATOM     30  C   UNL     1      -5.813  33.267 -10.562  1.00  0.00    -0.000 C 
BRANCH  30  31
ATOM     31  C   UNL     1      -7.020  33.484 -11.493  1.00  0.00    -0.003 C 
ATOM     32  C   UNL     1      -6.894  32.742 -12.824  1.00  0.00     0.004 C 
ENDBRANCH  30  31
ENDBRANCH  29  30
ENDBRANCH  28  29
ENDBRANCH  27  28
ENDBRANCH  26  27
ENDBRANCH  25  26
ENDBRANCH  24  25
ENDBRANCH  23  24
ENDBRANCH  22  23
ENDBRANCH  21  22
ENDBRANCH  20  21
ENDBRANCH  19  20
ENDBRANCH  18  19
ENDBRANCH   1  18
TORSDOF 28
ENDMDL
MODEL 6
REMARK VINA RESULT:    28.588      2.608      9.830
REMARK INTER + INTRA:          74.803
REMARK INTER:                  75.359
REMARK INTRA:                  -0.556
REMARK UNBOUND:                -0.579
REMARK SMILES CCCCCCCCCCCCCCCCCCCCCCCCCCCCCC(=O)[O-]
REMARK SMILES IDX 16 1 17 2 18 3 19 4 20 5 21 6 22 7 23 8 24 9 25 10 26 11
REMARK SMILES IDX 27 12 28 13 29 14 30 15 31 16 32 17 15 18 14 19 13 20 12 21
REMARK SMILES IDX 11 22 10 23 9 24 8 25 7 26 6 27 5 28 4 29 3 30 2 31 1 32
REMARK H PARENT
REMARK Flexibility Score: inf
ROOT
ATOM      1  C   UNL     1     -14.293  33.832 -11.672  1.00  0.00     0.000 C 
ENDROOT
BRANCH   1   2
ATOM      2  C   UNL     1     -14.244  35.349 -11.937  1.00  0.00     0.000 C 
BRANCH   2   3
ATOM      3  C   UNL     1     -12.823  35.854 -12.238  1.00  0.00     0.000 C 
BRANCH   3   4
ATOM      4  C   UNL     1     -12.785  37.356 -12.569  1.00  0.00     0.000 C 
BRANCH   4   5
ATOM      5  C   UNL     1     -11.894  37.660 -13.785  1.00  0.00     0.000 C 
BRANCH   5   6
ATOM      6  C   UNL     1     -11.343  39.097 -13.769  1.00  0.00     0.000 C 
BRANCH   6   7
ATOM      7  C   UNL     1     -11.183  39.649 -12.343  1.00  0.00     0.000 C 
BRANCH   7   8
ATOM      8  C   UNL     1     -11.722  41.085 -12.209  1.00  0.00     0.000 C 
BRANCH   8   9
ATOM      9  C   UNL     1     -12.135  41.434 -10.768  1.00  0.00     0.000 C 
BRANCH   9  10
ATOM     10  C   UNL     1     -11.210  40.868  -9.673  1.00  0.00     0.000 C 
BRANCH  10  11
ATOM     11  C   UNL     1     -11.942  40.535  -8.354  1.00  0.00     0.000 C 
BRANCH  11  12
ATOM     12  C   UNL     1     -12.383  41.801  -7.599  1.00  0.00     0.000 C 
BRANCH  12  13
ATOM     13  C   UNL     1     -11.355  42.263  -6.556  1.00  0.00     0.006 C 
BRANCH  13  14
ATOM     14  C   UNL     1     -10.073  41.421  -6.574  1.00  0.00     0.053 C 
BRANCH  14  15
ATOM     15  C   UNL     1      -9.059  42.031  -7.493  1.00  0.00     0.041 C 
ATOM     16  O   UNL     1      -9.368  43.019  -8.212  1.00  0.00    -0.550 OA
ATOM     17  O   UNL     1      -7.783  41.489  -7.581  1.00  0.00    -0.550 OA
ENDBRANCH  14  15
ENDBRANCH  13  14
ENDBRANCH  12  13
ENDBRANCH  11  12
ENDBRANCH  10  11
ENDBRANCH   9  10
ENDBRANCH   8   9
ENDBRANCH   7   8
ENDBRANCH   6   7
ENDBRANCH   5   6
ENDBRANCH   4   5
ENDBRANCH   3   4
ENDBRANCH   2   3
ENDBRANCH   1   2
BRANCH   1  18
ATOM     18  C   UNL     1     -14.327  33.493 -10.174  1.00  0.00     0.000 C 
BRANCH  18  19
ATOM     19  C   UNL     1     -14.917  32.103  -9.889  1.00  0.00     0.000 C 
BRANCH  19  20
ATOM     20  C   UNL     1     -14.354  31.460  -8.609  1.00  0.00     0.000 C 
BRANCH  20  21
ATOM     21  C   UNL     1     -12.813  31.435  -8.545  1.00  0.00     0.000 C 
BRANCH  21  22
ATOM     22  C   UNL     1     -12.277  30.189  -7.820  1.00  0.00     0.000 C 
BRANCH  22  23
ATOM     23  C   UNL     1     -11.256  29.398  -8.655  1.00  0.00     0.000 C 
BRANCH  23  24
ATOM     24  C   UNL     1     -10.314  28.512  -7.813  1.00  0.00    -0.000 C 
BRANCH  24  25
ATOM     25  C   UNL     1      -9.688  29.266  -6.626  1.00  0.00    -0.000 C 
BRANCH  25  26
ATOM     26  C   UNL     1      -9.488  30.763  -6.917  1.00  0.00    -0.000 C 
BRANCH  26  27
ATOM     27  C   UNL     1      -8.011  31.139  -7.115  1.00  0.00    -0.000 C 
BRANCH  27  28
ATOM     28  C   UNL     1      -7.683  31.314  -8.602  1.00  0.00    -0.000 C 
BRANCH  28  29
ATOM     29  C   UNL     1      -7.523  32.801  -8.956  1.00  0.00    -0.000 C 
BRANCH  29  30
ATOM     30  C   UNL     1      -6.292  33.081  -9.840  1.00  0.00    -0.000 C 
BRANCH  30  31
ATOM     31  C   UNL     1      -6.582  33.892 -11.116  1.00  0.00    -0.003 C 
ATOM     32  C   UNL     1      -6.736  33.018 -12.362  1.00  0.00     0.004 C 
ENDBRANCH  30  31
ENDBRANCH  29  30
ENDBRANCH  28  29
ENDBRANCH  27  28
ENDBRANCH  26  27
ENDBRANCH  25  26
ENDBRANCH  24  25
ENDBRANCH  23  24
ENDBRANCH  22  23
ENDBRANCH  21  22
ENDBRANCH  20  21
ENDBRANCH  19  20
ENDBRANCH  18  19
ENDBRANCH   1  18
TORSDOF 28
ENDMDL
MODEL 7
REMARK VINA RESULT:    28.731      3.231      9.987
REMARK INTER + INTRA:          75.181
REMARK INTER:                  76.070
REMARK INTRA:                  -0.889
REMARK UNBOUND:                -0.579
REMARK SMILES CCCCCCCCCCCCCCCCCCCCCCCCCCCCCC(=O)[O-]
REMARK SMILES IDX 16 1 17 2 18 3 19 4 20 5 21 6 22 7 23 8 24 9 25 10 26 11
REMARK SMILES IDX 27 12 28 13 29 14 30 15 31 16 32 17 15 18 14 19 13 20 12 21
REMARK SMILES IDX 11 22 10 23 9 24 8 25 7 26 6 27 5 28 4 29 3 30 2 31 1 32
REMARK H PARENT
REMARK Flexibility Score: inf
ROOT
ATOM      1  C   UNL     1     -13.963  32.410 -10.190  1.00  0.00     0.000 C 
ENDROOT
BRANCH   1   2
ATOM      2  C   UNL     1     -14.933  33.521 -10.634  1.00  0.00     0.000 C 
BRANCH   2   3
ATOM      3  C   UNL     1     -14.252  34.895 -10.743  1.00  0.00     0.000 C 
BRANCH   3   4
ATOM      4  C   UNL     1     -13.399  35.034 -12.016  1.00  0.00     0.000 C 
BRANCH   4   5
ATOM      5  C   UNL     1     -12.770  36.432 -12.143  1.00  0.00     0.000 C 
BRANCH   5   6
ATOM      6  C   UNL     1     -12.626  36.884 -13.608  1.00  0.00     0.000 C 
BRANCH   6   7
ATOM      7  C   UNL     1     -12.565  38.413 -13.747  1.00  0.00     0.000 C 
BRANCH   7   8
ATOM      8  C   UNL     1     -11.378  39.023 -12.977  1.00  0.00     0.000 C 
BRANCH   8   9
ATOM      9  C   UNL     1     -11.761  40.298 -12.206  1.00  0.00     0.000 C 
BRANCH   9  10
ATOM     10  C   UNL     1     -10.648  40.871 -11.307  1.00  0.00     0.000 C 
BRANCH  10  11
ATOM     11  C   UNL     1     -11.147  41.336  -9.921  1.00  0.00     0.000 C 
BRANCH  11  12
ATOM     12  C   UNL     1     -10.009  41.410  -8.888  1.00  0.00     0.000 C 
BRANCH  12  13
ATOM     13  C   UNL     1     -10.510  41.720  -7.470  1.00  0.00     0.006 C 
BRANCH  13  14
ATOM     14  C   UNL     1     -12.041  41.748  -7.375  1.00  0.00     0.053 C 
BRANCH  14  15
ATOM     15  C   UNL     1     -12.476  41.845  -5.945  1.00  0.00     0.041 C 
ATOM     16  O   UNL     1     -13.561  41.322  -5.576  1.00  0.00    -0.550 OA
ATOM     17  O   UNL     1     -11.701  42.540  -5.026  1.00  0.00    -0.550 OA
ENDBRANCH  14  15
ENDBRANCH  13  14
ENDBRANCH  12  13
ENDBRANCH  11  12
ENDBRANCH  10  11
ENDBRANCH   9  10
ENDBRANCH   8   9
ENDBRANCH   7   8
ENDBRANCH   6   7
ENDBRANCH   5   6
ENDBRANCH   4   5
ENDBRANCH   3   4
ENDBRANCH   2   3
ENDBRANCH   1   2
BRANCH   1  18
ATOM     18  C   UNL     1     -14.312  31.837  -8.807  1.00  0.00     0.000 C 
BRANCH  18  19
ATOM     19  C   UNL     1     -13.111  31.170  -8.116  1.00  0.00     0.000 C 
BRANCH  19  20
ATOM     20  C   UNL     1     -12.018  30.726  -9.104  1.00  0.00     0.000 C 
BRANCH  20  21
ATOM     21  C   UNL     1     -11.430  29.331  -8.804  1.00  0.00     0.000 C 
BRANCH  21  22
ATOM     22  C   UNL     1     -12.049  28.693  -7.549  1.00  0.00     0.000 C 
BRANCH  22  23
ATOM     23  C   UNL     1     -11.288  29.040  -6.259  1.00  0.00     0.000 C 
BRANCH  23  24
ATOM     24  C   UNL     1     -10.332  30.244  -6.402  1.00  0.00    -0.000 C 
BRANCH  24  25
ATOM     25  C   UNL     1      -8.929  29.836  -6.888  1.00  0.00    -0.000 C 
BRANCH  25  26
ATOM     26  C   UNL     1      -7.881  30.936  -6.655  1.00  0.00    -0.000 C 
BRANCH  26  27
ATOM     27  C   UNL     1      -8.036  32.121  -7.622  1.00  0.00    -0.000 C 
BRANCH  27  28
ATOM     28  C   UNL     1      -7.058  32.004  -8.796  1.00  0.00    -0.000 C 
BRANCH  28  29
ATOM     29  C   UNL     1      -7.246  33.166  -9.784  1.00  0.00    -0.000 C 
BRANCH  29  30
ATOM     30  C   UNL     1      -5.946  33.550 -10.518  1.00  0.00    -0.000 C 
BRANCH  30  31
ATOM     31  C   UNL     1      -6.057  33.590 -12.052  1.00  0.00    -0.003 C 
ATOM     32  C   UNL     1      -7.275  32.837 -12.588  1.00  0.00     0.004 C 
ENDBRANCH  30  31
ENDBRANCH  29  30
ENDBRANCH  28  29
ENDBRANCH  27  28
ENDBRANCH  26  27
ENDBRANCH  25  26
ENDBRANCH  24  25
ENDBRANCH  23  24
ENDBRANCH  22  23
ENDBRANCH  21  22
ENDBRANCH  20  21
ENDBRANCH  19  20
ENDBRANCH  18  19
ENDBRANCH   1  18
TORSDOF 28
ENDMDL
MODEL 8
REMARK VINA RESULT:    28.930      2.511      9.933
REMARK INTER + INTRA:          75.706
REMARK INTER:                  76.816
REMARK INTRA:                  -1.110
REMARK UNBOUND:                -0.579
REMARK SMILES CCCCCCCCCCCCCCCCCCCCCCCCCCCCCC(=O)[O-]
REMARK SMILES IDX 16 1 17 2 18 3 19 4 20 5 21 6 22 7 23 8 24 9 25 10 26 11
REMARK SMILES IDX 27 12 28 13 29 14 30 15 31 16 32 17 15 18 14 19 13 20 12 21
REMARK SMILES IDX 11 22 10 23 9 24 8 25 7 26 6 27 5 28 4 29 3 30 2 31 1 32
REMARK H PARENT
REMARK Flexibility Score: inf
ROOT
ATOM      1  C   UNL     1     -12.941  36.915 -12.360  1.00  0.00     0.000 C 
ENDROOT
BRANCH   1   2
ATOM      2  C   UNL     1     -12.919  37.543 -13.767  1.00  0.00     0.000 C 
BRANCH   2   3
ATOM      3  C   UNL     1     -11.528  38.061 -14.165  1.00  0.00     0.000 C 
BRANCH   3   4
ATOM      4  C   UNL     1     -10.615  38.302 -12.950  1.00  0.00     0.000 C 
BRANCH   4   5
ATOM      5  C   UNL     1     -10.517  39.793 -12.585  1.00  0.00     0.000 C 
BRANCH   5   6
ATOM      6  C   UNL     1     -11.877  40.510 -12.659  1.00  0.00     0.000 C 
BRANCH   6   7
ATOM      7  C   UNL     1     -11.740  42.039 -12.589  1.00  0.00     0.000 C 
BRANCH   7   8
ATOM      8  C   UNL     1     -11.986  42.583 -11.169  1.00  0.00     0.000 C 
BRANCH   8   9
ATOM      9  C   UNL     1     -12.889  41.665 -10.328  1.00  0.00     0.000 C 
BRANCH   9  10
ATOM     10  C   UNL     1     -12.326  41.294  -8.942  1.00  0.00     0.000 C 
BRANCH  10  11
ATOM     11  C   UNL     1     -13.276  41.640  -7.773  1.00  0.00     0.000 C 
BRANCH  11  12
ATOM     12  C   UNL     1     -12.601  41.457  -6.403  1.00  0.00     0.000 C 
BRANCH  12  13
ATOM     13  C   UNL     1     -11.253  42.187  -6.299  1.00  0.00     0.006 C 
BRANCH  13  14
ATOM     14  C   UNL     1     -10.055  41.249  -6.495  1.00  0.00     0.053 C 
BRANCH  14  15
ATOM     15  C   UNL     1      -9.185  41.736  -7.613  1.00  0.00     0.041 C 
ATOM     16  O   UNL     1      -9.672  42.452  -8.529  1.00  0.00    -0.550 OA
ATOM     17  O   UNL     1      -7.846  41.373  -7.663  1.00  0.00    -0.550 OA
ENDBRANCH  14  15
ENDBRANCH  13  14
ENDBRANCH  12  13
ENDBRANCH  11  12
ENDBRANCH  10  11
ENDBRANCH   9  10
ENDBRANCH   8   9
ENDBRANCH   7   8
ENDBRANCH   6   7
ENDBRANCH   5   6
ENDBRANCH   4   5
ENDBRANCH   3   4
ENDBRANCH   2   3
ENDBRANCH   1   2
BRANCH   1  18
ATOM     18  C   UNL     1     -13.084  35.386 -12.396  1.00  0.00     0.000 C 
BRANCH  18  19
ATOM     19  C   UNL     1     -14.218  34.871 -11.495  1.00  0.00     0.000 C 
BRANCH  19  20
ATOM     20  C   UNL     1     -14.046  33.395 -11.094  1.00  0.00     0.000 C 
BRANCH  20  21
ATOM     21  C   UNL     1     -14.621  33.051  -9.704  1.00  0.00     0.000 C 
BRANCH  21  22
ATOM     22  C   UNL     1     -14.219  31.642  -9.237  1.00  0.00     0.000 C 
BRANCH  22  23
ATOM     23  C   UNL     1     -12.799  31.583  -8.650  1.00  0.00     0.000 C 
BRANCH  23  24
ATOM     24  C   UNL     1     -12.240  30.152  -8.509  1.00  0.00    -0.000 C 
BRANCH  24  25
ATOM     25  C   UNL     1     -12.230  29.656  -7.051  1.00  0.00    -0.000 C 
BRANCH  25  26
ATOM     26  C   UNL     1     -10.813  29.593  -6.459  1.00  0.00    -0.000 C 
BRANCH  26  27
ATOM     27  C   UNL     1      -9.722  29.478  -7.535  1.00  0.00    -0.000 C 
BRANCH  27  28
ATOM     28  C   UNL     1      -8.407  30.101  -7.054  1.00  0.00    -0.000 C 
BRANCH  28  29
ATOM     29  C   UNL     1      -8.291  31.563  -7.514  1.00  0.00    -0.000 C 
BRANCH  29  30
ATOM     30  C   UNL     1      -7.689  31.705  -8.925  1.00  0.00    -0.000 C 
BRANCH  30  31
ATOM     31  C   UNL     1      -7.256  33.133  -9.304  1.00  0.00    -0.003 C 
ATOM     32  C   UNL     1      -5.886  33.186  -9.981  1.00  0.00     0.004 C 
ENDBRANCH  30  31
ENDBRANCH  29  30
ENDBRANCH  28  29
ENDBRANCH  27  28
ENDBRANCH  26  27
ENDBRANCH  25  26
ENDBRANCH  24  25
ENDBRANCH  23  24
ENDBRANCH  22  23
ENDBRANCH  21  22
ENDBRANCH  20  21
ENDBRANCH  19  20
ENDBRANCH  18  19
ENDBRANCH   1  18
TORSDOF 28
ENDMDL
MODEL 9
REMARK VINA RESULT:    29.119      0.875      1.745
REMARK INTER + INTRA:          76.203
REMARK INTER:                  75.742
REMARK INTRA:                   0.461
REMARK UNBOUND:                -0.579
REMARK SMILES CCCCCCCCCCCCCCCCCCCCCCCCCCCCCC(=O)[O-]
REMARK SMILES IDX 16 1 17 2 18 3 19 4 20 5 21 6 22 7 23 8 24 9 25 10 26 11
REMARK SMILES IDX 27 12 28 13 29 14 30 15 31 16 32 17 15 18 14 19 13 20 12 21
REMARK SMILES IDX 11 22 10 23 9 24 8 25 7 26 6 27 5 28 4 29 3 30 2 31 1 32
REMARK H PARENT
REMARK Flexibility Score: inf
ROOT
ATOM      1  C   UNL     1     -14.213  35.473 -11.568  1.00  0.00     0.000 C 
ENDROOT
BRANCH   1   2
ATOM      2  C   UNL     1     -14.834  34.097 -11.877  1.00  0.00     0.000 C 
BRANCH   2   3
ATOM      3  C   UNL     1     -14.162  32.954 -11.101  1.00  0.00     0.000 C 
BRANCH   3   4
ATOM      4  C   UNL     1     -14.609  32.893  -9.630  1.00  0.00     0.000 C 
BRANCH   4   5
ATOM      5  C   UNL     1     -14.438  31.487  -9.029  1.00  0.00     0.000 C 
BRANCH   5   6
ATOM      6  C   UNL     1     -13.021  31.251  -8.476  1.00  0.00     0.000 C 
BRANCH   6   7
ATOM      7  C   UNL     1     -13.032  30.503  -7.134  1.00  0.00     0.000 C 
BRANCH   7   8
ATOM      8  C   UNL     1     -11.611  30.228  -6.606  1.00  0.00     0.000 C 
BRANCH   8   9
ATOM      9  C   UNL     1     -10.773  29.370  -7.571  1.00  0.00     0.000 C 
BRANCH   9  10
ATOM     10  C   UNL     1      -9.354  29.035  -7.074  1.00  0.00     0.000 C 
BRANCH  10  11
ATOM     11  C   UNL     1      -8.407  30.255  -7.031  1.00  0.00     0.000 C 
BRANCH  11  12
ATOM     12  C   UNL     1      -8.515  31.119  -8.299  1.00  0.00     0.000 C 
BRANCH  12  13
ATOM     13  C   UNL     1      -7.407  32.178  -8.396  1.00  0.00     0.006 C 
BRANCH  13  14
ATOM     14  C   UNL     1      -7.646  33.184  -9.529  1.00  0.00     0.053 C 
BRANCH  14  15
ATOM     15  C   UNL     1      -6.510  33.152 -10.506  1.00  0.00     0.041 C 
ATOM     16  O   UNL     1      -6.718  33.386 -11.726  1.00  0.00    -0.550 OA
ATOM     17  O   UNL     1      -5.230  32.830 -10.076  1.00  0.00    -0.550 OA
ENDBRANCH  14  15
ENDBRANCH  13  14
ENDBRANCH  12  13
ENDBRANCH  11  12
ENDBRANCH  10  11
ENDBRANCH   9  10
ENDBRANCH   8   9
ENDBRANCH   7   8
ENDBRANCH   6   7
ENDBRANCH   5   6
ENDBRANCH   4   5
ENDBRANCH   3   4
ENDBRANCH   2   3
ENDBRANCH   1   2
BRANCH   1  18
ATOM     18  C   UNL     1     -12.816  35.644 -12.185  1.00  0.00     0.000 C 
BRANCH  18  19
ATOM     19  C   UNL     1     -12.807  36.602 -13.388  1.00  0.00     0.000 C 
BRANCH  19  20
ATOM     20  C   UNL     1     -11.770  37.730 -13.251  1.00  0.00     0.000 C 
BRANCH  20  21
ATOM     21  C   UNL     1     -12.326  39.135 -13.566  1.00  0.00     0.000 C 
BRANCH  21  22
ATOM     22  C   UNL     1     -11.394  40.256 -13.078  1.00  0.00     0.000 C 
BRANCH  22  23
ATOM     23  C   UNL     1     -11.134  40.207 -11.563  1.00  0.00     0.000 C 
BRANCH  23  24
ATOM     24  C   UNL     1     -11.399  41.544 -10.840  1.00  0.00    -0.000 C 
BRANCH  24  25
ATOM     25  C   UNL     1     -12.549  41.452  -9.820  1.00  0.00    -0.000 C 
BRANCH  25  26
ATOM     26  C   UNL     1     -12.063  41.595  -8.368  1.00  0.00    -0.000 C 
BRANCH  26  27
ATOM     27  C   UNL     1     -13.211  41.556  -7.348  1.00  0.00    -0.000 C 
BRANCH  27  28
ATOM     28  C   UNL     1     -12.681  41.688  -5.916  1.00  0.00    -0.000 C 
BRANCH  28  29
ATOM     29  C   UNL     1     -11.227  42.186  -5.914  1.00  0.00    -0.000 C 
BRANCH  29  30
ATOM     30  C   UNL     1     -10.256  41.217  -6.614  1.00  0.00    -0.000 C 
BRANCH  30  31
ATOM     31  C   UNL     1      -9.408  41.845  -7.734  1.00  0.00    -0.003 C 
ATOM     32  C   UNL     1      -7.904  41.652  -7.531  1.00  0.00     0.004 C 
ENDBRANCH  30  31
ENDBRANCH  29  30
ENDBRANCH  28  29
ENDBRANCH  27  28
ENDBRANCH  26  27
ENDBRANCH  25  26
ENDBRANCH  24  25
ENDBRANCH  23  24
ENDBRANCH  22  23
ENDBRANCH  21  22
ENDBRANCH  20  21
ENDBRANCH  19  20
ENDBRANCH  18  19
ENDBRANCH   1  18
TORSDOF 28
ENDMDL
