MODEL 1
REMARK VINA RESULT:    -0.484      0.000      0.000
REMARK INTER + INTRA:          -1.050
REMARK INTER:                  -0.768
REMARK INTRA:                  -0.283
REMARK UNBOUND:                -0.283
REMARK SMILES CCCCCCCCCCCC(=O)[O-]
REMARK SMILES IDX 7 1 8 2 9 3 10 4 11 5 12 6 13 7 14 8 6 9 5 10 4 11 3 12 2 13
REMARK SMILES IDX 1 14
REMARK H PARENT
REMARK Flexibility Score: inf
ROOT
ATOM      1  C   UNL     1      87.898  82.653  19.382  1.00  0.00     0.000 C 
ENDROOT
BRANCH   1   2
ATOM      2  C   UNL     1      86.853  81.711  20.000  1.00  0.00     0.000 C 
BRANCH   2   3
ATOM      3  C   UNL     1      85.437  82.304  19.978  1.00  0.00     0.000 C 
BRANCH   3   4
ATOM      4  C   UNL     1      84.377  81.197  20.064  1.00  0.00     0.006 C 
BRANCH   4   5
ATOM      5  C   UNL     1      82.958  81.730  19.819  1.00  0.00     0.053 C 
BRANCH   5   6
ATOM      6  C   UNL     1      82.922  82.720  18.696  1.00  0.00     0.041 C 
ATOM      7  O   UNL     1      82.964  82.324  17.501  1.00  0.00    -0.550 OA
ATOM      8  O   UNL     1      82.875  84.082  18.968  1.00  0.00    -0.550 OA
ENDBRANCH   5   6
ENDBRANCH   4   5
ENDBRANCH   3   4
ENDBRANCH   2   3
ENDBRANCH   1   2
BRANCH   1   9
ATOM      9  C   UNL     1      89.267  82.554  20.075  1.00  0.00     0.000 C 
BRANCH   9  10
ATOM     10  C   UNL     1      90.101  81.358  19.583  1.00  0.00    -0.000 C 
BRANCH  10  11
ATOM     11  C   UNL     1      89.746  80.907  18.150  1.00  0.00    -0.000 C 
BRANCH  11  12
ATOM     12  C   UNL     1      90.913  81.107  17.172  1.00  0.00    -0.000 C 
BRANCH  12  13
ATOM     13  C   UNL     1      90.464  80.875  15.725  1.00  0.00    -0.003 C 
ATOM     14  C   UNL     1      91.580  81.209  14.740  1.00  0.00     0.004 C 
ENDBRANCH  12  13
ENDBRANCH  11  12
ENDBRANCH  10  11
ENDBRANCH   9  10
ENDBRANCH   1   9
TORSDOF 10
ENDMDL
