MODEL 1
REMARK VINA RESULT:    -3.977      0.000      0.000
REMARK INTER + INTRA:          -7.301
REMARK INTER:                  -6.302
REMARK INTRA:                  -1.000
REMARK UNBOUND:                -1.000
REMARK SMILES CCCCCCCCCCCC(=O)[O-]
REMARK SMILES IDX 7 1 8 2 9 3 10 4 11 5 12 6 13 7 14 8 6 9 5 10 4 11 3 12 2 13
REMARK SMILES IDX 1 14
REMARK H PARENT
REMARK Flexibility Score: inf
ROOT
ATOM      1  C   UNL     1      10.258  15.342  24.414  1.00  0.00     0.000 C 
ENDROOT
BRANCH   1   2
ATOM      2  C   UNL     1      10.127  13.849  24.064  1.00  0.00     0.000 C 
BRANCH   2   3
ATOM      3  C   UNL     1      10.664  13.457  22.675  1.00  0.00     0.000 C 
BRANCH   3   4
ATOM      4  C   UNL     1      11.143  14.667  21.856  1.00  0.00     0.006 C 
BRANCH   4   5
ATOM      5  C   UNL     1      10.191  14.996  20.698  1.00  0.00     0.053 C 
BRANCH   5   6
ATOM      6  C   UNL     1      10.796  14.670  19.367  1.00  0.00     0.041 C 
ATOM      7  O   UNL     1      10.870  13.474  18.981  1.00  0.00    -0.550 OA
ATOM      8  O   UNL     1      11.305  15.685  18.566  1.00  0.00    -0.550 OA
ENDBRANCH   5   6
ENDBRANCH   4   5
ENDBRANCH   3   4
ENDBRANCH   2   3
ENDBRANCH   1   2
BRANCH   1   9
ATOM      9  C   UNL     1       9.434  15.741  25.652  1.00  0.00     0.000 C 
BRANCH   9  10
ATOM     10  C   UNL     1       8.968  17.204  25.602  1.00  0.00    -0.000 C 
BRANCH  10  11
ATOM     11  C   UNL     1       9.787  18.049  24.609  1.00  0.00    -0.000 C 
BRANCH  11  12
ATOM     12  C   UNL     1       9.026  18.325  23.302  1.00  0.00    -0.000 C 
BRANCH  12  13
ATOM     13  C   UNL     1       9.967  18.573  22.115  1.00  0.00    -0.003 C 
ATOM     14  C   UNL     1      11.420  18.308  22.501  1.00  0.00     0.004 C 
ENDBRANCH  12  13
ENDBRANCH  11  12
ENDBRANCH  10  11
ENDBRANCH   9  10
ENDBRANCH   1   9
TORSDOF 10
ENDMDL
MODEL 2
REMARK VINA RESULT:    -3.937      1.381      3.553
REMARK INTER + INTRA:          -7.238
REMARK INTER:                  -6.074
REMARK INTRA:                  -1.164
REMARK UNBOUND:                -1.000
REMARK SMILES CCCCCCCCCCCC(=O)[O-]
REMARK SMILES IDX 7 1 8 2 9 3 10 4 11 5 12 6 13 7 14 8 6 9 5 10 4 11 3 12 2 13
REMARK SMILES IDX 1 14
REMARK H PARENT
REMARK Flexibility Score: inf
ROOT
ATOM      1  C   UNL     1      11.191  15.890  23.766  1.00  0.00     0.000 C 
ENDROOT
BRANCH   1   2
ATOM      2  C   UNL     1      10.951  17.188  22.974  1.00  0.00     0.000 C 
BRANCH   2   3
ATOM      3  C   UNL     1      10.186  17.010  21.650  1.00  0.00     0.000 C 
BRANCH   3   4
ATOM      4  C   UNL     1       9.762  15.554  21.395  1.00  0.00     0.006 C 
BRANCH   4   5
ATOM      5  C   UNL     1       9.441  15.295  19.916  1.00  0.00     0.053 C 
BRANCH   5   6
ATOM      6  C   UNL     1      10.645  14.835  19.155  1.00  0.00     0.041 C 
ATOM      7  O   UNL     1      11.382  15.672  18.568  1.00  0.00    -0.550 OA
ATOM      8  O   UNL     1      10.940  13.481  19.069  1.00  0.00    -0.550 OA
ENDBRANCH   5   6
ENDBRANCH   4   5
ENDBRANCH   3   4
ENDBRANCH   2   3
ENDBRANCH   1   2
BRANCH   1   9
ATOM      9  C   UNL     1      10.473  15.878  25.127  1.00  0.00     0.000 C 
BRANCH   9  10
ATOM     10  C   UNL     1       8.943  15.872  24.985  1.00  0.00    -0.000 C 
BRANCH  10  11
ATOM     11  C   UNL     1       8.391  14.482  24.616  1.00  0.00    -0.000 C 
BRANCH  11  12
ATOM     12  C   UNL     1       9.093  13.348  25.380  1.00  0.00    -0.000 C 
BRANCH  12  13
ATOM     13  C   UNL     1       9.260  12.081  24.530  1.00  0.00    -0.003 C 
ATOM     14  C   UNL     1      10.025  12.381  23.243  1.00  0.00     0.004 C 
ENDBRANCH  12  13
ENDBRANCH  11  12
ENDBRANCH  10  11
ENDBRANCH   9  10
ENDBRANCH   1   9
TORSDOF 10
ENDMDL
MODEL 3
REMARK VINA RESULT:    -3.919      4.270      6.844
REMARK INTER + INTRA:          -7.210
REMARK INTER:                  -6.645
REMARK INTRA:                  -0.565
REMARK UNBOUND:                -1.000
REMARK SMILES CCCCCCCCCCCC(=O)[O-]
REMARK SMILES IDX 7 1 8 2 9 3 10 4 11 5 12 6 13 7 14 8 6 9 5 10 4 11 3 12 2 13
REMARK SMILES IDX 1 14
REMARK H PARENT
REMARK Flexibility Score: inf
ROOT
ATOM      1  C   UNL     1       8.600  11.351  24.946  1.00  0.00     0.000 C 
ENDROOT
BRANCH   1   2
ATOM      2  C   UNL     1       8.610  12.156  23.634  1.00  0.00     0.000 C 
BRANCH   2   3
ATOM      3  C   UNL     1       9.968  12.785  23.269  1.00  0.00     0.000 C 
BRANCH   3   4
ATOM      4  C   UNL     1      10.158  12.958  21.753  1.00  0.00     0.006 C 
BRANCH   4   5
ATOM      5  C   UNL     1      10.619  14.376  21.385  1.00  0.00     0.053 C 
BRANCH   5   6
ATOM      6  C   UNL     1      10.158  14.775  20.018  1.00  0.00     0.041 C 
ATOM      7  O   UNL     1      10.821  14.438  19.001  1.00  0.00    -0.550 OA
ATOM      8  O   UNL     1       9.011  15.545  19.865  1.00  0.00    -0.550 OA
ENDBRANCH   5   6
ENDBRANCH   4   5
ENDBRANCH   3   4
ENDBRANCH   2   3
ENDBRANCH   1   2
BRANCH   1   9
ATOM      9  C   UNL     1       9.726  10.305  25.015  1.00  0.00     0.000 C 
BRANCH   9  10
ATOM     10  C   UNL     1       9.215   8.874  24.789  1.00  0.00    -0.000 C 
BRANCH  10  11
ATOM     11  C   UNL     1       8.329   8.375  25.945  1.00  0.00    -0.000 C 
BRANCH  11  12
ATOM     12  C   UNL     1       9.030   7.314  26.810  1.00  0.00    -0.000 C 
BRANCH  12  13
ATOM     13  C   UNL     1       9.090   7.709  28.292  1.00  0.00    -0.003 C 
ATOM     14  C   UNL     1       8.569   9.129  28.503  1.00  0.00     0.004 C 
ENDBRANCH  12  13
ENDBRANCH  11  12
ENDBRANCH  10  11
ENDBRANCH   9  10
ENDBRANCH   1   9
TORSDOF 10
ENDMDL
MODEL 4
REMARK VINA RESULT:    -3.814      2.488      5.080
REMARK INTER + INTRA:          -7.043
REMARK INTER:                  -6.240
REMARK INTRA:                  -0.803
REMARK UNBOUND:                -1.000
REMARK SMILES CCCCCCCCCCCC(=O)[O-]
REMARK SMILES IDX 7 1 8 2 9 3 10 4 11 5 12 6 13 7 14 8 6 9 5 10 4 11 3 12 2 13
REMARK SMILES IDX 1 14
REMARK H PARENT
REMARK Flexibility Score: inf
ROOT
ATOM      1  C   UNL     1       9.590  14.398  24.560  1.00  0.00     0.000 C 
ENDROOT
BRANCH   1   2
ATOM      2  C   UNL     1      10.079  15.717  23.933  1.00  0.00     0.000 C 
BRANCH   2   3
ATOM      3  C   UNL     1      11.036  15.553  22.737  1.00  0.00     0.000 C 
BRANCH   3   4
ATOM      4  C   UNL     1      10.504  16.206  21.451  1.00  0.00     0.006 C 
BRANCH   4   5
ATOM      5  C   UNL     1       9.629  15.246  20.633  1.00  0.00     0.053 C 
BRANCH   5   6
ATOM      6  C   UNL     1      10.413  14.550  19.564  1.00  0.00     0.041 C 
ATOM      7  O   UNL     1      10.456  13.291  19.527  1.00  0.00    -0.550 OA
ATOM      8  O   UNL     1      11.121  15.290  18.625  1.00  0.00    -0.550 OA
ENDBRANCH   5   6
ENDBRANCH   4   5
ENDBRANCH   3   4
ENDBRANCH   2   3
ENDBRANCH   1   2
BRANCH   1   9
ATOM      9  C   UNL     1      10.238  13.157  23.923  1.00  0.00     0.000 C 
BRANCH   9  10
ATOM     10  C   UNL     1       9.221  12.276  23.182  1.00  0.00    -0.000 C 
BRANCH  10  11
ATOM     11  C   UNL     1       8.064  11.821  24.090  1.00  0.00    -0.000 C 
BRANCH  11  12
ATOM     12  C   UNL     1       8.039  10.298  24.295  1.00  0.00    -0.000 C 
BRANCH  12  13
ATOM     13  C   UNL     1       9.136   9.814  25.254  1.00  0.00    -0.003 C 
ATOM     14  C   UNL     1       8.560   8.893  26.327  1.00  0.00     0.004 C 
ENDBRANCH  12  13
ENDBRANCH  11  12
ENDBRANCH  10  11
ENDBRANCH   9  10
ENDBRANCH   1   9
TORSDOF 10
ENDMDL
MODEL 5
REMARK VINA RESULT:    -3.705      3.219      4.669
REMARK INTER + INTRA:          -6.871
REMARK INTER:                  -5.442
REMARK INTRA:                  -1.429
REMARK UNBOUND:                -1.000
REMARK SMILES CCCCCCCCCCCC(=O)[O-]
REMARK SMILES IDX 7 1 8 2 9 3 10 4 11 5 12 6 13 7 14 8 6 9 5 10 4 11 3 12 2 13
REMARK SMILES IDX 1 14
REMARK H PARENT
REMARK Flexibility Score: inf
ROOT
ATOM      1  C   UNL     1       8.532  16.298  23.851  1.00  0.00     0.000 C 
ENDROOT
BRANCH   1   2
ATOM      2  C   UNL     1       8.004  15.134  24.710  1.00  0.00     0.000 C 
BRANCH   2   3
ATOM      3  C   UNL     1       8.132  13.741  24.066  1.00  0.00     0.000 C 
BRANCH   3   4
ATOM      4  C   UNL     1       9.393  12.986  24.518  1.00  0.00     0.006 C 
BRANCH   4   5
ATOM      5  C   UNL     1       9.675  11.755  23.644  1.00  0.00     0.053 C 
BRANCH   5   6
ATOM      6  C   UNL     1       9.768  10.502  24.459  1.00  0.00     0.041 C 
ATOM      7  O   UNL     1       9.803   9.378  23.891  1.00  0.00    -0.550 OA
ATOM      8  O   UNL     1       9.786  10.572  25.846  1.00  0.00    -0.550 OA
ENDBRANCH   5   6
ENDBRANCH   4   5
ENDBRANCH   3   4
ENDBRANCH   2   3
ENDBRANCH   1   2
BRANCH   1   9
ATOM      9  C   UNL     1       9.851  16.884  24.384  1.00  0.00     0.000 C 
BRANCH   9  10
ATOM     10  C   UNL     1      11.082  16.313  23.664  1.00  0.00    -0.000 C 
BRANCH  10  11
ATOM     11  C   UNL     1      10.827  16.066  22.166  1.00  0.00    -0.000 C 
BRANCH  11  12
ATOM     12  C   UNL     1      11.166  14.629  21.739  1.00  0.00    -0.000 C 
BRANCH  12  13
ATOM     13  C   UNL     1      10.198  14.085  20.679  1.00  0.00    -0.003 C 
ATOM     14  C   UNL     1       9.453  15.222  19.982  1.00  0.00     0.004 C 
ENDBRANCH  12  13
ENDBRANCH  11  12
ENDBRANCH  10  11
ENDBRANCH   9  10
ENDBRANCH   1   9
TORSDOF 10
ENDMDL
MODEL 6
REMARK VINA RESULT:    -3.670      2.395      4.562
REMARK INTER + INTRA:          -6.815
REMARK INTER:                  -5.705
REMARK INTRA:                  -1.111
REMARK UNBOUND:                -1.000
REMARK SMILES CCCCCCCCCCCC(=O)[O-]
REMARK SMILES IDX 7 1 8 2 9 3 10 4 11 5 12 6 13 7 14 8 6 9 5 10 4 11 3 12 2 13
REMARK SMILES IDX 1 14
REMARK H PARENT
REMARK Flexibility Score: inf
ROOT
ATOM      1  C   UNL     1       8.994  14.909  25.486  1.00  0.00     0.000 C 
ENDROOT
BRANCH   1   2
ATOM      2  C   UNL     1      10.005  16.063  25.355  1.00  0.00     0.000 C 
BRANCH   2   3
ATOM      3  C   UNL     1       9.399  17.414  24.929  1.00  0.00     0.000 C 
BRANCH   3   4
ATOM      4  C   UNL     1       9.259  17.553  23.404  1.00  0.00     0.006 C 
BRANCH   4   5
ATOM      5  C   UNL     1       9.596  18.970  22.919  1.00  0.00     0.053 C 
BRANCH   5   6
ATOM      6  C   UNL     1      11.059  19.268  23.038  1.00  0.00     0.041 C 
ATOM      7  O   UNL     1      11.908  18.358  22.847  1.00  0.00    -0.550 OA
ATOM      8  O   UNL     1      11.484  20.543  23.388  1.00  0.00    -0.550 OA
ENDBRANCH   5   6
ENDBRANCH   4   5
ENDBRANCH   3   4
ENDBRANCH   2   3
ENDBRANCH   1   2
BRANCH   1   9
ATOM      9  C   UNL     1       9.455  13.627  24.772  1.00  0.00     0.000 C 
BRANCH   9  10
ATOM     10  C   UNL     1       9.382  13.746  23.242  1.00  0.00    -0.000 C 
BRANCH  10  11
ATOM     11  C   UNL     1      10.753  13.546  22.570  1.00  0.00    -0.000 C 
BRANCH  11  12
ATOM     12  C   UNL     1      11.318  14.849  21.983  1.00  0.00    -0.000 C 
BRANCH  12  13
ATOM     13  C   UNL     1      10.486  15.373  20.804  1.00  0.00    -0.003 C 
ATOM     14  C   UNL     1      10.795  14.596  19.526  1.00  0.00     0.004 C 
ENDBRANCH  12  13
ENDBRANCH  11  12
ENDBRANCH  10  11
ENDBRANCH   9  10
ENDBRANCH   1   9
TORSDOF 10
ENDMDL
MODEL 7
REMARK VINA RESULT:    -3.573     10.873     12.397
REMARK INTER + INTRA:          -6.662
REMARK INTER:                  -6.114
REMARK INTRA:                  -0.547
REMARK UNBOUND:                -1.000
REMARK SMILES CCCCCCCCCCCC(=O)[O-]
REMARK SMILES IDX 7 1 8 2 9 3 10 4 11 5 12 6 13 7 14 8 6 9 5 10 4 11 3 12 2 13
REMARK SMILES IDX 1 14
REMARK H PARENT
REMARK Flexibility Score: inf
ROOT
ATOM      1  C   UNL     1      21.036  18.248  26.631  1.00  0.00     0.000 C 
ENDROOT
BRANCH   1   2
ATOM      2  C   UNL     1      20.267  19.564  26.848  1.00  0.00     0.000 C 
BRANCH   2   3
ATOM      3  C   UNL     1      18.747  19.405  27.034  1.00  0.00     0.000 C 
BRANCH   3   4
ATOM      4  C   UNL     1      18.310  17.937  27.170  1.00  0.00     0.006 C 
BRANCH   4   5
ATOM      5  C   UNL     1      17.375  17.719  28.368  1.00  0.00     0.053 C 
BRANCH   5   6
ATOM      6  C   UNL     1      15.960  17.487  27.936  1.00  0.00     0.041 C 
ATOM      7  O   UNL     1      15.014  18.079  28.521  1.00  0.00    -0.550 OA
ATOM      8  O   UNL     1      15.682  16.597  26.907  1.00  0.00    -0.550 OA
ENDBRANCH   5   6
ENDBRANCH   4   5
ENDBRANCH   3   4
ENDBRANCH   2   3
ENDBRANCH   1   2
BRANCH   1   9
ATOM      9  C   UNL     1      22.073  18.342  25.498  1.00  0.00     0.000 C 
BRANCH   9  10
ATOM     10  C   UNL     1      22.706  19.738  25.394  1.00  0.00    -0.000 C 
BRANCH  10  11
ATOM     11  C   UNL     1      23.152  20.077  23.959  1.00  0.00    -0.000 C 
BRANCH  11  12
ATOM     12  C   UNL     1      23.866  18.902  23.271  1.00  0.00    -0.000 C 
BRANCH  12  13
ATOM     13  C   UNL     1      25.360  18.836  23.617  1.00  0.00    -0.003 C 
ATOM     14  C   UNL     1      26.116  20.015  23.010  1.00  0.00     0.004 C 
ENDBRANCH  12  13
ENDBRANCH  11  12
ENDBRANCH  10  11
ENDBRANCH   9  10
ENDBRANCH   1   9
TORSDOF 10
ENDMDL
MODEL 8
REMARK VINA RESULT:    -3.530     10.879     11.971
REMARK INTER + INTRA:          -6.593
REMARK INTER:                  -5.556
REMARK INTRA:                  -1.037
REMARK UNBOUND:                -1.000
REMARK SMILES CCCCCCCCCCCC(=O)[O-]
REMARK SMILES IDX 7 1 8 2 9 3 10 4 11 5 12 6 13 7 14 8 6 9 5 10 4 11 3 12 2 13
REMARK SMILES IDX 1 14
REMARK H PARENT
REMARK Flexibility Score: inf
ROOT
ATOM      1  C   UNL     1      21.735  18.627  28.480  1.00  0.00     0.000 C 
ENDROOT
BRANCH   1   2
ATOM      2  C   UNL     1      22.057  17.458  27.531  1.00  0.00     0.000 C 
BRANCH   2   3
ATOM      3  C   UNL     1      21.605  17.661  26.073  1.00  0.00     0.000 C 
BRANCH   3   4
ATOM      4  C   UNL     1      21.837  19.096  25.569  1.00  0.00     0.006 C 
BRANCH   4   5
ATOM      5  C   UNL     1      23.274  19.310  25.074  1.00  0.00     0.053 C 
BRANCH   5   6
ATOM      6  C   UNL     1      23.324  19.560  23.598  1.00  0.00     0.041 C 
ATOM      7  O   UNL     1      23.573  18.615  22.803  1.00  0.00    -0.550 OA
ATOM      8  O   UNL     1      23.125  20.842  23.101  1.00  0.00    -0.550 OA
ENDBRANCH   5   6
ENDBRANCH   4   5
ENDBRANCH   3   4
ENDBRANCH   2   3
ENDBRANCH   1   2
BRANCH   1   9
ATOM      9  C   UNL     1      20.309  18.557  29.054  1.00  0.00     0.000 C 
BRANCH   9  10
ATOM     10  C   UNL     1      19.424  19.719  28.578  1.00  0.00    -0.000 C 
BRANCH  10  11
ATOM     11  C   UNL     1      18.428  19.290  27.485  1.00  0.00    -0.000 C 
BRANCH  11  12
ATOM     12  C   UNL     1      18.134  17.782  27.513  1.00  0.00    -0.000 C 
BRANCH  12  13
ATOM     13  C   UNL     1      16.690  17.471  27.932  1.00  0.00    -0.003 C 
ATOM     14  C   UNL     1      16.030  18.690  28.573  1.00  0.00     0.004 C 
ENDBRANCH  12  13
ENDBRANCH  11  12
ENDBRANCH  10  11
ENDBRANCH   9  10
ENDBRANCH   1   9
TORSDOF 10
ENDMDL
MODEL 9
REMARK VINA RESULT:    -3.460     15.686     17.031
REMARK INTER + INTRA:          -6.483
REMARK INTER:                  -5.419
REMARK INTRA:                  -1.063
REMARK UNBOUND:                -1.000
REMARK SMILES CCCCCCCCCCCC(=O)[O-]
REMARK SMILES IDX 7 1 8 2 9 3 10 4 11 5 12 6 13 7 14 8 6 9 5 10 4 11 3 12 2 13
REMARK SMILES IDX 1 14
REMARK H PARENT
REMARK Flexibility Score: inf
ROOT
ATOM      1  C   UNL     1      23.600   7.602  26.802  1.00  0.00     0.000 C 
ENDROOT
BRANCH   1   2
ATOM      2  C   UNL     1      23.377   6.091  26.603  1.00  0.00     0.000 C 
BRANCH   2   3
ATOM      3  C   UNL     1      24.117   5.187  27.606  1.00  0.00     0.000 C 
BRANCH   3   4
ATOM      4  C   UNL     1      23.175   4.535  28.632  1.00  0.00     0.006 C 
BRANCH   4   5
ATOM      5  C   UNL     1      22.723   5.526  29.714  1.00  0.00     0.053 C 
BRANCH   5   6
ATOM      6  C   UNL     1      21.763   4.900  30.677  1.00  0.00     0.041 C 
ATOM      7  O   UNL     1      21.691   3.646  30.776  1.00  0.00    -0.550 OA
ATOM      8  O   UNL     1      20.926   5.700  31.446  1.00  0.00    -0.550 OA
ENDBRANCH   5   6
ENDBRANCH   4   5
ENDBRANCH   3   4
ENDBRANCH   2   3
ENDBRANCH   1   2
BRANCH   1   9
ATOM      9  C   UNL     1      24.877   7.918  27.600  1.00  0.00     0.000 C 
BRANCH   9  10
ATOM     10  C   UNL     1      24.596   8.773  28.845  1.00  0.00    -0.000 C 
BRANCH  10  11
ATOM     11  C   UNL     1      23.190   9.399  28.825  1.00  0.00    -0.000 C 
BRANCH  11  12
ATOM     12  C   UNL     1      23.208  10.902  29.145  1.00  0.00    -0.000 C 
BRANCH  12  13
ATOM     13  C   UNL     1      22.964  11.773  27.904  1.00  0.00    -0.003 C 
ATOM     14  C   UNL     1      22.051  11.062  26.908  1.00  0.00     0.004 C 
ENDBRANCH  12  13
ENDBRANCH  11  12
ENDBRANCH  10  11
ENDBRANCH   9  10
ENDBRANCH   1   9
TORSDOF 10
ENDMDL
