MODEL 1
REMARK VINA RESULT:    -5.685      0.000      0.000
REMARK INTER + INTRA:          -9.646
REMARK INTER:                  -8.177
REMARK INTRA:                  -1.469
REMARK UNBOUND:                -1.469
REMARK SMILES O=c1c(O[C@H]2O[C@@H](CO)[C@@H](O)[C@H](O)[C@H]2O)c(-c2ccc(O)cc2)oc2cc(O)cc(O)c12
REMARK SMILES IDX 4 1 3 2 16 3 24 4 2 5 25 6 1 7 32 8 26 9 30 10 27 11 29 12
REMARK SMILES IDX 17 13 18 14 19 15 20 16 23 17 22 18 21 19 31 21 28 23 5 25
REMARK SMILES IDX 14 26 6 27 12 28 7 29 10 30 15 31 13 33 8 35 9 36 11 38
REMARK H PARENT 21 20 31 22 28 24 15 32 13 34 9 37 11 39
REMARK Flexibility Score: inf
ROOT
ATOM      1  O   UNL     1      -0.836 -17.582  -6.795  1.00  0.00    -0.454 OA
ENDROOT
BRANCH   1   2
ATOM      2  C   UNL     1       0.324 -17.753  -6.016  1.00  0.00     0.214 A 
ATOM      3  C   UNL     1       0.651 -16.760  -5.069  1.00  0.00     0.180 A 
ATOM      4  O   UNL     1       1.755 -16.871  -4.339  1.00  0.00    -0.452 OA
ATOM      5  C   UNL     1       1.188 -18.861  -6.148  1.00  0.00     0.239 A 
ATOM      6  C   UNL     1       2.593 -17.894  -4.433  1.00  0.00     0.146 A 
ATOM      7  O   UNL     1       0.920 -19.780  -6.967  1.00  0.00    -0.285 OA
ATOM      8  C   UNL     1       2.347 -18.943  -5.346  1.00  0.00     0.111 A 
ATOM      9  C   UNL     1       3.726 -17.921  -3.614  1.00  0.00     0.094 A 
ATOM     10  C   UNL     1       3.263 -20.022  -5.418  1.00  0.00     0.134 A 
ATOM     11  C   UNL     1       4.627 -18.988  -3.690  1.00  0.00     0.123 A 
ATOM     12  C   UNL     1       4.395 -20.031  -4.589  1.00  0.00     0.093 A 
BRANCH   3  13
ATOM     13  C   UNL     1      -0.181 -15.549  -4.887  1.00  0.00     0.021 A 
ATOM     14  C   UNL     1       0.108 -14.396  -5.636  1.00  0.00     0.016 A 
ATOM     15  C   UNL     1      -0.664 -13.240  -5.482  1.00  0.00     0.047 A 
ATOM     16  C   UNL     1      -1.723 -13.218  -4.568  1.00  0.00     0.115 A 
ATOM     17  C   UNL     1      -1.233 -15.513  -3.954  1.00  0.00     0.016 A 
ATOM     18  C   UNL     1      -2.003 -14.356  -3.802  1.00  0.00     0.047 A 
BRANCH  16  19
ATOM     19  O   UNL     1      -2.484 -12.060  -4.426  1.00  0.00    -0.508 OA
ATOM     20  H   UNL     1      -2.180 -11.176  -4.818  1.00  0.00     0.293 HD
ENDBRANCH  16  19
ENDBRANCH   3  13
BRANCH  10  21
ATOM     21  O   UNL     1       3.060 -21.081  -6.304  1.00  0.00    -0.507 OA
ATOM     22  H   UNL     1       2.200 -21.616  -6.306  1.00  0.00     0.293 HD
ENDBRANCH  10  21
BRANCH  11  23
ATOM     23  O   UNL     1       5.756 -19.022  -2.876  1.00  0.00    -0.508 OA
ATOM     24  H   UNL     1       5.811 -18.478  -2.023  1.00  0.00     0.293 HD
ENDBRANCH  11  23
ENDBRANCH   1   2
BRANCH   1  25
ATOM     25  C   UNL     1      -2.164 -17.976  -6.438  1.00  0.00     0.339 C 
ATOM     26  C   UNL     1      -2.660 -19.079  -7.391  1.00  0.00     0.214 C 
ATOM     27  O   UNL     1      -3.056 -16.869  -6.386  1.00  0.00    -0.332 OA
ATOM     28  C   UNL     1      -2.889 -18.506  -8.794  1.00  0.00     0.180 C 
ATOM     29  C   UNL     1      -3.327 -16.273  -7.649  1.00  0.00     0.179 C 
ATOM     30  C   UNL     1      -3.832 -17.300  -8.695  1.00  0.00     0.177 C 
BRANCH  26  31
ATOM     31  O   UNL     1      -1.716 -20.117  -7.458  1.00  0.00    -0.384 OA
ATOM     32  H   UNL     1      -1.607 -20.343  -8.419  1.00  0.00     0.211 HD
ENDBRANCH  26  31
BRANCH  28  33
ATOM     33  O   UNL     1      -3.474 -19.483  -9.616  1.00  0.00    -0.387 OA
ATOM     34  H   UNL     1      -4.230 -19.875  -9.106  1.00  0.00     0.211 HD
ENDBRANCH  28  33
BRANCH  29  35
ATOM     35  C   UNL     1      -2.164 -15.376  -8.127  1.00  0.00     0.191 C 
BRANCH  35  36
ATOM     36  O   UNL     1      -2.547 -14.025  -8.116  1.00  0.00    -0.394 OA
ATOM     37  H   UNL     1      -1.811 -13.511  -7.691  1.00  0.00     0.210 HD
ENDBRANCH  35  36
ENDBRANCH  29  35
BRANCH  30  38
ATOM     38  O   UNL     1      -3.975 -16.687  -9.950  1.00  0.00    -0.387 OA
ATOM     39  H   UNL     1      -3.247 -17.036 -10.529  1.00  0.00     0.211 HD
ENDBRANCH  30  38
ENDBRANCH   1  25
TORSDOF 11
ENDMDL
MODEL 2
REMARK VINA RESULT:    -5.562      2.975      5.995
REMARK INTER + INTRA:          -9.469
REMARK INTER:                  -8.603
REMARK INTRA:                  -0.866
REMARK UNBOUND:                -1.469
REMARK SMILES O=c1c(O[C@H]2O[C@@H](CO)[C@@H](O)[C@H](O)[C@H]2O)c(-c2ccc(O)cc2)oc2cc(O)cc(O)c12
REMARK SMILES IDX 4 1 3 2 16 3 24 4 2 5 25 6 1 7 32 8 26 9 30 10 27 11 29 12
REMARK SMILES IDX 17 13 18 14 19 15 20 16 23 17 22 18 21 19 31 21 28 23 5 25
REMARK SMILES IDX 14 26 6 27 12 28 7 29 10 30 15 31 13 33 8 35 9 36 11 38
REMARK H PARENT 21 20 31 22 28 24 15 32 13 34 9 37 11 39
REMARK Flexibility Score: inf
ROOT
ATOM      1  O   UNL     1       1.049 -19.125  -6.704  1.00  0.00    -0.454 OA
ENDROOT
BRANCH   1   2
ATOM      2  C   UNL     1       0.527 -19.936  -7.729  1.00  0.00     0.214 A 
ATOM      3  C   UNL     1      -0.475 -19.401  -8.565  1.00  0.00     0.180 A 
ATOM      4  O   UNL     1      -1.015 -20.147  -9.523  1.00  0.00    -0.452 OA
ATOM      5  C   UNL     1       0.945 -21.265  -7.954  1.00  0.00     0.239 A 
ATOM      6  C   UNL     1      -0.653 -21.399  -9.765  1.00  0.00     0.146 A 
ATOM      7  O   UNL     1       1.853 -21.772  -7.243  1.00  0.00    -0.285 OA
ATOM      8  C   UNL     1       0.351 -22.020  -8.988  1.00  0.00     0.111 A 
ATOM      9  C   UNL     1      -1.277 -22.098 -10.802  1.00  0.00     0.094 A 
ATOM     10  C   UNL     1       0.715 -23.359  -9.276  1.00  0.00     0.134 A 
ATOM     11  C   UNL     1      -0.915 -23.420 -11.081  1.00  0.00     0.123 A 
ATOM     12  C   UNL     1       0.075 -24.044 -10.320  1.00  0.00     0.093 A 
BRANCH   3  13
ATOM     13  C   UNL     1      -0.996 -18.027  -8.382  1.00  0.00     0.021 A 
ATOM     14  C   UNL     1      -2.380 -17.829  -8.239  1.00  0.00     0.016 A 
ATOM     15  C   UNL     1      -2.896 -16.541  -8.064  1.00  0.00     0.047 A 
ATOM     16  C   UNL     1      -2.038 -15.436  -8.043  1.00  0.00     0.115 A 
ATOM     17  C   UNL     1      -0.142 -16.911  -8.382  1.00  0.00     0.016 A 
ATOM     18  C   UNL     1      -0.659 -15.624  -8.206  1.00  0.00     0.047 A 
BRANCH  16  19
ATOM     19  O   UNL     1      -2.565 -14.159  -7.866  1.00  0.00    -0.508 OA
ATOM     20  H   UNL     1      -2.676 -13.520  -8.645  1.00  0.00     0.293 HD
ENDBRANCH  16  19
ENDBRANCH   3  13
BRANCH  10  21
ATOM     21  O   UNL     1       1.701 -24.011  -8.536  1.00  0.00    -0.507 OA
ATOM     22  H   UNL     1       1.469 -24.621  -7.761  1.00  0.00     0.293 HD
ENDBRANCH  10  21
BRANCH  11  23
ATOM     23  O   UNL     1      -1.531 -24.122 -12.114  1.00  0.00    -0.508 OA
ATOM     24  H   UNL     1      -1.792 -25.096 -12.010  1.00  0.00     0.293 HD
ENDBRANCH  11  23
ENDBRANCH   1   2
BRANCH   1  25
ATOM     25  C   UNL     1       1.055 -19.424  -5.305  1.00  0.00     0.339 C 
ATOM     26  C   UNL     1      -0.261 -18.954  -4.659  1.00  0.00     0.214 C 
ATOM     27  O   UNL     1       2.198 -18.889  -4.648  1.00  0.00    -0.332 OA
ATOM     28  C   UNL     1      -0.323 -17.422  -4.634  1.00  0.00     0.180 C 
ATOM     29  C   UNL     1       2.223 -17.468  -4.577  1.00  0.00     0.179 C 
ATOM     30  C   UNL     1       0.936 -16.882  -3.943  1.00  0.00     0.177 C 
BRANCH  26  31
ATOM     31  O   UNL     1      -1.357 -19.454  -5.382  1.00  0.00    -0.384 OA
ATOM     32  H   UNL     1      -2.101 -18.809  -5.259  1.00  0.00     0.211 HD
ENDBRANCH  26  31
BRANCH  28  33
ATOM     33  O   UNL     1      -1.457 -17.006  -3.918  1.00  0.00    -0.387 OA
ATOM     34  H   UNL     1      -2.219 -17.010  -4.555  1.00  0.00     0.211 HD
ENDBRANCH  28  33
BRANCH  29  35
ATOM     35  C   UNL     1       2.637 -16.829  -5.921  1.00  0.00     0.191 C 
BRANCH  35  36
ATOM     36  O   UNL     1       3.229 -15.574  -5.709  1.00  0.00    -0.394 OA
ATOM     37  H   UNL     1       4.081 -15.557  -6.219  1.00  0.00     0.210 HD
ENDBRANCH  35  36
ENDBRANCH  29  35
BRANCH  30  38
ATOM     38  O   UNL     1       0.960 -15.479  -4.000  1.00  0.00    -0.387 OA
ATOM     39  H   UNL     1       1.104 -15.228  -4.950  1.00  0.00     0.211 HD
ENDBRANCH  30  38
ENDBRANCH   1  25
TORSDOF 11
ENDMDL
MODEL 3
REMARK VINA RESULT:    -5.484      1.399      2.010
REMARK INTER + INTRA:          -9.357
REMARK INTER:                  -8.909
REMARK INTRA:                  -0.448
REMARK UNBOUND:                -1.469
REMARK SMILES O=c1c(O[C@H]2O[C@@H](CO)[C@@H](O)[C@H](O)[C@H]2O)c(-c2ccc(O)cc2)oc2cc(O)cc(O)c12
REMARK SMILES IDX 4 1 3 2 16 3 24 4 2 5 25 6 1 7 32 8 26 9 30 10 27 11 29 12
REMARK SMILES IDX 17 13 18 14 19 15 20 16 23 17 22 18 21 19 31 21 28 23 5 25
REMARK SMILES IDX 14 26 6 27 12 28 7 29 10 30 15 31 13 33 8 35 9 36 11 38
REMARK H PARENT 21 20 31 22 28 24 15 32 13 34 9 37 11 39
REMARK Flexibility Score: inf
ROOT
ATOM      1  O   UNL     1      -0.230 -18.440  -6.052  1.00  0.00    -0.454 OA
ENDROOT
BRANCH   1   2
ATOM      2  C   UNL     1       1.030 -18.419  -5.426  1.00  0.00     0.214 A 
ATOM      3  C   UNL     1       1.440 -17.235  -4.778  1.00  0.00     0.180 A 
ATOM      4  O   UNL     1       2.637 -17.167  -4.204  1.00  0.00    -0.452 OA
ATOM      5  C   UNL     1       1.913 -19.521  -5.427  1.00  0.00     0.239 A 
ATOM      6  C   UNL     1       3.496 -18.177  -4.185  1.00  0.00     0.146 A 
ATOM      7  O   UNL     1       1.575 -20.603  -5.975  1.00  0.00    -0.285 OA
ATOM      8  C   UNL     1       3.171 -19.408  -4.798  1.00  0.00     0.111 A 
ATOM      9  C   UNL     1       4.728 -18.008  -3.548  1.00  0.00     0.094 A 
ATOM     10  C   UNL     1       4.113 -20.467  -4.756  1.00  0.00     0.134 A 
ATOM     11  C   UNL     1       5.654 -19.055  -3.510  1.00  0.00     0.123 A 
ATOM     12  C   UNL     1       5.346 -20.277  -4.113  1.00  0.00     0.093 A 
BRANCH   3  13
ATOM     13  C   UNL     1       0.592 -16.022  -4.756  1.00  0.00     0.021 A 
ATOM     14  C   UNL     1       0.655 -15.117  -5.828  1.00  0.00     0.016 A 
ATOM     15  C   UNL     1      -0.137 -13.965  -5.830  1.00  0.00     0.047 A 
ATOM     16  C   UNL     1      -0.990 -13.696  -4.754  1.00  0.00     0.115 A 
ATOM     17  C   UNL     1      -0.251 -15.735  -3.668  1.00  0.00     0.016 A 
ATOM     18  C   UNL     1      -1.042 -14.583  -3.671  1.00  0.00     0.047 A 
BRANCH  16  19
ATOM     19  O   UNL     1      -1.774 -12.545  -4.769  1.00  0.00    -0.508 OA
ATOM     20  H   UNL     1      -2.741 -12.568  -5.071  1.00  0.00     0.293 HD
ENDBRANCH  16  19
ENDBRANCH   3  13
BRANCH  10  21
ATOM     21  O   UNL     1       3.836 -21.700  -5.346  1.00  0.00    -0.507 OA
ATOM     22  H   UNL     1       3.195 -21.786  -6.126  1.00  0.00     0.293 HD
ENDBRANCH  10  21
BRANCH  11  23
ATOM     23  O   UNL     1       6.883 -18.894  -2.876  1.00  0.00    -0.508 OA
ATOM     24  H   UNL     1       7.676 -19.485  -3.100  1.00  0.00     0.293 HD
ENDBRANCH  11  23
ENDBRANCH   1   2
BRANCH   1  25
ATOM     25  C   UNL     1      -0.510 -18.886  -7.382  1.00  0.00     0.339 C 
ATOM     26  C   UNL     1       0.324 -18.081  -8.395  1.00  0.00     0.214 C 
ATOM     27  O   UNL     1      -1.901 -18.846  -7.679  1.00  0.00    -0.332 OA
ATOM     28  C   UNL     1      -0.170 -16.632  -8.459  1.00  0.00     0.180 C 
ATOM     29  C   UNL     1      -2.447 -17.534  -7.759  1.00  0.00     0.179 C 
ATOM     30  C   UNL     1      -1.676 -16.629  -8.753  1.00  0.00     0.177 C 
BRANCH  26  31
ATOM     31  O   UNL     1       1.679 -18.097  -8.022  1.00  0.00    -0.384 OA
ATOM     32  H   UNL     1       2.208 -18.041  -8.860  1.00  0.00     0.211 HD
ENDBRANCH  26  31
BRANCH  28  33
ATOM     33  O   UNL     1       0.502 -15.946  -9.484  1.00  0.00    -0.387 OA
ATOM     34  H   UNL     1      -0.177 -15.403  -9.963  1.00  0.00     0.211 HD
ENDBRANCH  28  33
BRANCH  29  35
ATOM     35  C   UNL     1      -2.678 -16.918  -6.361  1.00  0.00     0.191 C 
BRANCH  35  36
ATOM     36  O   UNL     1      -3.565 -15.833  -6.442  1.00  0.00    -0.394 OA
ATOM     37  H   UNL     1      -3.021 -15.002  -6.422  1.00  0.00     0.210 HD
ENDBRANCH  35  36
ENDBRANCH  29  35
BRANCH  30  38
ATOM     38  O   UNL     1      -2.180 -15.319  -8.712  1.00  0.00    -0.387 OA
ATOM     39  H   UNL     1      -3.154 -15.387  -8.531  1.00  0.00     0.211 HD
ENDBRANCH  30  38
ENDBRANCH   1  25
TORSDOF 11
ENDMDL
MODEL 4
REMARK VINA RESULT:    -5.118      1.639      4.751
REMARK INTER + INTRA:          -8.831
REMARK INTER:                  -7.636
REMARK INTRA:                  -1.195
REMARK UNBOUND:                -1.469
REMARK SMILES O=c1c(O[C@H]2O[C@@H](CO)[C@@H](O)[C@H](O)[C@H]2O)c(-c2ccc(O)cc2)oc2cc(O)cc(O)c12
REMARK SMILES IDX 4 1 3 2 16 3 24 4 2 5 25 6 1 7 32 8 26 9 30 10 27 11 29 12
REMARK SMILES IDX 17 13 18 14 19 15 20 16 23 17 22 18 21 19 31 21 28 23 5 25
REMARK SMILES IDX 14 26 6 27 12 28 7 29 10 30 15 31 13 33 8 35 9 36 11 38
REMARK H PARENT 21 20 31 22 28 24 15 32 13 34 9 37 11 39
REMARK Flexibility Score: inf
ROOT
ATOM      1  O   UNL     1       0.469 -17.075  -6.290  1.00  0.00    -0.454 OA
ENDROOT
BRANCH   1   2
ATOM      2  C   UNL     1       1.307 -18.150  -5.941  1.00  0.00     0.214 A 
ATOM      3  C   UNL     1       0.932 -19.451  -6.334  1.00  0.00     0.180 A 
ATOM      4  O   UNL     1       1.682 -20.494  -5.994  1.00  0.00    -0.452 OA
ATOM      5  C   UNL     1       2.499 -17.993  -5.200  1.00  0.00     0.239 A 
ATOM      6  C   UNL     1       2.805 -20.390  -5.298  1.00  0.00     0.146 A 
ATOM      7  O   UNL     1       2.880 -16.845  -4.849  1.00  0.00    -0.285 OA
ATOM      8  C   UNL     1       3.269 -19.127  -4.867  1.00  0.00     0.111 A 
ATOM      9  C   UNL     1       3.527 -21.549  -4.997  1.00  0.00     0.094 A 
ATOM     10  C   UNL     1       4.476 -19.053  -4.127  1.00  0.00     0.134 A 
ATOM     11  C   UNL     1       4.716 -21.470  -4.265  1.00  0.00     0.123 A 
ATOM     12  C   UNL     1       5.185 -20.228  -3.833  1.00  0.00     0.093 A 
BRANCH   3  13
ATOM     13  C   UNL     1      -0.317 -19.712  -7.085  1.00  0.00     0.021 A 
ATOM     14  C   UNL     1      -1.545 -19.705  -6.403  1.00  0.00     0.016 A 
ATOM     15  C   UNL     1      -2.738 -19.947  -7.091  1.00  0.00     0.047 A 
ATOM     16  C   UNL     1      -2.717 -20.213  -8.464  1.00  0.00     0.115 A 
ATOM     17  C   UNL     1      -0.300 -20.001  -8.461  1.00  0.00     0.016 A 
ATOM     18  C   UNL     1      -1.494 -20.243  -9.147  1.00  0.00     0.047 A 
BRANCH  16  19
ATOM     19  O   UNL     1      -3.912 -20.452  -9.136  1.00  0.00    -0.508 OA
ATOM     20  H   UNL     1      -4.188 -21.388  -9.411  1.00  0.00     0.293 HD
ENDBRANCH  16  19
ENDBRANCH   3  13
BRANCH  10  21
ATOM     21  O   UNL     1       4.973 -17.828  -3.682  1.00  0.00    -0.507 OA
ATOM     22  H   UNL     1       5.367 -17.149  -4.322  1.00  0.00     0.293 HD
ENDBRANCH  10  21
BRANCH  11  23
ATOM     23  O   UNL     1       5.441 -22.620  -3.963  1.00  0.00    -0.508 OA
ATOM     24  H   UNL     1       5.924 -22.724  -3.077  1.00  0.00     0.293 HD
ENDBRANCH  11  23
ENDBRANCH   1   2
BRANCH   1  25
ATOM     25  C   UNL     1       0.881 -15.735  -6.577  1.00  0.00     0.339 C 
ATOM     26  C   UNL     1       0.254 -14.762  -5.562  1.00  0.00     0.214 C 
ATOM     27  O   UNL     1       0.599 -15.365  -7.922  1.00  0.00    -0.332 OA
ATOM     28  C   UNL     1      -1.259 -14.661  -5.787  1.00  0.00     0.180 C 
ATOM     29  C   UNL     1      -0.787 -15.246  -8.221  1.00  0.00     0.179 C 
ATOM     30  C   UNL     1      -1.523 -14.287  -7.251  1.00  0.00     0.177 C 
BRANCH  26  31
ATOM     31  O   UNL     1       0.504 -15.206  -4.253  1.00  0.00    -0.384 OA
ATOM     32  H   UNL     1       0.306 -16.179  -4.238  1.00  0.00     0.211 HD
ENDBRANCH  26  31
BRANCH  28  33
ATOM     33  O   UNL     1      -1.796 -13.668  -4.952  1.00  0.00    -0.387 OA
ATOM     34  H   UNL     1      -2.431 -13.139  -5.503  1.00  0.00     0.211 HD
ENDBRANCH  28  33
BRANCH  29  35
ATOM     35  C   UNL     1      -1.459 -16.624  -8.409  1.00  0.00     0.191 C 
BRANCH  35  36
ATOM     36  O   UNL     1      -2.654 -16.495  -9.133  1.00  0.00    -0.394 OA
ATOM     37  H   UNL     1      -2.885 -15.529  -9.156  1.00  0.00     0.210 HD
ENDBRANCH  35  36
ENDBRANCH  29  35
BRANCH  30  38
ATOM     38  O   UNL     1      -2.903 -14.291  -7.514  1.00  0.00    -0.387 OA
ATOM     39  H   UNL     1      -3.015 -14.515  -8.475  1.00  0.00     0.211 HD
ENDBRANCH  30  38
ENDBRANCH   1  25
TORSDOF 11
ENDMDL
MODEL 5
REMARK VINA RESULT:    -5.108      1.227      2.514
REMARK INTER + INTRA:          -8.816
REMARK INTER:                  -7.397
REMARK INTRA:                  -1.418
REMARK UNBOUND:                -1.469
REMARK SMILES O=c1c(O[C@H]2O[C@@H](CO)[C@@H](O)[C@H](O)[C@H]2O)c(-c2ccc(O)cc2)oc2cc(O)cc(O)c12
REMARK SMILES IDX 4 1 3 2 16 3 24 4 2 5 25 6 1 7 32 8 26 9 30 10 27 11 29 12
REMARK SMILES IDX 17 13 18 14 19 15 20 16 23 17 22 18 21 19 31 21 28 23 5 25
REMARK SMILES IDX 14 26 6 27 12 28 7 29 10 30 15 31 13 33 8 35 9 36 11 38
REMARK H PARENT 21 20 31 22 28 24 15 32 13 34 9 37 11 39
REMARK Flexibility Score: inf
ROOT
ATOM      1  O   UNL     1      -0.853 -18.388  -7.099  1.00  0.00    -0.454 OA
ENDROOT
BRANCH   1   2
ATOM      2  C   UNL     1       0.304 -18.459  -6.302  1.00  0.00     0.214 A 
ATOM      3  C   UNL     1       0.595 -17.382  -5.440  1.00  0.00     0.180 A 
ATOM      4  O   UNL     1       1.696 -17.399  -4.696  1.00  0.00    -0.452 OA
ATOM      5  C   UNL     1       1.200 -19.551  -6.333  1.00  0.00     0.239 A 
ATOM      6  C   UNL     1       2.563 -18.403  -4.698  1.00  0.00     0.146 A 
ATOM      7  O   UNL     1       0.963 -20.542  -7.073  1.00  0.00    -0.285 OA
ATOM      8  C   UNL     1       2.353 -19.532  -5.521  1.00  0.00     0.111 A 
ATOM      9  C   UNL     1       3.689 -18.329  -3.873  1.00  0.00     0.094 A 
ATOM     10  C   UNL     1       3.299 -20.587  -5.496  1.00  0.00     0.134 A 
ATOM     11  C   UNL     1       4.620 -19.372  -3.853  1.00  0.00     0.123 A 
ATOM     12  C   UNL     1       4.424 -20.493  -4.662  1.00  0.00     0.093 A 
BRANCH   3  13
ATOM     13  C   UNL     1      -0.270 -16.183  -5.366  1.00  0.00     0.021 A 
ATOM     14  C   UNL     1      -1.599 -16.319  -4.930  1.00  0.00     0.016 A 
ATOM     15  C   UNL     1      -2.436 -15.201  -4.850  1.00  0.00     0.047 A 
ATOM     16  C   UNL     1      -1.960 -13.938  -5.219  1.00  0.00     0.115 A 
ATOM     17  C   UNL     1       0.195 -14.915  -5.756  1.00  0.00     0.016 A 
ATOM     18  C   UNL     1      -0.643 -13.799  -5.676  1.00  0.00     0.047 A 
BRANCH  16  19
ATOM     19  O   UNL     1      -2.804 -12.834  -5.135  1.00  0.00    -0.508 OA
ATOM     20  H   UNL     1      -3.547 -12.787  -4.447  1.00  0.00     0.293 HD
ENDBRANCH  16  19
ENDBRANCH   3  13
BRANCH  10  21
ATOM     21  O   UNL     1       3.132 -21.722  -6.289  1.00  0.00    -0.507 OA
ATOM     22  H   UNL     1       2.984 -21.656  -7.289  1.00  0.00     0.293 HD
ENDBRANCH  10  21
BRANCH  11  23
ATOM     23  O   UNL     1       5.743 -19.306  -3.032  1.00  0.00    -0.508 OA
ATOM     24  H   UNL     1       5.886 -19.967  -2.277  1.00  0.00     0.293 HD
ENDBRANCH  11  23
ENDBRANCH   1   2
BRANCH   1  25
ATOM     25  C   UNL     1      -0.909 -18.477  -8.525  1.00  0.00     0.339 C 
ATOM     26  C   UNL     1      -1.781 -17.342  -9.091  1.00  0.00     0.214 C 
ATOM     27  O   UNL     1      -1.342 -19.759  -8.966  1.00  0.00    -0.332 OA
ATOM     28  C   UNL     1      -3.252 -17.568  -8.723  1.00  0.00     0.180 C 
ATOM     29  C   UNL     1      -2.702 -20.054  -8.666  1.00  0.00     0.179 C 
ATOM     30  C   UNL     1      -3.675 -18.967  -9.189  1.00  0.00     0.177 C 
BRANCH  26  31
ATOM     31  O   UNL     1      -1.355 -16.106  -8.577  1.00  0.00    -0.384 OA
ATOM     32  H   UNL     1      -0.373 -16.061  -8.716  1.00  0.00     0.211 HD
ENDBRANCH  26  31
BRANCH  28  33
ATOM     33  O   UNL     1      -4.053 -16.607  -9.362  1.00  0.00    -0.387 OA
ATOM     34  H   UNL     1      -3.764 -15.719  -9.024  1.00  0.00     0.211 HD
ENDBRANCH  28  33
BRANCH  29  35
ATOM     35  C   UNL     1      -2.896 -20.444  -7.184  1.00  0.00     0.191 C 
BRANCH  35  36
ATOM     36  O   UNL     1      -1.868 -21.300  -6.760  1.00  0.00    -0.394 OA
ATOM     37  H   UNL     1      -2.208 -22.231  -6.830  1.00  0.00     0.210 HD
ENDBRANCH  35  36
ENDBRANCH  29  35
BRANCH  30  38
ATOM     38  O   UNL     1      -4.987 -19.245  -8.771  1.00  0.00    -0.387 OA
ATOM     39  H   UNL     1      -5.283 -20.056  -9.261  1.00  0.00     0.211 HD
ENDBRANCH  30  38
ENDBRANCH   1  25
TORSDOF 11
ENDMDL
MODEL 6
REMARK VINA RESULT:    -5.104      1.738      4.941
REMARK INTER + INTRA:          -8.811
REMARK INTER:                  -7.192
REMARK INTRA:                  -1.619
REMARK UNBOUND:                -1.469
REMARK SMILES O=c1c(O[C@H]2O[C@@H](CO)[C@@H](O)[C@H](O)[C@H]2O)c(-c2ccc(O)cc2)oc2cc(O)cc(O)c12
REMARK SMILES IDX 4 1 3 2 16 3 24 4 2 5 25 6 1 7 32 8 26 9 30 10 27 11 29 12
REMARK SMILES IDX 17 13 18 14 19 15 20 16 23 17 22 18 21 19 31 21 28 23 5 25
REMARK SMILES IDX 14 26 6 27 12 28 7 29 10 30 15 31 13 33 8 35 9 36 11 38
REMARK H PARENT 21 20 31 22 28 24 15 32 13 34 9 37 11 39
REMARK Flexibility Score: inf
ROOT
ATOM      1  O   UNL     1      -0.266 -17.182  -6.212  1.00  0.00    -0.454 OA
ENDROOT
BRANCH   1   2
ATOM      2  C   UNL     1       0.306 -18.466  -6.270  1.00  0.00     0.214 A 
ATOM      3  C   UNL     1      -0.309 -19.441  -7.081  1.00  0.00     0.180 A 
ATOM      4  O   UNL     1       0.184 -20.674  -7.136  1.00  0.00    -0.452 OA
ATOM      5  C   UNL     1       1.459 -18.833  -5.542  1.00  0.00     0.239 A 
ATOM      6  C   UNL     1       1.262 -21.059  -6.467  1.00  0.00     0.146 A 
ATOM      7  O   UNL     1       2.051 -17.985  -4.823  1.00  0.00    -0.285 OA
ATOM      8  C   UNL     1       1.954 -20.151  -5.635  1.00  0.00     0.111 A 
ATOM      9  C   UNL     1       1.706 -22.378  -6.597  1.00  0.00     0.094 A 
ATOM     10  C   UNL     1       3.104 -20.597  -4.937  1.00  0.00     0.134 A 
ATOM     11  C   UNL     1       2.841 -22.813  -5.905  1.00  0.00     0.123 A 
ATOM     12  C   UNL     1       3.534 -21.925  -5.080  1.00  0.00     0.093 A 
BRANCH   3  13
ATOM     13  C   UNL     1      -1.539 -19.154  -7.853  1.00  0.00     0.021 A 
ATOM     14  C   UNL     1      -2.791 -19.446  -7.288  1.00  0.00     0.016 A 
ATOM     15  C   UNL     1      -3.968 -19.181  -7.997  1.00  0.00     0.047 A 
ATOM     16  C   UNL     1      -3.905 -18.637  -9.284  1.00  0.00     0.115 A 
ATOM     17  C   UNL     1      -1.483 -18.626  -9.155  1.00  0.00     0.016 A 
ATOM     18  C   UNL     1      -2.660 -18.363  -9.863  1.00  0.00     0.047 A 
BRANCH  16  19
ATOM     19  O   UNL     1      -5.084 -18.378  -9.979  1.00  0.00    -0.508 OA
ATOM     20  H   UNL     1      -5.651 -19.129 -10.357  1.00  0.00     0.293 HD
ENDBRANCH  16  19
ENDBRANCH   3  13
BRANCH  10  21
ATOM     21  O   UNL     1       3.820 -19.735  -4.106  1.00  0.00    -0.507 OA
ATOM     22  H   UNL     1       3.366 -18.987  -3.596  1.00  0.00     0.293 HD
ENDBRANCH  10  21
BRANCH  11  23
ATOM     23  O   UNL     1       3.290 -24.125  -6.031  1.00  0.00    -0.508 OA
ATOM     24  H   UNL     1       3.919 -24.537  -5.351  1.00  0.00     0.293 HD
ENDBRANCH  11  23
ENDBRANCH   1   2
BRANCH   1  25
ATOM     25  C   UNL     1       0.019 -16.084  -7.083  1.00  0.00     0.339 C 
ATOM     26  C   UNL     1       0.630 -14.920  -6.283  1.00  0.00     0.214 C 
ATOM     27  O   UNL     1      -1.123 -15.682  -7.830  1.00  0.00    -0.332 OA
ATOM     28  C   UNL     1      -0.424 -14.298  -5.360  1.00  0.00     0.180 C 
ATOM     29  C   UNL     1      -2.156 -15.091  -7.051  1.00  0.00     0.179 C 
ATOM     30  C   UNL     1      -1.649 -13.903  -6.195  1.00  0.00     0.177 C 
BRANCH  26  31
ATOM     31  O   UNL     1       1.711 -15.381  -5.513  1.00  0.00    -0.384 OA
ATOM     32  H   UNL     1       2.205 -16.034  -6.074  1.00  0.00     0.211 HD
ENDBRANCH  26  31
BRANCH  28  33
ATOM     33  O   UNL     1       0.103 -13.153  -4.742  1.00  0.00    -0.387 OA
ATOM     34  H   UNL     1      -0.396 -13.026  -3.893  1.00  0.00     0.211 HD
ENDBRANCH  28  33
BRANCH  29  35
ATOM     35  C   UNL     1      -2.975 -16.148  -6.278  1.00  0.00     0.191 C 
BRANCH  35  36
ATOM     36  O   UNL     1      -4.347 -15.866  -6.359  1.00  0.00    -0.394 OA
ATOM     37  H   UNL     1      -4.496 -15.356  -7.199  1.00  0.00     0.210 HD
ENDBRANCH  35  36
ENDBRANCH  29  35
BRANCH  30  38
ATOM     38  O   UNL     1      -2.675 -13.428  -5.362  1.00  0.00    -0.387 OA
ATOM     39  H   UNL     1      -3.428 -13.160  -5.952  1.00  0.00     0.211 HD
ENDBRANCH  30  38
ENDBRANCH   1  25
TORSDOF 11
ENDMDL
MODEL 7
REMARK VINA RESULT:    -5.053      2.138      5.086
REMARK INTER + INTRA:          -8.737
REMARK INTER:                  -7.152
REMARK INTRA:                  -1.584
REMARK UNBOUND:                -1.469
REMARK SMILES O=c1c(O[C@H]2O[C@@H](CO)[C@@H](O)[C@H](O)[C@H]2O)c(-c2ccc(O)cc2)oc2cc(O)cc(O)c12
REMARK SMILES IDX 4 1 3 2 16 3 24 4 2 5 25 6 1 7 32 8 26 9 30 10 27 11 29 12
REMARK SMILES IDX 17 13 18 14 19 15 20 16 23 17 22 18 21 19 31 21 28 23 5 25
REMARK SMILES IDX 14 26 6 27 12 28 7 29 10 30 15 31 13 33 8 35 9 36 11 38
REMARK H PARENT 21 20 31 22 28 24 15 32 13 34 9 37 11 39
REMARK Flexibility Score: inf
ROOT
ATOM      1  O   UNL     1      -0.870 -18.172  -7.109  1.00  0.00    -0.454 OA
ENDROOT
BRANCH   1   2
ATOM      2  C   UNL     1       0.316 -18.742  -6.611  1.00  0.00     0.214 A 
ATOM      3  C   UNL     1       0.606 -20.084  -6.936  1.00  0.00     0.180 A 
ATOM      4  O   UNL     1       1.700 -20.666  -6.458  1.00  0.00    -0.452 OA
ATOM      5  C   UNL     1       1.225 -18.043  -5.788  1.00  0.00     0.239 A 
ATOM      6  C   UNL     1       2.577 -20.045  -5.680  1.00  0.00     0.146 A 
ATOM      7  O   UNL     1       1.013 -16.837  -5.493  1.00  0.00    -0.285 OA
ATOM      8  C   UNL     1       2.380 -18.697  -5.308  1.00  0.00     0.111 A 
ATOM      9  C   UNL     1       3.703 -20.744  -5.234  1.00  0.00     0.094 A 
ATOM     10  C   UNL     1       3.339 -18.064  -4.479  1.00  0.00     0.134 A 
ATOM     11  C   UNL     1       4.645 -20.116  -4.415  1.00  0.00     0.123 A 
ATOM     12  C   UNL     1       4.461 -18.783  -4.040  1.00  0.00     0.093 A 
BRANCH   3  13
ATOM     13  C   UNL     1      -0.307 -20.902  -7.766  1.00  0.00     0.021 A 
ATOM     14  C   UNL     1      -0.026 -21.077  -9.131  1.00  0.00     0.016 A 
ATOM     15  C   UNL     1      -0.872 -21.847  -9.936  1.00  0.00     0.047 A 
ATOM     16  C   UNL     1      -2.016 -22.438  -9.389  1.00  0.00     0.115 A 
ATOM     17  C   UNL     1      -1.469 -21.482  -7.228  1.00  0.00     0.016 A 
ATOM     18  C   UNL     1      -2.314 -22.251  -8.033  1.00  0.00     0.047 A 
BRANCH  16  19
ATOM     19  O   UNL     1      -2.849 -23.203 -10.201  1.00  0.00    -0.508 OA
ATOM     20  H   UNL     1      -2.940 -24.204 -10.073  1.00  0.00     0.293 HD
ENDBRANCH  16  19
ENDBRANCH   3  13
BRANCH  10  21
ATOM     21  O   UNL     1       3.186 -16.734  -4.087  1.00  0.00    -0.507 OA
ATOM     22  H   UNL     1       3.890 -16.257  -3.537  1.00  0.00     0.293 HD
ENDBRANCH  10  21
BRANCH  11  23
ATOM     23  O   UNL     1       5.770 -20.805  -3.968  1.00  0.00    -0.508 OA
ATOM     24  H   UNL     1       5.702 -21.526  -3.258  1.00  0.00     0.293 HD
ENDBRANCH  11  23
ENDBRANCH   1   2
BRANCH   1  25
ATOM     25  C   UNL     1      -1.076 -17.654  -8.426  1.00  0.00     0.339 C 
ATOM     26  C   UNL     1      -1.213 -16.121  -8.374  1.00  0.00     0.214 C 
ATOM     27  O   UNL     1      -2.181 -18.270  -9.078  1.00  0.00    -0.332 OA
ATOM     28  C   UNL     1      -2.528 -15.727  -7.692  1.00  0.00     0.180 C 
ATOM     29  C   UNL     1      -3.447 -17.958  -8.510  1.00  0.00     0.179 C 
ATOM     30  C   UNL     1      -3.691 -16.431  -8.404  1.00  0.00     0.177 C 
BRANCH  26  31
ATOM     31  O   UNL     1      -0.135 -15.566  -7.665  1.00  0.00    -0.384 OA
ATOM     32  H   UNL     1       0.628 -16.195  -7.765  1.00  0.00     0.211 HD
ENDBRANCH  26  31
BRANCH  28  33
ATOM     33  O   UNL     1      -2.708 -14.337  -7.777  1.00  0.00    -0.387 OA
ATOM     34  H   UNL     1      -3.451 -14.104  -7.161  1.00  0.00     0.211 HD
ENDBRANCH  28  33
BRANCH  29  35
ATOM     35  C   UNL     1      -3.710 -18.751  -7.210  1.00  0.00     0.191 C 
BRANCH  35  36
ATOM     36  O   UNL     1      -5.086 -18.966  -7.033  1.00  0.00    -0.394 OA
ATOM     37  H   UNL     1      -5.355 -19.692  -7.656  1.00  0.00     0.210 HD
ENDBRANCH  35  36
ENDBRANCH  29  35
BRANCH  30  38
ATOM     38  O   UNL     1      -4.900 -16.175  -7.736  1.00  0.00    -0.387 OA
ATOM     39  H   UNL     1      -5.543 -16.876  -8.019  1.00  0.00     0.211 HD
ENDBRANCH  30  38
ENDBRANCH   1  25
TORSDOF 11
ENDMDL
MODEL 8
REMARK VINA RESULT:    -5.004      2.544      7.865
REMARK INTER + INTRA:          -8.666
REMARK INTER:                  -7.724
REMARK INTRA:                  -0.942
REMARK UNBOUND:                -1.469
REMARK SMILES O=c1c(O[C@H]2O[C@@H](CO)[C@@H](O)[C@H](O)[C@H]2O)c(-c2ccc(O)cc2)oc2cc(O)cc(O)c12
REMARK SMILES IDX 4 1 3 2 16 3 24 4 2 5 25 6 1 7 32 8 26 9 30 10 27 11 29 12
REMARK SMILES IDX 17 13 18 14 19 15 20 16 23 17 22 18 21 19 31 21 28 23 5 25
REMARK SMILES IDX 14 26 6 27 12 28 7 29 10 30 15 31 13 33 8 35 9 36 11 38
REMARK H PARENT 21 20 31 22 28 24 15 32 13 34 9 37 11 39
REMARK Flexibility Score: inf
ROOT
ATOM      1  O   UNL     1       1.772 -19.856  -5.641  1.00  0.00    -0.454 OA
ENDROOT
BRANCH   1   2
ATOM      2  C   UNL     1       0.946 -18.844  -6.164  1.00  0.00     0.214 A 
ATOM      3  C   UNL     1       0.202 -19.118  -7.330  1.00  0.00     0.180 A 
ATOM      4  O   UNL     1      -0.563 -18.176  -7.871  1.00  0.00    -0.452 OA
ATOM      5  C   UNL     1       0.838 -17.559  -5.588  1.00  0.00     0.239 A 
ATOM      6  C   UNL     1      -0.691 -16.958  -7.364  1.00  0.00     0.146 A 
ATOM      7  O   UNL     1       1.469 -17.283  -4.534  1.00  0.00    -0.285 OA
ATOM      8  C   UNL     1       0.007 -16.591  -6.191  1.00  0.00     0.111 A 
ATOM      9  C   UNL     1      -1.528 -16.040  -8.004  1.00  0.00     0.094 A 
ATOM     10  C   UNL     1      -0.156 -15.282  -5.675  1.00  0.00     0.134 A 
ATOM     11  C   UNL     1      -1.684 -14.748  -7.491  1.00  0.00     0.123 A 
ATOM     12  C   UNL     1      -0.999 -14.374  -6.334  1.00  0.00     0.093 A 
BRANCH   3  13
ATOM     13  C   UNL     1       0.280 -20.426  -8.018  1.00  0.00     0.021 A 
ATOM     14  C   UNL     1       1.517 -20.872  -8.512  1.00  0.00     0.016 A 
ATOM     15  C   UNL     1       1.616 -22.105  -9.165  1.00  0.00     0.047 A 
ATOM     16  C   UNL     1       0.478 -22.899  -9.345  1.00  0.00     0.115 A 
ATOM     17  C   UNL     1      -0.863 -21.219  -8.221  1.00  0.00     0.016 A 
ATOM     18  C   UNL     1      -0.763 -22.451  -8.874  1.00  0.00     0.047 A 
BRANCH  16  19
ATOM     19  O   UNL     1       0.592 -24.125  -9.996  1.00  0.00    -0.508 OA
ATOM     20  H   UNL     1      -0.055 -24.398 -10.727  1.00  0.00     0.293 HD
ENDBRANCH  16  19
ENDBRANCH   3  13
BRANCH  10  21
ATOM     21  O   UNL     1       0.512 -14.876  -4.519  1.00  0.00    -0.507 OA
ATOM     22  H   UNL     1       0.126 -15.037  -3.597  1.00  0.00     0.293 HD
ENDBRANCH  10  21
BRANCH  11  23
ATOM     23  O   UNL     1      -2.517 -13.829  -8.124  1.00  0.00    -0.508 OA
ATOM     24  H   UNL     1      -2.595 -13.792  -9.134  1.00  0.00     0.293 HD
ENDBRANCH  11  23
ENDBRANCH   1   2
BRANCH   1  25
ATOM     25  C   UNL     1       2.261 -19.945  -4.300  1.00  0.00     0.339 C 
ATOM     26  C   UNL     1       3.787 -19.742  -4.281  1.00  0.00     0.214 C 
ATOM     27  O   UNL     1       1.873 -21.159  -3.667  1.00  0.00    -0.332 OA
ATOM     28  C   UNL     1       4.491 -20.938  -4.932  1.00  0.00     0.180 C 
ATOM     29  C   UNL     1       2.481 -22.325  -4.209  1.00  0.00     0.179 C 
ATOM     30  C   UNL     1       4.027 -22.228  -4.243  1.00  0.00     0.177 C 
BRANCH  26  31
ATOM     31  O   UNL     1       4.125 -18.568  -4.974  1.00  0.00    -0.384 OA
ATOM     32  H   UNL     1       5.007 -18.273  -4.627  1.00  0.00     0.211 HD
ENDBRANCH  26  31
BRANCH  28  33
ATOM     33  O   UNL     1       5.881 -20.809  -4.783  1.00  0.00    -0.387 OA
ATOM     34  H   UNL     1       6.041 -20.418  -3.884  1.00  0.00     0.211 HD
ENDBRANCH  28  33
BRANCH  29  35
ATOM     35  C   UNL     1       1.826 -22.754  -5.541  1.00  0.00     0.191 C 
BRANCH  35  36
ATOM     36  O   UNL     1       0.427 -22.754  -5.424  1.00  0.00    -0.394 OA
ATOM     37  H   UNL     1       0.158 -23.641  -5.069  1.00  0.00     0.210 HD
ENDBRANCH  35  36
ENDBRANCH  29  35
BRANCH  30  38
ATOM     38  O   UNL     1       4.573 -23.350  -4.888  1.00  0.00    -0.387 OA
ATOM     39  H   UNL     1       3.815 -23.948  -5.122  1.00  0.00     0.211 HD
ENDBRANCH  30  38
ENDBRANCH   1  25
TORSDOF 11
ENDMDL
MODEL 9
REMARK VINA RESULT:    -4.875      2.144      6.709
REMARK INTER + INTRA:          -8.481
REMARK INTER:                  -7.069
REMARK INTRA:                  -1.413
REMARK UNBOUND:                -1.469
REMARK SMILES O=c1c(O[C@H]2O[C@@H](CO)[C@@H](O)[C@H](O)[C@H]2O)c(-c2ccc(O)cc2)oc2cc(O)cc(O)c12
REMARK SMILES IDX 4 1 3 2 16 3 24 4 2 5 25 6 1 7 32 8 26 9 30 10 27 11 29 12
REMARK SMILES IDX 17 13 18 14 19 15 20 16 23 17 22 18 21 19 31 21 28 23 5 25
REMARK SMILES IDX 14 26 6 27 12 28 7 29 10 30 15 31 13 33 8 35 9 36 11 38
REMARK H PARENT 21 20 31 22 28 24 15 32 13 34 9 37 11 39
REMARK Flexibility Score: inf
ROOT
ATOM      1  O   UNL     1      -0.387 -16.777  -6.103  1.00  0.00    -0.454 OA
ENDROOT
BRANCH   1   2
ATOM      2  C   UNL     1      -1.144 -15.737  -5.531  1.00  0.00     0.214 A 
ATOM      3  C   UNL     1      -2.542 -15.898  -5.434  1.00  0.00     0.180 A 
ATOM      4  O   UNL     1      -3.293 -14.924  -4.930  1.00  0.00    -0.452 OA
ATOM      5  C   UNL     1      -0.575 -14.532  -5.065  1.00  0.00     0.239 A 
ATOM      6  C   UNL     1      -2.799 -13.777  -4.484  1.00  0.00     0.146 A 
ATOM      7  O   UNL     1       0.671 -14.359  -5.115  1.00  0.00    -0.285 OA
ATOM      8  C   UNL     1      -1.409 -13.527  -4.530  1.00  0.00     0.111 A 
ATOM      9  C   UNL     1      -3.673 -12.818  -3.965  1.00  0.00     0.094 A 
ATOM     10  C   UNL     1      -0.916 -12.292  -4.042  1.00  0.00     0.134 A 
ATOM     11  C   UNL     1      -3.181 -11.600  -3.486  1.00  0.00     0.123 A 
ATOM     12  C   UNL     1      -1.810 -11.340  -3.526  1.00  0.00     0.093 A 
BRANCH   3  13
ATOM     13  C   UNL     1      -3.226 -17.114  -5.927  1.00  0.00     0.021 A 
ATOM     14  C   UNL     1      -3.030 -18.334  -5.258  1.00  0.00     0.016 A 
ATOM     15  C   UNL     1      -3.666 -19.497  -5.703  1.00  0.00     0.047 A 
ATOM     16  C   UNL     1      -4.493 -19.457  -6.831  1.00  0.00     0.115 A 
ATOM     17  C   UNL     1      -4.041 -17.086  -7.072  1.00  0.00     0.016 A 
ATOM     18  C   UNL     1      -4.676 -18.250  -7.517  1.00  0.00     0.047 A 
BRANCH  16  19
ATOM     19  O   UNL     1      -5.121 -20.623  -7.264  1.00  0.00    -0.508 OA
ATOM     20  H   UNL     1      -5.027 -20.952  -8.217  1.00  0.00     0.293 HD
ENDBRANCH  16  19
ENDBRANCH   3  13
BRANCH  10  21
ATOM     21  O   UNL     1       0.448 -12.001  -4.066  1.00  0.00    -0.507 OA
ATOM     22  H   UNL     1       1.140 -12.665  -3.739  1.00  0.00     0.293 HD
ENDBRANCH  10  21
BRANCH  11  23
ATOM     23  O   UNL     1      -4.046 -10.640  -2.966  1.00  0.00    -0.508 OA
ATOM     24  H   UNL     1      -5.040 -10.661  -3.163  1.00  0.00     0.293 HD
ENDBRANCH  11  23
ENDBRANCH   1   2
BRANCH   1  25
ATOM     25  C   UNL     1       0.485 -16.671  -7.231  1.00  0.00     0.339 C 
ATOM     26  C   UNL     1       0.266 -17.863  -8.181  1.00  0.00     0.214 C 
ATOM     27  O   UNL     1       1.848 -16.536  -6.845  1.00  0.00    -0.332 OA
ATOM     28  C   UNL     1       0.773 -19.158  -7.536  1.00  0.00     0.180 C 
ATOM     29  C   UNL     1       2.404 -17.696  -6.235  1.00  0.00     0.179 C 
ATOM     30  C   UNL     1       2.233 -18.965  -7.108  1.00  0.00     0.177 C 
BRANCH  26  31
ATOM     31  O   UNL     1      -1.101 -17.994  -8.480  1.00  0.00    -0.384 OA
ATOM     32  H   UNL     1      -1.277 -18.963  -8.598  1.00  0.00     0.211 HD
ENDBRANCH  26  31
BRANCH  28  33
ATOM     33  O   UNL     1       0.698 -20.210  -8.462  1.00  0.00    -0.387 OA
ATOM     34  H   UNL     1      -0.106 -20.046  -9.022  1.00  0.00     0.211 HD
ENDBRANCH  28  33
BRANCH  29  35
ATOM     35  C   UNL     1       1.951 -17.850  -4.766  1.00  0.00     0.191 C 
BRANCH  35  36
ATOM     36  O   UNL     1       2.092 -16.635  -4.077  1.00  0.00    -0.394 OA
ATOM     37  H   UNL     1       1.250 -16.480  -3.574  1.00  0.00     0.210 HD
ENDBRANCH  35  36
ENDBRANCH  29  35
BRANCH  30  38
ATOM     38  O   UNL     1       2.693 -20.098  -6.417  1.00  0.00    -0.387 OA
ATOM     39  H   UNL     1       1.973 -20.780  -6.464  1.00  0.00     0.211 HD
ENDBRANCH  30  38
ENDBRANCH   1  25
TORSDOF 11
ENDMDL
