MODEL 1
REMARK VINA RESULT:    -4.312      0.000      0.000
REMARK INTER + INTRA:          -4.583
REMARK INTER:                  -5.194
REMARK INTRA:                   0.611
REMARK UNBOUND:                 0.611
REMARK SMILES O=c1c(O)c(-c2ccc(O)cc2O)oc2cc(O)cc(O)c12
REMARK SMILES IDX 5 1 3 2 2 3 1 4 22 5 20 6 19 7 17 8 16 9 15 10 14 11 6 12
REMARK SMILES IDX 8 13 7 14 9 15 11 16 12 17 10 18 13 20 4 22 21 24 18 26
REMARK H PARENT 10 19 13 21 4 23 21 25 18 27
REMARK Flexibility Score: inf
ROOT
ATOM      1  C   UNL     1      72.058  40.839  20.271  1.00  0.00     0.184 A 
ATOM      2  C   UNL     1      72.924  40.931  19.171  1.00  0.00     0.208 A 
ATOM      3  C   UNL     1      74.309  40.857  19.387  1.00  0.00     0.238 A 
ATOM      4  O   UNL     1      75.076  40.867  18.389  1.00  0.00    -0.285 OA
ATOM      5  C   UNL     1      74.811  40.746  20.706  1.00  0.00     0.111 A 
ATOM      6  C   UNL     1      76.197  40.706  21.048  1.00  0.00     0.134 A 
ATOM      7  C   UNL     1      76.575  40.488  22.379  1.00  0.00     0.093 A 
ATOM      8  C   UNL     1      75.619  40.371  23.389  1.00  0.00     0.123 A 
ATOM      9  C   UNL     1      74.265  40.463  23.075  1.00  0.00     0.094 A 
ATOM     10  C   UNL     1      73.855  40.642  21.752  1.00  0.00     0.146 A 
ATOM     11  O   UNL     1      72.554  40.703  21.495  1.00  0.00    -0.451 OA
ENDROOT
BRANCH   1  12
ATOM     12  C   UNL     1      70.590  40.901  20.112  1.00  0.00     0.063 A 
ATOM     13  C   UNL     1      68.670  41.123  18.637  1.00  0.00     0.047 A 
ATOM     14  C   UNL     1      70.053  41.054  18.824  1.00  0.00     0.020 A 
ATOM     15  C   UNL     1      67.808  41.055  19.735  1.00  0.00     0.119 A 
ATOM     16  C   UNL     1      68.335  40.927  21.027  1.00  0.00     0.093 A 
ATOM     17  C   UNL     1      69.722  40.862  21.223  1.00  0.00     0.130 A 
BRANCH  15  18
ATOM     18  O   UNL     1      66.431  41.121  19.533  1.00  0.00    -0.508 OA
ATOM     19  H   UNL     1      66.005  41.897  19.038  1.00  0.00     0.293 HD
ENDBRANCH  15  18
BRANCH  17  20
ATOM     20  O   UNL     1      70.238  40.784  22.517  1.00  0.00    -0.507 OA
ATOM     21  H   UNL     1      71.236  40.814  22.694  1.00  0.00     0.293 HD
ENDBRANCH  17  20
ENDBRANCH   1  12
BRANCH   2  22
ATOM     22  O   UNL     1      72.405  41.113  17.886  1.00  0.00    -0.502 OA
ATOM     23  H   UNL     1      71.465  41.455  17.724  1.00  0.00     0.293 HD
ENDBRANCH   2  22
BRANCH   6  24
ATOM     24  O   UNL     1      77.235  40.900  20.131  1.00  0.00    -0.507 OA
ATOM     25  H   UNL     1      78.011  41.530  20.262  1.00  0.00     0.293 HD
ENDBRANCH   6  24
BRANCH   8  26
ATOM     26  O   UNL     1      76.004  40.171  24.713  1.00  0.00    -0.508 OA
ATOM     27  H   UNL     1      76.603  39.397  24.980  1.00  0.00     0.293 HD
ENDBRANCH   8  26
TORSDOF 6
ENDMDL
MODEL 2
REMARK VINA RESULT:    -3.627      1.221      3.199
REMARK INTER + INTRA:          -3.758
REMARK INTER:                  -4.350
REMARK INTRA:                   0.591
REMARK UNBOUND:                 0.611
REMARK SMILES O=c1c(O)c(-c2ccc(O)cc2O)oc2cc(O)cc(O)c12
REMARK SMILES IDX 5 1 3 2 2 3 1 4 22 5 20 6 19 7 17 8 16 9 15 10 14 11 6 12
REMARK SMILES IDX 8 13 7 14 9 15 11 16 12 17 10 18 13 20 4 22 21 24 18 26
REMARK H PARENT 10 19 13 21 4 23 21 25 18 27
REMARK Flexibility Score: inf
ROOT
ATOM      1  C   UNL     1      71.829  40.685  20.727  1.00  0.00     0.184 A 
ATOM      2  C   UNL     1      72.263  40.451  22.041  1.00  0.00     0.208 A 
ATOM      3  C   UNL     1      73.640  40.352  22.295  1.00  0.00     0.238 A 
ATOM      4  O   UNL     1      74.025  40.216  23.486  1.00  0.00    -0.285 OA
ATOM      5  C   UNL     1      74.562  40.433  21.223  1.00  0.00     0.111 A 
ATOM      6  C   UNL     1      75.977  40.302  21.357  1.00  0.00     0.134 A 
ATOM      7  C   UNL     1      76.799  40.505  20.241  1.00  0.00     0.093 A 
ATOM      8  C   UNL     1      76.253  40.771  18.984  1.00  0.00     0.123 A 
ATOM      9  C   UNL     1      74.872  40.847  18.831  1.00  0.00     0.094 A 
ATOM     10  C   UNL     1      74.027  40.687  19.932  1.00  0.00     0.146 A 
ATOM     11  O   UNL     1      72.716  40.788  19.745  1.00  0.00    -0.451 OA
ENDROOT
BRANCH   1  12
ATOM     12  C   UNL     1      70.395  40.808  20.393  1.00  0.00     0.063 A 
ATOM     13  C   UNL     1      68.089  40.917  21.154  1.00  0.00     0.047 A 
ATOM     14  C   UNL     1      69.453  40.809  21.434  1.00  0.00     0.020 A 
ATOM     15  C   UNL     1      67.647  41.012  19.831  1.00  0.00     0.119 A 
ATOM     16  C   UNL     1      68.577  40.988  18.784  1.00  0.00     0.093 A 
ATOM     17  C   UNL     1      69.949  40.874  19.057  1.00  0.00     0.130 A 
BRANCH  15  18
ATOM     18  O   UNL     1      66.284  41.124  19.568  1.00  0.00    -0.508 OA
ATOM     19  H   UNL     1      65.939  41.318  18.635  1.00  0.00     0.293 HD
ENDBRANCH  15  18
BRANCH  17  20
ATOM     20  O   UNL     1      70.863  40.802  18.005  1.00  0.00    -0.507 OA
ATOM     21  H   UNL     1      71.833  40.556  18.161  1.00  0.00     0.293 HD
ENDBRANCH  17  20
ENDBRANCH   1  12
BRANCH   2  22
ATOM     22  O   UNL     1      71.329  40.304  23.070  1.00  0.00    -0.502 OA
ATOM     23  H   UNL     1      70.398  39.941  22.909  1.00  0.00     0.293 HD
ENDBRANCH   2  22
BRANCH   6  24
ATOM     24  O   UNL     1      76.622  39.951  22.548  1.00  0.00    -0.507 OA
ATOM     25  H   UNL     1      76.874  40.596  23.281  1.00  0.00     0.293 HD
ENDBRANCH   6  24
BRANCH   8  26
ATOM     26  O   UNL     1      77.077  40.955  17.876  1.00  0.00    -0.508 OA
ATOM     27  H   UNL     1      77.894  40.374  17.720  1.00  0.00     0.293 HD
ENDBRANCH   8  26
TORSDOF 6
ENDMDL
MODEL 3
REMARK VINA RESULT:    -2.909      1.935      6.914
REMARK INTER + INTRA:          -2.894
REMARK INTER:                  -2.460
REMARK INTRA:                  -0.434
REMARK UNBOUND:                 0.611
REMARK SMILES O=c1c(O)c(-c2ccc(O)cc2O)oc2cc(O)cc(O)c12
REMARK SMILES IDX 5 1 3 2 2 3 1 4 22 5 20 6 19 7 17 8 16 9 15 10 14 11 6 12
REMARK SMILES IDX 8 13 7 14 9 15 11 16 12 17 10 18 13 20 4 22 21 24 18 26
REMARK H PARENT 10 19 13 21 4 23 21 25 18 27
REMARK Flexibility Score: inf
ROOT
ATOM      1  C   UNL     1      72.759  40.191  19.961  1.00  0.00     0.184 A 
ATOM      2  C   UNL     1      72.503  40.101  21.338  1.00  0.00     0.208 A 
ATOM      3  C   UNL     1      71.182  40.236  21.794  1.00  0.00     0.238 A 
ATOM      4  O   UNL     1      70.949  40.082  23.021  1.00  0.00    -0.285 OA
ATOM      5  C   UNL     1      70.144  40.515  20.872  1.00  0.00     0.111 A 
ATOM      6  C   UNL     1      68.775  40.715  21.227  1.00  0.00     0.134 A 
ATOM      7  C   UNL     1      67.816  40.879  20.218  1.00  0.00     0.093 A 
ATOM      8  C   UNL     1      68.186  40.914  18.872  1.00  0.00     0.123 A 
ATOM      9  C   UNL     1      69.526  40.774  18.518  1.00  0.00     0.094 A 
ATOM     10  C   UNL     1      70.500  40.571  19.498  1.00  0.00     0.146 A 
ATOM     11  O   UNL     1      71.763  40.421  19.115  1.00  0.00    -0.451 OA
ENDROOT
BRANCH   1  12
ATOM     12  C   UNL     1      74.125  40.050  19.415  1.00  0.00     0.063 A 
ATOM     13  C   UNL     1      76.319  41.025  19.034  1.00  0.00     0.047 A 
ATOM     14  C   UNL     1      75.023  41.122  19.545  1.00  0.00     0.020 A 
ATOM     15  C   UNL     1      76.732  39.863  18.377  1.00  0.00     0.119 A 
ATOM     16  C   UNL     1      75.836  38.796  18.222  1.00  0.00     0.093 A 
ATOM     17  C   UNL     1      74.530  38.888  18.727  1.00  0.00     0.130 A 
BRANCH  15  18
ATOM     18  O   UNL     1      78.029  39.779  17.877  1.00  0.00    -0.508 OA
ATOM     19  H   UNL     1      78.384  38.923  17.465  1.00  0.00     0.293 HD
ENDBRANCH  15  18
BRANCH  17  20
ATOM     20  O   UNL     1      73.632  37.840  18.524  1.00  0.00    -0.507 OA
ATOM     21  H   UNL     1      73.622  37.310  17.660  1.00  0.00     0.293 HD
ENDBRANCH  17  20
ENDBRANCH   1  12
BRANCH   2  22
ATOM     22  O   UNL     1      73.556  39.898  22.234  1.00  0.00    -0.502 OA
ATOM     23  H   UNL     1      74.408  40.443  22.202  1.00  0.00     0.293 HD
ENDBRANCH   2  22
BRANCH   6  24
ATOM     24  O   UNL     1      68.309  40.787  22.543  1.00  0.00    -0.507 OA
ATOM     25  H   UNL     1      68.533  40.128  23.273  1.00  0.00     0.293 HD
ENDBRANCH   6  24
BRANCH   8  26
ATOM     26  O   UNL     1      67.229  41.095  17.876  1.00  0.00    -0.508 OA
ATOM     27  H   UNL     1      66.257  41.276  18.101  1.00  0.00     0.293 HD
ENDBRANCH   8  26
TORSDOF 6
ENDMDL
