MODEL 1
REMARK VINA RESULT:    -4.590      0.000      0.000
REMARK INTER + INTRA:          -4.590
REMARK INTER:                  -4.590
REMARK INTRA:                   0.000
REMARK UNBOUND:                 0.000
REMARK SMILES CC1(C)O[C@]2(C)CC[C@H]1CC2
REMARK SMILES IDX 1 1 2 2 9 3 10 4 11 5 5 6 4 7 7 8 8 9 6 10 3 11
REMARK H PARENT
REMARK Flexibility Score: inf
ROOT
ATOM      1  C   UNL     1     179.978 181.383 183.717  1.00  0.00     0.042 C 
ATOM      2  C   UNL     1     180.694 180.084 183.294  1.00  0.00     0.066 C 
ATOM      3  C   UNL     1     180.026 178.830 183.981  1.00  0.00     0.021 C 
ATOM      4  C   UNL     1     180.815 177.565 183.564  1.00  0.00     0.009 C 
ATOM      5  C   UNL     1     182.322 177.792 183.837  1.00  0.00     0.035 C 
ATOM      6  C   UNL     1     182.531 179.174 184.522  1.00  0.00     0.066 C 
ATOM      7  O   UNL     1     182.082 180.206 183.642  1.00  0.00    -0.369 OA
ATOM      8  C   UNL     1     181.694 179.220 185.833  1.00  0.00     0.035 C 
ATOM      9  C   UNL     1     180.202 178.959 185.513  1.00  0.00     0.009 C 
ATOM     10  C   UNL     1     184.015 179.397 184.829  1.00  0.00     0.042 C 
ATOM     11  C   UNL     1     180.593 179.982 181.757  1.00  0.00     0.042 C 
ENDROOT
TORSDOF 0
ENDMDL
MODEL 2
REMARK VINA RESULT:    -4.552      1.033      3.171
REMARK INTER + INTRA:          -4.552
REMARK INTER:                  -4.552
REMARK INTRA:                   0.000
REMARK UNBOUND:                 0.000
REMARK SMILES CC1(C)O[C@]2(C)CC[C@H]1CC2
REMARK SMILES IDX 1 1 2 2 9 3 10 4 11 5 5 6 4 7 7 8 8 9 6 10 3 11
REMARK H PARENT
REMARK Flexibility Score: inf
ROOT
ATOM      1  C   UNL     1     183.367 179.445 185.125  1.00  0.00     0.042 C 
ATOM      2  C   UNL     1     181.938 180.015 185.008  1.00  0.00     0.066 C 
ATOM      3  C   UNL     1     180.874 178.960 185.503  1.00  0.00     0.021 C 
ATOM      4  C   UNL     1     179.461 179.564 185.316  1.00  0.00     0.009 C 
ATOM      5  C   UNL     1     179.315 180.075 183.862  1.00  0.00     0.035 C 
ATOM      6  C   UNL     1     180.597 179.730 183.050  1.00  0.00     0.066 C 
ATOM      7  O   UNL     1     181.717 180.392 183.641  1.00  0.00    -0.369 OA
ATOM      8  C   UNL     1     180.829 178.192 183.101  1.00  0.00     0.035 C 
ATOM      9  C   UNL     1     180.939 177.725 184.572  1.00  0.00     0.009 C 
ATOM     10  C   UNL     1     180.453 180.201 181.600  1.00  0.00     0.042 C 
ATOM     11  C   UNL     1     181.881 181.294 185.873  1.00  0.00     0.042 C 
ENDROOT
TORSDOF 0
ENDMDL
MODEL 3
REMARK VINA RESULT:    -4.403      1.184      3.201
REMARK INTER + INTRA:          -4.403
REMARK INTER:                  -4.403
REMARK INTRA:                   0.000
REMARK UNBOUND:                 0.000
REMARK SMILES CC1(C)O[C@]2(C)CC[C@H]1CC2
REMARK SMILES IDX 1 1 2 2 9 3 10 4 11 5 5 6 4 7 7 8 8 9 6 10 3 11
REMARK H PARENT
REMARK Flexibility Score: inf
ROOT
ATOM      1  C   UNL     1     181.227 176.676 183.605  1.00  0.00     0.042 C 
ATOM      2  C   UNL     1     181.821 178.099 183.643  1.00  0.00     0.066 C 
ATOM      3  C   UNL     1     181.705 178.713 185.092  1.00  0.00     0.021 C 
ATOM      4  C   UNL     1     182.268 180.155 185.060  1.00  0.00     0.009 C 
ATOM      5  C   UNL     1     181.590 180.939 183.911  1.00  0.00     0.035 C 
ATOM      6  C   UNL     1     180.506 180.052 183.233  1.00  0.00     0.066 C 
ATOM      7  O   UNL     1     181.132 178.897 182.670  1.00  0.00    -0.369 OA
ATOM      8  C   UNL     1     179.477 179.600 184.310  1.00  0.00     0.035 C 
ATOM      9  C   UNL     1     180.205 178.846 185.449  1.00  0.00     0.009 C 
ATOM     10  C   UNL     1     179.803 180.828 182.116  1.00  0.00     0.042 C 
ATOM     11  C   UNL     1     183.301 177.990 183.213  1.00  0.00     0.042 C 
ENDROOT
TORSDOF 0
ENDMDL
MODEL 4
REMARK VINA RESULT:    -4.337      1.402      2.768
REMARK INTER + INTRA:          -4.337
REMARK INTER:                  -4.337
REMARK INTRA:                   0.000
REMARK UNBOUND:                 0.000
REMARK SMILES CC1(C)O[C@]2(C)CC[C@H]1CC2
REMARK SMILES IDX 1 1 2 2 9 3 10 4 11 5 5 6 4 7 7 8 8 9 6 10 3 11
REMARK H PARENT
REMARK Flexibility Score: inf
ROOT
ATOM      1  C   UNL     1     182.792 178.202 182.649  1.00  0.00     0.042 C 
ATOM      2  C   UNL     1     181.586 178.246 183.610  1.00  0.00     0.066 C 
ATOM      3  C   UNL     1     180.543 179.337 183.147  1.00  0.00     0.021 C 
ATOM      4  C   UNL     1     179.383 179.372 184.172  1.00  0.00     0.009 C 
ATOM      5  C   UNL     1     179.970 179.525 185.597  1.00  0.00     0.035 C 
ATOM      6  C   UNL     1     181.516 179.685 185.517  1.00  0.00     0.066 C 
ATOM      7  O   UNL     1     182.078 178.508 184.933  1.00  0.00    -0.369 OA
ATOM      8  C   UNL     1     181.852 180.911 184.620  1.00  0.00     0.035 C 
ATOM      9  C   UNL     1     181.221 180.725 183.219  1.00  0.00     0.009 C 
ATOM     10  C   UNL     1     182.105 179.871 186.918  1.00  0.00     0.042 C 
ATOM     11  C   UNL     1     180.944 176.842 183.607  1.00  0.00     0.042 C 
ENDROOT
TORSDOF 0
ENDMDL
MODEL 5
REMARK VINA RESULT:    -4.212      1.199      2.029
REMARK INTER + INTRA:          -4.212
REMARK INTER:                  -4.212
REMARK INTRA:                   0.000
REMARK UNBOUND:                 0.000
REMARK SMILES CC1(C)O[C@]2(C)CC[C@H]1CC2
REMARK SMILES IDX 1 1 2 2 9 3 10 4 11 5 5 6 4 7 7 8 8 9 6 10 3 11
REMARK H PARENT
REMARK Flexibility Score: inf
ROOT
ATOM      1  C   UNL     1     179.887 180.326 182.409  1.00  0.00     0.042 C 
ATOM      2  C   UNL     1     181.248 180.221 183.128  1.00  0.00     0.066 C 
ATOM      3  C   UNL     1     181.680 178.711 183.286  1.00  0.00     0.021 C 
ATOM      4  C   UNL     1     183.022 178.663 184.056  1.00  0.00     0.009 C 
ATOM      5  C   UNL     1     182.891 179.493 185.356  1.00  0.00     0.035 C 
ATOM      6  C   UNL     1     181.434 180.020 185.502  1.00  0.00     0.066 C 
ATOM      7  O   UNL     1     181.134 180.878 184.399  1.00  0.00    -0.369 OA
ATOM      8  C   UNL     1     180.455 178.810 185.489  1.00  0.00     0.035 C 
ATOM      9  C   UNL     1     180.643 177.996 184.186  1.00  0.00     0.009 C 
ATOM     10  C   UNL     1     181.283 180.815 186.802  1.00  0.00     0.042 C 
ATOM     11  C   UNL     1     182.277 180.997 182.278  1.00  0.00     0.042 C 
ENDROOT
TORSDOF 0
ENDMDL
MODEL 6
REMARK VINA RESULT:    -4.211      1.227      2.451
REMARK INTER + INTRA:          -4.211
REMARK INTER:                  -4.211
REMARK INTRA:                   0.000
REMARK UNBOUND:                 0.000
REMARK SMILES CC1(C)O[C@]2(C)CC[C@H]1CC2
REMARK SMILES IDX 1 1 2 2 9 3 10 4 11 5 5 6 4 7 7 8 8 9 6 10 3 11
REMARK H PARENT
REMARK Flexibility Score: inf
ROOT
ATOM      1  C   UNL     1     181.365 181.084 182.091  1.00  0.00     0.042 C 
ATOM      2  C   UNL     1     180.601 180.307 183.184  1.00  0.00     0.066 C 
ATOM      3  C   UNL     1     181.210 180.606 184.609  1.00  0.00     0.021 C 
ATOM      4  C   UNL     1     180.441 179.765 185.656  1.00  0.00     0.009 C 
ATOM      5  C   UNL     1     180.419 178.285 185.202  1.00  0.00     0.035 C 
ATOM      6  C   UNL     1     181.251 178.121 183.897  1.00  0.00     0.066 C 
ATOM      7  O   UNL     1     180.660 178.910 182.862  1.00  0.00    -0.369 OA
ATOM      8  C   UNL     1     182.701 178.623 184.156  1.00  0.00     0.035 C 
ATOM      9  C   UNL     1     182.670 180.095 184.636  1.00  0.00     0.009 C 
ATOM     10  C   UNL     1     181.265 176.655 183.455  1.00  0.00     0.042 C 
ATOM     11  C   UNL     1     179.124 180.752 183.117  1.00  0.00     0.042 C 
ENDROOT
TORSDOF 0
ENDMDL
MODEL 7
REMARK VINA RESULT:    -4.182      1.532      3.277
REMARK INTER + INTRA:          -4.182
REMARK INTER:                  -4.182
REMARK INTRA:                   0.000
REMARK UNBOUND:                 0.000
REMARK SMILES CC1(C)O[C@]2(C)CC[C@H]1CC2
REMARK SMILES IDX 1 1 2 2 9 3 10 4 11 5 5 6 4 7 7 8 8 9 6 10 3 11
REMARK H PARENT
REMARK Flexibility Score: inf
ROOT
ATOM      1  C   UNL     1     182.386 180.190 187.566  1.00  0.00     0.042 C 
ATOM      2  C   UNL     1     182.353 180.349 186.032  1.00  0.00     0.066 C 
ATOM      3  C   UNL     1     181.212 181.350 185.599  1.00  0.00     0.021 C 
ATOM      4  C   UNL     1     181.192 181.431 184.053  1.00  0.00     0.009 C 
ATOM      5  C   UNL     1     181.124 179.998 183.470  1.00  0.00     0.035 C 
ATOM      6  C   UNL     1     181.006 178.963 184.627  1.00  0.00     0.066 C 
ATOM      7  O   UNL     1     182.169 179.049 185.452  1.00  0.00    -0.369 OA
ATOM      8  C   UNL     1     179.748 179.299 185.480  1.00  0.00     0.035 C 
ATOM      9  C   UNL     1     179.849 180.748 186.015  1.00  0.00     0.009 C 
ATOM     10  C   UNL     1     180.903 177.543 184.062  1.00  0.00     0.042 C 
ATOM     11  C   UNL     1     183.737 180.876 185.594  1.00  0.00     0.042 C 
ENDROOT
TORSDOF 0
ENDMDL
MODEL 8
REMARK VINA RESULT:    -4.159      1.263      2.368
REMARK INTER + INTRA:          -4.159
REMARK INTER:                  -4.159
REMARK INTRA:                   0.000
REMARK UNBOUND:                 0.000
REMARK SMILES CC1(C)O[C@]2(C)CC[C@H]1CC2
REMARK SMILES IDX 1 1 2 2 9 3 10 4 11 5 5 6 4 7 7 8 8 9 6 10 3 11
REMARK H PARENT
REMARK Flexibility Score: inf
ROOT
ATOM      1  C   UNL     1     181.235 179.287 181.530  1.00  0.00     0.042 C 
ATOM      2  C   UNL     1     181.536 179.011 183.018  1.00  0.00     0.066 C 
ATOM      3  C   UNL     1     180.205 178.703 183.809  1.00  0.00     0.021 C 
ATOM      4  C   UNL     1     180.559 178.486 185.300  1.00  0.00     0.009 C 
ATOM      5  C   UNL     1     181.409 179.679 185.799  1.00  0.00     0.035 C 
ATOM      6  C   UNL     1     181.546 180.740 184.668  1.00  0.00     0.066 C 
ATOM      7  O   UNL     1     182.221 180.152 183.554  1.00  0.00    -0.369 OA
ATOM      8  C   UNL     1     180.124 181.190 184.223  1.00  0.00     0.035 C 
ATOM      9  C   UNL     1     179.305 179.961 183.761  1.00  0.00     0.009 C 
ATOM     10  C   UNL     1     182.357 181.942 185.160  1.00  0.00     0.042 C 
ATOM     11  C   UNL     1     182.496 177.803 183.077  1.00  0.00     0.042 C 
ENDROOT
TORSDOF 0
ENDMDL
MODEL 9
REMARK VINA RESULT:    -4.092      1.349      3.438
REMARK INTER + INTRA:          -4.092
REMARK INTER:                  -4.092
REMARK INTRA:                   0.000
REMARK UNBOUND:                 0.000
REMARK SMILES CC1(C)O[C@]2(C)CC[C@H]1CC2
REMARK SMILES IDX 1 1 2 2 9 3 10 4 11 5 5 6 4 7 7 8 8 9 6 10 3 11
REMARK H PARENT
REMARK Flexibility Score: inf
ROOT
ATOM      1  C   UNL     1     181.194 177.926 184.476  1.00  0.00     0.042 C 
ATOM      2  C   UNL     1     181.180 179.398 184.938  1.00  0.00     0.066 C 
ATOM      3  C   UNL     1     179.698 179.909 185.130  1.00  0.00     0.021 C 
ATOM      4  C   UNL     1     179.744 181.400 185.542  1.00  0.00     0.009 C 
ATOM      5  C   UNL     1     180.626 182.178 184.536  1.00  0.00     0.035 C 
ATOM      6  C   UNL     1     181.097 181.225 183.399  1.00  0.00     0.066 C 
ATOM      7  O   UNL     1     181.889 180.179 183.964  1.00  0.00    -0.369 OA
ATOM      8  C   UNL     1     179.847 180.605 182.710  1.00  0.00     0.035 C 
ATOM      9  C   UNL     1     178.983 179.864 183.759  1.00  0.00     0.009 C 
ATOM     10  C   UNL     1     181.944 181.991 182.378  1.00  0.00     0.042 C 
ATOM     11  C   UNL     1     181.959 179.470 186.269  1.00  0.00     0.042 C 
ENDROOT
TORSDOF 0
ENDMDL
