MODEL 1
REMARK VINA RESULT:    -5.965      0.000      0.000
REMARK INTER + INTRA:         -11.517
REMARK INTER:                 -10.150
REMARK INTRA:                  -1.367
REMARK UNBOUND:                -1.367
REMARK SMILES CCCCCCCCCCCCCC(=O)[O-]
REMARK SMILES IDX 8 1 9 2 10 3 11 4 12 5 13 6 14 7 15 8 16 9 7 10 6 11 5 12
REMARK SMILES IDX 4 13 3 14 2 15 1 16
REMARK H PARENT
REMARK Flexibility Score: inf
ROOT
ATOM      1  C   UNL     1     -22.579  38.733   6.882  1.00  0.00     0.000 C 
ENDROOT
BRANCH   1   2
ATOM      2  C   UNL     1     -22.487  38.593   5.353  1.00  0.00     0.000 C 
BRANCH   2   3
ATOM      3  C   UNL     1     -21.066  38.839   4.813  1.00  0.00     0.000 C 
BRANCH   3   4
ATOM      4  C   UNL     1     -20.340  40.059   5.410  1.00  0.00     0.000 C 
BRANCH   4   5
ATOM      5  C   UNL     1     -20.410  41.300   4.504  1.00  0.00     0.006 C 
BRANCH   5   6
ATOM      6  C   UNL     1     -19.026  41.917   4.258  1.00  0.00     0.053 C 
BRANCH   6   7
ATOM      7  C   UNL     1     -19.101  43.404   4.093  1.00  0.00     0.041 C 
ATOM      8  O   UNL     1     -18.837  44.164   5.061  1.00  0.00    -0.550 OA
ATOM      9  O   UNL     1     -19.488  43.949   2.875  1.00  0.00    -0.550 OA
ENDBRANCH   6   7
ENDBRANCH   5   6
ENDBRANCH   4   5
ENDBRANCH   3   4
ENDBRANCH   2   3
ENDBRANCH   1   2
BRANCH   1  10
ATOM     10  C   UNL     1     -23.492  37.671   7.517  1.00  0.00     0.000 C 
BRANCH  10  11
ATOM     11  C   UNL     1     -23.154  37.405   8.992  1.00  0.00    -0.000 C 
BRANCH  11  12
ATOM     12  C   UNL     1     -21.638  37.447   9.223  1.00  0.00    -0.000 C 
BRANCH  12  13
ATOM     13  C   UNL     1     -21.026  36.043   9.117  1.00  0.00    -0.000 C 
BRANCH  13  14
ATOM     14  C   UNL     1     -19.657  36.044   8.418  1.00  0.00    -0.000 C 
BRANCH  14  15
ATOM     15  C   UNL     1     -19.767  36.266   6.902  1.00  0.00    -0.003 C 
ATOM     16  C   UNL     1     -20.833  35.362   6.290  1.00  0.00     0.004 C 
ENDBRANCH  14  15
ENDBRANCH  13  14
ENDBRANCH  12  13
ENDBRANCH  11  12
ENDBRANCH  10  11
ENDBRANCH   1  10
TORSDOF 12
ENDMDL
MODEL 2
REMARK VINA RESULT:    -5.921      0.900      1.699
REMARK INTER + INTRA:         -11.441
REMARK INTER:                 -10.260
REMARK INTRA:                  -1.181
REMARK UNBOUND:                -1.367
REMARK SMILES CCCCCCCCCCCCCC(=O)[O-]
REMARK SMILES IDX 8 1 9 2 10 3 11 4 12 5 13 6 14 7 15 8 16 9 7 10 6 11 5 12
REMARK SMILES IDX 4 13 3 14 2 15 1 16
REMARK H PARENT
REMARK Flexibility Score: inf
ROOT
ATOM      1  C   UNL     1     -22.625  37.823   5.529  1.00  0.00     0.000 C 
ENDROOT
BRANCH   1   2
ATOM      2  C   UNL     1     -21.153  37.917   5.093  1.00  0.00     0.000 C 
BRANCH   2   3
ATOM      3  C   UNL     1     -20.484  39.236   5.521  1.00  0.00     0.000 C 
BRANCH   3   4
ATOM      4  C   UNL     1     -21.277  40.513   5.185  1.00  0.00     0.000 C 
BRANCH   4   5
ATOM      5  C   UNL     1     -20.657  41.317   4.030  1.00  0.00     0.006 C 
BRANCH   5   6
ATOM      6  C   UNL     1     -19.262  41.853   4.382  1.00  0.00     0.053 C 
BRANCH   6   7
ATOM      7  C   UNL     1     -19.110  43.296   4.009  1.00  0.00     0.041 C 
ATOM      8  O   UNL     1     -19.418  43.688   2.853  1.00  0.00    -0.550 OA
ATOM      9  O   UNL     1     -18.603  44.203   4.932  1.00  0.00    -0.550 OA
ENDBRANCH   6   7
ENDBRANCH   5   6
ENDBRANCH   4   5
ENDBRANCH   3   4
ENDBRANCH   2   3
ENDBRANCH   1   2
BRANCH   1  10
ATOM     10  C   UNL     1     -23.036  36.392   5.914  1.00  0.00     0.000 C 
BRANCH  10  11
ATOM     11  C   UNL     1     -23.585  36.298   7.346  1.00  0.00    -0.000 C 
BRANCH  11  12
ATOM     12  C   UNL     1     -23.295  37.584   8.130  1.00  0.00    -0.000 C 
BRANCH  12  13
ATOM     13  C   UNL     1     -22.184  37.358   9.166  1.00  0.00    -0.000 C 
BRANCH  13  14
ATOM     14  C   UNL     1     -21.450  36.023   8.965  1.00  0.00    -0.000 C 
BRANCH  14  15
ATOM     15  C   UNL     1     -19.922  36.175   9.008  1.00  0.00    -0.003 C 
ATOM     16  C   UNL     1     -19.330  36.172   7.602  1.00  0.00     0.004 C 
ENDBRANCH  14  15
ENDBRANCH  13  14
ENDBRANCH  12  13
ENDBRANCH  11  12
ENDBRANCH  10  11
ENDBRANCH   1  10
TORSDOF 12
ENDMDL
MODEL 3
REMARK VINA RESULT:    -5.911      2.963      6.490
REMARK INTER + INTRA:         -11.425
REMARK INTER:                 -10.465
REMARK INTRA:                  -0.960
REMARK UNBOUND:                -1.367
REMARK SMILES CCCCCCCCCCCCCC(=O)[O-]
REMARK SMILES IDX 8 1 9 2 10 3 11 4 12 5 13 6 14 7 15 8 16 9 7 10 6 11 5 12
REMARK SMILES IDX 4 13 3 14 2 15 1 16
REMARK H PARENT
REMARK Flexibility Score: inf
ROOT
ATOM      1  C   UNL     1     -22.016  39.566   6.988  1.00  0.00     0.000 C 
ENDROOT
BRANCH   1   2
ATOM      2  C   UNL     1     -22.361  38.551   8.092  1.00  0.00     0.000 C 
BRANCH   2   3
ATOM      3  C   UNL     1     -23.625  37.729   7.778  1.00  0.00     0.000 C 
BRANCH   3   4
ATOM      4  C   UNL     1     -23.369  36.277   7.335  1.00  0.00     0.000 C 
BRANCH   4   5
ATOM      5  C   UNL     1     -22.046  35.709   7.876  1.00  0.00     0.006 C 
BRANCH   5   6
ATOM      6  C   UNL     1     -20.965  35.624   6.789  1.00  0.00     0.053 C 
BRANCH   6   7
ATOM      7  C   UNL     1     -19.704  36.317   7.203  1.00  0.00     0.041 C 
ATOM      8  O   UNL     1     -19.050  36.996   6.369  1.00  0.00    -0.550 OA
ATOM      9  O   UNL     1     -19.237  36.191   8.505  1.00  0.00    -0.550 OA
ENDBRANCH   6   7
ENDBRANCH   5   6
ENDBRANCH   4   5
ENDBRANCH   3   4
ENDBRANCH   2   3
ENDBRANCH   1   2
BRANCH   1  10
ATOM     10  C   UNL     1     -22.414  39.071   5.587  1.00  0.00     0.000 C 
BRANCH  10  11
ATOM     11  C   UNL     1     -21.243  39.103   4.592  1.00  0.00    -0.000 C 
BRANCH  11  12
ATOM     12  C   UNL     1     -20.152  40.072   5.062  1.00  0.00    -0.000 C 
BRANCH  12  13
ATOM     13  C   UNL     1     -20.234  41.403   4.300  1.00  0.00    -0.000 C 
BRANCH  13  14
ATOM     14  C   UNL     1     -18.930  42.212   4.379  1.00  0.00    -0.000 C 
BRANCH  14  15
ATOM     15  C   UNL     1     -19.157  43.721   4.196  1.00  0.00    -0.003 C 
ATOM     16  C   UNL     1     -18.354  44.524   5.215  1.00  0.00     0.004 C 
ENDBRANCH  14  15
ENDBRANCH  13  14
ENDBRANCH  12  13
ENDBRANCH  11  12
ENDBRANCH  10  11
ENDBRANCH   1  10
TORSDOF 12
ENDMDL
MODEL 4
REMARK VINA RESULT:    -5.903      0.883      2.528
REMARK INTER + INTRA:         -11.411
REMARK INTER:                  -9.988
REMARK INTRA:                  -1.424
REMARK UNBOUND:                -1.367
REMARK SMILES CCCCCCCCCCCCCC(=O)[O-]
REMARK SMILES IDX 8 1 9 2 10 3 11 4 12 5 13 6 14 7 15 8 16 9 7 10 6 11 5 12
REMARK SMILES IDX 4 13 3 14 2 15 1 16
REMARK H PARENT
REMARK Flexibility Score: inf
ROOT
ATOM      1  C   UNL     1     -19.859  38.172   5.855  1.00  0.00     0.000 C 
ENDROOT
BRANCH   1   2
ATOM      2  C   UNL     1     -21.272  37.893   5.315  1.00  0.00     0.000 C 
BRANCH   2   3
ATOM      3  C   UNL     1     -22.088  39.177   5.077  1.00  0.00     0.000 C 
BRANCH   3   4
ATOM      4  C   UNL     1     -21.383  40.485   5.481  1.00  0.00     0.000 C 
BRANCH   4   5
ATOM      5  C   UNL     1     -20.917  41.313   4.271  1.00  0.00     0.006 C 
BRANCH   5   6
ATOM      6  C   UNL     1     -19.442  41.724   4.384  1.00  0.00     0.053 C 
BRANCH   6   7
ATOM      7  C   UNL     1     -19.240  43.170   4.051  1.00  0.00     0.041 C 
ATOM      8  O   UNL     1     -19.370  43.571   2.864  1.00  0.00    -0.550 OA
ATOM      9  O   UNL     1     -18.882  44.069   5.047  1.00  0.00    -0.550 OA
ENDBRANCH   6   7
ENDBRANCH   5   6
ENDBRANCH   4   5
ENDBRANCH   3   4
ENDBRANCH   2   3
ENDBRANCH   1   2
BRANCH   1  10
ATOM     10  C   UNL     1     -19.225  36.935   6.513  1.00  0.00     0.000 C 
BRANCH  10  11
ATOM     11  C   UNL     1     -20.262  36.027   7.192  1.00  0.00    -0.000 C 
BRANCH  11  12
ATOM     12  C   UNL     1     -20.189  36.159   8.718  1.00  0.00    -0.000 C 
BRANCH  12  13
ATOM     13  C   UNL     1     -21.589  36.353   9.320  1.00  0.00    -0.000 C 
BRANCH  13  14
ATOM     14  C   UNL     1     -22.260  37.653   8.852  1.00  0.00    -0.000 C 
BRANCH  14  15
ATOM     15  C   UNL     1     -23.724  37.447   8.434  1.00  0.00    -0.003 C 
ATOM     16  C   UNL     1     -23.837  36.406   7.324  1.00  0.00     0.004 C 
ENDBRANCH  14  15
ENDBRANCH  13  14
ENDBRANCH  12  13
ENDBRANCH  11  12
ENDBRANCH  10  11
ENDBRANCH   1  10
TORSDOF 12
ENDMDL
MODEL 5
REMARK VINA RESULT:    -5.699      3.535      6.757
REMARK INTER + INTRA:         -11.064
REMARK INTER:                  -9.936
REMARK INTRA:                  -1.128
REMARK UNBOUND:                -1.367
REMARK SMILES CCCCCCCCCCCCCC(=O)[O-]
REMARK SMILES IDX 8 1 9 2 10 3 11 4 12 5 13 6 14 7 15 8 16 9 7 10 6 11 5 12
REMARK SMILES IDX 4 13 3 14 2 15 1 16
REMARK H PARENT
REMARK Flexibility Score: inf
ROOT
ATOM      1  C   UNL     1     -20.623  36.266   6.198  1.00  0.00     0.000 C 
ENDROOT
BRANCH   1   2
ATOM      2  C   UNL     1     -19.404  36.544   7.094  1.00  0.00     0.000 C 
BRANCH   2   3
ATOM      3  C   UNL     1     -19.646  36.172   8.569  1.00  0.00     0.000 C 
BRANCH   3   4
ATOM      4  C   UNL     1     -21.092  35.771   8.915  1.00  0.00     0.000 C 
BRANCH   4   5
ATOM      5  C   UNL     1     -21.840  36.852   9.714  1.00  0.00     0.006 C 
BRANCH   5   6
ATOM      6  C   UNL     1     -22.605  37.821   8.802  1.00  0.00     0.053 C 
BRANCH   6   7
ATOM      7  C   UNL     1     -23.949  37.281   8.421  1.00  0.00     0.041 C 
ATOM      8  O   UNL     1     -24.083  36.592   7.376  1.00  0.00    -0.550 OA
ATOM      9  O   UNL     1     -25.059  37.564   9.207  1.00  0.00    -0.550 OA
ENDBRANCH   6   7
ENDBRANCH   5   6
ENDBRANCH   4   5
ENDBRANCH   3   4
ENDBRANCH   2   3
ENDBRANCH   1   2
BRANCH   1  10
ATOM     10  C   UNL     1     -21.178  37.542   5.544  1.00  0.00     0.000 C 
BRANCH  10  11
ATOM     11  C   UNL     1     -20.177  38.708   5.576  1.00  0.00    -0.000 C 
BRANCH  11  12
ATOM     12  C   UNL     1     -20.907  40.056   5.554  1.00  0.00    -0.000 C 
BRANCH  12  13
ATOM     13  C   UNL     1     -21.259  40.467   4.116  1.00  0.00    -0.000 C 
BRANCH  13  14
ATOM     14  C   UNL     1     -20.633  41.812   3.714  1.00  0.00    -0.000 C 
BRANCH  14  15
ATOM     15  C   UNL     1     -19.331  42.109   4.473  1.00  0.00    -0.003 C 
ATOM     16  C   UNL     1     -19.031  43.605   4.484  1.00  0.00     0.004 C 
ENDBRANCH  14  15
ENDBRANCH  13  14
ENDBRANCH  12  13
ENDBRANCH  11  12
ENDBRANCH  10  11
ENDBRANCH   1  10
TORSDOF 12
ENDMDL
MODEL 6
REMARK VINA RESULT:    -5.438     11.668     13.525
REMARK INTER + INTRA:         -10.620
REMARK INTER:                  -9.074
REMARK INTRA:                  -1.545
REMARK UNBOUND:                -1.367
REMARK SMILES CCCCCCCCCCCCCC(=O)[O-]
REMARK SMILES IDX 8 1 9 2 10 3 11 4 12 5 13 6 14 7 15 8 16 9 7 10 6 11 5 12
REMARK SMILES IDX 4 13 3 14 2 15 1 16
REMARK H PARENT
REMARK Flexibility Score: inf
ROOT
ATOM      1  C   UNL     1     -18.727  43.970  -6.257  1.00  0.00     0.000 C 
ENDROOT
BRANCH   1   2
ATOM      2  C   UNL     1     -19.815  44.996  -6.617  1.00  0.00     0.000 C 
BRANCH   2   3
ATOM      3  C   UNL     1     -21.024  44.363  -7.331  1.00  0.00     0.000 C 
BRANCH   3   4
ATOM      4  C   UNL     1     -22.300  44.242  -6.476  1.00  0.00     0.000 C 
BRANCH   4   5
ATOM      5  C   UNL     1     -22.426  42.877  -5.778  1.00  0.00     0.006 C 
BRANCH   5   6
ATOM      6  C   UNL     1     -23.260  41.883  -6.598  1.00  0.00     0.053 C 
BRANCH   6   7
ATOM      7  C   UNL     1     -22.476  40.655  -6.947  1.00  0.00     0.041 C 
ATOM      8  O   UNL     1     -22.492  39.654  -6.184  1.00  0.00    -0.550 OA
ATOM      9  O   UNL     1     -21.706  40.628  -8.103  1.00  0.00    -0.550 OA
ENDBRANCH   6   7
ENDBRANCH   5   6
ENDBRANCH   4   5
ENDBRANCH   3   4
ENDBRANCH   2   3
ENDBRANCH   1   2
BRANCH   1  10
ATOM     10  C   UNL     1     -18.681  42.790  -7.241  1.00  0.00     0.000 C 
BRANCH  10  11
ATOM     11  C   UNL     1     -18.312  41.463  -6.558  1.00  0.00    -0.000 C 
BRANCH  11  12
ATOM     12  C   UNL     1     -19.206  41.207  -5.339  1.00  0.00    -0.000 C 
BRANCH  12  13
ATOM     13  C   UNL     1     -18.435  40.464  -4.238  1.00  0.00    -0.000 C 
BRANCH  13  14
ATOM     14  C   UNL     1     -16.949  40.277  -4.579  1.00  0.00    -0.000 C 
BRANCH  14  15
ATOM     15  C   UNL     1     -16.023  41.077  -3.650  1.00  0.00    -0.003 C 
ATOM     16  C   UNL     1     -16.495  42.523  -3.517  1.00  0.00     0.004 C 
ENDBRANCH  14  15
ENDBRANCH  13  14
ENDBRANCH  12  13
ENDBRANCH  11  12
ENDBRANCH  10  11
ENDBRANCH   1  10
TORSDOF 12
ENDMDL
MODEL 7
REMARK VINA RESULT:    -5.306     11.903     13.446
REMARK INTER + INTRA:         -10.395
REMARK INTER:                  -8.993
REMARK INTRA:                  -1.401
REMARK UNBOUND:                -1.367
REMARK SMILES CCCCCCCCCCCCCC(=O)[O-]
REMARK SMILES IDX 8 1 9 2 10 3 11 4 12 5 13 6 14 7 15 8 16 9 7 10 6 11 5 12
REMARK SMILES IDX 4 13 3 14 2 15 1 16
REMARK H PARENT
REMARK Flexibility Score: inf
ROOT
ATOM      1  C   UNL     1     -20.303  41.058  -5.742  1.00  0.00     0.000 C 
ENDROOT
BRANCH   1   2
ATOM      2  C   UNL     1     -21.598  40.358  -6.191  1.00  0.00     0.000 C 
BRANCH   2   3
ATOM      3  C   UNL     1     -22.734  41.346  -6.512  1.00  0.00     0.000 C 
BRANCH   3   4
ATOM      4  C   UNL     1     -22.668  42.688  -5.758  1.00  0.00     0.000 C 
BRANCH   4   5
ATOM      5  C   UNL     1     -22.477  43.893  -6.695  1.00  0.00     0.006 C 
BRANCH   5   6
ATOM      6  C   UNL     1     -23.342  45.091  -6.280  1.00  0.00     0.053 C 
BRANCH   6   7
ATOM      7  C   UNL     1     -24.713  45.022  -6.879  1.00  0.00     0.041 C 
ATOM      8  O   UNL     1     -25.712  45.421  -6.225  1.00  0.00    -0.550 OA
ATOM      9  O   UNL     1     -24.889  44.493  -8.151  1.00  0.00    -0.550 OA
ENDBRANCH   6   7
ENDBRANCH   5   6
ENDBRANCH   4   5
ENDBRANCH   3   4
ENDBRANCH   2   3
ENDBRANCH   1   2
BRANCH   1  10
ATOM     10  C   UNL     1     -19.259  41.143  -6.868  1.00  0.00     0.000 C 
BRANCH  10  11
ATOM     11  C   UNL     1     -18.605  42.530  -6.965  1.00  0.00    -0.000 C 
BRANCH  11  12
ATOM     12  C   UNL     1     -18.702  43.277  -5.629  1.00  0.00    -0.000 C 
BRANCH  12  13
ATOM     13  C   UNL     1     -17.347  43.291  -4.907  1.00  0.00    -0.000 C 
BRANCH  13  14
ATOM     14  C   UNL     1     -17.377  42.527  -3.575  1.00  0.00    -0.000 C 
BRANCH  14  15
ATOM     15  C   UNL     1     -16.249  41.490  -3.462  1.00  0.00    -0.003 C 
ATOM     16  C   UNL     1     -16.618  40.196  -4.181  1.00  0.00     0.004 C 
ENDBRANCH  14  15
ENDBRANCH  13  14
ENDBRANCH  12  13
ENDBRANCH  11  12
ENDBRANCH  10  11
ENDBRANCH   1  10
TORSDOF 12
ENDMDL
MODEL 8
REMARK VINA RESULT:    -5.267     11.278     13.553
REMARK INTER + INTRA:         -10.329
REMARK INTER:                  -9.025
REMARK INTRA:                  -1.304
REMARK UNBOUND:                -1.367
REMARK SMILES CCCCCCCCCCCCCC(=O)[O-]
REMARK SMILES IDX 8 1 9 2 10 3 11 4 12 5 13 6 14 7 15 8 16 9 7 10 6 11 5 12
REMARK SMILES IDX 4 13 3 14 2 15 1 16
REMARK H PARENT
REMARK Flexibility Score: inf
ROOT
ATOM      1  C   UNL     1     -18.526  43.093  -6.810  1.00  0.00     0.000 C 
ENDROOT
BRANCH   1   2
ATOM      2  C   UNL     1     -18.594  41.774  -7.598  1.00  0.00     0.000 C 
BRANCH   2   3
ATOM      3  C   UNL     1     -17.842  40.622  -6.906  1.00  0.00     0.000 C 
BRANCH   3   4
ATOM      4  C   UNL     1     -17.964  40.589  -5.371  1.00  0.00     0.000 C 
BRANCH   4   5
ATOM      5  C   UNL     1     -16.685  40.087  -4.678  1.00  0.00     0.006 C 
BRANCH   5   6
ATOM      6  C   UNL     1     -16.349  40.903  -3.422  1.00  0.00     0.053 C 
BRANCH   6   7
ATOM      7  C   UNL     1     -16.686  42.352  -3.594  1.00  0.00     0.041 C 
ATOM      8  O   UNL     1     -15.891  43.121  -4.194  1.00  0.00    -0.550 OA
ATOM      9  O   UNL     1     -17.867  42.858  -3.065  1.00  0.00    -0.550 OA
ENDBRANCH   6   7
ENDBRANCH   5   6
ENDBRANCH   4   5
ENDBRANCH   3   4
ENDBRANCH   2   3
ENDBRANCH   1   2
BRANCH   1  10
ATOM     10  C   UNL     1     -19.731  44.008  -7.086  1.00  0.00     0.000 C 
BRANCH  10  11
ATOM     11  C   UNL     1     -20.647  43.463  -8.193  1.00  0.00    -0.000 C 
BRANCH  11  12
ATOM     12  C   UNL     1     -22.123  43.593  -7.796  1.00  0.00    -0.000 C 
BRANCH  12  13
ATOM     13  C   UNL     1     -22.373  42.985  -6.407  1.00  0.00    -0.000 C 
BRANCH  13  14
ATOM     14  C   UNL     1     -23.539  41.983  -6.401  1.00  0.00    -0.000 C 
BRANCH  14  15
ATOM     15  C   UNL     1     -23.067  40.525  -6.509  1.00  0.00    -0.003 C 
ATOM     16  C   UNL     1     -21.604  40.389  -6.096  1.00  0.00     0.004 C 
ENDBRANCH  14  15
ENDBRANCH  13  14
ENDBRANCH  12  13
ENDBRANCH  11  12
ENDBRANCH  10  11
ENDBRANCH   1  10
TORSDOF 12
ENDMDL
MODEL 9
REMARK VINA RESULT:    -5.245     11.422     13.625
REMARK INTER + INTRA:         -10.291
REMARK INTER:                  -8.864
REMARK INTRA:                  -1.427
REMARK UNBOUND:                -1.367
REMARK SMILES CCCCCCCCCCCCCC(=O)[O-]
REMARK SMILES IDX 8 1 9 2 10 3 11 4 12 5 13 6 14 7 15 8 16 9 7 10 6 11 5 12
REMARK SMILES IDX 4 13 3 14 2 15 1 16
REMARK H PARENT
REMARK Flexibility Score: inf
ROOT
ATOM      1  C   UNL     1     -18.786  42.353  -7.626  1.00  0.00     0.000 C 
ENDROOT
BRANCH   1   2
ATOM      2  C   UNL     1     -19.031  43.811  -7.198  1.00  0.00     0.000 C 
BRANCH   2   3
ATOM      3  C   UNL     1     -18.396  44.150  -5.837  1.00  0.00     0.000 C 
BRANCH   3   4
ATOM      4  C   UNL     1     -17.618  43.000  -5.171  1.00  0.00     0.000 C 
BRANCH   4   5
ATOM      5  C   UNL     1     -18.370  42.379  -3.981  1.00  0.00     0.006 C 
BRANCH   5   6
ATOM      6  C   UNL     1     -18.693  40.896  -4.212  1.00  0.00     0.053 C 
BRANCH   6   7
ATOM      7  C   UNL     1     -17.491  40.129  -4.672  1.00  0.00     0.041 C 
ATOM      8  O   UNL     1     -17.487  39.574  -5.802  1.00  0.00    -0.550 OA
ATOM      9  O   UNL     1     -16.385  40.007  -3.840  1.00  0.00    -0.550 OA
ENDBRANCH   6   7
ENDBRANCH   5   6
ENDBRANCH   4   5
ENDBRANCH   3   4
ENDBRANCH   2   3
ENDBRANCH   1   2
BRANCH   1  10
ATOM     10  C   UNL     1     -20.036  41.703  -8.244  1.00  0.00     0.000 C 
BRANCH  10  11
ATOM     11  C   UNL     1     -20.449  40.410  -7.524  1.00  0.00    -0.000 C 
BRANCH  11  12
ATOM     12  C   UNL     1     -21.261  40.723  -6.261  1.00  0.00    -0.000 C 
BRANCH  12  13
ATOM     13  C   UNL     1     -22.762  40.501  -6.504  1.00  0.00    -0.000 C 
BRANCH  13  14
ATOM     14  C   UNL     1     -23.497  41.794  -6.888  1.00  0.00    -0.000 C 
BRANCH  14  15
ATOM     15  C   UNL     1     -23.551  42.809  -5.737  1.00  0.00    -0.003 C 
ATOM     16  C   UNL     1     -22.509  43.909  -5.926  1.00  0.00     0.004 C 
ENDBRANCH  14  15
ENDBRANCH  13  14
ENDBRANCH  12  13
ENDBRANCH  11  12
ENDBRANCH  10  11
ENDBRANCH   1  10
TORSDOF 12
ENDMDL
