MODEL 1
REMARK VINA RESULT:    -4.243      0.000      0.000
REMARK INTER + INTRA:          -8.915
REMARK INTER:                  -7.220
REMARK INTRA:                  -1.695
REMARK UNBOUND:                -1.695
REMARK SMILES CCCCCCCCCCCCCC(=O)[O-]
REMARK SMILES IDX 8 1 9 2 10 3 11 4 12 5 13 6 14 7 15 8 16 9 7 10 6 11 5 12
REMARK SMILES IDX 4 13 3 14 2 15 1 16
REMARK H PARENT
REMARK Flexibility Score: inf
ROOT
ATOM      1  C   UNL     1      11.824  78.192  30.339  1.00  0.00     0.000 C 
ENDROOT
BRANCH   1   2
ATOM      2  C   UNL     1      11.271  78.750  31.662  1.00  0.00     0.000 C 
BRANCH   2   3
ATOM      3  C   UNL     1      11.407  77.809  32.873  1.00  0.00     0.000 C 
BRANCH   3   4
ATOM      4  C   UNL     1      10.310  78.026  33.926  1.00  0.00     0.000 C 
BRANCH   4   5
ATOM      5  C   UNL     1      10.646  79.216  34.833  1.00  0.00     0.006 C 
BRANCH   5   6
ATOM      6  C   UNL     1       9.376  79.952  35.267  1.00  0.00     0.053 C 
BRANCH   6   7
ATOM      7  C   UNL     1       8.556  80.330  34.074  1.00  0.00     0.041 C 
ATOM      8  O   UNL     1       7.353  79.969  33.992  1.00  0.00    -0.550 OA
ATOM      9  O   UNL     1       9.105  81.123  33.075  1.00  0.00    -0.550 OA
ENDBRANCH   6   7
ENDBRANCH   5   6
ENDBRANCH   4   5
ENDBRANCH   3   4
ENDBRANCH   2   3
ENDBRANCH   1   2
BRANCH   1  10
ATOM     10  C   UNL     1      10.890  78.441  29.146  1.00  0.00     0.000 C 
BRANCH  10  11
ATOM     11  C   UNL     1       9.740  79.380  29.535  1.00  0.00    -0.000 C 
BRANCH  11  12
ATOM     12  C   UNL     1       8.400  78.631  29.546  1.00  0.00    -0.000 C 
BRANCH  12  13
ATOM     13  C   UNL     1       7.929  78.272  30.965  1.00  0.00    -0.000 C 
BRANCH  13  14
ATOM     14  C   UNL     1       7.538  76.795  31.164  1.00  0.00    -0.000 C 
BRANCH  14  15
ATOM     15  C   UNL     1       8.690  75.911  31.688  1.00  0.00    -0.003 C 
ATOM     16  C   UNL     1       9.543  75.333  30.559  1.00  0.00     0.004 C 
ENDBRANCH  14  15
ENDBRANCH  13  14
ENDBRANCH  12  13
ENDBRANCH  11  12
ENDBRANCH  10  11
ENDBRANCH   1  10
TORSDOF 12
ENDMDL
MODEL 2
REMARK VINA RESULT:    -4.236     16.482     18.180
REMARK INTER + INTRA:          -8.903
REMARK INTER:                  -7.892
REMARK INTRA:                  -1.011
REMARK UNBOUND:                -1.695
REMARK SMILES CCCCCCCCCCCCCC(=O)[O-]
REMARK SMILES IDX 8 1 9 2 10 3 11 4 12 5 13 6 14 7 15 8 16 9 7 10 6 11 5 12
REMARK SMILES IDX 4 13 3 14 2 15 1 16
REMARK H PARENT
REMARK Flexibility Score: inf
ROOT
ATOM      1  C   UNL     1      20.217  76.102  19.807  1.00  0.00     0.000 C 
ENDROOT
BRANCH   1   2
ATOM      2  C   UNL     1      20.347  74.768  20.563  1.00  0.00     0.000 C 
BRANCH   2   3
ATOM      3  C   UNL     1      19.235  73.744  20.272  1.00  0.00     0.000 C 
BRANCH   3   4
ATOM      4  C   UNL     1      18.654  73.876  18.857  1.00  0.00     0.000 C 
BRANCH   4   5
ATOM      5  C   UNL     1      17.921  72.595  18.441  1.00  0.00     0.006 C 
BRANCH   5   6
ATOM      6  C   UNL     1      18.846  71.379  18.533  1.00  0.00     0.053 C 
BRANCH   6   7
ATOM      7  C   UNL     1      18.068  70.114  18.346  1.00  0.00     0.041 C 
ATOM      8  O   UNL     1      17.829  69.682  17.188  1.00  0.00    -0.550 OA
ATOM      9  O   UNL     1      17.649  69.386  19.452  1.00  0.00    -0.550 OA
ENDBRANCH   6   7
ENDBRANCH   5   6
ENDBRANCH   4   5
ENDBRANCH   3   4
ENDBRANCH   2   3
ENDBRANCH   1   2
BRANCH   1  10
ATOM     10  C   UNL     1      21.503  76.499  19.068  1.00  0.00     0.000 C 
BRANCH  10  11
ATOM     11  C   UNL     1      21.295  76.472  17.548  1.00  0.00    -0.000 C 
BRANCH  11  12
ATOM     12  C   UNL     1      20.012  77.219  17.156  1.00  0.00    -0.000 C 
BRANCH  12  13
ATOM     13  C   UNL     1      20.251  78.291  16.080  1.00  0.00    -0.000 C 
BRANCH  13  14
ATOM     14  C   UNL     1      20.201  79.745  16.589  1.00  0.00    -0.000 C 
BRANCH  14  15
ATOM     15  C   UNL     1      20.152  79.865  18.127  1.00  0.00    -0.003 C 
ATOM     16  C   UNL     1      20.995  81.027  18.649  1.00  0.00     0.004 C 
ENDBRANCH  14  15
ENDBRANCH  13  14
ENDBRANCH  12  13
ENDBRANCH  11  12
ENDBRANCH  10  11
ENDBRANCH   1  10
TORSDOF 12
ENDMDL
MODEL 3
REMARK VINA RESULT:    -4.185      1.807      3.585
REMARK INTER + INTRA:          -8.817
REMARK INTER:                  -7.636
REMARK INTRA:                  -1.181
REMARK UNBOUND:                -1.695
REMARK SMILES CCCCCCCCCCCCCC(=O)[O-]
REMARK SMILES IDX 8 1 9 2 10 3 11 4 12 5 13 6 14 7 15 8 16 9 7 10 6 11 5 12
REMARK SMILES IDX 4 13 3 14 2 15 1 16
REMARK H PARENT
REMARK Flexibility Score: inf
ROOT
ATOM      1  C   UNL     1       7.698  77.142  31.624  1.00  0.00     0.000 C 
ENDROOT
BRANCH   1   2
ATOM      2  C   UNL     1       7.873  78.665  31.483  1.00  0.00     0.000 C 
BRANCH   2   3
ATOM      3  C   UNL     1       7.830  79.451  32.806  1.00  0.00     0.000 C 
BRANCH   3   4
ATOM      4  C   UNL     1       8.793  80.647  32.825  1.00  0.00     0.000 C 
BRANCH   4   5
ATOM      5  C   UNL     1       9.779  80.540  33.994  1.00  0.00     0.006 C 
BRANCH   5   6
ATOM      6  C   UNL     1       9.211  79.664  35.113  1.00  0.00     0.053 C 
BRANCH   6   7
ATOM      7  C   UNL     1      10.290  78.819  35.715  1.00  0.00     0.041 C 
ATOM      8  O   UNL     1      10.059  77.621  36.024  1.00  0.00    -0.550 OA
ATOM      9  O   UNL     1      11.565  79.341  35.892  1.00  0.00    -0.550 OA
ENDBRANCH   6   7
ENDBRANCH   5   6
ENDBRANCH   4   5
ENDBRANCH   3   4
ENDBRANCH   2   3
ENDBRANCH   1   2
BRANCH   1  10
ATOM     10  C   UNL     1       9.032  76.382  31.619  1.00  0.00     0.000 C 
BRANCH  10  11
ATOM     11  C   UNL     1      10.103  77.146  32.410  1.00  0.00    -0.000 C 
BRANCH  11  12
ATOM     12  C   UNL     1      11.384  77.311  31.580  1.00  0.00    -0.000 C 
BRANCH  12  13
ATOM     13  C   UNL     1      11.599  78.754  31.095  1.00  0.00    -0.000 C 
BRANCH  13  14
ATOM     14  C   UNL     1      10.617  79.224  30.004  1.00  0.00    -0.000 C 
BRANCH  14  15
ATOM     15  C   UNL     1      10.914  78.642  28.606  1.00  0.00    -0.003 C 
ATOM     16  C   UNL     1      10.456  77.190  28.468  1.00  0.00     0.004 C 
ENDBRANCH  14  15
ENDBRANCH  13  14
ENDBRANCH  12  13
ENDBRANCH  11  12
ENDBRANCH  10  11
ENDBRANCH   1  10
TORSDOF 12
ENDMDL
MODEL 4
REMARK VINA RESULT:    -4.182     16.274     17.894
REMARK INTER + INTRA:          -8.810
REMARK INTER:                  -8.024
REMARK INTRA:                  -0.786
REMARK UNBOUND:                -1.695
REMARK SMILES CCCCCCCCCCCCCC(=O)[O-]
REMARK SMILES IDX 8 1 9 2 10 3 11 4 12 5 13 6 14 7 15 8 16 9 7 10 6 11 5 12
REMARK SMILES IDX 4 13 3 14 2 15 1 16
REMARK H PARENT
REMARK Flexibility Score: inf
ROOT
ATOM      1  C   UNL     1      19.200  73.880  19.402  1.00  0.00     0.000 C 
ENDROOT
BRANCH   1   2
ATOM      2  C   UNL     1      18.288  73.266  18.325  1.00  0.00     0.000 C 
BRANCH   2   3
ATOM      3  C   UNL     1      18.674  71.845  17.876  1.00  0.00     0.000 C 
BRANCH   3   4
ATOM      4  C   UNL     1      17.569  71.152  17.065  1.00  0.00     0.000 C 
BRANCH   4   5
ATOM      5  C   UNL     1      17.292  69.744  17.604  1.00  0.00     0.006 C 
BRANCH   5   6
ATOM      6  C   UNL     1      17.969  69.532  18.961  1.00  0.00     0.053 C 
BRANCH   6   7
ATOM      7  C   UNL     1      16.945  69.431  20.047  1.00  0.00     0.041 C 
ATOM      8  O   UNL     1      16.948  70.256  20.999  1.00  0.00    -0.550 OA
ATOM      9  O   UNL     1      15.958  68.457  19.984  1.00  0.00    -0.550 OA
ENDBRANCH   6   7
ENDBRANCH   5   6
ENDBRANCH   4   5
ENDBRANCH   3   4
ENDBRANCH   2   3
ENDBRANCH   1   2
BRANCH   1  10
ATOM     10  C   UNL     1      20.136  74.963  18.848  1.00  0.00     0.000 C 
BRANCH  10  11
ATOM     11  C   UNL     1      20.004  76.266  19.649  1.00  0.00    -0.000 C 
BRANCH  11  12
ATOM     12  C   UNL     1      18.970  77.202  19.006  1.00  0.00    -0.000 C 
BRANCH  12  13
ATOM     13  C   UNL     1      19.164  77.353  17.488  1.00  0.00    -0.000 C 
BRANCH  13  14
ATOM     14  C   UNL     1      20.353  78.242  17.073  1.00  0.00    -0.000 C 
BRANCH  14  15
ATOM     15  C   UNL     1      20.032  79.752  17.074  1.00  0.00    -0.003 C 
ATOM     16  C   UNL     1      20.745  80.500  18.200  1.00  0.00     0.004 C 
ENDBRANCH  14  15
ENDBRANCH  13  14
ENDBRANCH  12  13
ENDBRANCH  11  12
ENDBRANCH  10  11
ENDBRANCH   1  10
TORSDOF 12
ENDMDL
MODEL 5
REMARK VINA RESULT:    -4.168      2.016      3.119
REMARK INTER + INTRA:          -8.787
REMARK INTER:                  -7.496
REMARK INTRA:                  -1.290
REMARK UNBOUND:                -1.695
REMARK SMILES CCCCCCCCCCCCCC(=O)[O-]
REMARK SMILES IDX 8 1 9 2 10 3 11 4 12 5 13 6 14 7 15 8 16 9 7 10 6 11 5 12
REMARK SMILES IDX 4 13 3 14 2 15 1 16
REMARK H PARENT
REMARK Flexibility Score: inf
ROOT
ATOM      1  C   UNL     1       9.630  79.838  31.381  1.00  0.00     0.000 C 
ENDROOT
BRANCH   1   2
ATOM      2  C   UNL     1       8.837  80.615  32.447  1.00  0.00     0.000 C 
BRANCH   2   3
ATOM      3  C   UNL     1       7.904  79.756  33.320  1.00  0.00     0.000 C 
BRANCH   3   4
ATOM      4  C   UNL     1       7.911  80.176  34.797  1.00  0.00     0.000 C 
BRANCH   4   5
ATOM      5  C   UNL     1       9.325  80.095  35.384  1.00  0.00     0.006 C 
BRANCH   5   6
ATOM      6  C   UNL     1       9.896  78.681  35.250  1.00  0.00     0.053 C 
BRANCH   6   7
ATOM      7  C   UNL     1      11.336  78.656  35.657  1.00  0.00     0.041 C 
ATOM      8  O   UNL     1      11.986  77.579  35.621  1.00  0.00    -0.550 OA
ATOM      9  O   UNL     1      11.973  79.832  36.029  1.00  0.00    -0.550 OA
ENDBRANCH   6   7
ENDBRANCH   5   6
ENDBRANCH   4   5
ENDBRANCH   3   4
ENDBRANCH   2   3
ENDBRANCH   1   2
BRANCH   1  10
ATOM     10  C   UNL     1      11.044  79.460  31.843  1.00  0.00     0.000 C 
BRANCH  10  11
ATOM     11  C   UNL     1      11.616  78.320  30.990  1.00  0.00    -0.000 C 
BRANCH  11  12
ATOM     12  C   UNL     1      10.900  78.237  29.634  1.00  0.00    -0.000 C 
BRANCH  12  13
ATOM     13  C   UNL     1      10.030  76.977  29.494  1.00  0.00    -0.000 C 
BRANCH  13  14
ATOM     14  C   UNL     1      10.126  75.989  30.673  1.00  0.00    -0.000 C 
BRANCH  14  15
ATOM     15  C   UNL     1       8.767  75.662  31.325  1.00  0.00    -0.003 C 
ATOM     16  C   UNL     1       7.809  76.853  31.310  1.00  0.00     0.004 C 
ENDBRANCH  14  15
ENDBRANCH  13  14
ENDBRANCH  12  13
ENDBRANCH  11  12
ENDBRANCH  10  11
ENDBRANCH   1  10
TORSDOF 12
ENDMDL
MODEL 6
REMARK VINA RESULT:    -4.087     15.727     17.346
REMARK INTER + INTRA:          -8.649
REMARK INTER:                  -7.061
REMARK INTRA:                  -1.588
REMARK UNBOUND:                -1.695
REMARK SMILES CCCCCCCCCCCCCC(=O)[O-]
REMARK SMILES IDX 8 1 9 2 10 3 11 4 12 5 13 6 14 7 15 8 16 9 7 10 6 11 5 12
REMARK SMILES IDX 4 13 3 14 2 15 1 16
REMARK H PARENT
REMARK Flexibility Score: inf
ROOT
ATOM      1  C   UNL     1      17.577  74.564  18.216  1.00  0.00     0.000 C 
ENDROOT
BRANCH   1   2
ATOM      2  C   UNL     1      18.820  74.225  17.372  1.00  0.00     0.000 C 
BRANCH   2   3
ATOM      3  C   UNL     1      20.169  74.494  18.063  1.00  0.00     0.000 C 
BRANCH   3   4
ATOM      4  C   UNL     1      20.049  75.447  19.261  1.00  0.00     0.000 C 
BRANCH   4   5
ATOM      5  C   UNL     1      20.623  76.828  18.924  1.00  0.00     0.006 C 
BRANCH   5   6
ATOM      6  C   UNL     1      19.505  77.836  18.648  1.00  0.00     0.053 C 
BRANCH   6   7
ATOM      7  C   UNL     1      19.586  78.338  17.241  1.00  0.00     0.041 C 
ATOM      8  O   UNL     1      20.089  79.466  16.998  1.00  0.00    -0.550 OA
ATOM      9  O   UNL     1      19.150  77.538  16.192  1.00  0.00    -0.550 OA
ENDBRANCH   6   7
ENDBRANCH   5   6
ENDBRANCH   4   5
ENDBRANCH   3   4
ENDBRANCH   2   3
ENDBRANCH   1   2
BRANCH   1  10
ATOM     10  C   UNL     1      16.751  73.325  18.589  1.00  0.00     0.000 C 
BRANCH  10  11
ATOM     11  C   UNL     1      16.858  73.023  20.089  1.00  0.00    -0.000 C 
BRANCH  11  12
ATOM     12  C   UNL     1      18.216  72.391  20.426  1.00  0.00    -0.000 C 
BRANCH  12  13
ATOM     13  C   UNL     1      18.234  70.868  20.216  1.00  0.00    -0.000 C 
BRANCH  13  14
ATOM     14  C   UNL     1      18.955  70.399  18.937  1.00  0.00    -0.000 C 
BRANCH  14  15
ATOM     15  C   UNL     1      18.031  69.688  17.926  1.00  0.00    -0.003 C 
ATOM     16  C   UNL     1      16.668  69.340  18.523  1.00  0.00     0.004 C 
ENDBRANCH  14  15
ENDBRANCH  13  14
ENDBRANCH  12  13
ENDBRANCH  11  12
ENDBRANCH  10  11
ENDBRANCH   1  10
TORSDOF 12
ENDMDL
MODEL 7
REMARK VINA RESULT:    -4.056     16.481     18.066
REMARK INTER + INTRA:          -8.596
REMARK INTER:                  -7.147
REMARK INTRA:                  -1.449
REMARK UNBOUND:                -1.695
REMARK SMILES CCCCCCCCCCCCCC(=O)[O-]
REMARK SMILES IDX 8 1 9 2 10 3 11 4 12 5 13 6 14 7 15 8 16 9 7 10 6 11 5 12
REMARK SMILES IDX 4 13 3 14 2 15 1 16
REMARK H PARENT
REMARK Flexibility Score: inf
ROOT
ATOM      1  C   UNL     1      17.252  75.923  16.528  1.00  0.00     0.000 C 
ENDROOT
BRANCH   1   2
ATOM      2  C   UNL     1      18.108  74.644  16.545  1.00  0.00     0.000 C 
BRANCH   2   3
ATOM      3  C   UNL     1      17.987  73.797  17.825  1.00  0.00     0.000 C 
BRANCH   3   4
ATOM      4  C   UNL     1      19.211  72.900  18.067  1.00  0.00     0.000 C 
BRANCH   4   5
ATOM      5  C   UNL     1      18.784  71.503  18.532  1.00  0.00     0.006 C 
BRANCH   5   6
ATOM      6  C   UNL     1      18.023  70.764  17.428  1.00  0.00     0.053 C 
BRANCH   6   7
ATOM      7  C   UNL     1      17.231  69.633  18.004  1.00  0.00     0.041 C 
ATOM      8  O   UNL     1      16.453  68.967  17.273  1.00  0.00    -0.550 OA
ATOM      9  O   UNL     1      17.388  69.284  19.339  1.00  0.00    -0.550 OA
ENDBRANCH   6   7
ENDBRANCH   5   6
ENDBRANCH   4   5
ENDBRANCH   3   4
ENDBRANCH   2   3
ENDBRANCH   1   2
BRANCH   1  10
ATOM     10  C   UNL     1      18.072  77.188  16.235  1.00  0.00     0.000 C 
BRANCH  10  11
ATOM     11  C   UNL     1      19.568  76.864  16.136  1.00  0.00    -0.000 C 
BRANCH  11  12
ATOM     12  C   UNL     1      20.358  77.575  17.245  1.00  0.00    -0.000 C 
BRANCH  12  13
ATOM     13  C   UNL     1      19.486  77.939  18.458  1.00  0.00    -0.000 C 
BRANCH  13  14
ATOM     14  C   UNL     1      19.351  76.827  19.516  1.00  0.00    -0.000 C 
BRANCH  14  15
ATOM     15  C   UNL     1      20.630  75.984  19.701  1.00  0.00    -0.003 C 
ATOM     16  C   UNL     1      20.521  75.003  20.868  1.00  0.00     0.004 C 
ENDBRANCH  14  15
ENDBRANCH  13  14
ENDBRANCH  12  13
ENDBRANCH  11  12
ENDBRANCH  10  11
ENDBRANCH   1  10
TORSDOF 12
ENDMDL
MODEL 8
REMARK VINA RESULT:    -4.040     15.588     17.005
REMARK INTER + INTRA:          -8.569
REMARK INTER:                  -7.226
REMARK INTRA:                  -1.344
REMARK UNBOUND:                -1.695
REMARK SMILES CCCCCCCCCCCCCC(=O)[O-]
REMARK SMILES IDX 8 1 9 2 10 3 11 4 12 5 13 6 14 7 15 8 16 9 7 10 6 11 5 12
REMARK SMILES IDX 4 13 3 14 2 15 1 16
REMARK H PARENT
REMARK Flexibility Score: inf
ROOT
ATOM      1  C   UNL     1      18.036  73.207  19.217  1.00  0.00     0.000 C 
ENDROOT
BRANCH   1   2
ATOM      2  C   UNL     1      18.781  71.863  19.131  1.00  0.00     0.000 C 
BRANCH   2   3
ATOM      3  C   UNL     1      18.408  70.987  17.921  1.00  0.00     0.000 C 
BRANCH   3   4
ATOM      4  C   UNL     1      18.025  69.553  18.316  1.00  0.00     0.000 C 
BRANCH   4   5
ATOM      5  C   UNL     1      16.607  69.504  18.898  1.00  0.00     0.006 C 
BRANCH   5   6
ATOM      6  C   UNL     1      16.594  68.790  20.253  1.00  0.00     0.053 C 
BRANCH   6   7
ATOM      7  C   UNL     1      16.500  69.784  21.368  1.00  0.00     0.041 C 
ATOM      8  O   UNL     1      16.047  70.938  21.152  1.00  0.00    -0.550 OA
ATOM      9  O   UNL     1      16.868  69.419  22.656  1.00  0.00    -0.550 OA
ENDBRANCH   6   7
ENDBRANCH   5   6
ENDBRANCH   4   5
ENDBRANCH   3   4
ENDBRANCH   2   3
ENDBRANCH   1   2
BRANCH   1  10
ATOM     10  C   UNL     1      17.235  73.530  17.948  1.00  0.00     0.000 C 
BRANCH  10  11
ATOM     11  C   UNL     1      17.892  74.670  17.157  1.00  0.00    -0.000 C 
BRANCH  11  12
ATOM     12  C   UNL     1      17.443  76.038  17.691  1.00  0.00    -0.000 C 
BRANCH  12  13
ATOM     13  C   UNL     1      18.613  77.015  17.887  1.00  0.00    -0.000 C 
BRANCH  13  14
ATOM     14  C   UNL     1      19.251  76.990  19.290  1.00  0.00    -0.000 C 
BRANCH  14  15
ATOM     15  C   UNL     1      20.505  76.097  19.389  1.00  0.00    -0.003 C 
ATOM     16  C   UNL     1      20.559  75.306  20.695  1.00  0.00     0.004 C 
ENDBRANCH  14  15
ENDBRANCH  13  14
ENDBRANCH  12  13
ENDBRANCH  11  12
ENDBRANCH  10  11
ENDBRANCH   1  10
TORSDOF 12
ENDMDL
MODEL 9
REMARK VINA RESULT:    -3.954     16.347     17.485
REMARK INTER + INTRA:          -8.422
REMARK INTER:                  -6.964
REMARK INTRA:                  -1.458
REMARK UNBOUND:                -1.695
REMARK SMILES CCCCCCCCCCCCCC(=O)[O-]
REMARK SMILES IDX 8 1 9 2 10 3 11 4 12 5 13 6 14 7 15 8 16 9 7 10 6 11 5 12
REMARK SMILES IDX 4 13 3 14 2 15 1 16
REMARK H PARENT
REMARK Flexibility Score: inf
ROOT
ATOM      1  C   UNL     1      17.358  73.439  17.480  1.00  0.00     0.000 C 
ENDROOT
BRANCH   1   2
ATOM      2  C   UNL     1      17.820  74.294  18.673  1.00  0.00     0.000 C 
BRANCH   2   3
ATOM      3  C   UNL     1      19.314  74.169  19.025  1.00  0.00     0.000 C 
BRANCH   3   4
ATOM      4  C   UNL     1      20.009  75.531  19.177  1.00  0.00     0.000 C 
BRANCH   4   5
ATOM      5  C   UNL     1      19.633  76.471  18.026  1.00  0.00     0.006 C 
BRANCH   5   6
ATOM      6  C   UNL     1      19.485  77.913  18.520  1.00  0.00     0.053 C 
BRANCH   6   7
ATOM      7  C   UNL     1      20.051  78.870  17.518  1.00  0.00     0.041 C 
ATOM      8  O   UNL     1      20.156  80.092  17.799  1.00  0.00    -0.550 OA
ATOM      9  O   UNL     1      20.508  78.404  16.292  1.00  0.00    -0.550 OA
ENDBRANCH   6   7
ENDBRANCH   5   6
ENDBRANCH   4   5
ENDBRANCH   3   4
ENDBRANCH   2   3
ENDBRANCH   1   2
BRANCH   1  10
ATOM     10  C   UNL     1      16.129  72.577  17.802  1.00  0.00     0.000 C 
BRANCH  10  11
ATOM     11  C   UNL     1      16.195  71.229  17.071  1.00  0.00    -0.000 C 
BRANCH  11  12
ATOM     12  C   UNL     1      17.646  70.738  16.957  1.00  0.00    -0.000 C 
BRANCH  12  13
ATOM     13  C   UNL     1      18.048  69.797  18.105  1.00  0.00    -0.000 C 
BRANCH  13  14
ATOM     14  C   UNL     1      19.040  70.399  19.120  1.00  0.00    -0.000 C 
BRANCH  14  15
ATOM     15  C   UNL     1      18.381  70.853  20.439  1.00  0.00    -0.003 C 
ATOM     16  C   UNL     1      17.065  70.128  20.716  1.00  0.00     0.004 C 
ENDBRANCH  14  15
ENDBRANCH  13  14
ENDBRANCH  12  13
ENDBRANCH  11  12
ENDBRANCH  10  11
ENDBRANCH   1  10
TORSDOF 12
ENDMDL
