MODEL 1
REMARK VINA RESULT:    -4.144      0.000      0.000
REMARK INTER + INTRA:          -9.831
REMARK INTER:                  -7.535
REMARK INTRA:                  -2.296
REMARK UNBOUND:                -2.296
REMARK SMILES CCCCCCCCCCCCCCCC(=O)[O-]
REMARK SMILES IDX 9 1 10 2 11 3 12 4 13 5 14 6 15 7 16 8 17 9 18 10 8 11 7 12
REMARK SMILES IDX 6 13 5 14 4 15 3 16 2 17 1 18
REMARK H PARENT
REMARK Flexibility Score: inf
ROOT
ATOM      1  C   UNL     1      -4.741  42.793  19.853  1.00  0.00     0.000 C 
ENDROOT
BRANCH   1   2
ATOM      2  C   UNL     1      -4.671  44.318  20.012  1.00  0.00     0.000 C 
BRANCH   2   3
ATOM      3  C   UNL     1      -3.268  44.843  19.675  1.00  0.00     0.000 C 
BRANCH   3   4
ATOM      4  C   UNL     1      -2.256  44.577  20.811  1.00  0.00     0.000 C 
BRANCH   4   5
ATOM      5  C   UNL     1      -1.141  43.590  20.426  1.00  0.00     0.000 C 
BRANCH   5   6
ATOM      6  C   UNL     1      -0.223  43.235  21.604  1.00  0.00     0.006 C 
BRANCH   6   7
ATOM      7  C   UNL     1      -0.634  43.997  22.868  1.00  0.00     0.053 C 
BRANCH   7   8
ATOM      8  C   UNL     1       0.148  43.513  24.047  1.00  0.00     0.041 C 
ATOM      9  O   UNL     1       1.403  43.612  24.059  1.00  0.00    -0.550 OA
ATOM     10  O   UNL     1      -0.511  42.997  25.156  1.00  0.00    -0.550 OA
ENDBRANCH   7   8
ENDBRANCH   6   7
ENDBRANCH   5   6
ENDBRANCH   4   5
ENDBRANCH   3   4
ENDBRANCH   2   3
ENDBRANCH   1   2
BRANCH   1  11
ATOM     11  C   UNL     1      -5.702  42.130  20.858  1.00  0.00     0.000 C 
BRANCH  11  12
ATOM     12  C   UNL     1      -5.032  41.187  21.878  1.00  0.00    -0.000 C 
BRANCH  12  13
ATOM     13  C   UNL     1      -3.895  41.818  22.702  1.00  0.00    -0.000 C 
BRANCH  13  14
ATOM     14  C   UNL     1      -4.403  42.579  23.935  1.00  0.00    -0.000 C 
BRANCH  14  15
ATOM     15  C   UNL     1      -3.893  44.027  23.935  1.00  0.00    -0.000 C 
BRANCH  15  16
ATOM     16  C   UNL     1      -5.008  45.056  23.677  1.00  0.00    -0.000 C 
BRANCH  16  17
ATOM     17  C   UNL     1      -4.537  46.371  23.031  1.00  0.00    -0.003 C 
ATOM     18  C   UNL     1      -3.609  47.182  23.932  1.00  0.00     0.004 C 
ENDBRANCH  16  17
ENDBRANCH  15  16
ENDBRANCH  14  15
ENDBRANCH  13  14
ENDBRANCH  12  13
ENDBRANCH  11  12
ENDBRANCH   1  11
TORSDOF 14
ENDMDL
MODEL 2
REMARK VINA RESULT:    -4.053      2.288      4.272
REMARK INTER + INTRA:          -9.667
REMARK INTER:                  -7.102
REMARK INTRA:                  -2.565
REMARK UNBOUND:                -2.296
REMARK SMILES CCCCCCCCCCCCCCCC(=O)[O-]
REMARK SMILES IDX 9 1 10 2 11 3 12 4 13 5 14 6 15 7 16 8 17 9 18 10 8 11 7 12
REMARK SMILES IDX 6 13 5 14 4 15 3 16 2 17 1 18
REMARK H PARENT
REMARK Flexibility Score: inf
ROOT
ATOM      1  C   UNL     1      -2.980  41.096  20.049  1.00  0.00     0.000 C 
ENDROOT
BRANCH   1   2
ATOM      2  C   UNL     1      -2.231  41.657  21.267  1.00  0.00     0.000 C 
BRANCH   2   3
ATOM      3  C   UNL     1      -0.970  42.420  20.834  1.00  0.00     0.000 C 
BRANCH   3   4
ATOM      4  C   UNL     1      -0.948  43.866  21.376  1.00  0.00     0.000 C 
BRANCH   4   5
ATOM      5  C   UNL     1      -0.819  43.949  22.907  1.00  0.00     0.000 C 
BRANCH   5   6
ATOM      6  C   UNL     1      -1.906  44.820  23.552  1.00  0.00     0.006 C 
BRANCH   6   7
ATOM      7  C   UNL     1      -2.815  43.983  24.456  1.00  0.00     0.053 C 
BRANCH   7   8
ATOM      8  C   UNL     1      -4.020  44.771  24.860  1.00  0.00     0.041 C 
ATOM      9  O   UNL     1      -4.190  45.097  26.065  1.00  0.00    -0.550 OA
ATOM     10  O   UNL     1      -4.932  45.190  23.899  1.00  0.00    -0.550 OA
ENDBRANCH   7   8
ENDBRANCH   6   7
ENDBRANCH   5   6
ENDBRANCH   4   5
ENDBRANCH   3   4
ENDBRANCH   2   3
ENDBRANCH   1   2
BRANCH   1  11
ATOM     11  C   UNL     1      -4.509  41.230  20.174  1.00  0.00     0.000 C 
BRANCH  11  12
ATOM     12  C   UNL     1      -4.992  42.340  21.128  1.00  0.00    -0.000 C 
BRANCH  12  13
ATOM     13  C   UNL     1      -5.354  43.673  20.450  1.00  0.00    -0.000 C 
BRANCH  13  14
ATOM     14  C   UNL     1      -4.231  44.717  20.547  1.00  0.00    -0.000 C 
BRANCH  14  15
ATOM     15  C   UNL     1      -3.774  45.163  19.151  1.00  0.00    -0.000 C 
BRANCH  15  16
ATOM     16  C   UNL     1      -4.417  44.342  18.019  1.00  0.00    -0.000 C 
BRANCH  16  17
ATOM     17  C   UNL     1      -3.424  43.544  17.155  1.00  0.00    -0.003 C 
ATOM     18  C   UNL     1      -1.970  43.736  17.582  1.00  0.00     0.004 C 
ENDBRANCH  16  17
ENDBRANCH  15  16
ENDBRANCH  14  15
ENDBRANCH  13  14
ENDBRANCH  12  13
ENDBRANCH  11  12
ENDBRANCH   1  11
TORSDOF 14
ENDMDL
MODEL 3
REMARK VINA RESULT:    -3.945      2.674      4.670
REMARK INTER + INTRA:          -9.470
REMARK INTER:                  -7.466
REMARK INTRA:                  -2.004
REMARK UNBOUND:                -2.296
REMARK SMILES CCCCCCCCCCCCCCCC(=O)[O-]
REMARK SMILES IDX 9 1 10 2 11 3 12 4 13 5 14 6 15 7 16 8 17 9 18 10 8 11 7 12
REMARK SMILES IDX 6 13 5 14 4 15 3 16 2 17 1 18
REMARK H PARENT
REMARK Flexibility Score: inf
ROOT
ATOM      1  C   UNL     1      -0.004  42.127  21.054  1.00  0.00     0.000 C 
ENDROOT
BRANCH   1   2
ATOM      2  C   UNL     1      -1.364  42.413  20.401  1.00  0.00     0.000 C 
BRANCH   2   3
ATOM      3  C   UNL     1      -1.423  43.848  19.858  1.00  0.00     0.000 C 
BRANCH   3   4
ATOM      4  C   UNL     1      -2.646  44.625  20.390  1.00  0.00     0.000 C 
BRANCH   4   5
ATOM      5  C   UNL     1      -3.582  45.137  19.281  1.00  0.00     0.000 C 
BRANCH   5   6
ATOM      6  C   UNL     1      -4.794  44.224  19.052  1.00  0.00     0.006 C 
BRANCH   6   7
ATOM      7  C   UNL     1      -5.330  43.679  20.380  1.00  0.00     0.053 C 
BRANCH   7   8
ATOM      8  C   UNL     1      -5.339  42.184  20.366  1.00  0.00     0.041 C 
ATOM      9  O   UNL     1      -4.746  41.555  19.451  1.00  0.00    -0.550 OA
ATOM     10  O   UNL     1      -5.960  41.482  21.392  1.00  0.00    -0.550 OA
ENDBRANCH   7   8
ENDBRANCH   6   7
ENDBRANCH   5   6
ENDBRANCH   4   5
ENDBRANCH   3   4
ENDBRANCH   2   3
ENDBRANCH   1   2
BRANCH   1  11
ATOM     11  C   UNL     1       0.600  43.364  21.744  1.00  0.00     0.000 C 
BRANCH  11  12
ATOM     12  C   UNL     1       1.041  43.147  23.205  1.00  0.00    -0.000 C 
BRANCH  12  13
ATOM     13  C   UNL     1      -0.005  43.532  24.267  1.00  0.00    -0.000 C 
BRANCH  13  14
ATOM     14  C   UNL     1      -1.171  44.346  23.688  1.00  0.00    -0.000 C 
BRANCH  14  15
ATOM     15  C   UNL     1      -2.447  44.143  24.519  1.00  0.00    -0.000 C 
BRANCH  15  16
ATOM     16  C   UNL     1      -3.717  44.049  23.655  1.00  0.00    -0.000 C 
BRANCH  16  17
ATOM     17  C   UNL     1      -4.729  45.190  23.867  1.00  0.00    -0.003 C 
ATOM     18  C   UNL     1      -4.336  46.479  23.148  1.00  0.00     0.004 C 
ENDBRANCH  16  17
ENDBRANCH  15  16
ENDBRANCH  14  15
ENDBRANCH  13  14
ENDBRANCH  12  13
ENDBRANCH  11  12
ENDBRANCH   1  11
TORSDOF 14
ENDMDL
MODEL 4
REMARK VINA RESULT:    -3.916      2.390      5.086
REMARK INTER + INTRA:          -9.418
REMARK INTER:                  -7.640
REMARK INTRA:                  -1.778
REMARK UNBOUND:                -2.296
REMARK SMILES CCCCCCCCCCCCCCCC(=O)[O-]
REMARK SMILES IDX 9 1 10 2 11 3 12 4 13 5 14 6 15 7 16 8 17 9 18 10 8 11 7 12
REMARK SMILES IDX 6 13 5 14 4 15 3 16 2 17 1 18
REMARK H PARENT
REMARK Flexibility Score: inf
ROOT
ATOM      1  C   UNL     1      -0.163  43.222  19.821  1.00  0.00     0.000 C 
ENDROOT
BRANCH   1   2
ATOM      2  C   UNL     1      -1.294  43.875  20.628  1.00  0.00     0.000 C 
BRANCH   2   3
ATOM      3  C   UNL     1      -0.973  43.870  22.130  1.00  0.00     0.000 C 
BRANCH   3   4
ATOM      4  C   UNL     1      -2.037  44.622  22.958  1.00  0.00     0.000 C 
BRANCH   4   5
ATOM      5  C   UNL     1      -3.174  45.215  22.108  1.00  0.00     0.000 C 
BRANCH   5   6
ATOM      6  C   UNL     1      -4.308  45.806  22.957  1.00  0.00     0.006 C 
BRANCH   6   7
ATOM      7  C   UNL     1      -3.830  46.102  24.381  1.00  0.00     0.053 C 
BRANCH   7   8
ATOM      8  C   UNL     1      -4.499  45.188  25.358  1.00  0.00     0.041 C 
ATOM      9  O   UNL     1      -5.129  44.177  24.950  1.00  0.00    -0.550 OA
ATOM     10  O   UNL     1      -4.384  45.422  26.722  1.00  0.00    -0.550 OA
ENDBRANCH   7   8
ENDBRANCH   6   7
ENDBRANCH   5   6
ENDBRANCH   4   5
ENDBRANCH   3   4
ENDBRANCH   2   3
ENDBRANCH   1   2
BRANCH   1  11
ATOM     11  C   UNL     1      -0.262  43.509  18.311  1.00  0.00     0.000 C 
BRANCH  11  12
ATOM     12  C   UNL     1      -1.551  44.227  17.866  1.00  0.00    -0.000 C 
BRANCH  12  13
ATOM     13  C   UNL     1      -2.573  43.341  17.131  1.00  0.00    -0.000 C 
BRANCH  13  14
ATOM     14  C   UNL     1      -4.016  43.843  17.281  1.00  0.00    -0.000 C 
BRANCH  14  15
ATOM     15  C   UNL     1      -4.199  44.599  18.605  1.00  0.00    -0.000 C 
BRANCH  15  16
ATOM     16  C   UNL     1      -5.135  43.872  19.587  1.00  0.00    -0.000 C 
BRANCH  16  17
ATOM     17  C   UNL     1      -4.983  42.340  19.611  1.00  0.00    -0.003 C 
ATOM     18  C   UNL     1      -4.063  41.848  20.727  1.00  0.00     0.004 C 
ENDBRANCH  16  17
ENDBRANCH  15  16
ENDBRANCH  14  15
ENDBRANCH  13  14
ENDBRANCH  12  13
ENDBRANCH  11  12
ENDBRANCH   1  11
TORSDOF 14
ENDMDL
MODEL 5
REMARK VINA RESULT:    -3.884      1.588      3.371
REMARK INTER + INTRA:          -9.359
REMARK INTER:                  -6.883
REMARK INTRA:                  -2.476
REMARK UNBOUND:                -2.296
REMARK SMILES CCCCCCCCCCCCCCCC(=O)[O-]
REMARK SMILES IDX 9 1 10 2 11 3 12 4 13 5 14 6 15 7 16 8 17 9 18 10 8 11 7 12
REMARK SMILES IDX 6 13 5 14 4 15 3 16 2 17 1 18
REMARK H PARENT
REMARK Flexibility Score: inf
ROOT
ATOM      1  C   UNL     1      -3.219  43.347  19.362  1.00  0.00     0.000 C 
ENDROOT
BRANCH   1   2
ATOM      2  C   UNL     1      -4.399  44.300  19.600  1.00  0.00     0.000 C 
BRANCH   2   3
ATOM      3  C   UNL     1      -5.498  43.619  20.430  1.00  0.00     0.000 C 
BRANCH   3   4
ATOM      4  C   UNL     1      -5.130  42.169  20.809  1.00  0.00     0.000 C 
BRANCH   4   5
ATOM      5  C   UNL     1      -4.983  41.944  22.324  1.00  0.00     0.000 C 
BRANCH   5   6
ATOM      6  C   UNL     1      -4.218  40.658  22.667  1.00  0.00     0.006 C 
BRANCH   6   7
ATOM      7  C   UNL     1      -2.726  40.807  22.352  1.00  0.00     0.053 C 
BRANCH   7   8
ATOM      8  C   UNL     1      -1.900  40.414  23.535  1.00  0.00     0.041 C 
ATOM      9  O   UNL     1      -2.385  39.671  24.428  1.00  0.00    -0.550 OA
ATOM     10  O   UNL     1      -0.577  40.828  23.628  1.00  0.00    -0.550 OA
ENDBRANCH   7   8
ENDBRANCH   6   7
ENDBRANCH   5   6
ENDBRANCH   4   5
ENDBRANCH   3   4
ENDBRANCH   2   3
ENDBRANCH   1   2
BRANCH   1  11
ATOM     11  C   UNL     1      -1.902  43.862  19.970  1.00  0.00     0.000 C 
BRANCH  11  12
ATOM     12  C   UNL     1      -2.043  44.566  21.334  1.00  0.00    -0.000 C 
BRANCH  12  13
ATOM     13  C   UNL     1      -1.099  44.052  22.436  1.00  0.00    -0.000 C 
BRANCH  13  14
ATOM     14  C   UNL     1      -1.474  44.568  23.833  1.00  0.00    -0.000 C 
BRANCH  14  15
ATOM     15  C   UNL     1      -2.797  43.951  24.309  1.00  0.00    -0.000 C 
BRANCH  15  16
ATOM     16  C   UNL     1      -3.857  45.008  24.667  1.00  0.00    -0.000 C 
BRANCH  16  17
ATOM     17  C   UNL     1      -4.581  45.632  23.461  1.00  0.00    -0.003 C 
ATOM     18  C   UNL     1      -4.169  47.079  23.199  1.00  0.00     0.004 C 
ENDBRANCH  16  17
ENDBRANCH  15  16
ENDBRANCH  14  15
ENDBRANCH  13  14
ENDBRANCH  12  13
ENDBRANCH  11  12
ENDBRANCH   1  11
TORSDOF 14
ENDMDL
MODEL 6
REMARK VINA RESULT:    -3.882      2.332      4.430
REMARK INTER + INTRA:          -9.356
REMARK INTER:                  -7.841
REMARK INTRA:                  -1.515
REMARK UNBOUND:                -2.296
REMARK SMILES CCCCCCCCCCCCCCCC(=O)[O-]
REMARK SMILES IDX 9 1 10 2 11 3 12 4 13 5 14 6 15 7 16 8 17 9 18 10 8 11 7 12
REMARK SMILES IDX 6 13 5 14 4 15 3 16 2 17 1 18
REMARK H PARENT
REMARK Flexibility Score: inf
ROOT
ATOM      1  C   UNL     1      -1.854  44.322  21.879  1.00  0.00     0.000 C 
ENDROOT
BRANCH   1   2
ATOM      2  C   UNL     1      -1.577  44.485  23.381  1.00  0.00     0.000 C 
BRANCH   2   3
ATOM      3  C   UNL     1      -0.209  43.897  23.756  1.00  0.00     0.000 C 
BRANCH   3   4
ATOM      4  C   UNL     1       0.521  43.292  22.538  1.00  0.00     0.000 C 
BRANCH   4   5
ATOM      5  C   UNL     1       2.032  43.105  22.754  1.00  0.00     0.000 C 
BRANCH   5   6
ATOM      6  C   UNL     1       2.568  43.903  23.951  1.00  0.00     0.006 C 
BRANCH   6   7
ATOM      7  C   UNL     1       3.924  44.538  23.625  1.00  0.00     0.053 C 
BRANCH   7   8
ATOM      8  C   UNL     1       5.013  43.517  23.707  1.00  0.00     0.041 C 
ATOM      9  O   UNL     1       5.987  43.563  22.910  1.00  0.00    -0.550 OA
ATOM     10  O   UNL     1       4.980  42.542  24.697  1.00  0.00    -0.550 OA
ENDBRANCH   7   8
ENDBRANCH   6   7
ENDBRANCH   5   6
ENDBRANCH   4   5
ENDBRANCH   3   4
ENDBRANCH   2   3
ENDBRANCH   1   2
BRANCH   1  11
ATOM     11  C   UNL     1      -3.131  45.052  21.423  1.00  0.00     0.000 C 
BRANCH  11  12
ATOM     12  C   UNL     1      -3.374  45.053  19.901  1.00  0.00    -0.000 C 
BRANCH  12  13
ATOM     13  C   UNL     1      -4.632  44.295  19.440  1.00  0.00    -0.000 C 
BRANCH  13  14
ATOM     14  C   UNL     1      -5.416  43.675  20.606  1.00  0.00    -0.000 C 
BRANCH  14  15
ATOM     15  C   UNL     1      -5.376  42.142  20.540  1.00  0.00    -0.000 C 
BRANCH  15  16
ATOM     16  C   UNL     1      -4.544  41.514  21.672  1.00  0.00    -0.000 C 
BRANCH  16  17
ATOM     17  C   UNL     1      -4.729  42.171  23.051  1.00  0.00    -0.003 C 
ATOM     18  C   UNL     1      -3.779  41.617  24.111  1.00  0.00     0.004 C 
ENDBRANCH  16  17
ENDBRANCH  15  16
ENDBRANCH  14  15
ENDBRANCH  13  14
ENDBRANCH  12  13
ENDBRANCH  11  12
ENDBRANCH   1  11
TORSDOF 14
ENDMDL
MODEL 7
REMARK VINA RESULT:    -3.875      3.249      4.655
REMARK INTER + INTRA:          -9.343
REMARK INTER:                  -7.050
REMARK INTRA:                  -2.293
REMARK UNBOUND:                -2.296
REMARK SMILES CCCCCCCCCCCCCCCC(=O)[O-]
REMARK SMILES IDX 9 1 10 2 11 3 12 4 13 5 14 6 15 7 16 8 17 9 18 10 8 11 7 12
REMARK SMILES IDX 6 13 5 14 4 15 3 16 2 17 1 18
REMARK H PARENT
REMARK Flexibility Score: inf
ROOT
ATOM      1  C   UNL     1      -0.623  44.261  24.043  1.00  0.00     0.000 C 
ENDROOT
BRANCH   1   2
ATOM      2  C   UNL     1      -1.218  44.255  22.628  1.00  0.00     0.000 C 
BRANCH   2   3
ATOM      3  C   UNL     1      -0.729  43.036  21.831  1.00  0.00     0.000 C 
BRANCH   3   4
ATOM      4  C   UNL     1      -1.718  42.632  20.716  1.00  0.00     0.000 C 
BRANCH   4   5
ATOM      5  C   UNL     1      -2.976  43.516  20.657  1.00  0.00     0.000 C 
BRANCH   5   6
ATOM      6  C   UNL     1      -2.900  44.593  19.566  1.00  0.00     0.006 C 
BRANCH   6   7
ATOM      7  C   UNL     1      -2.110  44.091  18.354  1.00  0.00     0.053 C 
BRANCH   7   8
ATOM      8  C   UNL     1      -3.040  43.633  17.277  1.00  0.00     0.041 C 
ATOM      9  O   UNL     1      -2.675  42.749  16.458  1.00  0.00    -0.550 OA
ATOM     10  O   UNL     1      -4.330  44.144  17.206  1.00  0.00    -0.550 OA
ENDBRANCH   7   8
ENDBRANCH   6   7
ENDBRANCH   5   6
ENDBRANCH   4   5
ENDBRANCH   3   4
ENDBRANCH   2   3
ENDBRANCH   1   2
BRANCH   1  11
ATOM     11  C   UNL     1      -1.058  43.044  24.881  1.00  0.00     0.000 C 
BRANCH  11  12
ATOM     12  C   UNL     1      -2.511  43.091  25.394  1.00  0.00    -0.000 C 
BRANCH  12  13
ATOM     13  C   UNL     1      -3.500  42.184  24.641  1.00  0.00    -0.000 C 
BRANCH  13  14
ATOM     14  C   UNL     1      -4.687  42.957  24.049  1.00  0.00    -0.000 C 
BRANCH  14  15
ATOM     15  C   UNL     1      -4.524  44.467  24.271  1.00  0.00    -0.000 C 
BRANCH  15  16
ATOM     16  C   UNL     1      -4.918  45.301  23.038  1.00  0.00    -0.000 C 
BRANCH  16  17
ATOM     17  C   UNL     1      -4.117  46.602  22.855  1.00  0.00    -0.003 C 
ATOM     18  C   UNL     1      -3.553  47.147  24.166  1.00  0.00     0.004 C 
ENDBRANCH  16  17
ENDBRANCH  15  16
ENDBRANCH  14  15
ENDBRANCH  13  14
ENDBRANCH  12  13
ENDBRANCH  11  12
ENDBRANCH   1  11
TORSDOF 14
ENDMDL
MODEL 8
REMARK VINA RESULT:    -3.875      1.836      4.171
REMARK INTER + INTRA:          -9.342
REMARK INTER:                  -7.153
REMARK INTRA:                  -2.189
REMARK UNBOUND:                -2.296
REMARK SMILES CCCCCCCCCCCCCCCC(=O)[O-]
REMARK SMILES IDX 9 1 10 2 11 3 12 4 13 5 14 6 15 7 16 8 17 9 18 10 8 11 7 12
REMARK SMILES IDX 6 13 5 14 4 15 3 16 2 17 1 18
REMARK H PARENT
REMARK Flexibility Score: inf
ROOT
ATOM      1  C   UNL     1      -4.370  44.573  18.934  1.00  0.00     0.000 C 
ENDROOT
BRANCH   1   2
ATOM      2  C   UNL     1      -5.263  43.853  19.955  1.00  0.00     0.000 C 
BRANCH   2   3
ATOM      3  C   UNL     1      -4.504  43.598  21.266  1.00  0.00     0.000 C 
BRANCH   3   4
ATOM      4  C   UNL     1      -4.695  44.744  22.283  1.00  0.00     0.000 C 
BRANCH   4   5
ATOM      5  C   UNL     1      -3.452  45.636  22.447  1.00  0.00     0.000 C 
BRANCH   5   6
ATOM      6  C   UNL     1      -2.672  45.344  23.737  1.00  0.00     0.006 C 
BRANCH   6   7
ATOM      7  C   UNL     1      -3.564  44.655  24.773  1.00  0.00     0.053 C 
BRANCH   7   8
ATOM      8  C   UNL     1      -3.015  43.310  25.125  1.00  0.00     0.041 C 
ATOM      9  O   UNL     1      -2.139  43.197  26.022  1.00  0.00    -0.550 OA
ATOM     10  O   UNL     1      -3.505  42.172  24.496  1.00  0.00    -0.550 OA
ENDBRANCH   7   8
ENDBRANCH   6   7
ENDBRANCH   5   6
ENDBRANCH   4   5
ENDBRANCH   3   4
ENDBRANCH   2   3
ENDBRANCH   1   2
BRANCH   1  11
ATOM     11  C   UNL     1      -3.210  43.696  18.430  1.00  0.00     0.000 C 
BRANCH  11  12
ATOM     12  C   UNL     1      -1.800  44.232  18.747  1.00  0.00    -0.000 C 
BRANCH  12  13
ATOM     13  C   UNL     1      -0.893  43.265  19.529  1.00  0.00    -0.000 C 
BRANCH  13  14
ATOM     14  C   UNL     1      -0.660  43.707  20.981  1.00  0.00    -0.000 C 
BRANCH  14  15
ATOM     15  C   UNL     1      -1.087  42.607  21.964  1.00  0.00    -0.000 C 
BRANCH  15  16
ATOM     16  C   UNL     1       0.007  42.263  22.990  1.00  0.00    -0.000 C 
BRANCH  16  17
ATOM     17  C   UNL     1       0.550  43.464  23.785  1.00  0.00    -0.003 C 
ATOM     18  C   UNL     1       2.041  43.706  23.559  1.00  0.00     0.004 C 
ENDBRANCH  16  17
ENDBRANCH  15  16
ENDBRANCH  14  15
ENDBRANCH  13  14
ENDBRANCH  12  13
ENDBRANCH  11  12
ENDBRANCH   1  11
TORSDOF 14
ENDMDL
MODEL 9
REMARK VINA RESULT:    -3.846      2.081      3.504
REMARK INTER + INTRA:          -9.290
REMARK INTER:                  -6.989
REMARK INTRA:                  -2.301
REMARK UNBOUND:                -2.296
REMARK SMILES CCCCCCCCCCCCCCCC(=O)[O-]
REMARK SMILES IDX 9 1 10 2 11 3 12 4 13 5 14 6 15 7 16 8 17 9 18 10 8 11 7 12
REMARK SMILES IDX 6 13 5 14 4 15 3 16 2 17 1 18
REMARK H PARENT
REMARK Flexibility Score: inf
ROOT
ATOM      1  C   UNL     1      -4.465  42.565  19.195  1.00  0.00     0.000 C 
ENDROOT
BRANCH   1   2
ATOM      2  C   UNL     1      -4.346  43.838  18.345  1.00  0.00     0.000 C 
BRANCH   2   3
ATOM      3  C   UNL     1      -3.600  44.942  19.107  1.00  0.00     0.000 C 
BRANCH   3   4
ATOM      4  C   UNL     1      -2.432  44.385  19.949  1.00  0.00     0.000 C 
BRANCH   4   5
ATOM      5  C   UNL     1      -2.540  44.713  21.448  1.00  0.00     0.000 C 
BRANCH   5   6
ATOM      6  C   UNL     1      -3.707  45.656  21.771  1.00  0.00     0.006 C 
BRANCH   6   7
ATOM      7  C   UNL     1      -4.526  45.131  22.954  1.00  0.00     0.053 C 
BRANCH   7   8
ATOM      8  C   UNL     1      -4.121  45.822  24.217  1.00  0.00     0.041 C 
ATOM      9  O   UNL     1      -4.075  45.184  25.302  1.00  0.00    -0.550 OA
ATOM     10  O   UNL     1      -3.746  47.159  24.190  1.00  0.00    -0.550 OA
ENDBRANCH   7   8
ENDBRANCH   6   7
ENDBRANCH   5   6
ENDBRANCH   4   5
ENDBRANCH   3   4
ENDBRANCH   2   3
ENDBRANCH   1   2
BRANCH   1  11
ATOM     11  C   UNL     1      -5.542  42.676  20.290  1.00  0.00     0.000 C 
BRANCH  11  12
ATOM     12  C   UNL     1      -5.437  41.629  21.417  1.00  0.00    -0.000 C 
BRANCH  12  13
ATOM     13  C   UNL     1      -4.021  41.419  21.984  1.00  0.00    -0.000 C 
BRANCH  13  14
ATOM     14  C   UNL     1      -3.929  41.717  23.487  1.00  0.00    -0.000 C 
BRANCH  14  15
ATOM     15  C   UNL     1      -2.602  41.207  24.067  1.00  0.00    -0.000 C 
BRANCH  15  16
ATOM     16  C   UNL     1      -1.383  41.602  23.215  1.00  0.00    -0.000 C 
BRANCH  16  17
ATOM     17  C   UNL     1      -0.333  42.458  23.946  1.00  0.00    -0.003 C 
ATOM     18  C   UNL     1      -0.883  43.800  24.423  1.00  0.00     0.004 C 
ENDBRANCH  16  17
ENDBRANCH  15  16
ENDBRANCH  14  15
ENDBRANCH  13  14
ENDBRANCH  12  13
ENDBRANCH  11  12
ENDBRANCH   1  11
TORSDOF 14
ENDMDL
