MODEL 1
REMARK VINA RESULT:    -5.957      0.000      0.000
REMARK INTER + INTRA:          -7.376
REMARK INTER:                  -7.176
REMARK INTRA:                  -0.200
REMARK UNBOUND:                -0.200
REMARK SMILES Oc1cc(O)c2cc(O)c(-c3ccc(O)c(O)c3)[o+]c2c1
REMARK SMILES IDX 10 1 19 2 20 3 21 4 2 5 3 6 4 7 6 8 7 9 8 10 11 11 12 12
REMARK SMILES IDX 13 13 14 14 18 15 16 16 15 17 17 19 9 21 1 23 5 25
REMARK H PARENT 15 18 17 20 9 22 1 24 5 26
REMARK Flexibility Score: inf
ROOT
ATOM      1  C   UNL     1      -3.227  -7.447  37.846  1.00  0.00     0.402 A 
ATOM      2  O   UNL     1      -4.335  -7.871  38.448  1.00  0.00    -0.202 OA
ATOM      3  C   UNL     1      -4.332  -8.543  39.595  1.00  0.00     0.368 A 
ATOM      4  C   UNL     1      -5.549  -8.942  40.152  1.00  0.00     0.162 A 
ATOM      5  C   UNL     1      -5.576  -9.646  41.357  1.00  0.00     0.128 A 
ATOM      6  C   UNL     1      -4.378  -9.953  42.011  1.00  0.00     0.093 A 
ATOM      7  C   UNL     1      -3.145  -9.563  41.474  1.00  0.00     0.136 A 
ATOM      8  C   UNL     1      -3.114  -8.850  40.247  1.00  0.00     0.125 A 
ATOM      9  C   UNL     1      -1.925  -8.431  39.628  1.00  0.00     0.078 A 
ATOM     10  C   UNL     1      -1.973  -7.735  38.416  1.00  0.00     0.223 A 
ENDROOT
BRANCH   1  11
ATOM     11  C   UNL     1      -3.362  -6.700  36.576  1.00  0.00     0.087 A 
ATOM     12  C   UNL     1      -2.913  -7.282  35.380  1.00  0.00     0.022 A 
ATOM     13  C   UNL     1      -3.048  -6.604  34.166  1.00  0.00     0.051 A 
ATOM     14  C   UNL     1      -3.648  -5.342  34.126  1.00  0.00     0.157 A 
ATOM     15  C   UNL     1      -3.983  -5.439  36.530  1.00  0.00     0.068 A 
ATOM     16  C   UNL     1      -4.122  -4.757  35.311  1.00  0.00     0.158 A 
BRANCH  14  17
ATOM     17  O   UNL     1      -3.767  -4.687  32.900  1.00  0.00    -0.504 OA
ATOM     18  H   UNL     1      -3.287  -3.816  32.706  1.00  0.00     0.293 HD
ENDBRANCH  14  17
BRANCH  16  19
ATOM     19  O   UNL     1      -4.733  -3.504  35.276  1.00  0.00    -0.504 OA
ATOM     20  H   UNL     1      -4.751  -2.945  34.432  1.00  0.00     0.293 HD
ENDBRANCH  16  19
ENDBRANCH   1  11
BRANCH  10  21
ATOM     21  O   UNL     1      -0.791  -7.363  37.776  1.00  0.00    -0.500 OA
ATOM     22  H   UNL     1      -0.372  -6.451  37.919  1.00  0.00     0.294 HD
ENDBRANCH  10  21
BRANCH   5  23
ATOM     23  O   UNL     1      -6.800 -10.036  41.896  1.00  0.00    -0.507 OA
ATOM     24  H   UNL     1      -6.960 -10.041  42.897  1.00  0.00     0.293 HD
ENDBRANCH   5  23
BRANCH   7  25
ATOM     25  O   UNL     1      -1.994  -9.905  42.189  1.00  0.00    -0.507 OA
ATOM     26  H   UNL     1      -1.895 -10.742  42.745  1.00  0.00     0.293 HD
ENDBRANCH   7  25
TORSDOF 6
ENDMDL
MODEL 2
REMARK VINA RESULT:    -5.832      3.087      8.072
REMARK INTER + INTRA:          -7.225
REMARK INTER:                  -6.881
REMARK INTRA:                  -0.344
REMARK UNBOUND:                -0.200
REMARK SMILES Oc1cc(O)c2cc(O)c(-c3ccc(O)c(O)c3)[o+]c2c1
REMARK SMILES IDX 10 1 19 2 20 3 21 4 2 5 3 6 4 7 6 8 7 9 8 10 11 11 12 12
REMARK SMILES IDX 13 13 14 14 18 15 16 16 15 17 17 19 9 21 1 23 5 25
REMARK H PARENT 15 18 17 20 9 22 1 24 5 26
REMARK Flexibility Score: inf
ROOT
ATOM      1  C   UNL     1      -2.350 -10.640  40.323  1.00  0.00     0.402 A 
ATOM      2  O   UNL     1      -1.606 -10.600  39.221  1.00  0.00    -0.202 OA
ATOM      3  C   UNL     1      -1.571  -9.554  38.400  1.00  0.00     0.368 A 
ATOM      4  C   UNL     1      -0.754  -9.606  37.269  1.00  0.00     0.162 A 
ATOM      5  C   UNL     1      -0.695  -8.522  36.391  1.00  0.00     0.128 A 
ATOM      6  C   UNL     1      -1.458  -7.377  36.647  1.00  0.00     0.093 A 
ATOM      7  C   UNL     1      -2.284  -7.300  37.776  1.00  0.00     0.136 A 
ATOM      8  C   UNL     1      -2.348  -8.402  38.668  1.00  0.00     0.125 A 
ATOM      9  C   UNL     1      -3.157  -8.419  39.816  1.00  0.00     0.078 A 
ATOM     10  C   UNL     1      -3.171  -9.544  40.647  1.00  0.00     0.223 A 
ENDROOT
BRANCH   1  11
ATOM     11  C   UNL     1      -2.295 -11.859  41.161  1.00  0.00     0.087 A 
ATOM     12  C   UNL     1      -1.337 -11.952  42.183  1.00  0.00     0.022 A 
ATOM     13  C   UNL     1      -1.280 -13.084  43.000  1.00  0.00     0.051 A 
ATOM     14  C   UNL     1      -2.188 -14.132  42.819  1.00  0.00     0.157 A 
ATOM     15  C   UNL     1      -3.221 -12.905  40.995  1.00  0.00     0.068 A 
ATOM     16  C   UNL     1      -3.166 -14.042  41.816  1.00  0.00     0.158 A 
BRANCH  14  17
ATOM     17  O   UNL     1      -2.105 -15.250  43.648  1.00  0.00    -0.504 OA
ATOM     18  H   UNL     1      -1.672 -15.212  44.563  1.00  0.00     0.293 HD
ENDBRANCH  14  17
BRANCH  16  19
ATOM     19  O   UNL     1      -4.083 -15.077  41.639  1.00  0.00    -0.504 OA
ATOM     20  H   UNL     1      -4.325 -15.421  40.718  1.00  0.00     0.293 HD
ENDBRANCH  16  19
ENDBRANCH   1  11
BRANCH  10  21
ATOM     21  O   UNL     1      -4.012  -9.582  41.759  1.00  0.00    -0.500 OA
ATOM     22  H   UNL     1      -4.754 -10.267  41.843  1.00  0.00     0.294 HD
ENDBRANCH  10  21
BRANCH   5  23
ATOM     23  O   UNL     1       0.124  -8.593  35.267  1.00  0.00    -0.507 OA
ATOM     24  H   UNL     1      -0.075  -9.232  34.505  1.00  0.00     0.293 HD
ENDBRANCH   5  23
BRANCH   7  25
ATOM     25  O   UNL     1      -3.010  -6.121  37.963  1.00  0.00    -0.507 OA
ATOM     26  H   UNL     1      -3.565  -5.917  38.781  1.00  0.00     0.293 HD
ENDBRANCH   7  25
TORSDOF 6
ENDMDL
MODEL 3
REMARK VINA RESULT:    -5.810      2.529      7.712
REMARK INTER + INTRA:          -7.199
REMARK INTER:                  -6.922
REMARK INTRA:                  -0.276
REMARK UNBOUND:                -0.200
REMARK SMILES Oc1cc(O)c2cc(O)c(-c3ccc(O)c(O)c3)[o+]c2c1
REMARK SMILES IDX 10 1 19 2 20 3 21 4 2 5 3 6 4 7 6 8 7 9 8 10 11 11 12 12
REMARK SMILES IDX 13 13 14 14 18 15 16 16 15 17 17 19 9 21 1 23 5 25
REMARK H PARENT 15 18 17 20 9 22 1 24 5 26
REMARK Flexibility Score: inf
ROOT
ATOM      1  C   UNL     1      -3.025 -10.130  39.953  1.00  0.00     0.402 A 
ATOM      2  O   UNL     1      -2.291  -9.926  38.862  1.00  0.00    -0.202 OA
ATOM      3  C   UNL     1      -2.495  -8.916  38.022  1.00  0.00     0.368 A 
ATOM      4  C   UNL     1      -1.667  -8.783  36.905  1.00  0.00     0.162 A 
ATOM      5  C   UNL     1      -1.857  -7.731  36.008  1.00  0.00     0.128 A 
ATOM      6  C   UNL     1      -2.881  -6.804  36.229  1.00  0.00     0.093 A 
ATOM      7  C   UNL     1      -3.724  -6.914  37.342  1.00  0.00     0.136 A 
ATOM      8  C   UNL     1      -3.535  -7.985  38.255  1.00  0.00     0.125 A 
ATOM      9  C   UNL     1      -4.339  -8.182  39.389  1.00  0.00     0.078 A 
ATOM     10  C   UNL     1      -4.096  -9.264  40.241  1.00  0.00     0.223 A 
ENDROOT
BRANCH   1  11
ATOM     11  C   UNL     1      -2.692 -11.286  40.815  1.00  0.00     0.087 A 
ATOM     12  C   UNL     1      -3.503 -12.430  40.780  1.00  0.00     0.022 A 
ATOM     13  C   UNL     1      -3.197 -13.541  41.570  1.00  0.00     0.051 A 
ATOM     14  C   UNL     1      -2.068 -13.532  42.395  1.00  0.00     0.157 A 
ATOM     15  C   UNL     1      -1.545 -11.286  41.630  1.00  0.00     0.068 A 
ATOM     16  C   UNL     1      -1.234 -12.402  42.423  1.00  0.00     0.158 A 
BRANCH  14  17
ATOM     17  O   UNL     1      -1.788 -14.653  43.175  1.00  0.00    -0.504 OA
ATOM     18  H   UNL     1      -2.455 -15.024  43.842  1.00  0.00     0.293 HD
ENDBRANCH  14  17
BRANCH  16  19
ATOM     19  O   UNL     1      -0.099 -12.390  43.232  1.00  0.00    -0.504 OA
ATOM     20  H   UNL     1       0.833 -12.343  42.839  1.00  0.00     0.293 HD
ENDBRANCH  16  19
ENDBRANCH   1  11
BRANCH  10  21
ATOM     21  O   UNL     1      -4.925  -9.490  41.340  1.00  0.00    -0.500 OA
ATOM     22  H   UNL     1      -4.824 -10.312  41.923  1.00  0.00     0.294 HD
ENDBRANCH  10  21
BRANCH   5  23
ATOM     23  O   UNL     1      -1.022  -7.616  34.899  1.00  0.00    -0.507 OA
ATOM     24  H   UNL     1      -0.046  -7.356  34.995  1.00  0.00     0.293 HD
ENDBRANCH   5  23
BRANCH   7  25
ATOM     25  O   UNL     1      -4.719  -5.946  37.494  1.00  0.00    -0.507 OA
ATOM     26  H   UNL     1      -4.931  -5.476  38.362  1.00  0.00     0.293 HD
ENDBRANCH   7  25
TORSDOF 6
ENDMDL
MODEL 4
REMARK VINA RESULT:    -5.720      4.613      7.156
REMARK INTER + INTRA:          -7.090
REMARK INTER:                  -6.988
REMARK INTRA:                  -0.102
REMARK UNBOUND:                -0.200
REMARK SMILES Oc1cc(O)c2cc(O)c(-c3ccc(O)c(O)c3)[o+]c2c1
REMARK SMILES IDX 10 1 19 2 20 3 21 4 2 5 3 6 4 7 6 8 7 9 8 10 11 11 12 12
REMARK SMILES IDX 13 13 14 14 18 15 16 16 15 17 17 19 9 21 1 23 5 25
REMARK H PARENT 15 18 17 20 9 22 1 24 5 26
REMARK Flexibility Score: inf
ROOT
ATOM      1  C   UNL     1      -2.615 -12.760  41.771  1.00  0.00     0.402 A 
ATOM      2  O   UNL     1      -3.723 -13.412  41.429  1.00  0.00    -0.202 OA
ATOM      3  C   UNL     1      -4.023 -14.628  41.877  1.00  0.00     0.368 A 
ATOM      4  C   UNL     1      -5.213 -15.230  41.464  1.00  0.00     0.162 A 
ATOM      5  C   UNL     1      -5.556 -16.503  41.920  1.00  0.00     0.128 A 
ATOM      6  C   UNL     1      -4.702 -17.181  42.798  1.00  0.00     0.093 A 
ATOM      7  C   UNL     1      -3.503 -16.598  43.229  1.00  0.00     0.136 A 
ATOM      8  C   UNL     1      -3.151 -15.304  42.763  1.00  0.00     0.125 A 
ATOM      9  C   UNL     1      -1.965 -14.649  43.131  1.00  0.00     0.078 A 
ATOM     10  C   UNL     1      -1.683 -13.375  42.628  1.00  0.00     0.223 A 
ENDROOT
BRANCH   1  11
ATOM     11  C   UNL     1      -2.399 -11.407  41.213  1.00  0.00     0.087 A 
ATOM     12  C   UNL     1      -3.330 -10.391  41.481  1.00  0.00     0.022 A 
ATOM     13  C   UNL     1      -3.136  -9.101  40.982  1.00  0.00     0.051 A 
ATOM     14  C   UNL     1      -2.002  -8.801  40.221  1.00  0.00     0.157 A 
ATOM     15  C   UNL     1      -1.248 -11.098  40.464  1.00  0.00     0.068 A 
ATOM     16  C   UNL     1      -1.051  -9.802  39.963  1.00  0.00     0.158 A 
BRANCH  14  17
ATOM     17  O   UNL     1      -1.837  -7.506  39.733  1.00  0.00    -0.504 OA
ATOM     18  H   UNL     1      -1.146  -6.871  40.115  1.00  0.00     0.293 HD
ENDBRANCH  14  17
BRANCH  16  19
ATOM     19  O   UNL     1       0.089  -9.507  39.216  1.00  0.00    -0.504 OA
ATOM     20  H   UNL     1       0.131  -8.699  38.607  1.00  0.00     0.293 HD
ENDBRANCH  16  19
ENDBRANCH   1  11
BRANCH  10  21
ATOM     21  O   UNL     1      -0.482 -12.744  42.952  1.00  0.00    -0.500 OA
ATOM     22  H   UNL     1       0.413 -13.201  42.817  1.00  0.00     0.294 HD
ENDBRANCH  10  21
BRANCH   5  23
ATOM     23  O   UNL     1      -6.747 -17.088  41.495  1.00  0.00    -0.507 OA
ATOM     24  H   UNL     1      -7.341 -16.639  40.807  1.00  0.00     0.293 HD
ENDBRANCH   5  23
BRANCH   7  25
ATOM     25  O   UNL     1      -2.708 -17.338  44.108  1.00  0.00    -0.507 OA
ATOM     26  H   UNL     1      -2.540 -17.088  45.072  1.00  0.00     0.293 HD
ENDBRANCH   7  25
TORSDOF 6
ENDMDL
MODEL 5
REMARK VINA RESULT:    -5.717      1.147      2.694
REMARK INTER + INTRA:          -7.087
REMARK INTER:                  -6.824
REMARK INTRA:                  -0.263
REMARK UNBOUND:                -0.200
REMARK SMILES Oc1cc(O)c2cc(O)c(-c3ccc(O)c(O)c3)[o+]c2c1
REMARK SMILES IDX 10 1 19 2 20 3 21 4 2 5 3 6 4 7 6 8 7 9 8 10 11 11 12 12
REMARK SMILES IDX 13 13 14 14 18 15 16 16 15 17 17 19 9 21 1 23 5 25
REMARK H PARENT 15 18 17 20 9 22 1 24 5 26
REMARK Flexibility Score: inf
ROOT
ATOM      1  C   UNL     1      -4.637  -7.253  37.526  1.00  0.00     0.402 A 
ATOM      2  O   UNL     1      -3.660  -7.766  38.270  1.00  0.00    -0.202 OA
ATOM      3  C   UNL     1      -3.871  -8.380  39.430  1.00  0.00     0.368 A 
ATOM      4  C   UNL     1      -2.780  -8.890  40.137  1.00  0.00     0.162 A 
ATOM      5  C   UNL     1      -2.971  -9.542  41.356  1.00  0.00     0.128 A 
ATOM      6  C   UNL     1      -4.264  -9.687  41.873  1.00  0.00     0.093 A 
ATOM      7  C   UNL     1      -5.375  -9.186  41.182  1.00  0.00     0.136 A 
ATOM      8  C   UNL     1      -5.183  -8.520  39.944  1.00  0.00     0.125 A 
ATOM      9  C   UNL     1      -6.235  -7.974  39.190  1.00  0.00     0.078 A 
ATOM     10  C   UNL     1      -5.967  -7.327  37.979  1.00  0.00     0.223 A 
ENDROOT
BRANCH   1  11
ATOM     11  C   UNL     1      -4.275  -6.602  36.248  1.00  0.00     0.087 A 
ATOM     12  C   UNL     1      -3.924  -7.394  35.144  1.00  0.00     0.022 A 
ATOM     13  C   UNL     1      -3.598  -6.802  33.921  1.00  0.00     0.051 A 
ATOM     14  C   UNL     1      -3.634  -5.411  33.778  1.00  0.00     0.157 A 
ATOM     15  C   UNL     1      -4.330  -5.204  36.096  1.00  0.00     0.068 A 
ATOM     16  C   UNL     1      -4.005  -4.608  34.868  1.00  0.00     0.158 A 
BRANCH  14  17
ATOM     17  O   UNL     1      -3.301  -4.848  32.546  1.00  0.00    -0.504 OA
ATOM     18  H   UNL     1      -3.973  -4.330  31.992  1.00  0.00     0.293 HD
ENDBRANCH  14  17
BRANCH  16  19
ATOM     19  O   UNL     1      -4.056  -3.221  34.728  1.00  0.00    -0.504 OA
ATOM     20  H   UNL     1      -4.399  -2.625  35.471  1.00  0.00     0.293 HD
ENDBRANCH  16  19
ENDBRANCH   1  11
BRANCH  10  21
ATOM     21  O   UNL     1      -7.005  -6.742  37.255  1.00  0.00    -0.500 OA
ATOM     22  H   UNL     1      -7.871  -7.235  37.071  1.00  0.00     0.294 HD
ENDBRANCH  10  21
BRANCH   5  23
ATOM     23  O   UNL     1      -1.870 -10.042  42.048  1.00  0.00    -0.507 OA
ATOM     24  H   UNL     1      -1.130  -9.432  42.377  1.00  0.00     0.293 HD
ENDBRANCH   5  23
BRANCH   7  25
ATOM     25  O   UNL     1      -6.632  -9.375  41.762  1.00  0.00    -0.507 OA
ATOM     26  H   UNL     1      -7.481  -8.934  41.440  1.00  0.00     0.293 HD
ENDBRANCH   7  25
TORSDOF 6
ENDMDL
MODEL 6
REMARK VINA RESULT:    -5.644      1.348      1.571
REMARK INTER + INTRA:          -6.999
REMARK INTER:                  -7.310
REMARK INTRA:                   0.311
REMARK UNBOUND:                -0.200
REMARK SMILES Oc1cc(O)c2cc(O)c(-c3ccc(O)c(O)c3)[o+]c2c1
REMARK SMILES IDX 10 1 19 2 20 3 21 4 2 5 3 6 4 7 6 8 7 9 8 10 11 11 12 12
REMARK SMILES IDX 13 13 14 14 18 15 16 16 15 17 17 19 9 21 1 23 5 25
REMARK H PARENT 15 18 17 20 9 22 1 24 5 26
REMARK Flexibility Score: inf
ROOT
ATOM      1  C   UNL     1      -2.659  -7.637  37.446  1.00  0.00     0.402 A 
ATOM      2  O   UNL     1      -3.399  -7.903  38.519  1.00  0.00    -0.202 OA
ATOM      3  C   UNL     1      -3.036  -8.770  39.460  1.00  0.00     0.368 A 
ATOM      4  C   UNL     1      -3.879  -8.979  40.554  1.00  0.00     0.162 A 
ATOM      5  C   UNL     1      -3.523  -9.881  41.557  1.00  0.00     0.128 A 
ATOM      6  C   UNL     1      -2.314 -10.580  41.467  1.00  0.00     0.093 A 
ATOM      7  C   UNL     1      -1.450 -10.387  40.382  1.00  0.00     0.136 A 
ATOM      8  C   UNL     1      -1.812  -9.473  39.358  1.00  0.00     0.125 A 
ATOM      9  C   UNL     1      -1.015  -9.226  38.228  1.00  0.00     0.078 A 
ATOM     10  C   UNL     1      -1.439  -8.313  37.257  1.00  0.00     0.223 A 
ENDROOT
BRANCH   1  11
ATOM     11  C   UNL     1      -3.168  -6.643  36.475  1.00  0.00     0.087 A 
ATOM     12  C   UNL     1      -2.810  -6.753  35.122  1.00  0.00     0.022 A 
ATOM     13  C   UNL     1      -3.294  -5.839  34.183  1.00  0.00     0.051 A 
ATOM     14  C   UNL     1      -4.154  -4.810  34.578  1.00  0.00     0.157 A 
ATOM     15  C   UNL     1      -4.050  -5.619  36.866  1.00  0.00     0.068 A 
ATOM     16  C   UNL     1      -4.538  -4.701  35.925  1.00  0.00     0.158 A 
BRANCH  14  17
ATOM     17  O   UNL     1      -4.619  -3.910  33.620  1.00  0.00    -0.504 OA
ATOM     18  H   UNL     1      -4.000  -3.469  32.950  1.00  0.00     0.293 HD
ENDBRANCH  14  17
BRANCH  16  19
ATOM     19  O   UNL     1      -5.407  -3.686  36.323  1.00  0.00    -0.504 OA
ATOM     20  H   UNL     1      -6.367  -3.878  36.582  1.00  0.00     0.293 HD
ENDBRANCH  16  19
ENDBRANCH   1  11
BRANCH  10  21
ATOM     21  O   UNL     1      -0.674  -8.105  36.110  1.00  0.00    -0.500 OA
ATOM     22  H   UNL     1      -0.040  -8.813  35.757  1.00  0.00     0.294 HD
ENDBRANCH  10  21
BRANCH   5  23
ATOM     23  O   UNL     1      -4.378 -10.076  42.639  1.00  0.00    -0.507 OA
ATOM     24  H   UNL     1      -4.191  -9.659  43.544  1.00  0.00     0.293 HD
ENDBRANCH   5  23
BRANCH   7  25
ATOM     25  O   UNL     1      -0.260 -11.120  40.368  1.00  0.00    -0.507 OA
ATOM     26  H   UNL     1       0.126 -11.565  39.549  1.00  0.00     0.293 HD
ENDBRANCH   7  25
TORSDOF 6
ENDMDL
MODEL 7
REMARK VINA RESULT:    -5.610      2.583      7.540
REMARK INTER + INTRA:          -6.958
REMARK INTER:                  -6.619
REMARK INTRA:                  -0.339
REMARK UNBOUND:                -0.200
REMARK SMILES Oc1cc(O)c2cc(O)c(-c3ccc(O)c(O)c3)[o+]c2c1
REMARK SMILES IDX 10 1 19 2 20 3 21 4 2 5 3 6 4 7 6 8 7 9 8 10 11 11 12 12
REMARK SMILES IDX 13 13 14 14 18 15 16 16 15 17 17 19 9 21 1 23 5 25
REMARK H PARENT 15 18 17 20 9 22 1 24 5 26
REMARK Flexibility Score: inf
ROOT
ATOM      1  C   UNL     1      -2.427  -7.718  36.481  1.00  0.00     0.402 A 
ATOM      2  O   UNL     1      -2.040  -7.899  35.222  1.00  0.00    -0.202 OA
ATOM      3  C   UNL     1      -2.435  -7.121  34.217  1.00  0.00     0.368 A 
ATOM      4  C   UNL     1      -1.970  -7.389  32.928  1.00  0.00     0.162 A 
ATOM      5  C   UNL     1      -2.365  -6.589  31.855  1.00  0.00     0.128 A 
ATOM      6  C   UNL     1      -3.231  -5.512  32.072  1.00  0.00     0.093 A 
ATOM      7  C   UNL     1      -3.710  -5.221  33.356  1.00  0.00     0.136 A 
ATOM      8  C   UNL     1      -3.312  -6.036  34.449  1.00  0.00     0.125 A 
ATOM      9  C   UNL     1      -3.753  -5.828  35.766  1.00  0.00     0.078 A 
ATOM     10  C   UNL     1      -3.321  -6.675  36.791  1.00  0.00     0.223 A 
ENDROOT
BRANCH   1  11
ATOM     11  C   UNL     1      -1.910  -8.645  37.513  1.00  0.00     0.087 A 
ATOM     12  C   UNL     1      -0.806  -8.265  38.292  1.00  0.00     0.022 A 
ATOM     13  C   UNL     1      -0.313  -9.115  39.285  1.00  0.00     0.051 A 
ATOM     14  C   UNL     1      -0.924 -10.350  39.526  1.00  0.00     0.157 A 
ATOM     15  C   UNL     1      -2.536  -9.878  37.770  1.00  0.00     0.068 A 
ATOM     16  C   UNL     1      -2.044 -10.733  38.768  1.00  0.00     0.158 A 
BRANCH  14  17
ATOM     17  O   UNL     1      -0.409 -11.179  40.521  1.00  0.00    -0.504 OA
ATOM     18  H   UNL     1      -0.400 -12.188  40.430  1.00  0.00     0.293 HD
ENDBRANCH  14  17
BRANCH  16  19
ATOM     19  O   UNL     1      -2.666 -11.956  39.012  1.00  0.00    -0.504 OA
ATOM     20  H   UNL     1      -2.135 -12.786  39.243  1.00  0.00     0.293 HD
ENDBRANCH  16  19
ENDBRANCH   1  11
BRANCH  10  21
ATOM     21  O   UNL     1      -3.797  -6.501  38.090  1.00  0.00    -0.500 OA
ATOM     22  H   UNL     1      -4.785  -6.558  38.308  1.00  0.00     0.294 HD
ENDBRANCH  10  21
BRANCH   5  23
ATOM     23  O   UNL     1      -1.892  -6.872  30.576  1.00  0.00    -0.507 OA
ATOM     24  H   UNL     1      -1.644  -6.134  29.927  1.00  0.00     0.293 HD
ENDBRANCH   5  23
BRANCH   7  25
ATOM     25  O   UNL     1      -4.568  -4.126  33.491  1.00  0.00    -0.507 OA
ATOM     26  H   UNL     1      -4.266  -3.163  33.500  1.00  0.00     0.293 HD
ENDBRANCH   7  25
TORSDOF 6
ENDMDL
MODEL 8
REMARK VINA RESULT:    -5.598      1.310      6.990
REMARK INTER + INTRA:          -6.944
REMARK INTER:                  -6.833
REMARK INTRA:                  -0.111
REMARK UNBOUND:                -0.200
REMARK SMILES Oc1cc(O)c2cc(O)c(-c3ccc(O)c(O)c3)[o+]c2c1
REMARK SMILES IDX 10 1 19 2 20 3 21 4 2 5 3 6 4 7 6 8 7 9 8 10 11 11 12 12
REMARK SMILES IDX 13 13 14 14 18 15 16 16 15 17 17 19 9 21 1 23 5 25
REMARK H PARENT 15 18 17 20 9 22 1 24 5 26
REMARK Flexibility Score: inf
ROOT
ATOM      1  C   UNL     1      -3.422  -8.173  37.911  1.00  0.00     0.402 A 
ATOM      2  O   UNL     1      -3.823  -6.944  37.601  1.00  0.00    -0.202 OA
ATOM      3  C   UNL     1      -3.640  -6.396  36.404  1.00  0.00     0.368 A 
ATOM      4  C   UNL     1      -4.102  -5.098  36.173  1.00  0.00     0.162 A 
ATOM      5  C   UNL     1      -3.926  -4.498  34.925  1.00  0.00     0.128 A 
ATOM      6  C   UNL     1      -3.284  -5.201  33.899  1.00  0.00     0.093 A 
ATOM      7  C   UNL     1      -2.813  -6.504  34.105  1.00  0.00     0.136 A 
ATOM      8  C   UNL     1      -2.988  -7.115  35.374  1.00  0.00     0.125 A 
ATOM      9  C   UNL     1      -2.537  -8.411  35.675  1.00  0.00     0.078 A 
ATOM     10  C   UNL     1      -2.742  -8.945  36.951  1.00  0.00     0.223 A 
ENDROOT
BRANCH   1  11
ATOM     11  C   UNL     1      -3.693  -8.675  39.277  1.00  0.00     0.087 A 
ATOM     12  C   UNL     1      -5.020  -8.781  39.723  1.00  0.00     0.022 A 
ATOM     13  C   UNL     1      -5.302  -9.271  41.001  1.00  0.00     0.051 A 
ATOM     14  C   UNL     1      -4.264  -9.678  41.846  1.00  0.00     0.157 A 
ATOM     15  C   UNL     1      -2.653  -9.105  40.121  1.00  0.00     0.068 A 
ATOM     16  C   UNL     1      -2.933  -9.599  41.403  1.00  0.00     0.158 A 
BRANCH  14  17
ATOM     17  O   UNL     1      -4.575 -10.160  43.116  1.00  0.00    -0.504 OA
ATOM     18  H   UNL     1      -4.446 -11.133  43.370  1.00  0.00     0.293 HD
ENDBRANCH  14  17
BRANCH  16  19
ATOM     19  O   UNL     1      -1.895 -10.016  42.235  1.00  0.00    -0.504 OA
ATOM     20  H   UNL     1      -2.074 -10.481  43.117  1.00  0.00     0.293 HD
ENDBRANCH  16  19
ENDBRANCH   1  11
BRANCH  10  21
ATOM     21  O   UNL     1      -2.250 -10.212  37.266  1.00  0.00    -0.500 OA
ATOM     22  H   UNL     1      -1.322 -10.508  36.986  1.00  0.00     0.294 HD
ENDBRANCH  10  21
BRANCH   5  23
ATOM     23  O   UNL     1      -4.392  -3.203  34.714  1.00  0.00    -0.507 OA
ATOM     24  H   UNL     1      -3.815  -2.393  34.913  1.00  0.00     0.293 HD
ENDBRANCH   5  23
BRANCH   7  25
ATOM     25  O   UNL     1      -2.188  -7.140  33.029  1.00  0.00    -0.507 OA
ATOM     26  H   UNL     1      -2.653  -7.401  32.172  1.00  0.00     0.293 HD
ENDBRANCH   7  25
TORSDOF 6
ENDMDL
MODEL 9
REMARK VINA RESULT:    -5.440      3.870      5.766
REMARK INTER + INTRA:          -6.754
REMARK INTER:                  -6.557
REMARK INTRA:                  -0.197
REMARK UNBOUND:                -0.200
REMARK SMILES Oc1cc(O)c2cc(O)c(-c3ccc(O)c(O)c3)[o+]c2c1
REMARK SMILES IDX 10 1 19 2 20 3 21 4 2 5 3 6 4 7 6 8 7 9 8 10 11 11 12 12
REMARK SMILES IDX 13 13 14 14 18 15 16 16 15 17 17 19 9 21 1 23 5 25
REMARK H PARENT 15 18 17 20 9 22 1 24 5 26
REMARK Flexibility Score: inf
ROOT
ATOM      1  C   UNL     1      -2.611 -11.498  41.029  1.00  0.00     0.402 A 
ATOM      2  O   UNL     1      -3.211 -12.540  40.460  1.00  0.00    -0.202 OA
ATOM      3  C   UNL     1      -3.278 -13.742  41.025  1.00  0.00     0.368 A 
ATOM      4  C   UNL     1      -3.936 -14.774  40.351  1.00  0.00     0.162 A 
ATOM      5  C   UNL     1      -4.024 -16.045  40.921  1.00  0.00     0.128 A 
ATOM      6  C   UNL     1      -3.453 -16.287  42.175  1.00  0.00     0.093 A 
ATOM      7  C   UNL     1      -2.790 -15.269  42.872  1.00  0.00     0.136 A 
ATOM      8  C   UNL     1      -2.696 -13.976  42.293  1.00  0.00     0.125 A 
ATOM      9  C   UNL     1      -2.039 -12.900  42.913  1.00  0.00     0.078 A 
ATOM     10  C   UNL     1      -1.983 -11.655  42.279  1.00  0.00     0.223 A 
ENDROOT
BRANCH   1  11
ATOM     11  C   UNL     1      -2.611 -10.208  40.303  1.00  0.00     0.087 A 
ATOM     12  C   UNL     1      -1.404  -9.695  39.806  1.00  0.00     0.022 A 
ATOM     13  C   UNL     1      -1.382  -8.489  39.100  1.00  0.00     0.051 A 
ATOM     14  C   UNL     1      -2.568  -7.787  38.867  1.00  0.00     0.157 A 
ATOM     15  C   UNL     1      -3.806  -9.510  40.049  1.00  0.00     0.068 A 
ATOM     16  C   UNL     1      -3.788  -8.300  39.339  1.00  0.00     0.158 A 
BRANCH  14  17
ATOM     17  O   UNL     1      -2.517  -6.585  38.162  1.00  0.00    -0.504 OA
ATOM     18  H   UNL     1      -2.707  -5.693  38.604  1.00  0.00     0.293 HD
ENDBRANCH  14  17
BRANCH  16  19
ATOM     19  O   UNL     1      -4.976  -7.612  39.098  1.00  0.00    -0.504 OA
ATOM     20  H   UNL     1      -5.858  -8.097  38.991  1.00  0.00     0.293 HD
ENDBRANCH  16  19
ENDBRANCH   1  11
BRANCH  10  21
ATOM     21  O   UNL     1      -1.289 -10.599  42.869  1.00  0.00    -0.500 OA
ATOM     22  H   UNL     1      -0.319 -10.409  42.646  1.00  0.00     0.294 HD
ENDBRANCH  10  21
BRANCH   5  23
ATOM     23  O   UNL     1      -4.682 -17.061  40.233  1.00  0.00    -0.507 OA
ATOM     24  H   UNL     1      -4.533 -17.213  39.241  1.00  0.00     0.293 HD
ENDBRANCH   5  23
BRANCH   7  25
ATOM     25  O   UNL     1      -2.250 -15.589  44.121  1.00  0.00    -0.507 OA
ATOM     26  H   UNL     1      -1.264 -15.700  44.304  1.00  0.00     0.293 HD
ENDBRANCH   7  25
TORSDOF 6
ENDMDL
