MODEL 1
REMARK VINA RESULT:    -5.593      0.000      0.000
REMARK INTER + INTRA:          -6.704
REMARK INTER:                  -6.574
REMARK INTRA:                  -0.130
REMARK UNBOUND:                -0.130
REMARK SMILES O=C([O-])C=Cc1ccc(O)c(O)c1
REMARK SMILES IDX 6 1 13 2 7 3 11 4 8 5 9 6 5 7 4 8 2 9 1 10 3 11 12 12 10 14
REMARK H PARENT 12 13 10 15
REMARK Flexibility Score: inf
ROOT
ATOM      1  C   UNL     1      27.183  23.645  49.995  1.00  0.00    -0.022 A 
ATOM      2  C   UNL     1      27.499  24.617  50.959  1.00  0.00     0.058 A 
ATOM      3  C   UNL     1      26.552  22.456  50.411  1.00  0.00     0.012 A 
ATOM      4  C   UNL     1      27.169  24.423  52.309  1.00  0.00     0.157 A 
ATOM      5  C   UNL     1      26.225  22.262  51.756  1.00  0.00     0.051 A 
ATOM      6  C   UNL     1      26.527  23.240  52.707  1.00  0.00     0.157 A 
ENDROOT
BRANCH   1   7
ATOM      7  C   UNL     1      27.563  23.896  48.583  1.00  0.00     0.010 C 
ATOM      8  C   UNL     1      28.764  24.357  48.205  1.00  0.00     0.025 C 
BRANCH   8   9
ATOM      9  C   UNL     1      29.102  24.580  46.791  1.00  0.00     0.064 C 
ATOM     10  O   UNL     1      30.264  24.949  46.481  1.00  0.00    -0.545 OA
ATOM     11  O   UNL     1      28.156  24.393  45.789  1.00  0.00    -0.545 OA
ENDBRANCH   8   9
ENDBRANCH   1   7
BRANCH   4  12
ATOM     12  O   UNL     1      27.480  25.401  53.253  1.00  0.00    -0.504 OA
ATOM     13  H   UNL     1      28.291  25.320  53.854  1.00  0.00     0.293 HD
ENDBRANCH   4  12
BRANCH   6  14
ATOM     14  O   UNL     1      26.186  23.017  54.040  1.00  0.00    -0.504 OA
ATOM     15  H   UNL     1      26.210  22.094  54.456  1.00  0.00     0.293 HD
ENDBRANCH   6  14
TORSDOF 4
ENDMDL
MODEL 2
REMARK VINA RESULT:    -5.490      0.807      1.874
REMARK INTER + INTRA:          -6.582
REMARK INTER:                  -6.447
REMARK INTRA:                  -0.135
REMARK UNBOUND:                -0.130
REMARK SMILES O=C([O-])C=Cc1ccc(O)c(O)c1
REMARK SMILES IDX 6 1 13 2 7 3 11 4 8 5 9 6 5 7 4 8 2 9 1 10 3 11 12 12 10 14
REMARK H PARENT 12 13 10 15
REMARK Flexibility Score: inf
ROOT
ATOM      1  C   UNL     1      27.249  23.772  50.296  1.00  0.00    -0.022 A 
ATOM      2  C   UNL     1      26.487  22.668  50.714  1.00  0.00     0.058 A 
ATOM      3  C   UNL     1      27.676  24.707  51.260  1.00  0.00     0.012 A 
ATOM      4  C   UNL     1      26.177  22.483  52.070  1.00  0.00     0.157 A 
ATOM      5  C   UNL     1      27.366  24.523  52.610  1.00  0.00     0.051 A 
ATOM      6  C   UNL     1      26.622  23.415  53.022  1.00  0.00     0.157 A 
ENDROOT
BRANCH   1   7
ATOM      7  C   UNL     1      27.540  23.927  48.850  1.00  0.00     0.010 C 
ATOM      8  C   UNL     1      28.714  24.359  48.368  1.00  0.00     0.025 C 
BRANCH   8   9
ATOM      9  C   UNL     1      28.964  24.486  46.924  1.00  0.00     0.064 C 
ATOM     10  O   UNL     1      30.099  24.844  46.519  1.00  0.00    -0.545 OA
ATOM     11  O   UNL     1      27.962  24.218  45.997  1.00  0.00    -0.545 OA
ENDBRANCH   8   9
ENDBRANCH   1   7
BRANCH   4  12
ATOM     12  O   UNL     1      25.429  21.377  52.472  1.00  0.00    -0.504 OA
ATOM     13  H   UNL     1      25.633  20.883  53.333  1.00  0.00     0.293 HD
ENDBRANCH   4  12
BRANCH   6  14
ATOM     14  O   UNL     1      26.331  23.258  54.376  1.00  0.00    -0.504 OA
ATOM     15  H   UNL     1      26.853  22.624  54.969  1.00  0.00     0.293 HD
ENDBRANCH   6  14
TORSDOF 4
ENDMDL
MODEL 3
REMARK VINA RESULT:    -5.300     11.676     13.783
REMARK INTER + INTRA:          -6.359
REMARK INTER:                  -6.232
REMARK INTRA:                  -0.127
REMARK UNBOUND:                -0.130
REMARK SMILES O=C([O-])C=Cc1ccc(O)c(O)c1
REMARK SMILES IDX 6 1 13 2 7 3 11 4 8 5 9 6 5 7 4 8 2 9 1 10 3 11 12 12 10 14
REMARK H PARENT 12 13 10 15
REMARK Flexibility Score: inf
ROOT
ATOM      1  C   UNL     1      20.052  23.873  39.726  1.00  0.00    -0.022 A 
ATOM      2  C   UNL     1      19.494  23.886  38.437  1.00  0.00     0.058 A 
ATOM      3  C   UNL     1      20.609  22.674  40.213  1.00  0.00     0.012 A 
ATOM      4  C   UNL     1      19.513  22.735  37.635  1.00  0.00     0.157 A 
ATOM      5  C   UNL     1      20.626  21.526  39.415  1.00  0.00     0.051 A 
ATOM      6  C   UNL     1      20.084  21.550  38.128  1.00  0.00     0.157 A 
ENDROOT
BRANCH   1   7
ATOM      7  C   UNL     1      19.998  25.115  40.536  1.00  0.00     0.010 C 
ATOM      8  C   UNL     1      21.003  25.998  40.613  1.00  0.00     0.025 C 
BRANCH   8   9
ATOM      9  C   UNL     1      20.901  27.224  41.420  1.00  0.00     0.064 C 
ATOM     10  O   UNL     1      21.335  28.310  40.957  1.00  0.00    -0.545 OA
ATOM     11  O   UNL     1      20.335  27.202  42.690  1.00  0.00    -0.545 OA
ENDBRANCH   8   9
ENDBRANCH   1   7
BRANCH   4  12
ATOM     12  O   UNL     1      18.964  22.765  36.354  1.00  0.00    -0.504 OA
ATOM     13  H   UNL     1      18.683  23.635  35.917  1.00  0.00     0.293 HD
ENDBRANCH   4  12
BRANCH   6  14
ATOM     14  O   UNL     1      20.118  20.390  37.356  1.00  0.00    -0.504 OA
ATOM     15  H   UNL     1      19.289  19.834  37.182  1.00  0.00     0.293 HD
ENDBRANCH   6  14
TORSDOF 4
ENDMDL
MODEL 4
REMARK VINA RESULT:    -5.269     12.177     13.875
REMARK INTER + INTRA:          -6.323
REMARK INTER:                  -6.196
REMARK INTRA:                  -0.126
REMARK UNBOUND:                -0.130
REMARK SMILES O=C([O-])C=Cc1ccc(O)c(O)c1
REMARK SMILES IDX 6 1 13 2 7 3 11 4 8 5 9 6 5 7 4 8 2 9 1 10 3 11 12 12 10 14
REMARK H PARENT 12 13 10 15
REMARK Flexibility Score: inf
ROOT
ATOM      1  C   UNL     1      19.244  24.212  39.902  1.00  0.00    -0.022 A 
ATOM      2  C   UNL     1      20.097  23.254  40.475  1.00  0.00     0.058 A 
ATOM      3  C   UNL     1      18.865  24.064  38.554  1.00  0.00     0.012 A 
ATOM      4  C   UNL     1      20.544  22.153  39.728  1.00  0.00     0.157 A 
ATOM      5  C   UNL     1      19.311  22.969  37.809  1.00  0.00     0.051 A 
ATOM      6  C   UNL     1      20.146  22.011  38.389  1.00  0.00     0.157 A 
ENDROOT
BRANCH   1   7
ATOM      7  C   UNL     1      18.808  25.361  40.733  1.00  0.00     0.010 C 
ATOM      8  C   UNL     1      18.223  25.234  41.933  1.00  0.00     0.025 C 
BRANCH   8   9
ATOM      9  C   UNL     1      17.818  26.402  42.728  1.00  0.00     0.064 C 
ATOM     10  O   UNL     1      16.727  26.978  42.476  1.00  0.00    -0.545 OA
ATOM     11  O   UNL     1      18.621  26.885  43.755  1.00  0.00    -0.545 OA
ENDBRANCH   8   9
ENDBRANCH   1   7
BRANCH   4  12
ATOM     12  O   UNL     1      21.382  21.204  40.313  1.00  0.00    -0.504 OA
ATOM     13  H   UNL     1      21.728  20.408  39.790  1.00  0.00     0.293 HD
ENDBRANCH   4  12
BRANCH   6  14
ATOM     14  O   UNL     1      20.573  20.928  37.621  1.00  0.00    -0.504 OA
ATOM     15  H   UNL     1      21.513  20.871  37.246  1.00  0.00     0.293 HD
ENDBRANCH   6  14
TORSDOF 4
ENDMDL
MODEL 5
REMARK VINA RESULT:    -5.216     11.112     12.644
REMARK INTER + INTRA:          -6.260
REMARK INTER:                  -6.127
REMARK INTRA:                  -0.133
REMARK UNBOUND:                -0.130
REMARK SMILES O=C([O-])C=Cc1ccc(O)c(O)c1
REMARK SMILES IDX 6 1 13 2 7 3 11 4 8 5 9 6 5 7 4 8 2 9 1 10 3 11 12 12 10 14
REMARK H PARENT 12 13 10 15
REMARK Flexibility Score: inf
ROOT
ATOM      1  C   UNL     1      19.852  25.523  40.444  1.00  0.00    -0.022 A 
ATOM      2  C   UNL     1      20.936  26.408  40.570  1.00  0.00     0.058 A 
ATOM      3  C   UNL     1      18.900  25.463  41.479  1.00  0.00     0.012 A 
ATOM      4  C   UNL     1      21.056  27.239  41.694  1.00  0.00     0.157 A 
ATOM      5  C   UNL     1      19.020  26.290  42.600  1.00  0.00     0.051 A 
ATOM      6  C   UNL     1      20.091  27.180  42.712  1.00  0.00     0.157 A 
ENDROOT
BRANCH   1   7
ATOM      7  C   UNL     1      19.778  24.659  39.239  1.00  0.00     0.010 C 
ATOM      8  C   UNL     1      19.778  23.319  39.283  1.00  0.00     0.025 C 
BRANCH   8   9
ATOM      9  C   UNL     1      19.691  22.502  38.063  1.00  0.00     0.064 C 
ATOM     10  O   UNL     1      19.170  22.987  37.026  1.00  0.00    -0.545 OA
ATOM     11  O   UNL     1      20.173  21.198  38.037  1.00  0.00    -0.545 OA
ENDBRANCH   8   9
ENDBRANCH   1   7
BRANCH   4  12
ATOM     12  O   UNL     1      22.132  28.121  41.801  1.00  0.00    -0.504 OA
ATOM     13  H   UNL     1      22.771  28.085  42.586  1.00  0.00     0.293 HD
ENDBRANCH   4  12
BRANCH   6  14
ATOM     14  O   UNL     1      20.183  27.993  43.841  1.00  0.00    -0.504 OA
ATOM     15  H   UNL     1      19.853  27.692  44.750  1.00  0.00     0.293 HD
ENDBRANCH   6  14
TORSDOF 4
ENDMDL
MODEL 6
REMARK VINA RESULT:    -5.084      2.121      2.722
REMARK INTER + INTRA:          -6.106
REMARK INTER:                  -5.978
REMARK INTRA:                  -0.127
REMARK UNBOUND:                -0.130
REMARK SMILES O=C([O-])C=Cc1ccc(O)c(O)c1
REMARK SMILES IDX 6 1 13 2 7 3 11 4 8 5 9 6 5 7 4 8 2 9 1 10 3 11 12 12 10 14
REMARK H PARENT 12 13 10 15
REMARK Flexibility Score: inf
ROOT
ATOM      1  C   UNL     1      27.729  23.035  49.512  1.00  0.00    -0.022 A 
ATOM      2  C   UNL     1      26.536  22.537  50.062  1.00  0.00     0.058 A 
ATOM      3  C   UNL     1      28.933  22.851  50.220  1.00  0.00     0.012 A 
ATOM      4  C   UNL     1      26.543  21.844  51.282  1.00  0.00     0.157 A 
ATOM      5  C   UNL     1      28.940  22.162  51.436  1.00  0.00     0.051 A 
ATOM      6  C   UNL     1      27.753  21.655  51.970  1.00  0.00     0.157 A 
ENDROOT
BRANCH   1   7
ATOM      7  C   UNL     1      27.665  23.768  48.223  1.00  0.00     0.010 C 
ATOM      8  C   UNL     1      26.984  23.335  47.153  1.00  0.00     0.025 C 
BRANCH   8   9
ATOM      9  C   UNL     1      26.937  24.101  45.898  1.00  0.00     0.064 C 
ATOM     10  O   UNL     1      25.827  24.339  45.356  1.00  0.00    -0.545 OA
ATOM     11  O   UNL     1      28.102  24.567  45.298  1.00  0.00    -0.545 OA
ENDBRANCH   8   9
ENDBRANCH   1   7
BRANCH   4  12
ATOM     12  O   UNL     1      25.353  21.347  51.812  1.00  0.00    -0.504 OA
ATOM     13  H   UNL     1      25.329  20.866  52.703  1.00  0.00     0.293 HD
ENDBRANCH   4  12
BRANCH   6  14
ATOM     14  O   UNL     1      27.793  20.971  53.184  1.00  0.00    -0.504 OA
ATOM     15  H   UNL     1      28.603  20.998  53.792  1.00  0.00     0.293 HD
ENDBRANCH   6  14
TORSDOF 4
ENDMDL
MODEL 7
REMARK VINA RESULT:    -5.034     10.939     11.907
REMARK INTER + INTRA:          -6.047
REMARK INTER:                  -5.920
REMARK INTRA:                  -0.127
REMARK UNBOUND:                -0.130
REMARK SMILES O=C([O-])C=Cc1ccc(O)c(O)c1
REMARK SMILES IDX 6 1 13 2 7 3 11 4 8 5 9 6 5 7 4 8 2 9 1 10 3 11 12 12 10 14
REMARK H PARENT 12 13 10 15
REMARK Flexibility Score: inf
ROOT
ATOM      1  C   UNL     1      18.119  26.012  43.636  1.00  0.00    -0.022 A 
ATOM      2  C   UNL     1      19.259  26.812  43.826  1.00  0.00     0.058 A 
ATOM      3  C   UNL     1      16.967  26.279  44.402  1.00  0.00     0.012 A 
ATOM      4  C   UNL     1      19.246  27.874  44.743  1.00  0.00     0.157 A 
ATOM      5  C   UNL     1      16.954  27.337  45.316  1.00  0.00     0.051 A 
ATOM      6  C   UNL     1      18.086  28.137  45.489  1.00  0.00     0.157 A 
ENDROOT
BRANCH   1   7
ATOM      7  C   UNL     1      18.190  24.896  42.662  1.00  0.00     0.010 C 
ATOM      8  C   UNL     1      18.665  25.024  41.415  1.00  0.00     0.025 C 
BRANCH   8   9
ATOM      9  C   UNL     1      18.727  23.886  40.485  1.00  0.00     0.064 C 
ATOM     10  O   UNL     1      17.972  23.864  39.479  1.00  0.00    -0.545 OA
ATOM     11  O   UNL     1      19.607  22.831  40.701  1.00  0.00    -0.545 OA
ENDBRANCH   8   9
ENDBRANCH   1   7
BRANCH   4  12
ATOM     12  O   UNL     1      20.381  28.665  44.914  1.00  0.00    -0.504 OA
ATOM     13  H   UNL     1      21.110  28.708  44.211  1.00  0.00     0.293 HD
ENDBRANCH   4  12
BRANCH   6  14
ATOM     14  O   UNL     1      18.041  29.186  46.407  1.00  0.00    -0.504 OA
ATOM     15  H   UNL     1      18.172  30.151  46.128  1.00  0.00     0.293 HD
ENDBRANCH   6  14
TORSDOF 4
ENDMDL
MODEL 8
REMARK VINA RESULT:    -4.971     11.256     12.836
REMARK INTER + INTRA:          -5.973
REMARK INTER:                  -5.847
REMARK INTRA:                  -0.126
REMARK UNBOUND:                -0.130
REMARK SMILES O=C([O-])C=Cc1ccc(O)c(O)c1
REMARK SMILES IDX 6 1 13 2 7 3 11 4 8 5 9 6 5 7 4 8 2 9 1 10 3 11 12 12 10 14
REMARK H PARENT 12 13 10 15
REMARK Flexibility Score: inf
ROOT
ATOM      1  C   UNL     1      19.924  25.530  40.335  1.00  0.00    -0.022 A 
ATOM      2  C   UNL     1      18.891  25.583  41.286  1.00  0.00     0.058 A 
ATOM      3  C   UNL     1      21.078  26.311  40.540  1.00  0.00     0.012 A 
ATOM      4  C   UNL     1      19.013  26.380  42.434  1.00  0.00     0.157 A 
ATOM      5  C   UNL     1      21.200  27.106  41.684  1.00  0.00     0.051 A 
ATOM      6  C   UNL     1      20.175  27.142  42.634  1.00  0.00     0.157 A 
ENDROOT
BRANCH   1   7
ATOM      7  C   UNL     1      19.739  24.679  39.133  1.00  0.00     0.010 C 
ATOM      8  C   UNL     1      19.663  23.341  39.172  1.00  0.00     0.025 C 
BRANCH   8   9
ATOM      9  C   UNL     1      19.467  22.538  37.956  1.00  0.00     0.064 C 
ATOM     10  O   UNL     1      20.154  21.498  37.781  1.00  0.00    -0.545 OA
ATOM     11  O   UNL     1      18.536  22.909  36.992  1.00  0.00    -0.545 OA
ENDBRANCH   8   9
ENDBRANCH   1   7
BRANCH   4  12
ATOM     12  O   UNL     1      17.984  26.415  43.374  1.00  0.00    -0.504 OA
ATOM     13  H   UNL     1      17.012  26.342  43.100  1.00  0.00     0.293 HD
ENDBRANCH   4  12
BRANCH   6  14
ATOM     14  O   UNL     1      20.327  27.943  43.765  1.00  0.00    -0.504 OA
ATOM     15  H   UNL     1      21.008  27.733  44.486  1.00  0.00     0.293 HD
ENDBRANCH   6  14
TORSDOF 4
ENDMDL
MODEL 9
REMARK VINA RESULT:    -4.927      2.187      2.667
REMARK INTER + INTRA:          -5.921
REMARK INTER:                  -5.790
REMARK INTRA:                  -0.131
REMARK UNBOUND:                -0.130
REMARK SMILES O=C([O-])C=Cc1ccc(O)c(O)c1
REMARK SMILES IDX 6 1 13 2 7 3 11 4 8 5 9 6 5 7 4 8 2 9 1 10 3 11 12 12 10 14
REMARK H PARENT 12 13 10 15
REMARK Flexibility Score: inf
ROOT
ATOM      1  C   UNL     1      28.162  22.231  50.253  1.00  0.00    -0.022 A 
ATOM      2  C   UNL     1      26.860  22.099  49.743  1.00  0.00     0.058 A 
ATOM      3  C   UNL     1      28.371  22.058  51.635  1.00  0.00     0.012 A 
ATOM      4  C   UNL     1      25.788  21.774  50.587  1.00  0.00     0.157 A 
ATOM      5  C   UNL     1      27.303  21.735  52.477  1.00  0.00     0.051 A 
ATOM      6  C   UNL     1      26.013  21.590  51.961  1.00  0.00     0.157 A 
ENDROOT
BRANCH   1   7
ATOM      7  C   UNL     1      29.258  22.585  49.318  1.00  0.00     0.010 C 
ATOM      8  C   UNL     1      29.232  23.655  48.510  1.00  0.00     0.025 C 
BRANCH   8   9
ATOM      9  C   UNL     1      30.347  23.975  47.606  1.00  0.00     0.064 C 
ATOM     10  O   UNL     1      31.397  23.282  47.645  1.00  0.00    -0.545 OA
ATOM     11  O   UNL     1      30.263  25.034  46.709  1.00  0.00    -0.545 OA
ENDBRANCH   8   9
ENDBRANCH   1   7
BRANCH   4  12
ATOM     12  O   UNL     1      24.502  21.637  50.066  1.00  0.00    -0.504 OA
ATOM     13  H   UNL     1      24.346  21.360  49.104  1.00  0.00     0.293 HD
ENDBRANCH   4  12
BRANCH   6  14
ATOM     14  O   UNL     1      24.968  21.266  52.826  1.00  0.00    -0.504 OA
ATOM     15  H   UNL     1      25.126  20.792  53.707  1.00  0.00     0.293 HD
ENDBRANCH   6  14
TORSDOF 4
ENDMDL
