MODEL 1
REMARK VINA RESULT:    -2.921      0.000      0.000
REMARK INTER + INTRA:         -11.129
REMARK INTER:                  -6.677
REMARK INTRA:                  -4.453
REMARK UNBOUND:                -4.453
REMARK SMILES CCCCCCCCCCCCCCCCCCCCCCCC(=O)[O-]
REMARK SMILES IDX 13 1 14 2 15 3 16 4 17 5 18 6 19 7 20 8 21 9 22 10 23 11
REMARK SMILES IDX 24 12 25 13 26 14 12 15 11 16 10 17 9 18 8 19 7 20 6 21 5 22
REMARK SMILES IDX 4 23 3 24 2 25 1 26
REMARK H PARENT
REMARK Flexibility Score: inf
ROOT
ATOM      1  C   UNL     1      63.944  30.731  58.260  1.00  0.00     0.000 C 
ENDROOT
BRANCH   1   2
ATOM      2  C   UNL     1      64.558  31.095  59.620  1.00  0.00     0.000 C 
BRANCH   2   3
ATOM      3  C   UNL     1      64.287  29.991  60.655  1.00  0.00     0.000 C 
BRANCH   3   4
ATOM      4  C   UNL     1      63.364  30.454  61.793  1.00  0.00     0.000 C 
BRANCH   4   5
ATOM      5  C   UNL     1      62.050  29.653  61.859  1.00  0.00     0.000 C 
BRANCH   5   6
ATOM      6  C   UNL     1      60.815  30.534  61.571  1.00  0.00     0.000 C 
BRANCH   6   7
ATOM      7  C   UNL     1      61.151  32.010  61.293  1.00  0.00     0.000 C 
BRANCH   7   8
ATOM      8  C   UNL     1      60.844  32.434  59.849  1.00  0.00     0.000 C 
BRANCH   8   9
ATOM      9  C   UNL     1      61.482  33.781  59.467  1.00  0.00     0.000 C 
BRANCH   9  10
ATOM     10  C   UNL     1      62.006  34.623  60.649  1.00  0.00     0.006 C 
BRANCH  10  11
ATOM     11  C   UNL     1      63.410  35.213  60.445  1.00  0.00     0.053 C 
BRANCH  11  12
ATOM     12  C   UNL     1      64.322  34.905  61.594  1.00  0.00     0.041 C 
ATOM     13  O   UNL     1      64.518  33.713  61.949  1.00  0.00    -0.550 OA
ATOM     14  O   UNL     1      64.985  35.934  62.250  1.00  0.00    -0.550 OA
ENDBRANCH  11  12
ENDBRANCH  10  11
ENDBRANCH   9  10
ENDBRANCH   8   9
ENDBRANCH   7   8
ENDBRANCH   6   7
ENDBRANCH   5   6
ENDBRANCH   4   5
ENDBRANCH   3   4
ENDBRANCH   2   3
ENDBRANCH   1   2
BRANCH   1  15
ATOM     15  C   UNL     1      63.244  29.364  58.269  1.00  0.00     0.000 C 
BRANCH  15  16
ATOM     16  C   UNL     1      61.727  29.475  58.041  1.00  0.00     0.000 C 
BRANCH  16  17
ATOM     17  C   UNL     1      60.974  28.178  58.380  1.00  0.00     0.000 C 
BRANCH  17  18
ATOM     18  C   UNL     1      59.534  28.413  58.887  1.00  0.00    -0.000 C 
BRANCH  18  19
ATOM     19  C   UNL     1      59.222  27.598  60.150  1.00  0.00    -0.000 C 
BRANCH  19  20
ATOM     20  C   UNL     1      59.566  26.114  59.949  1.00  0.00    -0.000 C 
BRANCH  20  21
ATOM     21  C   UNL     1      59.667  25.331  61.270  1.00  0.00    -0.000 C 
BRANCH  21  22
ATOM     22  C   UNL     1      59.958  26.181  62.520  1.00  0.00    -0.000 C 
BRANCH  22  23
ATOM     23  C   UNL     1      61.449  26.210  62.896  1.00  0.00    -0.000 C 
BRANCH  23  24
ATOM     24  C   UNL     1      62.216  24.974  62.389  1.00  0.00    -0.000 C 
BRANCH  24  25
ATOM     25  C   UNL     1      63.504  25.286  61.607  1.00  0.00    -0.003 C 
ATOM     26  C   UNL     1      63.314  26.376  60.552  1.00  0.00     0.004 C 
ENDBRANCH  24  25
ENDBRANCH  23  24
ENDBRANCH  22  23
ENDBRANCH  21  22
ENDBRANCH  20  21
ENDBRANCH  19  20
ENDBRANCH  18  19
ENDBRANCH  17  18
ENDBRANCH  16  17
ENDBRANCH  15  16
ENDBRANCH   1  15
TORSDOF 22
ENDMDL
MODEL 2
REMARK VINA RESULT:    -2.915      2.993      7.413
REMARK INTER + INTRA:         -11.117
REMARK INTER:                  -6.973
REMARK INTRA:                  -4.144
REMARK UNBOUND:                -4.453
REMARK SMILES CCCCCCCCCCCCCCCCCCCCCCCC(=O)[O-]
REMARK SMILES IDX 13 1 14 2 15 3 16 4 17 5 18 6 19 7 20 8 21 9 22 10 23 11
REMARK SMILES IDX 24 12 25 13 26 14 12 15 11 16 10 17 9 18 8 19 7 20 6 21 5 22
REMARK SMILES IDX 4 23 3 24 2 25 1 26
REMARK H PARENT
REMARK Flexibility Score: inf
ROOT
ATOM      1  C   UNL     1      60.978  30.645  58.855  1.00  0.00     0.000 C 
ENDROOT
BRANCH   1   2
ATOM      2  C   UNL     1      60.829  29.604  57.735  1.00  0.00     0.000 C 
BRANCH   2   3
ATOM      3  C   UNL     1      61.687  28.362  58.026  1.00  0.00     0.000 C 
BRANCH   3   4
ATOM      4  C   UNL     1      63.191  28.672  58.065  1.00  0.00     0.000 C 
BRANCH   4   5
ATOM      5  C   UNL     1      63.989  27.652  58.898  1.00  0.00     0.000 C 
BRANCH   5   6
ATOM      6  C   UNL     1      63.071  26.751  59.752  1.00  0.00     0.000 C 
BRANCH   6   7
ATOM      7  C   UNL     1      63.760  26.154  60.993  1.00  0.00     0.000 C 
BRANCH   7   8
ATOM      8  C   UNL     1      62.763  25.624  62.035  1.00  0.00     0.000 C 
BRANCH   8   9
ATOM      9  C   UNL     1      61.688  26.656  62.420  1.00  0.00     0.000 C 
BRANCH   9  10
ATOM     10  C   UNL     1      60.229  26.166  62.302  1.00  0.00     0.006 C 
BRANCH  10  11
ATOM     11  C   UNL     1      59.430  26.798  61.151  1.00  0.00     0.053 C 
BRANCH  11  12
ATOM     12  C   UNL     1      57.969  26.897  61.467  1.00  0.00     0.041 C 
ATOM     13  O   UNL     1      57.207  25.915  61.266  1.00  0.00    -0.550 OA
ATOM     14  O   UNL     1      57.455  28.064  62.018  1.00  0.00    -0.550 OA
ENDBRANCH  11  12
ENDBRANCH  10  11
ENDBRANCH   9  10
ENDBRANCH   8   9
ENDBRANCH   7   8
ENDBRANCH   6   7
ENDBRANCH   5   6
ENDBRANCH   4   5
ENDBRANCH   3   4
ENDBRANCH   2   3
ENDBRANCH   1   2
BRANCH   1  15
ATOM     15  C   UNL     1      60.419  30.156  60.200  1.00  0.00     0.000 C 
BRANCH  15  16
ATOM     16  C   UNL     1      60.821  31.066  61.373  1.00  0.00     0.000 C 
BRANCH  16  17
ATOM     17  C   UNL     1      61.822  30.400  62.332  1.00  0.00     0.000 C 
BRANCH  17  18
ATOM     18  C   UNL     1      63.091  29.870  61.630  1.00  0.00    -0.000 C 
BRANCH  18  19
ATOM     19  C   UNL     1      64.209  30.921  61.577  1.00  0.00    -0.000 C 
BRANCH  19  20
ATOM     20  C   UNL     1      64.454  31.393  60.135  1.00  0.00    -0.000 C 
BRANCH  20  21
ATOM     21  C   UNL     1      64.049  32.860  59.901  1.00  0.00    -0.000 C 
BRANCH  21  22
ATOM     22  C   UNL     1      64.129  33.772  61.139  1.00  0.00    -0.000 C 
BRANCH  22  23
ATOM     23  C   UNL     1      63.031  34.848  61.167  1.00  0.00    -0.000 C 
BRANCH  23  24
ATOM     24  C   UNL     1      61.676  34.331  60.650  1.00  0.00    -0.000 C 
BRANCH  24  25
ATOM     25  C   UNL     1      61.088  35.121  59.466  1.00  0.00    -0.003 C 
ATOM     26  C   UNL     1      60.165  34.279  58.585  1.00  0.00     0.004 C 
ENDBRANCH  24  25
ENDBRANCH  23  24
ENDBRANCH  22  23
ENDBRANCH  21  22
ENDBRANCH  20  21
ENDBRANCH  19  20
ENDBRANCH  18  19
ENDBRANCH  17  18
ENDBRANCH  16  17
ENDBRANCH  15  16
ENDBRANCH   1  15
TORSDOF 22
ENDMDL
MODEL 3
REMARK VINA RESULT:    -2.910      3.352      7.497
REMARK INTER + INTRA:         -11.106
REMARK INTER:                  -7.137
REMARK INTRA:                  -3.970
REMARK UNBOUND:                -4.453
REMARK SMILES CCCCCCCCCCCCCCCCCCCCCCCC(=O)[O-]
REMARK SMILES IDX 13 1 14 2 15 3 16 4 17 5 18 6 19 7 20 8 21 9 22 10 23 11
REMARK SMILES IDX 24 12 25 13 26 14 12 15 11 16 10 17 9 18 8 19 7 20 6 21 5 22
REMARK SMILES IDX 4 23 3 24 2 25 1 26
REMARK H PARENT
REMARK Flexibility Score: inf
ROOT
ATOM      1  C   UNL     1      60.629  30.833  60.578  1.00  0.00     0.000 C 
ENDROOT
BRANCH   1   2
ATOM      2  C   UNL     1      61.404  31.076  61.882  1.00  0.00     0.000 C 
BRANCH   2   3
ATOM      3  C   UNL     1      62.560  30.074  62.026  1.00  0.00     0.000 C 
BRANCH   3   4
ATOM      4  C   UNL     1      62.132  28.625  61.745  1.00  0.00     0.000 C 
BRANCH   4   5
ATOM      5  C   UNL     1      63.275  27.765  61.176  1.00  0.00     0.000 C 
BRANCH   5   6
ATOM      6  C   UNL     1      63.210  27.654  59.637  1.00  0.00     0.000 C 
BRANCH   6   7
ATOM      7  C   UNL     1      61.811  27.914  59.050  1.00  0.00     0.000 C 
BRANCH   7   8
ATOM      8  C   UNL     1      61.129  26.636  58.536  1.00  0.00     0.000 C 
BRANCH   8   9
ATOM      9  C   UNL     1      59.674  26.494  59.017  1.00  0.00     0.000 C 
BRANCH   9  10
ATOM     10  C   UNL     1      59.485  26.455  60.549  1.00  0.00     0.006 C 
BRANCH  10  11
ATOM     11  C   UNL     1      58.714  27.649  61.132  1.00  0.00     0.053 C 
BRANCH  11  12
ATOM     12  C   UNL     1      57.419  27.231  61.759  1.00  0.00     0.041 C 
ATOM     13  O   UNL     1      56.444  28.026  61.795  1.00  0.00    -0.550 OA
ATOM     14  O   UNL     1      57.279  25.949  62.275  1.00  0.00    -0.550 OA
ENDBRANCH  11  12
ENDBRANCH  10  11
ENDBRANCH   9  10
ENDBRANCH   8   9
ENDBRANCH   7   8
ENDBRANCH   6   7
ENDBRANCH   5   6
ENDBRANCH   4   5
ENDBRANCH   3   4
ENDBRANCH   2   3
ENDBRANCH   1   2
BRANCH   1  15
ATOM     15  C   UNL     1      60.511  32.097  59.713  1.00  0.00     0.000 C 
BRANCH  15  16
ATOM     16  C   UNL     1      61.042  33.353  60.425  1.00  0.00     0.000 C 
BRANCH  16  17
ATOM     17  C   UNL     1      60.866  34.633  59.592  1.00  0.00     0.000 C 
BRANCH  17  18
ATOM     18  C   UNL     1      60.852  35.924  60.438  1.00  0.00    -0.000 C 
BRANCH  18  19
ATOM     19  C   UNL     1      62.153  36.114  61.232  1.00  0.00    -0.000 C 
BRANCH  19  20
ATOM     20  C   UNL     1      63.327  36.440  60.297  1.00  0.00    -0.000 C 
BRANCH  20  21
ATOM     21  C   UNL     1      64.515  35.473  60.456  1.00  0.00    -0.000 C 
BRANCH  21  22
ATOM     22  C   UNL     1      64.422  34.506  61.650  1.00  0.00    -0.000 C 
BRANCH  22  23
ATOM     23  C   UNL     1      64.417  33.027  61.229  1.00  0.00    -0.000 C 
BRANCH  23  24
ATOM     24  C   UNL     1      64.578  32.839  59.709  1.00  0.00    -0.000 C 
BRANCH  24  25
ATOM     25  C   UNL     1      64.635  31.374  59.239  1.00  0.00    -0.003 C 
ATOM     26  C   UNL     1      63.626  31.062  58.134  1.00  0.00     0.004 C 
ENDBRANCH  24  25
ENDBRANCH  23  24
ENDBRANCH  22  23
ENDBRANCH  21  22
ENDBRANCH  20  21
ENDBRANCH  19  20
ENDBRANCH  18  19
ENDBRANCH  17  18
ENDBRANCH  16  17
ENDBRANCH  15  16
ENDBRANCH   1  15
TORSDOF 22
ENDMDL
MODEL 4
REMARK VINA RESULT:    -2.879      9.230     11.579
REMARK INTER + INTRA:         -11.034
REMARK INTER:                  -7.226
REMARK INTRA:                  -3.808
REMARK UNBOUND:                -4.453
REMARK SMILES CCCCCCCCCCCCCCCCCCCCCCCC(=O)[O-]
REMARK SMILES IDX 13 1 14 2 15 3 16 4 17 5 18 6 19 7 20 8 21 9 22 10 23 11
REMARK SMILES IDX 24 12 25 13 26 14 12 15 11 16 10 17 9 18 8 19 7 20 6 21 5 22
REMARK SMILES IDX 4 23 3 24 2 25 1 26
REMARK H PARENT
REMARK Flexibility Score: inf
ROOT
ATOM      1  C   UNL     1      57.787  28.734  49.961  1.00  0.00     0.000 C 
ENDROOT
BRANCH   1   2
ATOM      2  C   UNL     1      59.083  29.158  49.252  1.00  0.00     0.000 C 
BRANCH   2   3
ATOM      3  C   UNL     1      59.946  27.933  48.913  1.00  0.00     0.000 C 
BRANCH   3   4
ATOM      4  C   UNL     1      59.314  26.611  49.376  1.00  0.00     0.000 C 
BRANCH   4   5
ATOM      5  C   UNL     1      60.312  25.699  50.113  1.00  0.00     0.000 C 
BRANCH   5   6
ATOM      6  C   UNL     1      61.342  26.504  50.934  1.00  0.00     0.000 C 
BRANCH   6   7
ATOM      7  C   UNL     1      60.746  27.208  52.167  1.00  0.00     0.000 C 
BRANCH   7   8
ATOM      8  C   UNL     1      61.251  28.649  52.337  1.00  0.00     0.000 C 
BRANCH   8   9
ATOM      9  C   UNL     1      62.382  29.011  51.356  1.00  0.00     0.000 C 
BRANCH   9  10
ATOM     10  C   UNL     1      62.650  30.521  51.187  1.00  0.00     0.006 C 
BRANCH  10  11
ATOM     11  C   UNL     1      61.924  31.173  50.000  1.00  0.00     0.053 C 
BRANCH  11  12
ATOM     12  C   UNL     1      62.787  32.173  49.292  1.00  0.00     0.041 C 
ATOM     13  O   UNL     1      62.344  33.321  49.025  1.00  0.00    -0.550 OA
ATOM     14  O   UNL     1      64.095  31.847  48.955  1.00  0.00    -0.550 OA
ENDBRANCH  11  12
ENDBRANCH  10  11
ENDBRANCH   9  10
ENDBRANCH   8   9
ENDBRANCH   7   8
ENDBRANCH   6   7
ENDBRANCH   5   6
ENDBRANCH   4   5
ENDBRANCH   3   4
ENDBRANCH   2   3
ENDBRANCH   1   2
BRANCH   1  15
ATOM     15  C   UNL     1      57.690  29.275  51.396  1.00  0.00     0.000 C 
BRANCH  15  16
ATOM     16  C   UNL     1      57.133  28.236  52.383  1.00  0.00     0.000 C 
BRANCH  16  17
ATOM     17  C   UNL     1      56.629  26.961  51.687  1.00  0.00     0.000 C 
BRANCH  17  18
ATOM     18  C   UNL     1      55.091  26.892  51.561  1.00  0.00    -0.000 C 
BRANCH  18  19
ATOM     19  C   UNL     1      54.619  27.045  50.108  1.00  0.00    -0.000 C 
BRANCH  19  20
ATOM     20  C   UNL     1      53.580  28.170  49.981  1.00  0.00    -0.000 C 
BRANCH  20  21
ATOM     21  C   UNL     1      54.151  29.561  50.312  1.00  0.00    -0.000 C 
BRANCH  21  22
ATOM     22  C   UNL     1      53.425  30.321  51.437  1.00  0.00    -0.000 C 
BRANCH  22  23
ATOM     23  C   UNL     1      54.355  30.713  52.598  1.00  0.00    -0.000 C 
BRANCH  23  24
ATOM     24  C   UNL     1      54.312  32.220  52.914  1.00  0.00    -0.000 C 
BRANCH  24  25
ATOM     25  C   UNL     1      55.651  32.826  53.372  1.00  0.00    -0.003 C 
ATOM     26  C   UNL     1      56.670  31.770  53.799  1.00  0.00     0.004 C 
ENDBRANCH  24  25
ENDBRANCH  23  24
ENDBRANCH  22  23
ENDBRANCH  21  22
ENDBRANCH  20  21
ENDBRANCH  19  20
ENDBRANCH  18  19
ENDBRANCH  17  18
ENDBRANCH  16  17
ENDBRANCH  15  16
ENDBRANCH   1  15
TORSDOF 22
ENDMDL
MODEL 5
REMARK VINA RESULT:    -2.875      3.541      7.868
REMARK INTER + INTRA:         -11.026
REMARK INTER:                  -7.462
REMARK INTRA:                  -3.564
REMARK UNBOUND:                -4.453
REMARK SMILES CCCCCCCCCCCCCCCCCCCCCCCC(=O)[O-]
REMARK SMILES IDX 13 1 14 2 15 3 16 4 17 5 18 6 19 7 20 8 21 9 22 10 23 11
REMARK SMILES IDX 24 12 25 13 26 14 12 15 11 16 10 17 9 18 8 19 7 20 6 21 5 22
REMARK SMILES IDX 4 23 3 24 2 25 1 26
REMARK H PARENT
REMARK Flexibility Score: inf
ROOT
ATOM      1  C   UNL     1      63.468  28.497  60.170  1.00  0.00     0.000 C 
ENDROOT
BRANCH   1   2
ATOM      2  C   UNL     1      62.876  29.163  58.918  1.00  0.00     0.000 C 
BRANCH   2   3
ATOM      3  C   UNL     1      61.718  28.328  58.351  1.00  0.00     0.000 C 
BRANCH   3   4
ATOM      4  C   UNL     1      60.366  29.056  58.423  1.00  0.00     0.000 C 
BRANCH   4   5
ATOM      5  C   UNL     1      59.388  28.402  59.416  1.00  0.00     0.000 C 
BRANCH   5   6
ATOM      6  C   UNL     1      59.620  26.881  59.547  1.00  0.00     0.000 C 
BRANCH   6   7
ATOM      7  C   UNL     1      59.724  26.387  61.001  1.00  0.00     0.000 C 
BRANCH   7   8
ATOM      8  C   UNL     1      58.848  27.194  61.972  1.00  0.00     0.000 C 
BRANCH   8   9
ATOM      9  C   UNL     1      57.365  26.782  61.931  1.00  0.00     0.000 C 
BRANCH   9  10
ATOM     10  C   UNL     1      56.354  27.936  62.096  1.00  0.00     0.006 C 
BRANCH  10  11
ATOM     11  C   UNL     1      55.106  27.830  61.205  1.00  0.00     0.053 C 
BRANCH  11  12
ATOM     12  C   UNL     1      54.796  29.123  60.514  1.00  0.00     0.041 C 
ATOM     13  O   UNL     1      53.807  29.815  60.874  1.00  0.00    -0.550 OA
ATOM     14  O   UNL     1      55.619  29.581  59.494  1.00  0.00    -0.550 OA
ENDBRANCH  11  12
ENDBRANCH  10  11
ENDBRANCH   9  10
ENDBRANCH   8   9
ENDBRANCH   7   8
ENDBRANCH   6   7
ENDBRANCH   5   6
ENDBRANCH   4   5
ENDBRANCH   3   4
ENDBRANCH   2   3
ENDBRANCH   1   2
BRANCH   1  15
ATOM     15  C   UNL     1      63.286  29.346  61.438  1.00  0.00     0.000 C 
BRANCH  15  16
ATOM     16  C   UNL     1      61.833  29.349  61.943  1.00  0.00     0.000 C 
BRANCH  16  17
ATOM     17  C   UNL     1      61.304  30.763  62.235  1.00  0.00     0.000 C 
BRANCH  17  18
ATOM     18  C   UNL     1      60.866  31.533  60.970  1.00  0.00    -0.000 C 
BRANCH  18  19
ATOM     19  C   UNL     1      61.566  32.894  60.846  1.00  0.00    -0.000 C 
BRANCH  19  20
ATOM     20  C   UNL     1      62.846  32.781  60.003  1.00  0.00    -0.000 C 
BRANCH  20  21
ATOM     21  C   UNL     1      64.134  32.903  60.838  1.00  0.00    -0.000 C 
BRANCH  21  22
ATOM     22  C   UNL     1      64.340  34.258  61.539  1.00  0.00    -0.000 C 
BRANCH  22  23
ATOM     23  C   UNL     1      64.742  35.383  60.570  1.00  0.00    -0.000 C 
BRANCH  23  24
ATOM     24  C   UNL     1      63.589  36.363  60.281  1.00  0.00    -0.000 C 
BRANCH  24  25
ATOM     25  C   UNL     1      62.522  36.454  61.387  1.00  0.00    -0.003 C 
ATOM     26  C   UNL     1      61.103  36.598  60.838  1.00  0.00     0.004 C 
ENDBRANCH  24  25
ENDBRANCH  23  24
ENDBRANCH  22  23
ENDBRANCH  21  22
ENDBRANCH  20  21
ENDBRANCH  19  20
ENDBRANCH  18  19
ENDBRANCH  17  18
ENDBRANCH  16  17
ENDBRANCH  15  16
ENDBRANCH   1  15
TORSDOF 22
ENDMDL
MODEL 6
REMARK VINA RESULT:    -2.862      9.241     12.185
REMARK INTER + INTRA:         -10.995
REMARK INTER:                  -6.886
REMARK INTRA:                  -4.109
REMARK UNBOUND:                -4.453
REMARK SMILES CCCCCCCCCCCCCCCCCCCCCCCC(=O)[O-]
REMARK SMILES IDX 13 1 14 2 15 3 16 4 17 5 18 6 19 7 20 8 21 9 22 10 23 11
REMARK SMILES IDX 24 12 25 13 26 14 12 15 11 16 10 17 9 18 8 19 7 20 6 21 5 22
REMARK SMILES IDX 4 23 3 24 2 25 1 26
REMARK H PARENT
REMARK Flexibility Score: inf
ROOT
ATOM      1  C   UNL     1      57.957  25.804  52.203  1.00  0.00     0.000 C 
ENDROOT
BRANCH   1   2
ATOM      2  C   UNL     1      58.197  26.696  53.431  1.00  0.00     0.000 C 
BRANCH   2   3
ATOM      3  C   UNL     1      59.170  27.837  53.096  1.00  0.00     0.000 C 
BRANCH   3   4
ATOM      4  C   UNL     1      58.455  29.099  52.587  1.00  0.00     0.000 C 
BRANCH   4   5
ATOM      5  C   UNL     1      59.106  29.683  51.319  1.00  0.00     0.000 C 
BRANCH   5   6
ATOM      6  C   UNL     1      58.372  29.246  50.033  1.00  0.00     0.000 C 
BRANCH   6   7
ATOM      7  C   UNL     1      59.291  28.611  48.974  1.00  0.00     0.000 C 
BRANCH   7   8
ATOM      8  C   UNL     1      59.619  27.139  49.270  1.00  0.00     0.000 C 
BRANCH   8   9
ATOM      9  C   UNL     1      61.031  26.941  49.848  1.00  0.00     0.000 C 
BRANCH   9  10
ATOM     10  C   UNL     1      61.452  25.474  50.075  1.00  0.00     0.006 C 
BRANCH  10  11
ATOM     11  C   UNL     1      60.308  24.453  49.967  1.00  0.00     0.053 C 
BRANCH  11  12
ATOM     12  C   UNL     1      60.804  23.041  50.044  1.00  0.00     0.041 C 
ATOM     13  O   UNL     1      61.060  22.399  48.991  1.00  0.00    -0.550 OA
ATOM     14  O   UNL     1      61.015  22.445  51.280  1.00  0.00    -0.550 OA
ENDBRANCH  11  12
ENDBRANCH  10  11
ENDBRANCH   9  10
ENDBRANCH   8   9
ENDBRANCH   7   8
ENDBRANCH   6   7
ENDBRANCH   5   6
ENDBRANCH   4   5
ENDBRANCH   3   4
ENDBRANCH   2   3
ENDBRANCH   1   2
BRANCH   1  15
ATOM     15  C   UNL     1      56.473  25.711  51.816  1.00  0.00     0.000 C 
BRANCH  15  16
ATOM     16  C   UNL     1      56.243  25.905  50.308  1.00  0.00     0.000 C 
BRANCH  16  17
ATOM     17  C   UNL     1      55.481  27.200  49.981  1.00  0.00     0.000 C 
BRANCH  17  18
ATOM     18  C   UNL     1      53.952  27.008  49.876  1.00  0.00    -0.000 C 
BRANCH  18  19
ATOM     19  C   UNL     1      53.186  28.324  50.076  1.00  0.00    -0.000 C 
BRANCH  19  20
ATOM     20  C   UNL     1      54.151  29.488  50.352  1.00  0.00    -0.000 C 
BRANCH  20  21
ATOM     21  C   UNL     1      53.957  30.118  51.744  1.00  0.00    -0.000 C 
BRANCH  21  22
ATOM     22  C   UNL     1      55.017  29.737  52.793  1.00  0.00    -0.000 C 
BRANCH  22  23
ATOM     23  C   UNL     1      54.747  28.376  53.456  1.00  0.00    -0.000 C 
BRANCH  23  24
ATOM     24  C   UNL     1      54.982  28.396  54.978  1.00  0.00    -0.000 C 
BRANCH  24  25
ATOM     25  C   UNL     1      56.179  29.248  55.439  1.00  0.00    -0.003 C 
ATOM     26  C   UNL     1      55.936  29.945  56.778  1.00  0.00     0.004 C 
ENDBRANCH  24  25
ENDBRANCH  23  24
ENDBRANCH  22  23
ENDBRANCH  21  22
ENDBRANCH  20  21
ENDBRANCH  19  20
ENDBRANCH  18  19
ENDBRANCH  17  18
ENDBRANCH  16  17
ENDBRANCH  15  16
ENDBRANCH   1  15
TORSDOF 22
ENDMDL
MODEL 7
REMARK VINA RESULT:    -2.854      2.204      5.040
REMARK INTER + INTRA:         -10.978
REMARK INTER:                  -6.985
REMARK INTRA:                  -3.993
REMARK UNBOUND:                -4.453
REMARK SMILES CCCCCCCCCCCCCCCCCCCCCCCC(=O)[O-]
REMARK SMILES IDX 13 1 14 2 15 3 16 4 17 5 18 6 19 7 20 8 21 9 22 10 23 11
REMARK SMILES IDX 24 12 25 13 26 14 12 15 11 16 10 17 9 18 8 19 7 20 6 21 5 22
REMARK SMILES IDX 4 23 3 24 2 25 1 26
REMARK H PARENT
REMARK Flexibility Score: inf
ROOT
ATOM      1  C   UNL     1      61.574  30.737  62.002  1.00  0.00     0.000 C 
ENDROOT
BRANCH   1   2
ATOM      2  C   UNL     1      60.775  31.604  61.017  1.00  0.00     0.000 C 
BRANCH   2   3
ATOM      3  C   UNL     1      61.502  32.930  60.742  1.00  0.00     0.000 C 
BRANCH   3   4
ATOM      4  C   UNL     1      61.155  33.526  59.369  1.00  0.00     0.000 C 
BRANCH   4   5
ATOM      5  C   UNL     1      60.841  35.032  59.435  1.00  0.00     0.000 C 
BRANCH   5   6
ATOM      6  C   UNL     1      60.959  35.590  60.870  1.00  0.00     0.000 C 
BRANCH   6   7
ATOM      7  C   UNL     1      61.495  37.032  60.939  1.00  0.00     0.000 C 
BRANCH   7   8
ATOM      8  C   UNL     1      63.027  37.098  61.022  1.00  0.00     0.000 C 
BRANCH   8   9
ATOM      9  C   UNL     1      63.640  35.926  61.810  1.00  0.00     0.000 C 
BRANCH   9  10
ATOM     10  C   UNL     1      64.936  35.335  61.215  1.00  0.00     0.006 C 
BRANCH  10  11
ATOM     11  C   UNL     1      64.718  34.295  60.105  1.00  0.00     0.053 C 
BRANCH  11  12
ATOM     12  C   UNL     1      65.049  34.840  58.749  1.00  0.00     0.041 C 
ATOM     13  O   UNL     1      66.188  34.650  58.248  1.00  0.00    -0.550 OA
ATOM     14  O   UNL     1      64.087  35.530  58.023  1.00  0.00    -0.550 OA
ENDBRANCH  11  12
ENDBRANCH  10  11
ENDBRANCH   9  10
ENDBRANCH   8   9
ENDBRANCH   7   8
ENDBRANCH   6   7
ENDBRANCH   5   6
ENDBRANCH   4   5
ENDBRANCH   3   4
ENDBRANCH   2   3
ENDBRANCH   1   2
BRANCH   1  15
ATOM     15  C   UNL     1      63.076  30.700  61.679  1.00  0.00     0.000 C 
BRANCH  15  16
ATOM     16  C   UNL     1      63.587  29.275  61.410  1.00  0.00     0.000 C 
BRANCH  16  17
ATOM     17  C   UNL     1      62.521  28.198  61.671  1.00  0.00     0.000 C 
BRANCH  17  18
ATOM     18  C   UNL     1      61.989  27.531  60.383  1.00  0.00    -0.000 C 
BRANCH  18  19
ATOM     19  C   UNL     1      62.720  28.026  59.127  1.00  0.00    -0.000 C 
BRANCH  19  20
ATOM     20  C   UNL     1      61.916  29.128  58.419  1.00  0.00    -0.000 C 
BRANCH  20  21
ATOM     21  C   UNL     1      62.763  29.963  57.441  1.00  0.00    -0.000 C 
BRANCH  21  22
ATOM     22  C   UNL     1      63.414  31.222  58.042  1.00  0.00    -0.000 C 
BRANCH  22  23
ATOM     23  C   UNL     1      64.912  31.341  57.716  1.00  0.00    -0.000 C 
BRANCH  23  24
ATOM     24  C   UNL     1      65.814  30.937  58.897  1.00  0.00    -0.000 C 
BRANCH  24  25
ATOM     25  C   UNL     1      66.950  29.961  58.543  1.00  0.00    -0.003 C 
ATOM     26  C   UNL     1      68.323  30.630  58.507  1.00  0.00     0.004 C 
ENDBRANCH  24  25
ENDBRANCH  23  24
ENDBRANCH  22  23
ENDBRANCH  21  22
ENDBRANCH  20  21
ENDBRANCH  19  20
ENDBRANCH  18  19
ENDBRANCH  17  18
ENDBRANCH  16  17
ENDBRANCH  15  16
ENDBRANCH   1  15
TORSDOF 22
ENDMDL
MODEL 8
REMARK VINA RESULT:    -2.852      9.488     11.842
REMARK INTER + INTRA:         -10.973
REMARK INTER:                  -7.130
REMARK INTRA:                  -3.843
REMARK UNBOUND:                -4.453
REMARK SMILES CCCCCCCCCCCCCCCCCCCCCCCC(=O)[O-]
REMARK SMILES IDX 13 1 14 2 15 3 16 4 17 5 18 6 19 7 20 8 21 9 22 10 23 11
REMARK SMILES IDX 24 12 25 13 26 14 12 15 11 16 10 17 9 18 8 19 7 20 6 21 5 22
REMARK SMILES IDX 4 23 3 24 2 25 1 26
REMARK H PARENT
REMARK Flexibility Score: inf
ROOT
ATOM      1  C   UNL     1      57.020  28.911  53.664  1.00  0.00     0.000 C 
ENDROOT
BRANCH   1   2
ATOM      2  C   UNL     1      57.408  29.750  52.437  1.00  0.00     0.000 C 
BRANCH   2   3
ATOM      3  C   UNL     1      58.285  28.936  51.473  1.00  0.00     0.000 C 
BRANCH   3   4
ATOM      4  C   UNL     1      57.979  29.229  49.996  1.00  0.00     0.000 C 
BRANCH   4   5
ATOM      5  C   UNL     1      59.148  28.865  49.061  1.00  0.00     0.000 C 
BRANCH   5   6
ATOM      6  C   UNL     1      59.632  27.414  49.272  1.00  0.00     0.000 C 
BRANCH   6   7
ATOM      7  C   UNL     1      61.159  27.278  49.409  1.00  0.00     0.000 C 
BRANCH   7   8
ATOM      8  C   UNL     1      61.803  28.463  50.146  1.00  0.00     0.000 C 
BRANCH   8   9
ATOM      9  C   UNL     1      63.033  29.031  49.416  1.00  0.00     0.000 C 
BRANCH   9  10
ATOM     10  C   UNL     1      63.692  28.081  48.394  1.00  0.00     0.006 C 
BRANCH  10  11
ATOM     11  C   UNL     1      64.491  28.784  47.286  1.00  0.00     0.053 C 
BRANCH  11  12
ATOM     12  C   UNL     1      65.723  29.452  47.817  1.00  0.00     0.041 C 
ATOM     13  O   UNL     1      66.010  30.627  47.467  1.00  0.00    -0.550 OA
ATOM     14  O   UNL     1      66.536  28.788  48.726  1.00  0.00    -0.550 OA
ENDBRANCH  11  12
ENDBRANCH  10  11
ENDBRANCH   9  10
ENDBRANCH   8   9
ENDBRANCH   7   8
ENDBRANCH   6   7
ENDBRANCH   5   6
ENDBRANCH   4   5
ENDBRANCH   3   4
ENDBRANCH   2   3
ENDBRANCH   1   2
BRANCH   1  15
ATOM     15  C   UNL     1      55.509  28.645  53.748  1.00  0.00     0.000 C 
BRANCH  15  16
ATOM     16  C   UNL     1      54.671  29.851  53.292  1.00  0.00     0.000 C 
BRANCH  16  17
ATOM     17  C   UNL     1      53.608  29.479  52.244  1.00  0.00     0.000 C 
BRANCH  17  18
ATOM     18  C   UNL     1      54.111  29.590  50.788  1.00  0.00    -0.000 C 
BRANCH  18  19
ATOM     19  C   UNL     1      53.775  28.341  49.960  1.00  0.00    -0.000 C 
BRANCH  19  20
ATOM     20  C   UNL     1      54.244  27.064  50.673  1.00  0.00    -0.000 C 
BRANCH  20  21
ATOM     21  C   UNL     1      55.016  26.103  49.750  1.00  0.00    -0.000 C 
BRANCH  21  22
ATOM     22  C   UNL     1      56.500  25.898  50.104  1.00  0.00    -0.000 C 
BRANCH  22  23
ATOM     23  C   UNL     1      56.745  25.751  51.615  1.00  0.00    -0.000 C 
BRANCH  23  24
ATOM     24  C   UNL     1      58.080  25.055  51.939  1.00  0.00    -0.000 C 
BRANCH  24  25
ATOM     25  C   UNL     1      58.808  25.593  53.184  1.00  0.00    -0.003 C 
ATOM     26  C   UNL     1      60.178  26.190  52.865  1.00  0.00     0.004 C 
ENDBRANCH  24  25
ENDBRANCH  23  24
ENDBRANCH  22  23
ENDBRANCH  21  22
ENDBRANCH  20  21
ENDBRANCH  19  20
ENDBRANCH  18  19
ENDBRANCH  17  18
ENDBRANCH  16  17
ENDBRANCH  15  16
ENDBRANCH   1  15
TORSDOF 22
ENDMDL
MODEL 9
REMARK VINA RESULT:    -2.847      9.435     11.811
REMARK INTER + INTRA:         -10.960
REMARK INTER:                  -6.936
REMARK INTRA:                  -4.025
REMARK UNBOUND:                -4.453
REMARK SMILES CCCCCCCCCCCCCCCCCCCCCCCC(=O)[O-]
REMARK SMILES IDX 13 1 14 2 15 3 16 4 17 5 18 6 19 7 20 8 21 9 22 10 23 11
REMARK SMILES IDX 24 12 25 13 26 14 12 15 11 16 10 17 9 18 8 19 7 20 6 21 5 22
REMARK SMILES IDX 4 23 3 24 2 25 1 26
REMARK H PARENT
REMARK Flexibility Score: inf
ROOT
ATOM      1  C   UNL     1      57.151  25.546  52.191  1.00  0.00     0.000 C 
ENDROOT
BRANCH   1   2
ATOM      2  C   UNL     1      57.432  25.523  50.681  1.00  0.00     0.000 C 
BRANCH   2   3
ATOM      3  C   UNL     1      56.206  26.001  49.888  1.00  0.00     0.000 C 
BRANCH   3   4
ATOM      4  C   UNL     1      54.877  25.588  50.540  1.00  0.00     0.000 C 
BRANCH   4   5
ATOM      5  C   UNL     1      53.808  26.694  50.467  1.00  0.00     0.000 C 
BRANCH   5   6
ATOM      6  C   UNL     1      54.394  28.040  49.988  1.00  0.00     0.000 C 
BRANCH   6   7
ATOM      7  C   UNL     1      53.680  29.274  50.570  1.00  0.00     0.000 C 
BRANCH   7   8
ATOM      8  C   UNL     1      53.188  29.060  52.009  1.00  0.00     0.000 C 
BRANCH   8   9
ATOM      9  C   UNL     1      53.122  30.364  52.825  1.00  0.00     0.000 C 
BRANCH   9  10
ATOM     10  C   UNL     1      54.003  31.516  52.299  1.00  0.00     0.006 C 
BRANCH  10  11
ATOM     11  C   UNL     1      54.696  32.345  53.392  1.00  0.00     0.053 C 
BRANCH  11  12
ATOM     12  C   UNL     1      54.559  33.818  53.155  1.00  0.00     0.041 C 
ATOM     13  O   UNL     1      53.458  34.394  53.357  1.00  0.00    -0.550 OA
ATOM     14  O   UNL     1      55.657  34.561  52.743  1.00  0.00    -0.550 OA
ENDBRANCH  11  12
ENDBRANCH  10  11
ENDBRANCH   9  10
ENDBRANCH   8   9
ENDBRANCH   7   8
ENDBRANCH   6   7
ENDBRANCH   5   6
ENDBRANCH   4   5
ENDBRANCH   3   4
ENDBRANCH   2   3
ENDBRANCH   1   2
BRANCH   1  15
ATOM     15  C   UNL     1      58.171  26.387  52.973  1.00  0.00     0.000 C 
BRANCH  15  16
ATOM     16  C   UNL     1      57.514  27.540  53.750  1.00  0.00     0.000 C 
BRANCH  16  17
ATOM     17  C   UNL     1      56.673  28.464  52.853  1.00  0.00     0.000 C 
BRANCH  17  18
ATOM     18  C   UNL     1      57.331  29.835  52.588  1.00  0.00    -0.000 C 
BRANCH  18  19
ATOM     19  C   UNL     1      58.456  29.749  51.546  1.00  0.00    -0.000 C 
BRANCH  19  20
ATOM     20  C   UNL     1      57.922  29.238  50.199  1.00  0.00    -0.000 C 
BRANCH  20  21
ATOM     21  C   UNL     1      59.028  29.034  49.148  1.00  0.00    -0.000 C 
BRANCH  21  22
ATOM     22  C   UNL     1      59.662  27.631  49.121  1.00  0.00    -0.000 C 
BRANCH  22  23
ATOM     23  C   UNL     1      61.086  27.602  49.702  1.00  0.00    -0.000 C 
BRANCH  23  24
ATOM     24  C   UNL     1      61.249  26.565  50.828  1.00  0.00    -0.000 C 
BRANCH  24  25
ATOM     25  C   UNL     1      61.857  25.220  50.390  1.00  0.00    -0.003 C 
ATOM     26  C   UNL     1      60.801  24.179  50.021  1.00  0.00     0.004 C 
ENDBRANCH  24  25
ENDBRANCH  23  24
ENDBRANCH  22  23
ENDBRANCH  21  22
ENDBRANCH  20  21
ENDBRANCH  19  20
ENDBRANCH  18  19
ENDBRANCH  17  18
ENDBRANCH  16  17
ENDBRANCH  15  16
ENDBRANCH   1  15
TORSDOF 22
ENDMDL
