MODEL 1
REMARK VINA RESULT:    -4.547      0.000      0.000
REMARK INTER + INTRA:         -16.442
REMARK INTER:                 -11.459
REMARK INTRA:                  -4.983
REMARK UNBOUND:                -4.983
REMARK SMILES CCCCCCCCCCCCCCCCCCCCCCCCCCCC(=O)[O-]
REMARK SMILES IDX 15 1 16 2 17 3 18 4 19 5 20 6 21 7 22 8 23 9 24 10 25 11
REMARK SMILES IDX 26 12 27 13 28 14 29 15 30 16 14 17 13 18 12 19 11 20 10 21
REMARK SMILES IDX 9 22 8 23 7 24 6 25 5 26 4 27 3 28 2 29 1 30
REMARK H PARENT
REMARK Flexibility Score: inf
ROOT
ATOM      1  C   UNL     1      -2.073 -45.331  17.388  1.00  0.00     0.000 C 
ENDROOT
BRANCH   1   2
ATOM      2  C   UNL     1      -1.590 -46.666  17.981  1.00  0.00     0.000 C 
BRANCH   2   3
ATOM      3  C   UNL     1      -1.590 -47.860  17.006  1.00  0.00     0.000 C 
BRANCH   3   4
ATOM      4  C   UNL     1      -2.504 -49.026  17.435  1.00  0.00     0.000 C 
BRANCH   4   5
ATOM      5  C   UNL     1      -3.942 -48.891  16.899  1.00  0.00     0.000 C 
BRANCH   5   6
ATOM      6  C   UNL     1      -4.943 -48.425  17.974  1.00  0.00     0.000 C 
BRANCH   6   7
ATOM      7  C   UNL     1      -4.438 -48.525  19.425  1.00  0.00     0.000 C 
BRANCH   7   8
ATOM      8  C   UNL     1      -4.521 -47.190  20.184  1.00  0.00     0.000 C 
BRANCH   8   9
ATOM      9  C   UNL     1      -5.514 -46.210  19.535  1.00  0.00     0.000 C 
BRANCH   9  10
ATOM     10  C   UNL     1      -4.848 -44.889  19.114  1.00  0.00     0.000 C 
BRANCH  10  11
ATOM     11  C   UNL     1      -5.649 -44.137  18.038  1.00  0.00     0.000 C 
BRANCH  11  12
ATOM     12  C   UNL     1      -6.871 -44.936  17.551  1.00  0.00     0.006 C 
BRANCH  12  13
ATOM     13  C   UNL     1      -6.716 -45.407  16.098  1.00  0.00     0.053 C 
BRANCH  13  14
ATOM     14  C   UNL     1      -7.641 -44.685  15.162  1.00  0.00     0.041 C 
ATOM     15  O   UNL     1      -7.614 -43.428  15.094  1.00  0.00    -0.550 OA
ATOM     16  O   UNL     1      -8.495 -45.399  14.328  1.00  0.00    -0.550 OA
ENDBRANCH  13  14
ENDBRANCH  12  13
ENDBRANCH  11  12
ENDBRANCH  10  11
ENDBRANCH   9  10
ENDBRANCH   8   9
ENDBRANCH   7   8
ENDBRANCH   6   7
ENDBRANCH   5   6
ENDBRANCH   4   5
ENDBRANCH   3   4
ENDBRANCH   2   3
ENDBRANCH   1   2
BRANCH   1  17
ATOM     17  C   UNL     1      -2.735 -45.428  15.998  1.00  0.00     0.000 C 
BRANCH  17  18
ATOM     18  C   UNL     1      -2.534 -44.175  15.120  1.00  0.00     0.000 C 
BRANCH  18  19
ATOM     19  C   UNL     1      -3.830 -43.732  14.418  1.00  0.00     0.000 C 
BRANCH  19  20
ATOM     20  C   UNL     1      -3.621 -43.411  12.928  1.00  0.00     0.000 C 
BRANCH  20  21
ATOM     21  C   UNL     1      -4.479 -44.242  11.956  1.00  0.00     0.000 C 
BRANCH  21  22
ATOM     22  C   UNL     1      -5.309 -45.325  12.668  1.00  0.00    -0.000 C 
BRANCH  22  23
ATOM     23  C   UNL     1      -5.196 -46.703  11.991  1.00  0.00    -0.000 C 
BRANCH  23  24
ATOM     24  C   UNL     1      -3.798 -47.347  12.065  1.00  0.00    -0.000 C 
BRANCH  24  25
ATOM     25  C   UNL     1      -3.501 -47.978  13.437  1.00  0.00    -0.000 C 
BRANCH  25  26
ATOM     26  C   UNL     1      -2.884 -49.382  13.309  1.00  0.00    -0.000 C 
BRANCH  26  27
ATOM     27  C   UNL     1      -1.417 -49.451  13.792  1.00  0.00    -0.000 C 
BRANCH  27  28
ATOM     28  C   UNL     1      -0.452 -50.040  12.747  1.00  0.00    -0.000 C 
BRANCH  28  29
ATOM     29  C   UNL     1      -0.654 -49.509  11.318  1.00  0.00    -0.003 C 
ATOM     30  C   UNL     1       0.586 -48.799  10.771  1.00  0.00     0.004 C 
ENDBRANCH  28  29
ENDBRANCH  27  28
ENDBRANCH  26  27
ENDBRANCH  25  26
ENDBRANCH  24  25
ENDBRANCH  23  24
ENDBRANCH  22  23
ENDBRANCH  21  22
ENDBRANCH  20  21
ENDBRANCH  19  20
ENDBRANCH  18  19
ENDBRANCH  17  18
ENDBRANCH   1  17
TORSDOF 26
ENDMDL
MODEL 2
REMARK VINA RESULT:    -4.502      1.917      3.642
REMARK INTER + INTRA:         -16.327
REMARK INTER:                 -11.548
REMARK INTRA:                  -4.778
REMARK UNBOUND:                -4.983
REMARK SMILES CCCCCCCCCCCCCCCCCCCCCCCCCCCC(=O)[O-]
REMARK SMILES IDX 15 1 16 2 17 3 18 4 19 5 20 6 21 7 22 8 23 9 24 10 25 11
REMARK SMILES IDX 26 12 27 13 28 14 29 15 30 16 14 17 13 18 12 19 11 20 10 21
REMARK SMILES IDX 9 22 8 23 7 24 6 25 5 26 4 27 3 28 2 29 1 30
REMARK H PARENT
REMARK Flexibility Score: inf
ROOT
ATOM      1  C   UNL     1      -2.895 -44.620  15.458  1.00  0.00     0.000 C 
ENDROOT
BRANCH   1   2
ATOM      2  C   UNL     1      -1.744 -45.135  16.339  1.00  0.00     0.000 C 
BRANCH   2   3
ATOM      3  C   UNL     1      -2.114 -45.419  17.808  1.00  0.00     0.000 C 
BRANCH   3   4
ATOM      4  C   UNL     1      -1.613 -46.780  18.334  1.00  0.00     0.000 C 
BRANCH   4   5
ATOM      5  C   UNL     1      -1.532 -47.855  17.234  1.00  0.00     0.000 C 
BRANCH   5   6
ATOM      6  C   UNL     1      -2.530 -49.010  17.446  1.00  0.00     0.000 C 
BRANCH   6   7
ATOM      7  C   UNL     1      -3.911 -48.808  16.797  1.00  0.00     0.000 C 
BRANCH   7   8
ATOM      8  C   UNL     1      -5.019 -48.503  17.819  1.00  0.00     0.000 C 
BRANCH   8   9
ATOM      9  C   UNL     1      -4.570 -48.776  19.265  1.00  0.00     0.000 C 
BRANCH   9  10
ATOM     10  C   UNL     1      -4.581 -47.507  20.135  1.00  0.00     0.000 C 
BRANCH  10  11
ATOM     11  C   UNL     1      -5.372 -46.354  19.495  1.00  0.00     0.000 C 
BRANCH  11  12
ATOM     12  C   UNL     1      -6.034 -45.443  20.544  1.00  0.00     0.006 C 
BRANCH  12  13
ATOM     13  C   UNL     1      -6.916 -44.362  19.901  1.00  0.00     0.053 C 
BRANCH  13  14
ATOM     14  C   UNL     1      -6.183 -43.064  19.718  1.00  0.00     0.041 C 
ATOM     15  O   UNL     1      -5.889 -42.360  20.718  1.00  0.00    -0.550 OA
ATOM     16  O   UNL     1      -5.779 -42.659  18.450  1.00  0.00    -0.550 OA
ENDBRANCH  13  14
ENDBRANCH  12  13
ENDBRANCH  11  12
ENDBRANCH  10  11
ENDBRANCH   9  10
ENDBRANCH   8   9
ENDBRANCH   7   8
ENDBRANCH   6   7
ENDBRANCH   5   6
ENDBRANCH   4   5
ENDBRANCH   3   4
ENDBRANCH   2   3
ENDBRANCH   1   2
BRANCH   1  17
ATOM     17  C   UNL     1      -3.527 -45.668  14.519  1.00  0.00     0.000 C 
BRANCH  17  18
ATOM     18  C   UNL     1      -5.044 -45.862  14.726  1.00  0.00     0.000 C 
BRANCH  18  19
ATOM     19  C   UNL     1      -5.546 -45.227  16.034  1.00  0.00     0.000 C 
BRANCH  19  20
ATOM     20  C   UNL     1      -7.045 -45.473  16.279  1.00  0.00     0.000 C 
BRANCH  20  21
ATOM     21  C   UNL     1      -7.995 -44.638  15.401  1.00  0.00     0.000 C 
BRANCH  21  22
ATOM     22  C   UNL     1      -8.666 -45.469  14.292  1.00  0.00    -0.000 C 
BRANCH  22  23
ATOM     23  C   UNL     1      -8.223 -45.045  12.880  1.00  0.00    -0.000 C 
BRANCH  23  24
ATOM     24  C   UNL     1      -7.957 -46.211  11.909  1.00  0.00    -0.000 C 
BRANCH  24  25
ATOM     25  C   UNL     1      -6.504 -46.245  11.400  1.00  0.00    -0.000 C 
BRANCH  25  26
ATOM     26  C   UNL     1      -6.033 -47.676  11.084  1.00  0.00    -0.000 C 
BRANCH  26  27
ATOM     27  C   UNL     1      -4.501 -47.851  11.184  1.00  0.00    -0.000 C 
BRANCH  27  28
ATOM     28  C   UNL     1      -4.072 -49.196  11.800  1.00  0.00    -0.000 C 
BRANCH  28  29
ATOM     29  C   UNL     1      -2.571 -49.306  12.116  1.00  0.00    -0.003 C 
ATOM     30  C   UNL     1      -2.260 -49.081  13.596  1.00  0.00     0.004 C 
ENDBRANCH  28  29
ENDBRANCH  27  28
ENDBRANCH  26  27
ENDBRANCH  25  26
ENDBRANCH  24  25
ENDBRANCH  23  24
ENDBRANCH  22  23
ENDBRANCH  21  22
ENDBRANCH  20  21
ENDBRANCH  19  20
ENDBRANCH  18  19
ENDBRANCH  17  18
ENDBRANCH   1  17
TORSDOF 26
ENDMDL
MODEL 3
REMARK VINA RESULT:    -4.333      1.543      3.554
REMARK INTER + INTRA:         -15.901
REMARK INTER:                 -11.838
REMARK INTRA:                  -4.063
REMARK UNBOUND:                -4.983
REMARK SMILES CCCCCCCCCCCCCCCCCCCCCCCCCCCC(=O)[O-]
REMARK SMILES IDX 15 1 16 2 17 3 18 4 19 5 20 6 21 7 22 8 23 9 24 10 25 11
REMARK SMILES IDX 26 12 27 13 28 14 29 15 30 16 14 17 13 18 12 19 11 20 10 21
REMARK SMILES IDX 9 22 8 23 7 24 6 25 5 26 4 27 3 28 2 29 1 30
REMARK H PARENT
REMARK Flexibility Score: inf
ROOT
ATOM      1  C   UNL     1      -3.675 -45.140  14.288  1.00  0.00     0.000 C 
ENDROOT
BRANCH   1   2
ATOM      2  C   UNL     1      -3.282 -44.641  15.688  1.00  0.00     0.000 C 
BRANCH   2   3
ATOM      3  C   UNL     1      -1.997 -45.260  16.273  1.00  0.00     0.000 C 
BRANCH   3   4
ATOM      4  C   UNL     1      -2.091 -45.615  17.771  1.00  0.00     0.000 C 
BRANCH   4   5
ATOM      5  C   UNL     1      -1.403 -46.949  18.117  1.00  0.00     0.000 C 
BRANCH   5   6
ATOM      6  C   UNL     1      -1.578 -48.018  17.021  1.00  0.00     0.000 C 
BRANCH   6   7
ATOM      7  C   UNL     1      -2.581 -49.137  17.353  1.00  0.00     0.000 C 
BRANCH   7   8
ATOM      8  C   UNL     1      -3.949 -48.940  16.677  1.00  0.00     0.000 C 
BRANCH   8   9
ATOM      9  C   UNL     1      -5.019 -48.437  17.661  1.00  0.00     0.000 C 
BRANCH   9  10
ATOM     10  C   UNL     1      -4.600 -48.616  19.131  1.00  0.00     0.000 C 
BRANCH  10  11
ATOM     11  C   UNL     1      -4.636 -47.299  19.923  1.00  0.00     0.000 C 
BRANCH  11  12
ATOM     12  C   UNL     1      -5.500 -46.225  19.238  1.00  0.00     0.006 C 
BRANCH  12  13
ATOM     13  C   UNL     1      -5.157 -44.808  19.719  1.00  0.00     0.053 C 
BRANCH  13  14
ATOM     14  C   UNL     1      -6.026 -43.763  19.083  1.00  0.00     0.041 C 
ATOM     15  O   UNL     1      -6.721 -42.997  19.801  1.00  0.00    -0.550 OA
ATOM     16  O   UNL     1      -6.030 -43.599  17.702  1.00  0.00    -0.550 OA
ENDBRANCH  13  14
ENDBRANCH  12  13
ENDBRANCH  11  12
ENDBRANCH  10  11
ENDBRANCH   9  10
ENDBRANCH   8   9
ENDBRANCH   7   8
ENDBRANCH   6   7
ENDBRANCH   5   6
ENDBRANCH   4   5
ENDBRANCH   3   4
ENDBRANCH   2   3
ENDBRANCH   1   2
BRANCH   1  17
ATOM     17  C   UNL     1      -5.138 -44.872  13.878  1.00  0.00     0.000 C 
BRANCH  17  18
ATOM     18  C   UNL     1      -5.588 -45.643  12.620  1.00  0.00     0.000 C 
BRANCH  18  19
ATOM     19  C   UNL     1      -4.405 -46.238  11.838  1.00  0.00     0.000 C 
BRANCH  19  20
ATOM     20  C   UNL     1      -4.849 -47.225  10.744  1.00  0.00     0.000 C 
BRANCH  20  21
ATOM     21  C   UNL     1      -5.341 -48.590  11.257  1.00  0.00     0.000 C 
BRANCH  21  22
ATOM     22  C   UNL     1      -4.193 -49.590  11.486  1.00  0.00    -0.000 C 
BRANCH  22  23
ATOM     23  C   UNL     1      -3.802 -49.718  12.970  1.00  0.00    -0.000 C 
BRANCH  23  24
ATOM     24  C   UNL     1      -2.508 -48.980  13.363  1.00  0.00    -0.000 C 
BRANCH  24  25
ATOM     25  C   UNL     1      -1.338 -49.936  13.656  1.00  0.00    -0.000 C 
BRANCH  25  26
ATOM     26  C   UNL     1      -0.158 -49.723  12.691  1.00  0.00    -0.000 C 
BRANCH  26  27
ATOM     27  C   UNL     1      -0.549 -49.883  11.204  1.00  0.00    -0.000 C 
BRANCH  27  28
ATOM     28  C   UNL     1      -0.116 -48.697  10.322  1.00  0.00    -0.000 C 
BRANCH  28  29
ATOM     29  C   UNL     1       1.338 -48.241  10.531  1.00  0.00    -0.003 C 
ATOM     30  C   UNL     1       1.678 -46.973   9.747  1.00  0.00     0.004 C 
ENDBRANCH  28  29
ENDBRANCH  27  28
ENDBRANCH  26  27
ENDBRANCH  25  26
ENDBRANCH  24  25
ENDBRANCH  23  24
ENDBRANCH  22  23
ENDBRANCH  21  22
ENDBRANCH  20  21
ENDBRANCH  19  20
ENDBRANCH  18  19
ENDBRANCH  17  18
ENDBRANCH   1  17
TORSDOF 26
ENDMDL
MODEL 4
REMARK VINA RESULT:    -4.280      2.679      6.327
REMARK INTER + INTRA:         -15.768
REMARK INTER:                 -10.711
REMARK INTRA:                  -5.057
REMARK UNBOUND:                -4.983
REMARK SMILES CCCCCCCCCCCCCCCCCCCCCCCCCCCC(=O)[O-]
REMARK SMILES IDX 15 1 16 2 17 3 18 4 19 5 20 6 21 7 22 8 23 9 24 10 25 11
REMARK SMILES IDX 26 12 27 13 28 14 29 15 30 16 14 17 13 18 12 19 11 20 10 21
REMARK SMILES IDX 9 22 8 23 7 24 6 25 5 26 4 27 3 28 2 29 1 30
REMARK H PARENT
REMARK Flexibility Score: inf
ROOT
ATOM      1  C   UNL     1      -4.971 -48.773  17.754  1.00  0.00     0.000 C 
ENDROOT
BRANCH   1   2
ATOM      2  C   UNL     1      -3.823 -49.028  16.763  1.00  0.00     0.000 C 
BRANCH   2   3
ATOM      3  C   UNL     1      -2.415 -49.095  17.387  1.00  0.00     0.000 C 
BRANCH   3   4
ATOM      4  C   UNL     1      -1.535 -47.861  17.096  1.00  0.00     0.000 C 
BRANCH   4   5
ATOM      5  C   UNL     1      -1.579 -46.814  18.225  1.00  0.00     0.000 C 
BRANCH   5   6
ATOM      6  C   UNL     1      -2.019 -45.421  17.736  1.00  0.00     0.000 C 
BRANCH   6   7
ATOM      7  C   UNL     1      -2.234 -45.298  16.217  1.00  0.00     0.000 C 
BRANCH   7   8
ATOM      8  C   UNL     1      -3.719 -45.301  15.816  1.00  0.00     0.000 C 
BRANCH   8   9
ATOM      9  C   UNL     1      -3.984 -46.156  14.565  1.00  0.00     0.000 C 
BRANCH   9  10
ATOM     10  C   UNL     1      -4.796 -45.403  13.497  1.00  0.00     0.000 C 
BRANCH  10  11
ATOM     11  C   UNL     1      -4.677 -46.040  12.102  1.00  0.00     0.000 C 
BRANCH  11  12
ATOM     12  C   UNL     1      -6.049 -46.379  11.492  1.00  0.00     0.006 C 
BRANCH  12  13
ATOM     13  C   UNL     1      -6.060 -47.757  10.816  1.00  0.00     0.053 C 
BRANCH  13  14
ATOM     14  C   UNL     1      -7.451 -48.228  10.502  1.00  0.00     0.041 C 
ATOM     15  O   UNL     1      -8.086 -48.921  11.339  1.00  0.00    -0.550 OA
ATOM     16  O   UNL     1      -8.066 -47.856   9.312  1.00  0.00    -0.550 OA
ENDBRANCH  13  14
ENDBRANCH  12  13
ENDBRANCH  11  12
ENDBRANCH  10  11
ENDBRANCH   9  10
ENDBRANCH   8   9
ENDBRANCH   7   8
ENDBRANCH   6   7
ENDBRANCH   5   6
ENDBRANCH   4   5
ENDBRANCH   3   4
ENDBRANCH   2   3
ENDBRANCH   1   2
BRANCH   1  17
ATOM     17  C   UNL     1      -4.582 -48.838  19.245  1.00  0.00     0.000 C 
BRANCH  17  18
ATOM     18  C   UNL     1      -4.584 -47.468  19.954  1.00  0.00     0.000 C 
BRANCH  18  19
ATOM     19  C   UNL     1      -5.317 -46.385  19.143  1.00  0.00     0.000 C 
BRANCH  19  20
ATOM     20  C   UNL     1      -5.607 -45.118  19.965  1.00  0.00     0.000 C 
BRANCH  20  21
ATOM     21  C   UNL     1      -4.947 -43.832  19.436  1.00  0.00     0.000 C 
BRANCH  21  22
ATOM     22  C   UNL     1      -5.952 -42.875  18.770  1.00  0.00    -0.000 C 
BRANCH  22  23
ATOM     23  C   UNL     1      -6.235 -43.237  17.300  1.00  0.00    -0.000 C 
BRANCH  23  24
ATOM     24  C   UNL     1      -7.586 -43.935  17.055  1.00  0.00    -0.000 C 
BRANCH  24  25
ATOM     25  C   UNL     1      -7.440 -45.279  16.319  1.00  0.00    -0.000 C 
BRANCH  25  26
ATOM     26  C   UNL     1      -8.146 -45.272  14.951  1.00  0.00    -0.000 C 
BRANCH  26  27
ATOM     27  C   UNL     1      -8.500 -43.852  14.454  1.00  0.00    -0.000 C 
BRANCH  27  28
ATOM     28  C   UNL     1      -7.995 -43.553  13.031  1.00  0.00    -0.000 C 
BRANCH  28  29
ATOM     29  C   UNL     1      -7.287 -42.197  12.875  1.00  0.00    -0.003 C 
ATOM     30  C   UNL     1      -6.102 -42.035  13.829  1.00  0.00     0.004 C 
ENDBRANCH  28  29
ENDBRANCH  27  28
ENDBRANCH  26  27
ENDBRANCH  25  26
ENDBRANCH  24  25
ENDBRANCH  23  24
ENDBRANCH  22  23
ENDBRANCH  21  22
ENDBRANCH  20  21
ENDBRANCH  19  20
ENDBRANCH  18  19
ENDBRANCH  17  18
ENDBRANCH   1  17
TORSDOF 26
ENDMDL
MODEL 5
REMARK VINA RESULT:    -4.241      3.905      8.620
REMARK INTER + INTRA:         -15.669
REMARK INTER:                 -11.709
REMARK INTRA:                  -3.960
REMARK UNBOUND:                -4.983
REMARK SMILES CCCCCCCCCCCCCCCCCCCCCCCCCCCC(=O)[O-]
REMARK SMILES IDX 15 1 16 2 17 3 18 4 19 5 20 6 21 7 22 8 23 9 24 10 25 11
REMARK SMILES IDX 26 12 27 13 28 14 29 15 30 16 14 17 13 18 12 19 11 20 10 21
REMARK SMILES IDX 9 22 8 23 7 24 6 25 5 26 4 27 3 28 2 29 1 30
REMARK H PARENT
REMARK Flexibility Score: inf
ROOT
ATOM      1  C   UNL     1      -1.688 -45.285  16.261  1.00  0.00     0.000 C 
ENDROOT
BRANCH   1   2
ATOM      2  C   UNL     1      -3.058 -44.646  15.977  1.00  0.00     0.000 C 
BRANCH   2   3
ATOM      3  C   UNL     1      -3.479 -44.619  14.495  1.00  0.00     0.000 C 
BRANCH   3   4
ATOM      4  C   UNL     1      -4.422 -45.769  14.086  1.00  0.00     0.000 C 
BRANCH   4   5
ATOM      5  C   UNL     1      -3.934 -46.531  12.839  1.00  0.00     0.000 C 
BRANCH   5   6
ATOM      6  C   UNL     1      -3.989 -48.061  13.010  1.00  0.00     0.000 C 
BRANCH   6   7
ATOM      7  C   UNL     1      -3.149 -48.862  11.999  1.00  0.00     0.000 C 
BRANCH   7   8
ATOM      8  C   UNL     1      -1.784 -49.298  12.560  1.00  0.00     0.000 C 
BRANCH   8   9
ATOM      9  C   UNL     1      -0.886 -49.931  11.484  1.00  0.00     0.000 C 
BRANCH   9  10
ATOM     10  C   UNL     1      -0.339 -48.894  10.487  1.00  0.00     0.000 C 
BRANCH  10  11
ATOM     11  C   UNL     1       1.149 -48.581  10.714  1.00  0.00     0.000 C 
BRANCH  11  12
ATOM     12  C   UNL     1       1.624 -47.366   9.897  1.00  0.00     0.006 C 
BRANCH  12  13
ATOM     13  C   UNL     1       2.973 -46.824  10.392  1.00  0.00     0.053 C 
BRANCH  13  14
ATOM     14  C   UNL     1       4.128 -47.347   9.588  1.00  0.00     0.041 C 
ATOM     15  O   UNL     1       3.929 -48.183   8.669  1.00  0.00    -0.550 OA
ATOM     16  O   UNL     1       5.415 -46.872   9.817  1.00  0.00    -0.550 OA
ENDBRANCH  13  14
ENDBRANCH  12  13
ENDBRANCH  11  12
ENDBRANCH  10  11
ENDBRANCH   9  10
ENDBRANCH   8   9
ENDBRANCH   7   8
ENDBRANCH   6   7
ENDBRANCH   5   6
ENDBRANCH   4   5
ENDBRANCH   3   4
ENDBRANCH   2   3
ENDBRANCH   1   2
BRANCH   1  17
ATOM     17  C   UNL     1      -1.728 -46.597  17.071  1.00  0.00     0.000 C 
BRANCH  17  18
ATOM     18  C   UNL     1      -1.560 -47.869  16.214  1.00  0.00     0.000 C 
BRANCH  18  19
ATOM     19  C   UNL     1      -2.726 -48.857  16.389  1.00  0.00     0.000 C 
BRANCH  19  20
ATOM     20  C   UNL     1      -4.054 -48.159  16.731  1.00  0.00     0.000 C 
BRANCH  20  21
ATOM     21  C   UNL     1      -4.902 -48.861  17.806  1.00  0.00     0.000 C 
BRANCH  21  22
ATOM     22  C   UNL     1      -4.428 -48.550  19.238  1.00  0.00    -0.000 C 
BRANCH  22  23
ATOM     23  C   UNL     1      -4.210 -47.046  19.480  1.00  0.00    -0.000 C 
BRANCH  23  24
ATOM     24  C   UNL     1      -5.137 -46.420  20.539  1.00  0.00    -0.000 C 
BRANCH  24  25
ATOM     25  C   UNL     1      -6.170 -45.453  19.934  1.00  0.00    -0.000 C 
BRANCH  25  26
ATOM     26  C   UNL     1      -5.522 -44.433  18.981  1.00  0.00    -0.000 C 
BRANCH  26  27
ATOM     27  C   UNL     1      -6.278 -44.283  17.640  1.00  0.00    -0.000 C 
BRANCH  27  28
ATOM     28  C   UNL     1      -6.679 -45.628  17.005  1.00  0.00    -0.000 C 
BRANCH  28  29
ATOM     29  C   UNL     1      -7.941 -45.570  16.129  1.00  0.00    -0.003 C 
ATOM     30  C   UNL     1      -8.426 -44.139  15.884  1.00  0.00     0.004 C 
ENDBRANCH  28  29
ENDBRANCH  27  28
ENDBRANCH  26  27
ENDBRANCH  25  26
ENDBRANCH  24  25
ENDBRANCH  23  24
ENDBRANCH  22  23
ENDBRANCH  21  22
ENDBRANCH  20  21
ENDBRANCH  19  20
ENDBRANCH  18  19
ENDBRANCH  17  18
ENDBRANCH   1  17
TORSDOF 26
ENDMDL
MODEL 6
REMARK VINA RESULT:    -4.240      2.180      4.166
REMARK INTER + INTRA:         -15.668
REMARK INTER:                 -11.072
REMARK INTRA:                  -4.596
REMARK UNBOUND:                -4.983
REMARK SMILES CCCCCCCCCCCCCCCCCCCCCCCCCCCC(=O)[O-]
REMARK SMILES IDX 15 1 16 2 17 3 18 4 19 5 20 6 21 7 22 8 23 9 24 10 25 11
REMARK SMILES IDX 26 12 27 13 28 14 29 15 30 16 14 17 13 18 12 19 11 20 10 21
REMARK SMILES IDX 9 22 8 23 7 24 6 25 5 26 4 27 3 28 2 29 1 30
REMARK H PARENT
REMARK Flexibility Score: inf
ROOT
ATOM      1  C   UNL     1      -4.108 -44.551  16.506  1.00  0.00     0.000 C 
ENDROOT
BRANCH   1   2
ATOM      2  C   UNL     1      -2.675 -44.682  15.963  1.00  0.00     0.000 C 
BRANCH   2   3
ATOM      3  C   UNL     1      -1.805 -45.754  16.649  1.00  0.00     0.000 C 
BRANCH   3   4
ATOM      4  C   UNL     1      -1.836 -47.132  15.955  1.00  0.00     0.000 C 
BRANCH   4   5
ATOM      5  C   UNL     1      -1.367 -48.276  16.872  1.00  0.00     0.000 C 
BRANCH   5   6
ATOM      6  C   UNL     1      -2.451 -49.346  17.102  1.00  0.00     0.000 C 
BRANCH   6   7
ATOM      7  C   UNL     1      -3.853 -48.977  16.586  1.00  0.00     0.000 C 
BRANCH   7   8
ATOM      8  C   UNL     1      -4.901 -48.876  17.708  1.00  0.00     0.000 C 
BRANCH   8   9
ATOM      9  C   UNL     1      -4.263 -48.586  19.077  1.00  0.00     0.000 C 
BRANCH   9  10
ATOM     10  C   UNL     1      -3.997 -47.086  19.298  1.00  0.00     0.000 C 
BRANCH  10  11
ATOM     11  C   UNL     1      -4.956 -46.458  20.323  1.00  0.00     0.000 C 
BRANCH  11  12
ATOM     12  C   UNL     1      -5.327 -45.007  19.967  1.00  0.00     0.006 C 
BRANCH  12  13
ATOM     13  C   UNL     1      -6.844 -44.813  19.829  1.00  0.00     0.053 C 
BRANCH  13  14
ATOM     14  C   UNL     1      -7.192 -43.579  19.049  1.00  0.00     0.041 C 
ATOM     15  O   UNL     1      -7.661 -43.680  17.885  1.00  0.00    -0.550 OA
ATOM     16  O   UNL     1      -7.050 -42.321  19.624  1.00  0.00    -0.550 OA
ENDBRANCH  13  14
ENDBRANCH  12  13
ENDBRANCH  11  12
ENDBRANCH  10  11
ENDBRANCH   9  10
ENDBRANCH   8   9
ENDBRANCH   7   8
ENDBRANCH   6   7
ENDBRANCH   5   6
ENDBRANCH   4   5
ENDBRANCH   3   4
ENDBRANCH   2   3
ENDBRANCH   1   2
BRANCH   1  17
ATOM     17  C   UNL     1      -5.127 -45.556  15.930  1.00  0.00     0.000 C 
BRANCH  17  18
ATOM     18  C   UNL     1      -6.100 -44.942  14.901  1.00  0.00     0.000 C 
BRANCH  18  19
ATOM     19  C   UNL     1      -5.972 -45.588  13.511  1.00  0.00     0.000 C 
BRANCH  19  20
ATOM     20  C   UNL     1      -4.509 -45.817  13.092  1.00  0.00     0.000 C 
BRANCH  20  21
ATOM     21  C   UNL     1      -4.134 -47.284  12.811  1.00  0.00     0.000 C 
BRANCH  21  22
ATOM     22  C   UNL     1      -4.049 -47.601  11.307  1.00  0.00    -0.000 C 
BRANCH  22  23
ATOM     23  C   UNL     1      -4.220 -46.352  10.424  1.00  0.00    -0.000 C 
BRANCH  23  24
ATOM     24  C   UNL     1      -5.403 -46.413   9.440  1.00  0.00    -0.000 C 
BRANCH  24  25
ATOM     25  C   UNL     1      -6.551 -45.462   9.825  1.00  0.00    -0.000 C 
BRANCH  25  26
ATOM     26  C   UNL     1      -7.818 -46.224  10.254  1.00  0.00    -0.000 C 
BRANCH  26  27
ATOM     27  C   UNL     1      -7.777 -47.727   9.896  1.00  0.00    -0.000 C 
BRANCH  27  28
ATOM     28  C   UNL     1      -7.836 -48.655  11.124  1.00  0.00    -0.000 C 
BRANCH  28  29
ATOM     29  C   UNL     1      -7.252 -50.058  10.894  1.00  0.00    -0.003 C 
ATOM     30  C   UNL     1      -6.337 -50.124   9.670  1.00  0.00     0.004 C 
ENDBRANCH  28  29
ENDBRANCH  27  28
ENDBRANCH  26  27
ENDBRANCH  25  26
ENDBRANCH  24  25
ENDBRANCH  23  24
ENDBRANCH  22  23
ENDBRANCH  21  22
ENDBRANCH  20  21
ENDBRANCH  19  20
ENDBRANCH  18  19
ENDBRANCH  17  18
ENDBRANCH   1  17
TORSDOF 26
ENDMDL
MODEL 7
REMARK VINA RESULT:    -4.184      2.571      6.306
REMARK INTER + INTRA:         -15.526
REMARK INTER:                 -10.333
REMARK INTRA:                  -5.194
REMARK UNBOUND:                -4.983
REMARK SMILES CCCCCCCCCCCCCCCCCCCCCCCCCCCC(=O)[O-]
REMARK SMILES IDX 15 1 16 2 17 3 18 4 19 5 20 6 21 7 22 8 23 9 24 10 25 11
REMARK SMILES IDX 26 12 27 13 28 14 29 15 30 16 14 17 13 18 12 19 11 20 10 21
REMARK SMILES IDX 9 22 8 23 7 24 6 25 5 26 4 27 3 28 2 29 1 30
REMARK H PARENT
REMARK Flexibility Score: inf
ROOT
ATOM      1  C   UNL     1      -1.513 -48.859  17.382  1.00  0.00     0.000 C 
ENDROOT
BRANCH   1   2
ATOM      2  C   UNL     1      -2.888 -49.368  16.917  1.00  0.00     0.000 C 
BRANCH   2   3
ATOM      3  C   UNL     1      -2.944 -49.885  15.466  1.00  0.00     0.000 C 
BRANCH   3   4
ATOM      4  C   UNL     1      -1.935 -49.208  14.515  1.00  0.00     0.000 C 
BRANCH   4   5
ATOM      5  C   UNL     1      -2.361 -49.283  13.036  1.00  0.00     0.000 C 
BRANCH   5   6
ATOM      6  C   UNL     1      -3.833 -49.697  12.855  1.00  0.00     0.000 C 
BRANCH   6   7
ATOM      7  C   UNL     1      -4.549 -49.057  11.652  1.00  0.00     0.000 C 
BRANCH   7   8
ATOM      8  C   UNL     1      -3.721 -47.948  10.978  1.00  0.00     0.000 C 
BRANCH   8   9
ATOM      9  C   UNL     1      -4.400 -46.572  11.077  1.00  0.00     0.000 C 
BRANCH   9  10
ATOM     10  C   UNL     1      -5.681 -46.605  11.928  1.00  0.00     0.000 C 
BRANCH  10  11
ATOM     11  C   UNL     1      -6.933 -46.196  11.134  1.00  0.00     0.000 C 
BRANCH  11  12
ATOM     12  C   UNL     1      -7.602 -47.394  10.436  1.00  0.00     0.006 C 
BRANCH  12  13
ATOM     13  C   UNL     1      -7.353 -47.396   8.920  1.00  0.00     0.053 C 
BRANCH  13  14
ATOM     14  C   UNL     1      -6.911 -48.739   8.416  1.00  0.00     0.041 C 
ATOM     15  O   UNL     1      -6.938 -49.739   9.181  1.00  0.00    -0.550 OA
ATOM     16  O   UNL     1      -6.523 -48.899   7.091  1.00  0.00    -0.550 OA
ENDBRANCH  13  14
ENDBRANCH  12  13
ENDBRANCH  11  12
ENDBRANCH  10  11
ENDBRANCH   9  10
ENDBRANCH   8   9
ENDBRANCH   7   8
ENDBRANCH   6   7
ENDBRANCH   5   6
ENDBRANCH   4   5
ENDBRANCH   3   4
ENDBRANCH   2   3
ENDBRANCH   1   2
BRANCH   1  17
ATOM     17  C   UNL     1      -1.386 -47.328  17.518  1.00  0.00     0.000 C 
BRANCH  17  18
ATOM     18  C   UNL     1      -1.885 -46.775  18.869  1.00  0.00     0.000 C 
BRANCH  18  19
ATOM     19  C   UNL     1      -2.671 -45.462  18.716  1.00  0.00     0.000 C 
BRANCH  19  20
ATOM     20  C   UNL     1      -4.079 -45.534  19.333  1.00  0.00     0.000 C 
BRANCH  20  21
ATOM     21  C   UNL     1      -4.769 -46.905  19.225  1.00  0.00     0.000 C 
BRANCH  21  22
ATOM     22  C   UNL     1      -5.448 -47.125  17.861  1.00  0.00    -0.000 C 
BRANCH  22  23
ATOM     23  C   UNL     1      -6.030 -45.829  17.269  1.00  0.00    -0.000 C 
BRANCH  23  24
ATOM     24  C   UNL     1      -5.574 -45.513  15.832  1.00  0.00    -0.000 C 
BRANCH  24  25
ATOM     25  C   UNL     1      -4.445 -46.440  15.345  1.00  0.00    -0.000 C 
BRANCH  25  26
ATOM     26  C   UNL     1      -3.155 -45.665  15.026  1.00  0.00    -0.000 C 
BRANCH  26  27
ATOM     27  C   UNL     1      -3.261 -44.152  15.323  1.00  0.00    -0.000 C 
BRANCH  27  28
ATOM     28  C   UNL     1      -3.088 -43.265  14.076  1.00  0.00    -0.000 C 
BRANCH  28  29
ATOM     29  C   UNL     1      -4.234 -43.366  13.055  1.00  0.00    -0.003 C 
ATOM     30  C   UNL     1      -3.818 -42.916  11.653  1.00  0.00     0.004 C 
ENDBRANCH  28  29
ENDBRANCH  27  28
ENDBRANCH  26  27
ENDBRANCH  25  26
ENDBRANCH  24  25
ENDBRANCH  23  24
ENDBRANCH  22  23
ENDBRANCH  21  22
ENDBRANCH  20  21
ENDBRANCH  19  20
ENDBRANCH  18  19
ENDBRANCH  17  18
ENDBRANCH   1  17
TORSDOF 26
ENDMDL
MODEL 8
REMARK VINA RESULT:    -4.168      2.031      5.006
REMARK INTER + INTRA:         -15.487
REMARK INTER:                  -9.901
REMARK INTRA:                  -5.585
REMARK UNBOUND:                -4.983
REMARK SMILES CCCCCCCCCCCCCCCCCCCCCCCCCCCC(=O)[O-]
REMARK SMILES IDX 15 1 16 2 17 3 18 4 19 5 20 6 21 7 22 8 23 9 24 10 25 11
REMARK SMILES IDX 26 12 27 13 28 14 29 15 30 16 14 17 13 18 12 19 11 20 10 21
REMARK SMILES IDX 9 22 8 23 7 24 6 25 5 26 4 27 3 28 2 29 1 30
REMARK H PARENT
REMARK Flexibility Score: inf
ROOT
ATOM      1  C   UNL     1      -5.694 -47.218  17.655  1.00  0.00     0.000 C 
ENDROOT
BRANCH   1   2
ATOM      2  C   UNL     1      -5.293 -46.200  18.736  1.00  0.00     0.000 C 
BRANCH   2   3
ATOM      3  C   UNL     1      -5.234 -44.732  18.271  1.00  0.00     0.000 C 
BRANCH   3   4
ATOM      4  C   UNL     1      -6.154 -43.780  19.064  1.00  0.00     0.000 C 
BRANCH   4   5
ATOM      5  C   UNL     1      -6.869 -42.751  18.168  1.00  0.00     0.000 C 
BRANCH   5   6
ATOM      6  C   UNL     1      -8.355 -43.084  17.938  1.00  0.00     0.000 C 
BRANCH   6   7
ATOM      7  C   UNL     1      -8.713 -43.519  16.505  1.00  0.00     0.000 C 
BRANCH   7   8
ATOM      8  C   UNL     1      -8.366 -44.990  16.218  1.00  0.00     0.000 C 
BRANCH   8   9
ATOM      9  C   UNL     1      -7.336 -45.136  15.086  1.00  0.00     0.000 C 
BRANCH   9  10
ATOM     10  C   UNL     1      -7.353 -43.943  14.115  1.00  0.00     0.000 C 
BRANCH  10  11
ATOM     11  C   UNL     1      -5.944 -43.411  13.803  1.00  0.00     0.000 C 
BRANCH  11  12
ATOM     12  C   UNL     1      -5.429 -42.444  14.884  1.00  0.00     0.006 C 
BRANCH  12  13
ATOM     13  C   UNL     1      -6.180 -41.103  14.869  1.00  0.00     0.053 C 
BRANCH  13  14
ATOM     14  C   UNL     1      -5.478 -40.067  14.041  1.00  0.00     0.041 C 
ATOM     15  O   UNL     1      -5.833 -39.866  12.850  1.00  0.00    -0.550 OA
ATOM     16  O   UNL     1      -4.472 -39.286  14.598  1.00  0.00    -0.550 OA
ENDBRANCH  13  14
ENDBRANCH  12  13
ENDBRANCH  11  12
ENDBRANCH  10  11
ENDBRANCH   9  10
ENDBRANCH   8   9
ENDBRANCH   7   8
ENDBRANCH   6   7
ENDBRANCH   5   6
ENDBRANCH   4   5
ENDBRANCH   3   4
ENDBRANCH   2   3
ENDBRANCH   1   2
BRANCH   1  17
ATOM     17  C   UNL     1      -5.006 -48.595  17.757  1.00  0.00     0.000 C 
BRANCH  17  18
ATOM     18  C   UNL     1      -3.873 -48.654  18.804  1.00  0.00     0.000 C 
BRANCH  18  19
ATOM     19  C   UNL     1      -2.475 -48.638  18.162  1.00  0.00     0.000 C 
BRANCH  19  20
ATOM     20  C   UNL     1      -1.861 -47.228  18.106  1.00  0.00     0.000 C 
BRANCH  20  21
ATOM     21  C   UNL     1      -1.568 -46.701  16.690  1.00  0.00     0.000 C 
BRANCH  21  22
ATOM     22  C   UNL     1      -2.000 -45.236  16.498  1.00  0.00    -0.000 C 
BRANCH  22  23
ATOM     23  C   UNL     1      -2.943 -45.045  15.296  1.00  0.00    -0.000 C 
BRANCH  23  24
ATOM     24  C   UNL     1      -3.842 -46.256  14.982  1.00  0.00    -0.000 C 
BRANCH  24  25
ATOM     25  C   UNL     1      -3.802 -46.663  13.498  1.00  0.00    -0.000 C 
BRANCH  25  26
ATOM     26  C   UNL     1      -3.551 -48.171  13.315  1.00  0.00    -0.000 C 
BRANCH  26  27
ATOM     27  C   UNL     1      -3.346 -48.922  14.651  1.00  0.00    -0.000 C 
BRANCH  27  28
ATOM     28  C   UNL     1      -2.391 -50.125  14.541  1.00  0.00    -0.000 C 
BRANCH  28  29
ATOM     29  C   UNL     1      -0.903 -49.778  14.713  1.00  0.00    -0.003 C 
ATOM     30  C   UNL     1      -0.135 -49.795  13.390  1.00  0.00     0.004 C 
ENDBRANCH  28  29
ENDBRANCH  27  28
ENDBRANCH  26  27
ENDBRANCH  25  26
ENDBRANCH  24  25
ENDBRANCH  23  24
ENDBRANCH  22  23
ENDBRANCH  21  22
ENDBRANCH  20  21
ENDBRANCH  19  20
ENDBRANCH  18  19
ENDBRANCH  17  18
ENDBRANCH   1  17
TORSDOF 26
ENDMDL
MODEL 9
REMARK VINA RESULT:    -3.669      2.337      4.051
REMARK INTER + INTRA:         -14.229
REMARK INTER:                 -10.619
REMARK INTRA:                  -3.610
REMARK UNBOUND:                -4.983
REMARK SMILES CCCCCCCCCCCCCCCCCCCCCCCCCCCC(=O)[O-]
REMARK SMILES IDX 15 1 16 2 17 3 18 4 19 5 20 6 21 7 22 8 23 9 24 10 25 11
REMARK SMILES IDX 26 12 27 13 28 14 29 15 30 16 14 17 13 18 12 19 11 20 10 21
REMARK SMILES IDX 9 22 8 23 7 24 6 25 5 26 4 27 3 28 2 29 1 30
REMARK H PARENT
REMARK Flexibility Score: inf
ROOT
ATOM      1  C   UNL     1      -4.028 -45.848  15.051  1.00  0.00     0.000 C 
ENDROOT
BRANCH   1   2
ATOM      2  C   UNL     1      -2.984 -44.754  15.334  1.00  0.00     0.000 C 
BRANCH   2   3
ATOM      3  C   UNL     1      -1.789 -45.193  16.203  1.00  0.00     0.000 C 
BRANCH   3   4
ATOM      4  C   UNL     1      -2.134 -45.408  17.691  1.00  0.00     0.000 C 
BRANCH   4   5
ATOM      5  C   UNL     1      -1.544 -46.711  18.262  1.00  0.00     0.000 C 
BRANCH   5   6
ATOM      6  C   UNL     1      -1.570 -47.875  17.255  1.00  0.00     0.000 C 
BRANCH   6   7
ATOM      7  C   UNL     1      -2.469 -49.061  17.650  1.00  0.00     0.000 C 
BRANCH   7   8
ATOM      8  C   UNL     1      -3.849 -49.023  16.971  1.00  0.00     0.000 C 
BRANCH   8   9
ATOM      9  C   UNL     1      -4.912 -48.340  17.848  1.00  0.00     0.000 C 
BRANCH   9  10
ATOM     10  C   UNL     1      -4.595 -48.446  19.350  1.00  0.00     0.000 C 
BRANCH  10  11
ATOM     11  C   UNL     1      -4.640 -47.085  20.064  1.00  0.00     0.000 C 
BRANCH  11  12
ATOM     12  C   UNL     1      -5.339 -46.003  19.221  1.00  0.00     0.006 C 
BRANCH  12  13
ATOM     13  C   UNL     1      -6.528 -45.370  19.958  1.00  0.00     0.053 C 
BRANCH  13  14
ATOM     14  C   UNL     1      -6.767 -43.948  19.541  1.00  0.00     0.041 C 
ATOM     15  O   UNL     1      -7.024 -43.679  18.339  1.00  0.00    -0.550 OA
ATOM     16  O   UNL     1      -6.758 -42.929  20.486  1.00  0.00    -0.550 OA
ENDBRANCH  13  14
ENDBRANCH  12  13
ENDBRANCH  11  12
ENDBRANCH  10  11
ENDBRANCH   9  10
ENDBRANCH   8   9
ENDBRANCH   7   8
ENDBRANCH   6   7
ENDBRANCH   5   6
ENDBRANCH   4   5
ENDBRANCH   3   4
ENDBRANCH   2   3
ENDBRANCH   1   2
BRANCH   1  17
ATOM     17  C   UNL     1      -5.450 -45.554  15.572  1.00  0.00     0.000 C 
BRANCH  17  18
ATOM     18  C   UNL     1      -6.355 -44.833  14.552  1.00  0.00     0.000 C 
BRANCH  18  19
ATOM     19  C   UNL     1      -7.852 -45.023  14.853  1.00  0.00     0.000 C 
BRANCH  19  20
ATOM     20  C   UNL     1      -8.665 -45.420  13.608  1.00  0.00     0.000 C 
BRANCH  20  21
ATOM     21  C   UNL     1      -8.361 -44.600  12.342  1.00  0.00     0.000 C 
BRANCH  21  22
ATOM     22  C   UNL     1      -8.160 -45.480  11.095  1.00  0.00    -0.000 C 
BRANCH  22  23
ATOM     23  C   UNL     1      -7.156 -46.623  11.328  1.00  0.00    -0.000 C 
BRANCH  23  24
ATOM     24  C   UNL     1      -7.709 -48.035  11.053  1.00  0.00    -0.000 C 
BRANCH  24  25
ATOM     25  C   UNL     1      -7.885 -48.327   9.552  1.00  0.00    -0.000 C 
BRANCH  25  26
ATOM     26  C   UNL     1      -6.929 -49.428   9.058  1.00  0.00    -0.000 C 
BRANCH  26  27
ATOM     27  C   UNL     1      -6.158 -50.125  10.202  1.00  0.00    -0.000 C 
BRANCH  27  28
ATOM     28  C   UNL     1      -4.628 -50.085  10.028  1.00  0.00    -0.000 C 
BRANCH  28  29
ATOM     29  C   UNL     1      -3.845 -49.791  11.319  1.00  0.00    -0.003 C 
ATOM     30  C   UNL     1      -2.774 -48.715  11.128  1.00  0.00     0.004 C 
ENDBRANCH  28  29
ENDBRANCH  27  28
ENDBRANCH  26  27
ENDBRANCH  25  26
ENDBRANCH  24  25
ENDBRANCH  23  24
ENDBRANCH  22  23
ENDBRANCH  21  22
ENDBRANCH  20  21
ENDBRANCH  19  20
ENDBRANCH  18  19
ENDBRANCH  17  18
ENDBRANCH   1  17
TORSDOF 26
ENDMDL
