MODEL 1
REMARK VINA RESULT:    -4.956      0.000      0.000
REMARK INTER + INTRA:          -5.825
REMARK INTER:                  -5.680
REMARK INTRA:                  -0.145
REMARK UNBOUND:                -0.145
REMARK SMILES O=C([O-])C=Cc1ccc(O)cc1
REMARK SMILES IDX 6 1 7 2 12 3 8 4 11 5 9 6 5 7 4 8 2 9 1 10 3 11 10 12
REMARK H PARENT 10 13
REMARK Flexibility Score: inf
ROOT
ATOM      1  C   UNL     1     -24.315  16.529  18.900  1.00  0.00    -0.025 A 
ATOM      2  C   UNL     1     -25.409  16.418  19.775  1.00  0.00     0.012 A 
ATOM      3  C   UNL     1     -24.304  15.752  17.723  1.00  0.00     0.012 A 
ATOM      4  C   UNL     1     -26.457  15.535  19.496  1.00  0.00     0.047 A 
ATOM      5  C   UNL     1     -25.355  14.871  17.447  1.00  0.00     0.047 A 
ATOM      6  C   UNL     1     -26.431  14.757  18.332  1.00  0.00     0.115 A 
ENDROOT
BRANCH   1   7
ATOM      7  C   UNL     1     -23.232  17.487  19.234  1.00  0.00     0.010 C 
ATOM      8  C   UNL     1     -23.445  18.695  19.774  1.00  0.00     0.025 C 
BRANCH   8   9
ATOM      9  C   UNL     1     -22.345  19.623  20.082  1.00  0.00     0.064 C 
ATOM     10  O   UNL     1     -22.022  19.881  21.273  1.00  0.00    -0.545 OA
ATOM     11  O   UNL     1     -21.652  20.228  19.042  1.00  0.00    -0.545 OA
ENDBRANCH   8   9
ENDBRANCH   1   7
BRANCH   6  12
ATOM     12  O   UNL     1     -27.469  13.875  18.043  1.00  0.00    -0.508 OA
ATOM     13  H   UNL     1     -28.136  13.591  18.752  1.00  0.00     0.293 HD
ENDBRANCH   6  12
TORSDOF 3
ENDMDL
MODEL 2
REMARK VINA RESULT:    -4.915      0.097      1.401
REMARK INTER + INTRA:          -5.778
REMARK INTER:                  -5.644
REMARK INTRA:                  -0.134
REMARK UNBOUND:                -0.145
REMARK SMILES O=C([O-])C=Cc1ccc(O)cc1
REMARK SMILES IDX 6 1 7 2 12 3 8 4 11 5 9 6 5 7 4 8 2 9 1 10 3 11 10 12
REMARK H PARENT 10 13
REMARK Flexibility Score: inf
ROOT
ATOM      1  C   UNL     1     -24.414  16.562  19.008  1.00  0.00    -0.025 A 
ATOM      2  C   UNL     1     -24.346  15.802  17.827  1.00  0.00     0.012 A 
ATOM      3  C   UNL     1     -25.523  16.391  19.862  1.00  0.00     0.012 A 
ATOM      4  C   UNL     1     -25.370  14.912  17.493  1.00  0.00     0.047 A 
ATOM      5  C   UNL     1     -26.546  15.498  19.524  1.00  0.00     0.047 A 
ATOM      6  C   UNL     1     -26.474  14.759  18.341  1.00  0.00     0.115 A 
ENDROOT
BRANCH   1   7
ATOM      7  C   UNL     1     -23.298  17.487  19.324  1.00  0.00     0.010 C 
ATOM      8  C   UNL     1     -23.470  18.755  19.722  1.00  0.00     0.025 C 
BRANCH   8   9
ATOM      9  C   UNL     1     -22.336  19.647  20.016  1.00  0.00     0.064 C 
ATOM     10  O   UNL     1     -21.977  19.878  21.202  1.00  0.00    -0.545 OA
ATOM     11  O   UNL     1     -21.652  20.248  18.968  1.00  0.00    -0.545 OA
ENDBRANCH   8   9
ENDBRANCH   1   7
BRANCH   6  12
ATOM     12  O   UNL     1     -27.500  13.875  18.018  1.00  0.00    -0.508 OA
ATOM     13  H   UNL     1     -27.997  13.938  17.137  1.00  0.00     0.293 HD
ENDBRANCH   6  12
TORSDOF 3
ENDMDL
MODEL 3
REMARK VINA RESULT:    -4.529      1.195      5.729
REMARK INTER + INTRA:          -5.335
REMARK INTER:                  -5.202
REMARK INTRA:                  -0.133
REMARK UNBOUND:                -0.145
REMARK SMILES O=C([O-])C=Cc1ccc(O)cc1
REMARK SMILES IDX 6 1 7 2 12 3 8 4 11 5 9 6 5 7 4 8 2 9 1 10 3 11 10 12
REMARK H PARENT 10 13
REMARK Flexibility Score: inf
ROOT
ATOM      1  C   UNL     1     -24.154  17.155  19.896  1.00  0.00    -0.025 A 
ATOM      2  C   UNL     1     -24.477  17.914  21.034  1.00  0.00     0.012 A 
ATOM      3  C   UNL     1     -22.988  17.481  19.172  1.00  0.00     0.012 A 
ATOM      4  C   UNL     1     -23.672  18.987  21.427  1.00  0.00     0.047 A 
ATOM      5  C   UNL     1     -22.184  18.555  19.569  1.00  0.00     0.047 A 
ATOM      6  C   UNL     1     -22.524  19.311  20.693  1.00  0.00     0.115 A 
ENDROOT
BRANCH   1   7
ATOM      7  C   UNL     1     -25.034  16.021  19.524  1.00  0.00     0.010 C 
ATOM      8  C   UNL     1     -25.857  16.030  18.466  1.00  0.00     0.025 C 
BRANCH   8   9
ATOM      9  C   UNL     1     -26.725  14.888  18.135  1.00  0.00     0.064 C 
ATOM     10  O   UNL     1     -26.279  13.889  17.509  1.00  0.00    -0.545 OA
ATOM     11  O   UNL     1     -28.060  14.913  18.517  1.00  0.00    -0.545 OA
ENDBRANCH   8   9
ENDBRANCH   1   7
BRANCH   6  12
ATOM     12  O   UNL     1     -21.715  20.378  21.076  1.00  0.00    -0.508 OA
ATOM     13  H   UNL     1     -21.831  20.838  21.971  1.00  0.00     0.293 HD
ENDBRANCH   6  12
TORSDOF 3
ENDMDL
MODEL 4
REMARK VINA RESULT:    -4.359      1.204      5.905
REMARK INTER + INTRA:          -5.141
REMARK INTER:                  -4.995
REMARK INTRA:                  -0.146
REMARK UNBOUND:                -0.145
REMARK SMILES O=C([O-])C=Cc1ccc(O)cc1
REMARK SMILES IDX 6 1 7 2 12 3 8 4 11 5 9 6 5 7 4 8 2 9 1 10 3 11 10 12
REMARK H PARENT 10 13
REMARK Flexibility Score: inf
ROOT
ATOM      1  C   UNL     1     -24.470  17.195  19.974  1.00  0.00    -0.025 A 
ATOM      2  C   UNL     1     -23.891  17.537  18.740  1.00  0.00     0.012 A 
ATOM      3  C   UNL     1     -24.244  18.033  21.086  1.00  0.00     0.012 A 
ATOM      4  C   UNL     1     -23.085  18.674  18.622  1.00  0.00     0.047 A 
ATOM      5  C   UNL     1     -23.438  19.170  20.963  1.00  0.00     0.047 A 
ATOM      6  C   UNL     1     -22.855  19.492  19.735  1.00  0.00     0.115 A 
ENDROOT
BRANCH   1   7
ATOM      7  C   UNL     1     -25.324  15.985  20.047  1.00  0.00     0.010 C 
ATOM      8  C   UNL     1     -26.199  15.630  19.095  1.00  0.00     0.025 C 
BRANCH   8   9
ATOM      9  C   UNL     1     -27.039  14.427  19.208  1.00  0.00     0.064 C 
ATOM     10  O   UNL     1     -27.550  13.889  18.189  1.00  0.00    -0.545 OA
ATOM     11  O   UNL     1     -27.275  13.875  20.460  1.00  0.00    -0.545 OA
ENDBRANCH   8   9
ENDBRANCH   1   7
BRANCH   6  12
ATOM     12  O   UNL     1     -22.055  20.627  19.629  1.00  0.00    -0.508 OA
ATOM     13  H   UNL     1     -21.287  20.795  20.268  1.00  0.00     0.293 HD
ENDBRANCH   6  12
TORSDOF 3
ENDMDL
MODEL 5
REMARK VINA RESULT:    -4.148     11.834     12.953
REMARK INTER + INTRA:          -4.899
REMARK INTER:                  -4.759
REMARK INTRA:                  -0.141
REMARK UNBOUND:                -0.145
REMARK SMILES O=C([O-])C=Cc1ccc(O)cc1
REMARK SMILES IDX 6 1 7 2 12 3 8 4 11 5 9 6 5 7 4 8 2 9 1 10 3 11 10 12
REMARK H PARENT 10 13
REMARK Flexibility Score: inf
ROOT
ATOM      1  C   UNL     1     -15.761  15.331   9.516  1.00  0.00    -0.025 A 
ATOM      2  C   UNL     1     -16.283  16.503   8.942  1.00  0.00     0.012 A 
ATOM      3  C   UNL     1     -15.646  14.176   8.715  1.00  0.00     0.012 A 
ATOM      4  C   UNL     1     -16.704  16.517   7.609  1.00  0.00     0.047 A 
ATOM      5  C   UNL     1     -16.068  14.195   7.381  1.00  0.00     0.047 A 
ATOM      6  C   UNL     1     -16.600  15.362   6.826  1.00  0.00     0.115 A 
ENDROOT
BRANCH   1   7
ATOM      7  C   UNL     1     -15.319  15.368  10.931  1.00  0.00     0.010 C 
ATOM      8  C   UNL     1     -16.075  15.831  11.937  1.00  0.00     0.025 C 
BRANCH   8   9
ATOM      9  C   UNL     1     -15.597  15.862  13.329  1.00  0.00     0.064 C 
ATOM     10  O   UNL     1     -15.059  16.896  13.812  1.00  0.00    -0.545 OA
ATOM     11  O   UNL     1     -15.738  14.733  14.124  1.00  0.00    -0.545 OA
ENDBRANCH   8   9
ENDBRANCH   1   7
BRANCH   6  12
ATOM     12  O   UNL     1     -17.016  15.364   5.497  1.00  0.00    -0.508 OA
ATOM     13  H   UNL     1     -17.999  15.387   5.249  1.00  0.00     0.293 HD
ENDBRANCH   6  12
TORSDOF 3
ENDMDL
MODEL 6
REMARK VINA RESULT:    -4.102     11.632     13.046
REMARK INTER + INTRA:          -4.847
REMARK INTER:                  -4.709
REMARK INTRA:                  -0.138
REMARK UNBOUND:                -0.145
REMARK SMILES O=C([O-])C=Cc1ccc(O)cc1
REMARK SMILES IDX 6 1 7 2 12 3 8 4 11 5 9 6 5 7 4 8 2 9 1 10 3 11 10 12
REMARK H PARENT 10 13
REMARK Flexibility Score: inf
ROOT
ATOM      1  C   UNL     1     -15.746  15.195  10.660  1.00  0.00    -0.025 A 
ATOM      2  C   UNL     1     -15.110  14.159  11.365  1.00  0.00     0.012 A 
ATOM      3  C   UNL     1     -16.476  16.161  11.384  1.00  0.00     0.012 A 
ATOM      4  C   UNL     1     -15.219  14.072  12.756  1.00  0.00     0.047 A 
ATOM      5  C   UNL     1     -16.582  16.071  12.776  1.00  0.00     0.047 A 
ATOM      6  C   UNL     1     -15.958  15.028  13.465  1.00  0.00     0.115 A 
ENDROOT
BRANCH   1   7
ATOM      7  C   UNL     1     -15.593  15.250   9.185  1.00  0.00     0.010 C 
ATOM      8  C   UNL     1     -16.215  16.144   8.403  1.00  0.00     0.025 C 
BRANCH   8   9
ATOM      9  C   UNL     1     -16.047  16.160   6.941  1.00  0.00     0.064 C 
ATOM     10  O   UNL     1     -15.251  16.963   6.384  1.00  0.00    -0.545 OA
ATOM     11  O   UNL     1     -16.781  15.276   6.161  1.00  0.00    -0.545 OA
ENDBRANCH   8   9
ENDBRANCH   1   7
BRANCH   6  12
ATOM     12  O   UNL     1     -16.074  14.952  14.850  1.00  0.00    -0.508 OA
ATOM     13  H   UNL     1     -15.290  14.680  15.434  1.00  0.00     0.293 HD
ENDBRANCH   6  12
TORSDOF 3
ENDMDL
MODEL 7
REMARK VINA RESULT:    -3.993      2.080      5.966
REMARK INTER + INTRA:          -4.722
REMARK INTER:                  -4.588
REMARK INTRA:                  -0.134
REMARK UNBOUND:                -0.145
REMARK SMILES O=C([O-])C=Cc1ccc(O)cc1
REMARK SMILES IDX 6 1 7 2 12 3 8 4 11 5 9 6 5 7 4 8 2 9 1 10 3 11 10 12
REMARK H PARENT 10 13
REMARK Flexibility Score: inf
ROOT
ATOM      1  C   UNL     1     -25.408  15.132  18.972  1.00  0.00    -0.025 A 
ATOM      2  C   UNL     1     -25.114  16.177  19.864  1.00  0.00     0.012 A 
ATOM      3  C   UNL     1     -24.408  14.703  18.075  1.00  0.00     0.012 A 
ATOM      4  C   UNL     1     -23.861  16.798  19.847  1.00  0.00     0.047 A 
ATOM      5  C   UNL     1     -23.155  15.326  18.062  1.00  0.00     0.047 A 
ATOM      6  C   UNL     1     -22.879  16.374  18.943  1.00  0.00     0.115 A 
ENDROOT
BRANCH   1   7
ATOM      7  C   UNL     1     -26.749  14.499  19.034  1.00  0.00     0.010 C 
ATOM      8  C   UNL     1     -27.796  14.895  18.296  1.00  0.00     0.025 C 
BRANCH   8   9
ATOM      9  C   UNL     1     -29.115  14.249  18.395  1.00  0.00     0.064 C 
ATOM     10  O   UNL     1     -29.814  14.032  17.368  1.00  0.00    -0.545 OA
ATOM     11  O   UNL     1     -29.600  13.876  19.641  1.00  0.00    -0.545 OA
ENDBRANCH   8   9
ENDBRANCH   1   7
BRANCH   6  12
ATOM     12  O   UNL     1     -21.628  16.984  18.917  1.00  0.00    -0.508 OA
ATOM     13  H   UNL     1     -21.448  17.800  18.343  1.00  0.00     0.293 HD
ENDBRANCH   6  12
TORSDOF 3
ENDMDL
MODEL 8
REMARK VINA RESULT:    -3.707     12.363     13.720
REMARK INTER + INTRA:          -4.394
REMARK INTER:                  -4.253
REMARK INTRA:                  -0.141
REMARK UNBOUND:                -0.145
REMARK SMILES O=C([O-])C=Cc1ccc(O)cc1
REMARK SMILES IDX 6 1 7 2 12 3 8 4 11 5 9 6 5 7 4 8 2 9 1 10 3 11 10 12
REMARK H PARENT 10 13
REMARK Flexibility Score: inf
ROOT
ATOM      1  C   UNL     1     -15.357  15.624   9.457  1.00  0.00    -0.025 A 
ATOM      2  C   UNL     1     -15.855  16.308   8.335  1.00  0.00     0.012 A 
ATOM      3  C   UNL     1     -14.075  15.040   9.383  1.00  0.00     0.012 A 
ATOM      4  C   UNL     1     -15.105  16.387   7.157  1.00  0.00     0.047 A 
ATOM      5  C   UNL     1     -13.327  15.122   8.203  1.00  0.00     0.047 A 
ATOM      6  C   UNL     1     -13.840  15.792   7.088  1.00  0.00     0.115 A 
ENDROOT
BRANCH   1   7
ATOM      7  C   UNL     1     -16.186  15.576  10.686  1.00  0.00     0.010 C 
ATOM      8  C   UNL     1     -15.680  15.508  11.926  1.00  0.00     0.025 C 
BRANCH   8   9
ATOM      9  C   UNL     1     -16.536  15.451  13.122  1.00  0.00     0.064 C 
ATOM     10  O   UNL     1     -16.110  14.969  14.207  1.00  0.00    -0.545 OA
ATOM     11  O   UNL     1     -17.836  15.933  13.054  1.00  0.00    -0.545 OA
ENDBRANCH   8   9
ENDBRANCH   1   7
BRANCH   6  12
ATOM     12  O   UNL     1     -13.083  15.864   5.922  1.00  0.00    -0.508 OA
ATOM     13  H   UNL     1     -13.182  15.177   5.182  1.00  0.00     0.293 HD
ENDBRANCH   6  12
TORSDOF 3
ENDMDL
