MODEL 1
REMARK VINA RESULT:    -4.721      0.000      0.000
REMARK INTER + INTRA:         -16.673
REMARK INTER:                 -12.449
REMARK INTRA:                  -4.224
REMARK UNBOUND:                -4.224
REMARK SMILES CCCCCCCCCCCCCCCCCCCCCCCCCCCCCC(=O)[O-]
REMARK SMILES IDX 16 1 17 2 18 3 19 4 20 5 21 6 22 7 23 8 24 9 25 10 26 11
REMARK SMILES IDX 27 12 28 13 29 14 30 15 31 16 32 17 15 18 14 19 13 20 12 21
REMARK SMILES IDX 11 22 10 23 9 24 8 25 7 26 6 27 5 28 4 29 3 30 2 31 1 32
REMARK H PARENT
REMARK Flexibility Score: inf
ROOT
ATOM      1  C   UNL     1      18.929  21.923   6.020  1.00  0.00     0.000 C 
ENDROOT
BRANCH   1   2
ATOM      2  C   UNL     1      19.510  21.644   4.621  1.00  0.00     0.000 C 
BRANCH   2   3
ATOM      3  C   UNL     1      20.366  20.368   4.510  1.00  0.00     0.000 C 
BRANCH   3   4
ATOM      4  C   UNL     1      19.549  19.080   4.714  1.00  0.00     0.000 C 
BRANCH   4   5
ATOM      5  C   UNL     1      19.739  18.471   6.120  1.00  0.00     0.000 C 
BRANCH   5   6
ATOM      6  C   UNL     1      20.172  16.992   6.115  1.00  0.00     0.000 C 
BRANCH   6   7
ATOM      7  C   UNL     1      20.511  16.405   4.732  1.00  0.00     0.000 C 
BRANCH   7   8
ATOM      8  C   UNL     1      21.889  15.723   4.627  1.00  0.00     0.000 C 
BRANCH   8   9
ATOM      9  C   UNL     1      22.982  16.448   5.425  1.00  0.00     0.000 C 
BRANCH   9  10
ATOM     10  C   UNL     1      23.386  17.762   4.738  1.00  0.00     0.000 C 
BRANCH  10  11
ATOM     11  C   UNL     1      24.894  18.040   4.836  1.00  0.00     0.000 C 
BRANCH  11  12
ATOM     12  C   UNL     1      25.739  16.760   4.721  1.00  0.00     0.000 C 
BRANCH  12  13
ATOM     13  C   UNL     1      27.209  16.971   5.128  1.00  0.00     0.006 C 
BRANCH  13  14
ATOM     14  C   UNL     1      28.217  16.248   4.215  1.00  0.00     0.053 C 
BRANCH  14  15
ATOM     15  C   UNL     1      29.415  15.745   4.961  1.00  0.00     0.041 C 
ATOM     16  O   UNL     1      29.280  14.893   5.879  1.00  0.00    -0.550 OA
ATOM     17  O   UNL     1      30.684  16.197   4.625  1.00  0.00    -0.550 OA
ENDBRANCH  14  15
ENDBRANCH  13  14
ENDBRANCH  12  13
ENDBRANCH  11  12
ENDBRANCH  10  11
ENDBRANCH   9  10
ENDBRANCH   8   9
ENDBRANCH   7   8
ENDBRANCH   6   7
ENDBRANCH   5   6
ENDBRANCH   4   5
ENDBRANCH   3   4
ENDBRANCH   2   3
ENDBRANCH   1   2
BRANCH   1  18
ATOM     18  C   UNL     1      17.397  21.790   6.070  1.00  0.00     0.000 C 
BRANCH  18  19
ATOM     19  C   UNL     1      16.914  20.781   7.129  1.00  0.00     0.000 C 
BRANCH  19  20
ATOM     20  C   UNL     1      17.799  20.662   8.387  1.00  0.00     0.000 C 
BRANCH  20  21
ATOM     21  C   UNL     1      17.035  20.609   9.722  1.00  0.00     0.000 C 
BRANCH  21  22
ATOM     22  C   UNL     1      17.938  20.893  10.935  1.00  0.00     0.000 C 
BRANCH  22  23
ATOM     23  C   UNL     1      18.295  22.382  11.073  1.00  0.00     0.000 C 
BRANCH  23  24
ATOM     24  C   UNL     1      17.049  23.282  11.132  1.00  0.00    -0.000 C 
BRANCH  24  25
ATOM     25  C   UNL     1      17.195  24.551  10.276  1.00  0.00    -0.000 C 
BRANCH  25  26
ATOM     26  C   UNL     1      17.327  24.240   8.775  1.00  0.00    -0.000 C 
BRANCH  26  27
ATOM     27  C   UNL     1      18.606  24.829   8.155  1.00  0.00    -0.000 C 
BRANCH  27  28
ATOM     28  C   UNL     1      19.901  24.542   8.941  1.00  0.00    -0.000 C 
BRANCH  28  29
ATOM     29  C   UNL     1      20.914  23.634   8.220  1.00  0.00    -0.000 C 
BRANCH  29  30
ATOM     30  C   UNL     1      21.108  22.281   8.920  1.00  0.00    -0.000 C 
BRANCH  30  31
ATOM     31  C   UNL     1      21.850  21.294   8.012  1.00  0.00    -0.003 C 
ATOM     32  C   UNL     1      23.204  20.911   8.603  1.00  0.00     0.004 C 
ENDBRANCH  30  31
ENDBRANCH  29  30
ENDBRANCH  28  29
ENDBRANCH  27  28
ENDBRANCH  26  27
ENDBRANCH  25  26
ENDBRANCH  24  25
ENDBRANCH  23  24
ENDBRANCH  22  23
ENDBRANCH  21  22
ENDBRANCH  20  21
ENDBRANCH  19  20
ENDBRANCH  18  19
ENDBRANCH   1  18
TORSDOF 28
ENDMDL
MODEL 2
REMARK VINA RESULT:    -4.441      3.002      6.134
REMARK INTER + INTRA:         -15.933
REMARK INTER:                 -12.831
REMARK INTRA:                  -3.102
REMARK UNBOUND:                -4.224
REMARK SMILES CCCCCCCCCCCCCCCCCCCCCCCCCCCCCC(=O)[O-]
REMARK SMILES IDX 16 1 17 2 18 3 19 4 20 5 21 6 22 7 23 8 24 9 25 10 26 11
REMARK SMILES IDX 27 12 28 13 29 14 30 15 31 16 32 17 15 18 14 19 13 20 12 21
REMARK SMILES IDX 11 22 10 23 9 24 8 25 7 26 6 27 5 28 4 29 3 30 2 31 1 32
REMARK H PARENT
REMARK Flexibility Score: inf
ROOT
ATOM      1  C   UNL     1      23.872  19.002   5.477  1.00  0.00     0.000 C 
ENDROOT
BRANCH   1   2
ATOM      2  C   UNL     1      24.355  17.603   5.048  1.00  0.00     0.000 C 
BRANCH   2   3
ATOM      3  C   UNL     1      25.732  17.567   4.359  1.00  0.00     0.000 C 
BRANCH   3   4
ATOM      4  C   UNL     1      26.502  16.262   4.629  1.00  0.00     0.000 C 
BRANCH   4   5
ATOM      5  C   UNL     1      27.648  16.447   5.645  1.00  0.00     0.000 C 
BRANCH   5   6
ATOM      6  C   UNL     1      29.057  16.430   5.020  1.00  0.00     0.000 C 
BRANCH   6   7
ATOM      7  C   UNL     1      29.816  15.095   5.133  1.00  0.00     0.000 C 
BRANCH   7   8
ATOM      8  C   UNL     1      29.515  14.071   4.021  1.00  0.00     0.000 C 
BRANCH   8   9
ATOM      9  C   UNL     1      28.829  12.800   4.542  1.00  0.00     0.000 C 
BRANCH   9  10
ATOM     10  C   UNL     1      29.780  11.595   4.475  1.00  0.00     0.000 C 
BRANCH  10  11
ATOM     11  C   UNL     1      30.089  11.009   5.863  1.00  0.00     0.000 C 
BRANCH  11  12
ATOM     12  C   UNL     1      30.873  11.987   6.754  1.00  0.00     0.000 C 
BRANCH  12  13
ATOM     13  C   UNL     1      31.590  11.290   7.925  1.00  0.00     0.006 C 
BRANCH  13  14
ATOM     14  C   UNL     1      32.710  12.135   8.559  1.00  0.00     0.053 C 
BRANCH  14  15
ATOM     15  C   UNL     1      33.945  12.188   7.713  1.00  0.00     0.041 C 
ATOM     16  O   UNL     1      34.486  11.123   7.311  1.00  0.00    -0.550 OA
ATOM     17  O   UNL     1      34.483  13.413   7.343  1.00  0.00    -0.550 OA
ENDBRANCH  14  15
ENDBRANCH  13  14
ENDBRANCH  12  13
ENDBRANCH  11  12
ENDBRANCH  10  11
ENDBRANCH   9  10
ENDBRANCH   8   9
ENDBRANCH   7   8
ENDBRANCH   6   7
ENDBRANCH   5   6
ENDBRANCH   4   5
ENDBRANCH   3   4
ENDBRANCH   2   3
ENDBRANCH   1   2
BRANCH   1  18
ATOM     18  C   UNL     1      22.964  18.968   6.718  1.00  0.00     0.000 C 
BRANCH  18  19
ATOM     19  C   UNL     1      22.189  20.282   6.934  1.00  0.00     0.000 C 
BRANCH  19  20
ATOM     20  C   UNL     1      21.011  20.527   5.968  1.00  0.00     0.000 C 
BRANCH  20  21
ATOM     21  C   UNL     1      20.697  22.006   5.681  1.00  0.00     0.000 C 
BRANCH  21  22
ATOM     22  C   UNL     1      19.195  22.264   5.471  1.00  0.00     0.000 C 
BRANCH  22  23
ATOM     23  C   UNL     1      18.313  21.452   6.433  1.00  0.00     0.000 C 
BRANCH  23  24
ATOM     24  C   UNL     1      17.082  22.241   6.910  1.00  0.00    -0.000 C 
BRANCH  24  25
ATOM     25  C   UNL     1      17.216  23.752   6.660  1.00  0.00    -0.000 C 
BRANCH  25  26
ATOM     26  C   UNL     1      17.227  24.569   7.964  1.00  0.00    -0.000 C 
BRANCH  26  27
ATOM     27  C   UNL     1      18.587  25.232   8.240  1.00  0.00    -0.000 C 
BRANCH  27  28
ATOM     28  C   UNL     1      19.385  24.617   9.408  1.00  0.00    -0.000 C 
BRANCH  28  29
ATOM     29  C   UNL     1      20.421  23.555   9.001  1.00  0.00    -0.000 C 
BRANCH  29  30
ATOM     30  C   UNL     1      20.047  22.142   9.474  1.00  0.00    -0.000 C 
BRANCH  30  31
ATOM     31  C   UNL     1      19.006  22.197  10.597  1.00  0.00    -0.003 C 
ATOM     32  C   UNL     1      17.954  21.104  10.428  1.00  0.00     0.004 C 
ENDBRANCH  30  31
ENDBRANCH  29  30
ENDBRANCH  28  29
ENDBRANCH  27  28
ENDBRANCH  26  27
ENDBRANCH  25  26
ENDBRANCH  24  25
ENDBRANCH  23  24
ENDBRANCH  22  23
ENDBRANCH  21  22
ENDBRANCH  20  21
ENDBRANCH  19  20
ENDBRANCH  18  19
ENDBRANCH   1  18
TORSDOF 28
ENDMDL
MODEL 3
REMARK VINA RESULT:    -4.385      2.488      5.112
REMARK INTER + INTRA:         -15.786
REMARK INTER:                 -12.573
REMARK INTRA:                  -3.213
REMARK UNBOUND:                -4.224
REMARK SMILES CCCCCCCCCCCCCCCCCCCCCCCCCCCCCC(=O)[O-]
REMARK SMILES IDX 16 1 17 2 18 3 19 4 20 5 21 6 22 7 23 8 24 9 25 10 26 11
REMARK SMILES IDX 27 12 28 13 29 14 30 15 31 16 32 17 15 18 14 19 13 20 12 21
REMARK SMILES IDX 11 22 10 23 9 24 8 25 7 26 6 27 5 28 4 29 3 30 2 31 1 32
REMARK H PARENT
REMARK Flexibility Score: inf
ROOT
ATOM      1  C   UNL     1      21.761  21.073   7.976  1.00  0.00     0.000 C 
ENDROOT
BRANCH   1   2
ATOM      2  C   UNL     1      22.710  20.192   7.142  1.00  0.00     0.000 C 
BRANCH   2   3
ATOM      3  C   UNL     1      22.020  19.123   6.274  1.00  0.00     0.000 C 
BRANCH   3   4
ATOM      4  C   UNL     1      23.006  18.092   5.698  1.00  0.00     0.000 C 
BRANCH   4   5
ATOM      5  C   UNL     1      24.395  18.697   5.402  1.00  0.00     0.000 C 
BRANCH   5   6
ATOM      6  C   UNL     1      25.209  17.925   4.344  1.00  0.00     0.000 C 
BRANCH   6   7
ATOM      7  C   UNL     1      25.718  16.539   4.782  1.00  0.00     0.000 C 
BRANCH   7   8
ATOM      8  C   UNL     1      27.172  16.503   5.292  1.00  0.00     0.000 C 
BRANCH   8   9
ATOM      9  C   UNL     1      27.800  15.104   5.222  1.00  0.00     0.000 C 
BRANCH   9  10
ATOM     10  C   UNL     1      29.310  15.164   5.503  1.00  0.00     0.000 C 
BRANCH  10  11
ATOM     11  C   UNL     1      30.003  13.808   5.294  1.00  0.00     0.000 C 
BRANCH  11  12
ATOM     12  C   UNL     1      30.981  13.464   6.430  1.00  0.00     0.000 C 
BRANCH  12  13
ATOM     13  C   UNL     1      30.826  12.020   6.942  1.00  0.00     0.006 C 
BRANCH  13  14
ATOM     14  C   UNL     1      32.139  11.395   7.446  1.00  0.00     0.053 C 
BRANCH  14  15
ATOM     15  C   UNL     1      32.858  12.270   8.426  1.00  0.00     0.041 C 
ATOM     16  O   UNL     1      34.012  12.701   8.167  1.00  0.00    -0.550 OA
ATOM     17  O   UNL     1      32.241  12.633   9.617  1.00  0.00    -0.550 OA
ENDBRANCH  14  15
ENDBRANCH  13  14
ENDBRANCH  12  13
ENDBRANCH  11  12
ENDBRANCH  10  11
ENDBRANCH   9  10
ENDBRANCH   8   9
ENDBRANCH   7   8
ENDBRANCH   6   7
ENDBRANCH   5   6
ENDBRANCH   4   5
ENDBRANCH   3   4
ENDBRANCH   2   3
ENDBRANCH   1   2
BRANCH   1  18
ATOM     18  C   UNL     1      21.526  22.459   7.351  1.00  0.00     0.000 C 
BRANCH  18  19
ATOM     19  C   UNL     1      20.197  22.553   6.577  1.00  0.00     0.000 C 
BRANCH  19  20
ATOM     20  C   UNL     1      20.197  21.913   5.173  1.00  0.00     0.000 C 
BRANCH  20  21
ATOM     21  C   UNL     1      18.820  21.447   4.666  1.00  0.00     0.000 C 
BRANCH  21  22
ATOM     22  C   UNL     1      17.819  21.200   5.808  1.00  0.00     0.000 C 
BRANCH  22  23
ATOM     23  C   UNL     1      17.773  19.729   6.249  1.00  0.00     0.000 C 
BRANCH  23  24
ATOM     24  C   UNL     1      18.384  19.515   7.645  1.00  0.00    -0.000 C 
BRANCH  24  25
ATOM     25  C   UNL     1      17.379  19.787   8.777  1.00  0.00    -0.000 C 
BRANCH  25  26
ATOM     26  C   UNL     1      17.439  21.238   9.285  1.00  0.00    -0.000 C 
BRANCH  26  27
ATOM     27  C   UNL     1      18.779  21.578   9.960  1.00  0.00    -0.000 C 
BRANCH  27  28
ATOM     28  C   UNL     1      18.825  22.952  10.659  1.00  0.00    -0.000 C 
BRANCH  28  29
ATOM     29  C   UNL     1      19.586  24.048   9.892  1.00  0.00    -0.000 C 
BRANCH  29  30
ATOM     30  C   UNL     1      18.723  25.284   9.600  1.00  0.00    -0.000 C 
BRANCH  30  31
ATOM     31  C   UNL     1      17.317  24.878   9.147  1.00  0.00    -0.003 C 
ATOM     32  C   UNL     1      17.282  24.585   7.650  1.00  0.00     0.004 C 
ENDBRANCH  30  31
ENDBRANCH  29  30
ENDBRANCH  28  29
ENDBRANCH  27  28
ENDBRANCH  26  27
ENDBRANCH  25  26
ENDBRANCH  24  25
ENDBRANCH  23  24
ENDBRANCH  22  23
ENDBRANCH  21  22
ENDBRANCH  20  21
ENDBRANCH  19  20
ENDBRANCH  18  19
ENDBRANCH   1  18
TORSDOF 28
ENDMDL
MODEL 4
REMARK VINA RESULT:    -4.324      3.370      6.290
REMARK INTER + INTRA:         -15.626
REMARK INTER:                 -12.842
REMARK INTRA:                  -2.785
REMARK UNBOUND:                -4.224
REMARK SMILES CCCCCCCCCCCCCCCCCCCCCCCCCCCCCC(=O)[O-]
REMARK SMILES IDX 16 1 17 2 18 3 19 4 20 5 21 6 22 7 23 8 24 9 25 10 26 11
REMARK SMILES IDX 27 12 28 13 29 14 30 15 31 16 32 17 15 18 14 19 13 20 12 21
REMARK SMILES IDX 11 22 10 23 9 24 8 25 7 26 6 27 5 28 4 29 3 30 2 31 1 32
REMARK H PARENT
REMARK Flexibility Score: inf
ROOT
ATOM      1  C   UNL     1      23.488  18.981   6.567  1.00  0.00     0.000 C 
ENDROOT
BRANCH   1   2
ATOM      2  C   UNL     1      24.337  18.797   5.295  1.00  0.00     0.000 C 
BRANCH   2   3
ATOM      3  C   UNL     1      24.771  17.348   5.001  1.00  0.00     0.000 C 
BRANCH   3   4
ATOM      4  C   UNL     1      26.188  17.257   4.407  1.00  0.00     0.000 C 
BRANCH   4   5
ATOM      5  C   UNL     1      27.041  16.154   5.069  1.00  0.00     0.000 C 
BRANCH   5   6
ATOM      6  C   UNL     1      28.370  16.655   5.667  1.00  0.00     0.000 C 
BRANCH   6   7
ATOM      7  C   UNL     1      29.637  15.948   5.152  1.00  0.00     0.000 C 
BRANCH   7   8
ATOM      8  C   UNL     1      29.408  14.552   4.540  1.00  0.00     0.000 C 
BRANCH   8   9
ATOM      9  C   UNL     1      30.054  13.424   5.356  1.00  0.00     0.000 C 
BRANCH   9  10
ATOM     10  C   UNL     1      30.908  13.991   6.501  1.00  0.00     0.000 C 
BRANCH  10  11
ATOM     11  C   UNL     1      31.307  12.919   7.527  1.00  0.00     0.000 C 
BRANCH  11  12
ATOM     12  C   UNL     1      32.830  12.821   7.717  1.00  0.00     0.000 C 
BRANCH  12  13
ATOM     13  C   UNL     1      33.298  11.407   8.103  1.00  0.00     0.006 C 
BRANCH  13  14
ATOM     14  C   UNL     1      34.715  11.363   8.704  1.00  0.00     0.053 C 
BRANCH  14  15
ATOM     15  C   UNL     1      35.721  12.093   7.867  1.00  0.00     0.041 C 
ATOM     16  O   UNL     1      36.491  12.939   8.392  1.00  0.00    -0.550 OA
ATOM     17  O   UNL     1      35.826  11.818   6.510  1.00  0.00    -0.550 OA
ENDBRANCH  14  15
ENDBRANCH  13  14
ENDBRANCH  12  13
ENDBRANCH  11  12
ENDBRANCH  10  11
ENDBRANCH   9  10
ENDBRANCH   8   9
ENDBRANCH   7   8
ENDBRANCH   6   7
ENDBRANCH   5   6
ENDBRANCH   4   5
ENDBRANCH   3   4
ENDBRANCH   2   3
ENDBRANCH   1   2
BRANCH   1  18
ATOM     18  C   UNL     1      22.490  20.147   6.457  1.00  0.00     0.000 C 
BRANCH  18  19
ATOM     19  C   UNL     1      21.858  20.269   5.057  1.00  0.00     0.000 C 
BRANCH  19  20
ATOM     20  C   UNL     1      20.965  21.508   4.836  1.00  0.00     0.000 C 
BRANCH  20  21
ATOM     21  C   UNL     1      19.465  21.209   4.654  1.00  0.00     0.000 C 
BRANCH  21  22
ATOM     22  C   UNL     1      18.570  22.126   5.506  1.00  0.00     0.000 C 
BRANCH  22  23
ATOM     23  C   UNL     1      17.747  21.350   6.547  1.00  0.00     0.000 C 
BRANCH  23  24
ATOM     24  C   UNL     1      18.632  20.631   7.579  1.00  0.00    -0.000 C 
BRANCH  24  25
ATOM     25  C   UNL     1      18.175  20.880   9.025  1.00  0.00    -0.000 C 
BRANCH  25  26
ATOM     26  C   UNL     1      16.962  21.823   9.109  1.00  0.00    -0.000 C 
BRANCH  26  27
ATOM     27  C   UNL     1      17.358  23.309   9.070  1.00  0.00    -0.000 C 
BRANCH  27  28
ATOM     28  C   UNL     1      18.231  23.780  10.251  1.00  0.00    -0.000 C 
BRANCH  28  29
ATOM     29  C   UNL     1      19.635  24.279   9.865  1.00  0.00    -0.000 C 
BRANCH  29  30
ATOM     30  C   UNL     1      19.913  24.178   8.358  1.00  0.00    -0.000 C 
BRANCH  30  31
ATOM     31  C   UNL     1      21.137  23.298   8.083  1.00  0.00    -0.003 C 
ATOM     32  C   UNL     1      21.677  22.684   9.372  1.00  0.00     0.004 C 
ENDBRANCH  30  31
ENDBRANCH  29  30
ENDBRANCH  28  29
ENDBRANCH  27  28
ENDBRANCH  26  27
ENDBRANCH  25  26
ENDBRANCH  24  25
ENDBRANCH  23  24
ENDBRANCH  22  23
ENDBRANCH  21  22
ENDBRANCH  20  21
ENDBRANCH  19  20
ENDBRANCH  18  19
ENDBRANCH   1  18
TORSDOF 28
ENDMDL
MODEL 5
REMARK VINA RESULT:    -4.282      3.707      6.205
REMARK INTER + INTRA:         -15.514
REMARK INTER:                 -11.472
REMARK INTRA:                  -4.042
REMARK UNBOUND:                -4.224
REMARK SMILES CCCCCCCCCCCCCCCCCCCCCCCCCCCCCC(=O)[O-]
REMARK SMILES IDX 16 1 17 2 18 3 19 4 20 5 21 6 22 7 23 8 24 9 25 10 26 11
REMARK SMILES IDX 27 12 28 13 29 14 30 15 31 16 32 17 15 18 14 19 13 20 12 21
REMARK SMILES IDX 11 22 10 23 9 24 8 25 7 26 6 27 5 28 4 29 3 30 2 31 1 32
REMARK H PARENT
REMARK Flexibility Score: inf
ROOT
ATOM      1  C   UNL     1      21.667  21.013   5.736  1.00  0.00     0.000 C 
ENDROOT
BRANCH   1   2
ATOM      2  C   UNL     1      22.007  19.514   5.839  1.00  0.00     0.000 C 
BRANCH   2   3
ATOM      3  C   UNL     1      23.511  19.188   5.921  1.00  0.00     0.000 C 
BRANCH   3   4
ATOM      4  C   UNL     1      24.200  19.193   4.544  1.00  0.00     0.000 C 
BRANCH   4   5
ATOM      5  C   UNL     1      24.335  17.779   3.941  1.00  0.00     0.000 C 
BRANCH   5   6
ATOM      6  C   UNL     1      24.335  16.644   4.984  1.00  0.00     0.000 C 
BRANCH   6   7
ATOM      7  C   UNL     1      23.468  15.421   4.631  1.00  0.00     0.000 C 
BRANCH   7   8
ATOM      8  C   UNL     1      22.163  15.736   3.875  1.00  0.00     0.000 C 
BRANCH   8   9
ATOM      9  C   UNL     1      20.921  15.697   4.777  1.00  0.00     0.000 C 
BRANCH   9  10
ATOM     10  C   UNL     1      21.270  16.115   6.214  1.00  0.00     0.000 C 
BRANCH  10  11
ATOM     11  C   UNL     1      20.031  16.524   7.027  1.00  0.00     0.000 C 
BRANCH  11  12
ATOM     12  C   UNL     1      19.194  15.314   7.476  1.00  0.00     0.000 C 
BRANCH  12  13
ATOM     13  C   UNL     1      17.688  15.622   7.559  1.00  0.00     0.006 C 
BRANCH  13  14
ATOM     14  C   UNL     1      17.148  16.417   6.356  1.00  0.00     0.053 C 
BRANCH  14  15
ATOM     15  C   UNL     1      17.103  15.602   5.099  1.00  0.00     0.041 C 
ATOM     16  O   UNL     1      17.295  16.149   3.981  1.00  0.00    -0.550 OA
ATOM     17  O   UNL     1      16.875  14.234   5.164  1.00  0.00    -0.550 OA
ENDBRANCH  14  15
ENDBRANCH  13  14
ENDBRANCH  12  13
ENDBRANCH  11  12
ENDBRANCH  10  11
ENDBRANCH   9  10
ENDBRANCH   8   9
ENDBRANCH   7   8
ENDBRANCH   6   7
ENDBRANCH   5   6
ENDBRANCH   4   5
ENDBRANCH   3   4
ENDBRANCH   2   3
ENDBRANCH   1   2
BRANCH   1  18
ATOM     18  C   UNL     1      21.143  21.601   7.057  1.00  0.00     0.000 C 
BRANCH  18  19
ATOM     19  C   UNL     1      20.241  22.833   6.854  1.00  0.00     0.000 C 
BRANCH  19  20
ATOM     20  C   UNL     1      19.126  22.674   5.799  1.00  0.00     0.000 C 
BRANCH  20  21
ATOM     21  C   UNL     1      17.725  23.119   6.257  1.00  0.00     0.000 C 
BRANCH  21  22
ATOM     22  C   UNL     1      16.919  21.975   6.897  1.00  0.00     0.000 C 
BRANCH  22  23
ATOM     23  C   UNL     1      17.416  20.585   6.466  1.00  0.00     0.000 C 
BRANCH  23  24
ATOM     24  C   UNL     1      18.022  19.790   7.635  1.00  0.00    -0.000 C 
BRANCH  24  25
ATOM     25  C   UNL     1      17.086  19.724   8.853  1.00  0.00    -0.000 C 
BRANCH  25  26
ATOM     26  C   UNL     1      17.229  20.947   9.776  1.00  0.00    -0.000 C 
BRANCH  26  27
ATOM     27  C   UNL     1      18.689  21.229  10.170  1.00  0.00    -0.000 C 
BRANCH  27  28
ATOM     28  C   UNL     1      18.921  22.573  10.890  1.00  0.00    -0.000 C 
BRANCH  28  29
ATOM     29  C   UNL     1      19.427  23.715   9.991  1.00  0.00    -0.000 C 
BRANCH  29  30
ATOM     30  C   UNL     1      18.431  24.878   9.882  1.00  0.00    -0.000 C 
BRANCH  30  31
ATOM     31  C   UNL     1      18.722  25.738   8.648  1.00  0.00    -0.003 C 
ATOM     32  C   UNL     1      18.870  27.211   9.023  1.00  0.00     0.004 C 
ENDBRANCH  30  31
ENDBRANCH  29  30
ENDBRANCH  28  29
ENDBRANCH  27  28
ENDBRANCH  26  27
ENDBRANCH  25  26
ENDBRANCH  24  25
ENDBRANCH  23  24
ENDBRANCH  22  23
ENDBRANCH  21  22
ENDBRANCH  20  21
ENDBRANCH  19  20
ENDBRANCH  18  19
ENDBRANCH   1  18
TORSDOF 28
ENDMDL
MODEL 6
REMARK VINA RESULT:    -4.278      3.475      6.446
REMARK INTER + INTRA:         -15.504
REMARK INTER:                 -13.062
REMARK INTRA:                  -2.442
REMARK UNBOUND:                -4.224
REMARK SMILES CCCCCCCCCCCCCCCCCCCCCCCCCCCCCC(=O)[O-]
REMARK SMILES IDX 16 1 17 2 18 3 19 4 20 5 21 6 22 7 23 8 24 9 25 10 26 11
REMARK SMILES IDX 27 12 28 13 29 14 30 15 31 16 32 17 15 18 14 19 13 20 12 21
REMARK SMILES IDX 11 22 10 23 9 24 8 25 7 26 6 27 5 28 4 29 3 30 2 31 1 32
REMARK H PARENT
REMARK Flexibility Score: inf
ROOT
ATOM      1  C   UNL     1      24.010  18.971   5.713  1.00  0.00     0.000 C 
ENDROOT
BRANCH   1   2
ATOM      2  C   UNL     1      24.466  18.384   4.363  1.00  0.00     0.000 C 
BRANCH   2   3
ATOM      3  C   UNL     1      25.805  17.625   4.398  1.00  0.00     0.000 C 
BRANCH   3   4
ATOM      4  C   UNL     1      25.627  16.105   4.569  1.00  0.00     0.000 C 
BRANCH   4   5
ATOM      5  C   UNL     1      26.925  15.401   5.019  1.00  0.00     0.000 C 
BRANCH   5   6
ATOM      6  C   UNL     1      28.108  16.356   5.271  1.00  0.00     0.000 C 
BRANCH   6   7
ATOM      7  C   UNL     1      29.401  16.028   4.501  1.00  0.00     0.000 C 
BRANCH   7   8
ATOM      8  C   UNL     1      29.927  14.591   4.683  1.00  0.00     0.000 C 
BRANCH   8   9
ATOM      9  C   UNL     1      30.538  14.344   6.070  1.00  0.00     0.000 C 
BRANCH   9  10
ATOM     10  C   UNL     1      30.732  12.842   6.327  1.00  0.00     0.000 C 
BRANCH  10  11
ATOM     11  C   UNL     1      31.557  12.562   7.593  1.00  0.00     0.000 C 
BRANCH  11  12
ATOM     12  C   UNL     1      32.942  13.230   7.554  1.00  0.00     0.000 C 
BRANCH  12  13
ATOM     13  C   UNL     1      34.072  12.300   8.031  1.00  0.00     0.006 C 
BRANCH  13  14
ATOM     14  C   UNL     1      33.700  11.450   9.261  1.00  0.00     0.053 C 
BRANCH  14  15
ATOM     15  C   UNL     1      33.600   9.989   8.945  1.00  0.00     0.041 C 
ATOM     16  O   UNL     1      33.690   9.589   7.754  1.00  0.00    -0.550 OA
ATOM     17  O   UNL     1      33.435   9.065   9.969  1.00  0.00    -0.550 OA
ENDBRANCH  14  15
ENDBRANCH  13  14
ENDBRANCH  12  13
ENDBRANCH  11  12
ENDBRANCH  10  11
ENDBRANCH   9  10
ENDBRANCH   8   9
ENDBRANCH   7   8
ENDBRANCH   6   7
ENDBRANCH   5   6
ENDBRANCH   4   5
ENDBRANCH   3   4
ENDBRANCH   2   3
ENDBRANCH   1   2
BRANCH   1  18
ATOM     18  C   UNL     1      22.522  18.713   6.006  1.00  0.00     0.000 C 
BRANCH  18  19
ATOM     19  C   UNL     1      21.714  20.009   6.206  1.00  0.00     0.000 C 
BRANCH  19  20
ATOM     20  C   UNL     1      21.572  20.903   4.956  1.00  0.00     0.000 C 
BRANCH  20  21
ATOM     21  C   UNL     1      20.181  21.531   4.756  1.00  0.00     0.000 C 
BRANCH  21  22
ATOM     22  C   UNL     1      19.220  21.231   5.919  1.00  0.00     0.000 C 
BRANCH  22  23
ATOM     23  C   UNL     1      17.855  21.918   5.755  1.00  0.00     0.000 C 
BRANCH  23  24
ATOM     24  C   UNL     1      17.903  23.413   6.114  1.00  0.00    -0.000 C 
BRANCH  24  25
ATOM     25  C   UNL     1      16.988  23.766   7.298  1.00  0.00    -0.000 C 
BRANCH  25  26
ATOM     26  C   UNL     1      17.462  25.016   8.061  1.00  0.00    -0.000 C 
BRANCH  26  27
ATOM     27  C   UNL     1      18.109  24.678   9.415  1.00  0.00    -0.000 C 
BRANCH  27  28
ATOM     28  C   UNL     1      17.954  23.211   9.862  1.00  0.00    -0.000 C 
BRANCH  28  29
ATOM     29  C   UNL     1      19.248  22.378   9.824  1.00  0.00    -0.000 C 
BRANCH  29  30
ATOM     30  C   UNL     1      20.443  23.097  10.466  1.00  0.00    -0.000 C 
BRANCH  30  31
ATOM     31  C   UNL     1      21.643  23.127   9.514  1.00  0.00    -0.003 C 
ATOM     32  C   UNL     1      21.191  23.185   8.057  1.00  0.00     0.004 C 
ENDBRANCH  30  31
ENDBRANCH  29  30
ENDBRANCH  28  29
ENDBRANCH  27  28
ENDBRANCH  26  27
ENDBRANCH  25  26
ENDBRANCH  24  25
ENDBRANCH  23  24
ENDBRANCH  22  23
ENDBRANCH  21  22
ENDBRANCH  20  21
ENDBRANCH  19  20
ENDBRANCH  18  19
ENDBRANCH   1  18
TORSDOF 28
ENDMDL
MODEL 7
REMARK VINA RESULT:    -4.268      3.478      6.842
REMARK INTER + INTRA:         -15.479
REMARK INTER:                 -12.796
REMARK INTRA:                  -2.683
REMARK UNBOUND:                -4.224
REMARK SMILES CCCCCCCCCCCCCCCCCCCCCCCCCCCCCC(=O)[O-]
REMARK SMILES IDX 16 1 17 2 18 3 19 4 20 5 21 6 22 7 23 8 24 9 25 10 26 11
REMARK SMILES IDX 27 12 28 13 29 14 30 15 31 16 32 17 15 18 14 19 13 20 12 21
REMARK SMILES IDX 11 22 10 23 9 24 8 25 7 26 6 27 5 28 4 29 3 30 2 31 1 32
REMARK H PARENT
REMARK Flexibility Score: inf
ROOT
ATOM      1  C   UNL     1      23.850  18.761   5.362  1.00  0.00     0.000 C 
ENDROOT
BRANCH   1   2
ATOM      2  C   UNL     1      25.079  17.833   5.318  1.00  0.00     0.000 C 
BRANCH   2   3
ATOM      3  C   UNL     1      25.677  17.604   3.917  1.00  0.00     0.000 C 
BRANCH   3   4
ATOM      4  C   UNL     1      26.844  16.599   3.922  1.00  0.00     0.000 C 
BRANCH   4   5
ATOM      5  C   UNL     1      27.388  16.325   5.341  1.00  0.00     0.000 C 
BRANCH   5   6
ATOM      6  C   UNL     1      28.906  16.546   5.489  1.00  0.00     0.000 C 
BRANCH   6   7
ATOM      7  C   UNL     1      29.798  15.458   4.862  1.00  0.00     0.000 C 
BRANCH   7   8
ATOM      8  C   UNL     1      29.280  14.015   5.014  1.00  0.00     0.000 C 
BRANCH   8   9
ATOM      9  C   UNL     1      30.340  13.050   5.565  1.00  0.00     0.000 C 
BRANCH   9  10
ATOM     10  C   UNL     1      31.088  13.674   6.754  1.00  0.00     0.000 C 
BRANCH  10  11
ATOM     11  C   UNL     1      31.336  12.667   7.888  1.00  0.00     0.000 C 
BRANCH  11  12
ATOM     12  C   UNL     1      32.703  12.865   8.565  1.00  0.00     0.000 C 
BRANCH  12  13
ATOM     13  C   UNL     1      33.828  13.184   7.564  1.00  0.00     0.006 C 
BRANCH  13  14
ATOM     14  C   UNL     1      34.841  12.039   7.382  1.00  0.00     0.053 C 
BRANCH  14  15
ATOM     15  C   UNL     1      35.822  11.949   8.510  1.00  0.00     0.041 C 
ATOM     16  O   UNL     1      35.744  11.011   9.347  1.00  0.00    -0.550 OA
ATOM     17  O   UNL     1      36.841  12.886   8.623  1.00  0.00    -0.550 OA
ENDBRANCH  14  15
ENDBRANCH  13  14
ENDBRANCH  12  13
ENDBRANCH  11  12
ENDBRANCH  10  11
ENDBRANCH   9  10
ENDBRANCH   8   9
ENDBRANCH   7   8
ENDBRANCH   6   7
ENDBRANCH   5   6
ENDBRANCH   4   5
ENDBRANCH   3   4
ENDBRANCH   2   3
ENDBRANCH   1   2
BRANCH   1  18
ATOM     18  C   UNL     1      22.546  18.012   5.686  1.00  0.00     0.000 C 
BRANCH  18  19
ATOM     19  C   UNL     1      21.300  18.916   5.619  1.00  0.00     0.000 C 
BRANCH  19  20
ATOM     20  C   UNL     1      21.153  19.751   4.330  1.00  0.00     0.000 C 
BRANCH  20  21
ATOM     21  C   UNL     1      20.770  21.226   4.546  1.00  0.00     0.000 C 
BRANCH  21  22
ATOM     22  C   UNL     1      21.283  21.783   5.885  1.00  0.00     0.000 C 
BRANCH  22  23
ATOM     23  C   UNL     1      20.234  22.640   6.612  1.00  0.00     0.000 C 
BRANCH  23  24
ATOM     24  C   UNL     1      18.804  22.363   6.118  1.00  0.00    -0.000 C 
BRANCH  24  25
ATOM     25  C   UNL     1      17.944  21.644   7.170  1.00  0.00    -0.000 C 
BRANCH  25  26
ATOM     26  C   UNL     1      18.771  21.132   8.362  1.00  0.00    -0.000 C 
BRANCH  26  27
ATOM     27  C   UNL     1      17.918  20.887   9.618  1.00  0.00    -0.000 C 
BRANCH  27  28
ATOM     28  C   UNL     1      18.327  21.712  10.854  1.00  0.00    -0.000 C 
BRANCH  28  29
ATOM     29  C   UNL     1      18.433  23.230  10.619  1.00  0.00    -0.000 C 
BRANCH  29  30
ATOM     30  C   UNL     1      17.105  23.861  10.177  1.00  0.00    -0.000 C 
BRANCH  30  31
ATOM     31  C   UNL     1      17.347  25.084   9.285  1.00  0.00    -0.003 C 
ATOM     32  C   UNL     1      18.786  25.122   8.779  1.00  0.00     0.004 C 
ENDBRANCH  30  31
ENDBRANCH  29  30
ENDBRANCH  28  29
ENDBRANCH  27  28
ENDBRANCH  26  27
ENDBRANCH  25  26
ENDBRANCH  24  25
ENDBRANCH  23  24
ENDBRANCH  22  23
ENDBRANCH  21  22
ENDBRANCH  20  21
ENDBRANCH  19  20
ENDBRANCH  18  19
ENDBRANCH   1  18
TORSDOF 28
ENDMDL
MODEL 8
REMARK VINA RESULT:    -4.207      2.367      5.239
REMARK INTER + INTRA:         -15.318
REMARK INTER:                 -12.228
REMARK INTRA:                  -3.090
REMARK UNBOUND:                -4.224
REMARK SMILES CCCCCCCCCCCCCCCCCCCCCCCCCCCCCC(=O)[O-]
REMARK SMILES IDX 16 1 17 2 18 3 19 4 20 5 21 6 22 7 23 8 24 9 25 10 26 11
REMARK SMILES IDX 27 12 28 13 29 14 30 15 31 16 32 17 15 18 14 19 13 20 12 21
REMARK SMILES IDX 11 22 10 23 9 24 8 25 7 26 6 27 5 28 4 29 3 30 2 31 1 32
REMARK H PARENT
REMARK Flexibility Score: inf
ROOT
ATOM      1  C   UNL     1      22.136  21.134   8.023  1.00  0.00     0.000 C 
ENDROOT
BRANCH   1   2
ATOM      2  C   UNL     1      23.288  20.157   7.720  1.00  0.00     0.000 C 
BRANCH   2   3
ATOM      3  C   UNL     1      22.937  19.007   6.756  1.00  0.00     0.000 C 
BRANCH   3   4
ATOM      4  C   UNL     1      23.832  18.982   5.504  1.00  0.00     0.000 C 
BRANCH   4   5
ATOM      5  C   UNL     1      24.203  17.550   5.066  1.00  0.00     0.000 C 
BRANCH   5   6
ATOM      6  C   UNL     1      25.718  17.308   4.910  1.00  0.00     0.000 C 
BRANCH   6   7
ATOM      7  C   UNL     1      26.129  15.857   4.600  1.00  0.00     0.000 C 
BRANCH   7   8
ATOM      8  C   UNL     1      27.468  15.407   5.217  1.00  0.00     0.000 C 
BRANCH   8   9
ATOM      9  C   UNL     1      28.505  16.537   5.293  1.00  0.00     0.000 C 
BRANCH   9  10
ATOM     10  C   UNL     1      29.889  16.045   4.843  1.00  0.00     0.000 C 
BRANCH  10  11
ATOM     11  C   UNL     1      30.078  14.534   5.059  1.00  0.00     0.000 C 
BRANCH  11  12
ATOM     12  C   UNL     1      30.561  14.198   6.480  1.00  0.00     0.000 C 
BRANCH  12  13
ATOM     13  C   UNL     1      31.016  12.735   6.630  1.00  0.00     0.006 C 
BRANCH  13  14
ATOM     14  C   UNL     1      31.775  12.451   7.940  1.00  0.00     0.053 C 
BRANCH  14  15
ATOM     15  C   UNL     1      33.242  12.735   7.832  1.00  0.00     0.041 C 
ATOM     16  O   UNL     1      34.083  11.824   8.052  1.00  0.00    -0.550 OA
ATOM     17  O   UNL     1      33.680  13.999   7.462  1.00  0.00    -0.550 OA
ENDBRANCH  14  15
ENDBRANCH  13  14
ENDBRANCH  12  13
ENDBRANCH  11  12
ENDBRANCH  10  11
ENDBRANCH   9  10
ENDBRANCH   8   9
ENDBRANCH   7   8
ENDBRANCH   6   7
ENDBRANCH   5   6
ENDBRANCH   4   5
ENDBRANCH   3   4
ENDBRANCH   2   3
ENDBRANCH   1   2
BRANCH   1  18
ATOM     18  C   UNL     1      20.965  21.003   7.034  1.00  0.00     0.000 C 
BRANCH  18  19
ATOM     19  C   UNL     1      21.153  21.851   5.762  1.00  0.00     0.000 C 
BRANCH  19  20
ATOM     20  C   UNL     1      20.380  21.364   4.518  1.00  0.00     0.000 C 
BRANCH  20  21
ATOM     21  C   UNL     1      20.574  19.877   4.167  1.00  0.00     0.000 C 
BRANCH  21  22
ATOM     22  C   UNL     1      19.270  19.068   4.269  1.00  0.00     0.000 C 
BRANCH  22  23
ATOM     23  C   UNL     1      19.093  18.398   5.641  1.00  0.00     0.000 C 
BRANCH  23  24
ATOM     24  C   UNL     1      18.132  19.176   6.556  1.00  0.00    -0.000 C 
BRANCH  24  25
ATOM     25  C   UNL     1      16.875  19.663   5.815  1.00  0.00    -0.000 C 
BRANCH  25  26
ATOM     26  C   UNL     1      16.887  21.181   5.564  1.00  0.00    -0.000 C 
BRANCH  26  27
ATOM     27  C   UNL     1      17.521  21.972   6.722  1.00  0.00    -0.000 C 
BRANCH  27  28
ATOM     28  C   UNL     1      17.782  23.462   6.425  1.00  0.00    -0.000 C 
BRANCH  28  29
ATOM     29  C   UNL     1      17.909  24.361   7.668  1.00  0.00    -0.000 C 
BRANCH  29  30
ATOM     30  C   UNL     1      19.309  24.320   8.297  1.00  0.00    -0.000 C 
BRANCH  30  31
ATOM     31  C   UNL     1      19.240  23.882   9.764  1.00  0.00    -0.003 C 
ATOM     32  C   UNL     1      20.573  23.307  10.233  1.00  0.00     0.004 C 
ENDBRANCH  30  31
ENDBRANCH  29  30
ENDBRANCH  28  29
ENDBRANCH  27  28
ENDBRANCH  26  27
ENDBRANCH  25  26
ENDBRANCH  24  25
ENDBRANCH  23  24
ENDBRANCH  22  23
ENDBRANCH  21  22
ENDBRANCH  20  21
ENDBRANCH  19  20
ENDBRANCH  18  19
ENDBRANCH   1  18
TORSDOF 28
ENDMDL
