MODEL 1
REMARK VINA RESULT:    -0.089      0.000      0.000
REMARK INTER + INTRA:          -0.896
REMARK INTER:                  -0.193
REMARK INTRA:                  -0.703
REMARK UNBOUND:                -0.703
REMARK SMILES CCCCCCCCCCCCCCCCCCCCCC(=O)[O-]
REMARK SMILES IDX 12 1 11 2 10 3 9 4 8 5 7 6 6 7 5 8 4 9 3 10 2 11 1 12 13 13
REMARK SMILES IDX 14 14 15 15 16 16 17 17 18 18 19 19 20 20 21 21 22 22 23 23
REMARK SMILES IDX 24 24
REMARK H PARENT
REMARK Flexibility Score: inf
ROOT
ATOM      1  C   UNL     1       5.445   7.826   2.850  1.00  0.00     0.000 C 
ENDROOT
BRANCH   1   2
ATOM      2  C   UNL     1       5.939   6.439   3.275  1.00  0.00     0.000 C 
BRANCH   2   3
ATOM      3  C   UNL     1       5.371   5.344   2.359  1.00  0.00     0.000 C 
BRANCH   3   4
ATOM      4  C   UNL     1       5.369   3.957   3.023  1.00  0.00    -0.000 C 
BRANCH   4   5
ATOM      5  C   UNL     1       5.748   2.830   2.045  1.00  0.00    -0.000 C 
BRANCH   5   6
ATOM      6  C   UNL     1       7.270   2.686   1.875  1.00  0.00    -0.000 C 
BRANCH   6   7
ATOM      7  C   UNL     1       7.736   1.222   1.957  1.00  0.00    -0.000 C 
BRANCH   7   8
ATOM      8  C   UNL     1       9.013   1.053   2.798  1.00  0.00    -0.000 C 
BRANCH   8   9
ATOM      9  C   UNL     1       9.635  -0.348   2.660  1.00  0.00    -0.000 C 
BRANCH   9  10
ATOM     10  C   UNL     1      11.122  -0.304   2.266  1.00  0.00    -0.000 C 
BRANCH  10  11
ATOM     11  C   UNL     1      11.993  -1.408   2.895  1.00  0.00    -0.003 C 
ATOM     12  C   UNL     1      13.337  -0.890   3.408  1.00  0.00     0.004 C 
ENDBRANCH  10  11
ENDBRANCH   9  10
ENDBRANCH   8   9
ENDBRANCH   7   8
ENDBRANCH   6   7
ENDBRANCH   5   6
ENDBRANCH   4   5
ENDBRANCH   3   4
ENDBRANCH   2   3
ENDBRANCH   1   2
BRANCH   1  13
ATOM     13  C   UNL     1       4.627   8.486   3.970  1.00  0.00     0.000 C 
BRANCH  13  14
ATOM     14  C   UNL     1       3.910   9.768   3.493  1.00  0.00     0.000 C 
BRANCH  14  15
ATOM     15  C   UNL     1       2.403   9.783   3.802  1.00  0.00     0.000 C 
BRANCH  15  16
ATOM     16  C   UNL     1       2.006   8.759   4.878  1.00  0.00     0.000 C 
BRANCH  16  17
ATOM     17  C   UNL     1       0.508   8.414   4.838  1.00  0.00     0.000 C 
BRANCH  17  18
ATOM     18  C   UNL     1      -0.027   8.259   3.405  1.00  0.00     0.000 C 
BRANCH  18  19
ATOM     19  C   UNL     1       0.983   7.583   2.462  1.00  0.00     0.000 C 
BRANCH  19  20
ATOM     20  C   UNL     1       0.710   6.081   2.241  1.00  0.00     0.006 C 
BRANCH  20  21
ATOM     21  C   UNL     1      -0.538   5.601   2.993  1.00  0.00     0.053 C 
BRANCH  21  22
ATOM     22  C   UNL     1      -0.150   4.820   4.208  1.00  0.00     0.041 C 
ATOM     23  O   UNL     1       1.058   4.754   4.560  1.00  0.00    -0.550 OA
ATOM     24  O   UNL     1      -1.125   4.194   4.974  1.00  0.00    -0.550 OA
ENDBRANCH  21  22
ENDBRANCH  20  21
ENDBRANCH  19  20
ENDBRANCH  18  19
ENDBRANCH  17  18
ENDBRANCH  16  17
ENDBRANCH  15  16
ENDBRANCH  14  15
ENDBRANCH  13  14
ENDBRANCH   1  13
TORSDOF 20
ENDMDL
MODEL 2
REMARK VINA RESULT:     0.165      3.912     10.366
REMARK INTER + INTRA:          -0.345
REMARK INTER:                   0.892
REMARK INTRA:                  -1.237
REMARK UNBOUND:                -0.703
REMARK SMILES CCCCCCCCCCCCCCCCCCCCCC(=O)[O-]
REMARK SMILES IDX 12 1 11 2 10 3 9 4 8 5 7 6 6 7 5 8 4 9 3 10 2 11 1 12 13 13
REMARK SMILES IDX 14 14 15 15 16 16 17 17 18 18 19 19 20 20 21 21 22 22 23 23
REMARK SMILES IDX 24 24
REMARK H PARENT
REMARK Flexibility Score: inf
ROOT
ATOM      1  C   UNL     1       5.744   7.002   2.750  1.00  0.00     0.000 C 
ENDROOT
BRANCH   1   2
ATOM      2  C   UNL     1       5.274   8.429   2.445  1.00  0.00     0.000 C 
BRANCH   2   3
ATOM      3  C   UNL     1       3.776   8.594   2.747  1.00  0.00     0.000 C 
BRANCH   3   4
ATOM      4  C   UNL     1       3.509   9.561   3.912  1.00  0.00    -0.000 C 
BRANCH   4   5
ATOM      5  C   UNL     1       2.657   8.927   5.026  1.00  0.00    -0.000 C 
BRANCH   5   6
ATOM      6  C   UNL     1       1.260   9.562   5.132  1.00  0.00    -0.000 C 
BRANCH   6   7
ATOM      7  C   UNL     1       0.682   9.950   3.760  1.00  0.00    -0.000 C 
BRANCH   7   8
ATOM      8  C   UNL     1      -0.574   9.140   3.396  1.00  0.00    -0.000 C 
BRANCH   8   9
ATOM      9  C   UNL     1      -0.245   7.710   2.931  1.00  0.00    -0.000 C 
BRANCH   9  10
ATOM     10  C   UNL     1      -0.922   6.631   3.795  1.00  0.00    -0.000 C 
BRANCH  10  11
ATOM     11  C   UNL     1      -0.587   5.180   3.403  1.00  0.00    -0.003 C 
ATOM     12  C   UNL     1      -0.384   4.265   4.610  1.00  0.00     0.004 C 
ENDBRANCH  10  11
ENDBRANCH   9  10
ENDBRANCH   8   9
ENDBRANCH   7   8
ENDBRANCH   6   7
ENDBRANCH   5   6
ENDBRANCH   4   5
ENDBRANCH   3   4
ENDBRANCH   2   3
ENDBRANCH   1   2
BRANCH   1  13
ATOM     13  C   UNL     1       4.643   6.200   3.461  1.00  0.00     0.000 C 
BRANCH  13  14
ATOM     14  C   UNL     1       4.977   4.695   3.542  1.00  0.00     0.000 C 
BRANCH  14  15
ATOM     15  C   UNL     1       5.320   4.065   2.180  1.00  0.00     0.000 C 
BRANCH  15  16
ATOM     16  C   UNL     1       6.787   3.617   2.084  1.00  0.00     0.000 C 
BRANCH  16  17
ATOM     17  C   UNL     1       6.931   2.091   1.974  1.00  0.00     0.000 C 
BRANCH  17  18
ATOM     18  C   UNL     1       8.398   1.639   1.877  1.00  0.00     0.000 C 
BRANCH  18  19
ATOM     19  C   UNL     1       8.787   0.638   2.978  1.00  0.00     0.000 C 
BRANCH  19  20
ATOM     20  C   UNL     1       9.578  -0.578   2.454  1.00  0.00     0.006 C 
BRANCH  20  21
ATOM     21  C   UNL     1      11.008  -0.205   2.040  1.00  0.00     0.053 C 
BRANCH  21  22
ATOM     22  C   UNL     1      12.002  -0.834   2.963  1.00  0.00     0.041 C 
ATOM     23  O   UNL     1      11.613  -1.432   4.002  1.00  0.00    -0.550 OA
ATOM     24  O   UNL     1      13.357  -0.792   2.660  1.00  0.00    -0.550 OA
ENDBRANCH  21  22
ENDBRANCH  20  21
ENDBRANCH  19  20
ENDBRANCH  18  19
ENDBRANCH  17  18
ENDBRANCH  16  17
ENDBRANCH  15  16
ENDBRANCH  14  15
ENDBRANCH  13  14
ENDBRANCH   1  13
TORSDOF 20
ENDMDL
MODEL 3
REMARK VINA RESULT:     0.752      2.211      3.494
REMARK INTER + INTRA:           0.929
REMARK INTER:                   2.365
REMARK INTRA:                  -1.436
REMARK UNBOUND:                -0.703
REMARK SMILES CCCCCCCCCCCCCCCCCCCCCC(=O)[O-]
REMARK SMILES IDX 12 1 11 2 10 3 9 4 8 5 7 6 6 7 5 8 4 9 3 10 2 11 1 12 13 13
REMARK SMILES IDX 14 14 15 15 16 16 17 17 18 18 19 19 20 20 21 21 22 22 23 23
REMARK SMILES IDX 24 24
REMARK H PARENT
REMARK Flexibility Score: inf
ROOT
ATOM      1  C   UNL     1       5.067   6.178   2.446  1.00  0.00     0.000 C 
ENDROOT
BRANCH   1   2
ATOM      2  C   UNL     1       6.090   5.216   3.061  1.00  0.00     0.000 C 
BRANCH   2   3
ATOM      3  C   UNL     1       5.396   3.996   3.686  1.00  0.00     0.000 C 
BRANCH   3   4
ATOM      4  C   UNL     1       5.118   2.883   2.662  1.00  0.00    -0.000 C 
BRANCH   4   5
ATOM      5  C   UNL     1       6.377   2.468   1.879  1.00  0.00    -0.000 C 
BRANCH   5   6
ATOM      6  C   UNL     1       7.271   1.501   2.672  1.00  0.00    -0.000 C 
BRANCH   6   7
ATOM      7  C   UNL     1       8.660   1.324   2.033  1.00  0.00    -0.000 C 
BRANCH   7   8
ATOM      8  C   UNL     1       9.269  -0.060   2.316  1.00  0.00    -0.000 C 
BRANCH   8   9
ATOM      9  C   UNL     1      10.755  -0.146   1.925  1.00  0.00    -0.000 C 
BRANCH   9  10
ATOM     10  C   UNL     1      11.500  -1.277   2.657  1.00  0.00    -0.000 C 
BRANCH  10  11
ATOM     11  C   UNL     1      12.898  -0.901   3.180  1.00  0.00    -0.003 C 
ATOM     12  C   UNL     1      13.744  -0.156   2.148  1.00  0.00     0.004 C 
ENDBRANCH  10  11
ENDBRANCH   9  10
ENDBRANCH   8   9
ENDBRANCH   7   8
ENDBRANCH   6   7
ENDBRANCH   5   6
ENDBRANCH   4   5
ENDBRANCH   3   4
ENDBRANCH   2   3
ENDBRANCH   1   2
BRANCH   1  13
ATOM     13  C   UNL     1       3.733   6.123   3.207  1.00  0.00     0.000 C 
BRANCH  13  14
ATOM     14  C   UNL     1       2.544   6.579   2.334  1.00  0.00     0.000 C 
BRANCH  14  15
ATOM     15  C   UNL     1       1.281   5.720   2.518  1.00  0.00     0.000 C 
BRANCH  15  16
ATOM     16  C   UNL     1       0.734   5.765   3.953  1.00  0.00     0.000 C 
BRANCH  16  17
ATOM     17  C   UNL     1      -0.339   6.850   4.142  1.00  0.00     0.000 C 
BRANCH  17  18
ATOM     18  C   UNL     1       0.188   8.263   3.844  1.00  0.00     0.000 C 
BRANCH  18  19
ATOM     19  C   UNL     1       1.048   8.831   4.986  1.00  0.00     0.000 C 
BRANCH  19  20
ATOM     20  C   UNL     1       1.825  10.106   4.598  1.00  0.00     0.006 C 
BRANCH  20  21
ATOM     21  C   UNL     1       3.345   9.900   4.659  1.00  0.00     0.053 C 
BRANCH  21  22
ATOM     22  C   UNL     1       3.939   9.967   3.288  1.00  0.00     0.041 C 
ATOM     23  O   UNL     1       5.183  10.110   3.143  1.00  0.00    -0.550 OA
ATOM     24  O   UNL     1       3.126   9.834   2.170  1.00  0.00    -0.550 OA
ENDBRANCH  21  22
ENDBRANCH  20  21
ENDBRANCH  19  20
ENDBRANCH  18  19
ENDBRANCH  17  18
ENDBRANCH  16  17
ENDBRANCH  15  16
ENDBRANCH  14  15
ENDBRANCH  13  14
ENDBRANCH   1  13
TORSDOF 20
ENDMDL
MODEL 4
REMARK VINA RESULT:     0.940      3.498      8.192
REMARK INTER + INTRA:           1.335
REMARK INTER:                   3.065
REMARK INTRA:                  -1.730
REMARK UNBOUND:                -0.703
REMARK SMILES CCCCCCCCCCCCCCCCCCCCCC(=O)[O-]
REMARK SMILES IDX 12 1 11 2 10 3 9 4 8 5 7 6 6 7 5 8 4 9 3 10 2 11 1 12 13 13
REMARK SMILES IDX 14 14 15 15 16 16 17 17 18 18 19 19 20 20 21 21 22 22 23 23
REMARK SMILES IDX 24 24
REMARK H PARENT
REMARK Flexibility Score: inf
ROOT
ATOM      1  C   UNL     1      -0.176   5.678   3.191  1.00  0.00     0.000 C 
ENDROOT
BRANCH   1   2
ATOM      2  C   UNL     1      -0.272   7.207   3.252  1.00  0.00     0.000 C 
BRANCH   2   3
ATOM      3  C   UNL     1       0.639   7.861   2.201  1.00  0.00     0.000 C 
BRANCH   3   4
ATOM      4  C   UNL     1       0.862   9.360   2.459  1.00  0.00    -0.000 C 
BRANCH   4   5
ATOM      5  C   UNL     1       2.353   9.741   2.495  1.00  0.00    -0.000 C 
BRANCH   5   6
ATOM      6  C   UNL     1       2.837  10.094   3.911  1.00  0.00    -0.000 C 
BRANCH   6   7
ATOM      7  C   UNL     1       3.837   9.064   4.467  1.00  0.00    -0.000 C 
BRANCH   7   8
ATOM      8  C   UNL     1       5.200   9.119   3.755  1.00  0.00    -0.000 C 
BRANCH   8   9
ATOM      9  C   UNL     1       5.324   8.077   2.630  1.00  0.00    -0.000 C 
BRANCH   9  10
ATOM     10  C   UNL     1       6.699   8.108   1.938  1.00  0.00    -0.000 C 
BRANCH  10  11
ATOM     11  C   UNL     1       7.623   9.258   2.381  1.00  0.00    -0.003 C 
ATOM     12  C   UNL     1       9.085   9.033   1.997  1.00  0.00     0.004 C 
ENDBRANCH  10  11
ENDBRANCH   9  10
ENDBRANCH   8   9
ENDBRANCH   7   8
ENDBRANCH   6   7
ENDBRANCH   5   6
ENDBRANCH   4   5
ENDBRANCH   3   4
ENDBRANCH   2   3
ENDBRANCH   1   2
BRANCH   1  13
ATOM     13  C   UNL     1       0.377   5.108   4.506  1.00  0.00     0.000 C 
BRANCH  13  14
ATOM     14  C   UNL     1       1.798   4.527   4.340  1.00  0.00     0.000 C 
BRANCH  14  15
ATOM     15  C   UNL     1       2.858   5.584   3.985  1.00  0.00     0.000 C 
BRANCH  15  16
ATOM     16  C   UNL     1       4.233   4.969   3.679  1.00  0.00     0.000 C 
BRANCH  16  17
ATOM     17  C   UNL     1       4.455   4.742   2.175  1.00  0.00     0.000 C 
BRANCH  17  18
ATOM     18  C   UNL     1       5.754   3.974   1.877  1.00  0.00     0.000 C 
BRANCH  18  19
ATOM     19  C   UNL     1       5.703   2.511   2.349  1.00  0.00     0.000 C 
BRANCH  19  20
ATOM     20  C   UNL     1       6.956   1.696   1.968  1.00  0.00     0.006 C 
BRANCH  20  21
ATOM     21  C   UNL     1       7.641   1.077   3.194  1.00  0.00     0.053 C 
BRANCH  21  22
ATOM     22  C   UNL     1       9.059   0.721   2.879  1.00  0.00     0.041 C 
ATOM     23  O   UNL     1       9.623  -0.231   3.482  1.00  0.00    -0.550 OA
ATOM     24  O   UNL     1       9.749   1.416   1.894  1.00  0.00    -0.550 OA
ENDBRANCH  21  22
ENDBRANCH  20  21
ENDBRANCH  19  20
ENDBRANCH  18  19
ENDBRANCH  17  18
ENDBRANCH  16  17
ENDBRANCH  15  16
ENDBRANCH  14  15
ENDBRANCH  13  14
ENDBRANCH   1  13
TORSDOF 20
ENDMDL
MODEL 5
REMARK VINA RESULT:     1.339      4.605      6.157
REMARK INTER + INTRA:           2.202
REMARK INTER:                  -0.621
REMARK INTRA:                   2.824
REMARK UNBOUND:                -0.703
REMARK SMILES CCCCCCCCCCCCCCCCCCCCCC(=O)[O-]
REMARK SMILES IDX 12 1 11 2 10 3 9 4 8 5 7 6 6 7 5 8 4 9 3 10 2 11 1 12 13 13
REMARK SMILES IDX 14 14 15 15 16 16 17 17 18 18 19 19 20 20 21 21 22 22 23 23
REMARK SMILES IDX 24 24
REMARK H PARENT
REMARK Flexibility Score: inf
ROOT
ATOM      1  C   UNL     1       3.696   6.821   2.812  1.00  0.00     0.000 C 
ENDROOT
BRANCH   1   2
ATOM      2  C   UNL     1       4.521   7.717   1.881  1.00  0.00     0.000 C 
BRANCH   2   3
ATOM      3  C   UNL     1       4.101   9.190   2.016  1.00  0.00     0.000 C 
BRANCH   3   4
ATOM      4  C   UNL     1       4.937   9.951   3.058  1.00  0.00    -0.000 C 
BRANCH   4   5
ATOM      5  C   UNL     1       6.310   9.303   3.306  1.00  0.00    -0.000 C 
BRANCH   5   6
ATOM      6  C   UNL     1       7.084   9.045   2.003  1.00  0.00    -0.000 C 
BRANCH   6   7
ATOM      7  C   UNL     1       8.337   9.930   1.875  1.00  0.00    -0.000 C 
BRANCH   7   8
ATOM      8  C   UNL     1       9.633   9.172   2.209  1.00  0.00    -0.000 C 
BRANCH   8   9
ATOM      9  C   UNL     1      10.714  10.084   2.818  1.00  0.00    -0.000 C 
BRANCH   9  10
ATOM     10  C   UNL     1      12.081   9.930   2.128  1.00  0.00    -0.000 C 
BRANCH  10  11
ATOM     11  C   UNL     1      12.756   8.559   2.322  1.00  0.00    -0.003 C 
ATOM     12  C   UNL     1      11.797   7.386   2.118  1.00  0.00     0.004 C 
ENDBRANCH  10  11
ENDBRANCH   9  10
ENDBRANCH   8   9
ENDBRANCH   7   8
ENDBRANCH   6   7
ENDBRANCH   5   6
ENDBRANCH   4   5
ENDBRANCH   3   4
ENDBRANCH   2   3
ENDBRANCH   1   2
BRANCH   1  13
ATOM     13  C   UNL     1       2.316   6.520   2.207  1.00  0.00     0.000 C 
BRANCH  13  14
ATOM     14  C   UNL     1       1.335   7.699   2.377  1.00  0.00     0.000 C 
BRANCH  14  15
ATOM     15  C   UNL     1      -0.135   7.263   2.509  1.00  0.00     0.000 C 
BRANCH  15  16
ATOM     16  C   UNL     1      -1.113   8.267   1.875  1.00  0.00     0.000 C 
BRANCH  16  17
ATOM     17  C   UNL     1      -0.696   9.727   2.115  1.00  0.00     0.000 C 
BRANCH  17  18
ATOM     18  C   UNL     1      -0.760  10.125   3.599  1.00  0.00     0.000 C 
BRANCH  18  19
ATOM     19  C   UNL     1       0.149   9.259   4.488  1.00  0.00     0.000 C 
BRANCH  19  20
ATOM     20  C   UNL     1       0.459   9.896   5.858  1.00  0.00     0.006 C 
BRANCH  20  21
ATOM     21  C   UNL     1       1.964  10.109   6.072  1.00  0.00     0.053 C 
BRANCH  21  22
ATOM     22  C   UNL     1       2.719   8.855   5.765  1.00  0.00     0.041 C 
ATOM     23  O   UNL     1       2.100   7.785   5.522  1.00  0.00    -0.550 OA
ATOM     24  O   UNL     1       4.107   8.874   5.711  1.00  0.00    -0.550 OA
ENDBRANCH  21  22
ENDBRANCH  20  21
ENDBRANCH  19  20
ENDBRANCH  18  19
ENDBRANCH  17  18
ENDBRANCH  16  17
ENDBRANCH  15  16
ENDBRANCH  14  15
ENDBRANCH  13  14
ENDBRANCH   1  13
TORSDOF 20
ENDMDL
MODEL 6
REMARK VINA RESULT:     2.192      4.511      8.941
REMARK INTER + INTRA:           4.053
REMARK INTER:                   4.985
REMARK INTRA:                  -0.932
REMARK UNBOUND:                -0.703
REMARK SMILES CCCCCCCCCCCCCCCCCCCCCC(=O)[O-]
REMARK SMILES IDX 12 1 11 2 10 3 9 4 8 5 7 6 6 7 5 8 4 9 3 10 2 11 1 12 13 13
REMARK SMILES IDX 14 14 15 15 16 16 17 17 18 18 19 19 20 20 21 21 22 22 23 23
REMARK SMILES IDX 24 24
REMARK H PARENT
REMARK Flexibility Score: inf
ROOT
ATOM      1  C   UNL     1      -0.420   4.798   3.103  1.00  0.00     0.000 C 
ENDROOT
BRANCH   1   2
ATOM      2  C   UNL     1      -0.813   5.815   4.180  1.00  0.00     0.000 C 
BRANCH   2   3
ATOM      3  C   UNL     1      -1.125   7.186   3.559  1.00  0.00     0.000 C 
BRANCH   3   4
ATOM      4  C   UNL     1      -0.962   8.342   4.560  1.00  0.00    -0.000 C 
BRANCH   4   5
ATOM      5  C   UNL     1      -0.910   9.719   3.873  1.00  0.00    -0.000 C 
BRANCH   5   6
ATOM      6  C   UNL     1       0.517  10.117   3.460  1.00  0.00    -0.000 C 
BRANCH   6   7
ATOM      7  C   UNL     1       0.914   9.548   2.086  1.00  0.00    -0.000 C 
BRANCH   7   8
ATOM      8  C   UNL     1       2.324   8.933   2.086  1.00  0.00    -0.000 C 
BRANCH   8   9
ATOM      9  C   UNL     1       3.432   9.986   2.262  1.00  0.00    -0.000 C 
BRANCH   9  10
ATOM     10  C   UNL     1       4.260   9.772   3.542  1.00  0.00    -0.000 C 
BRANCH  10  11
ATOM     11  C   UNL     1       3.777   8.620   4.442  1.00  0.00    -0.003 C 
ATOM     12  C   UNL     1       2.712   9.052   5.450  1.00  0.00     0.004 C 
ENDBRANCH  10  11
ENDBRANCH   9  10
ENDBRANCH   8   9
ENDBRANCH   7   8
ENDBRANCH   6   7
ENDBRANCH   5   6
ENDBRANCH   4   5
ENDBRANCH   3   4
ENDBRANCH   2   3
ENDBRANCH   1   2
BRANCH   1  13
ATOM     13  C   UNL     1       0.592   3.780   3.651  1.00  0.00     0.000 C 
BRANCH  13  14
ATOM     14  C   UNL     1       2.038   4.101   3.214  1.00  0.00     0.000 C 
BRANCH  14  15
ATOM     15  C   UNL     1       2.596   5.394   3.834  1.00  0.00     0.000 C 
BRANCH  15  16
ATOM     16  C   UNL     1       3.951   5.804   3.234  1.00  0.00     0.000 C 
BRANCH  16  17
ATOM     17  C   UNL     1       4.383   4.892   2.075  1.00  0.00     0.000 C 
BRANCH  17  18
ATOM     18  C   UNL     1       5.813   4.353   2.246  1.00  0.00     0.000 C 
BRANCH  18  19
ATOM     19  C   UNL     1       6.562   5.012   3.417  1.00  0.00     0.000 C 
BRANCH  19  20
ATOM     20  C   UNL     1       6.611   6.551   3.330  1.00  0.00     0.006 C 
BRANCH  20  21
ATOM     21  C   UNL     1       7.356   7.038   2.080  1.00  0.00     0.053 C 
BRANCH  21  22
ATOM     22  C   UNL     1       8.203   8.227   2.405  1.00  0.00     0.041 C 
ATOM     23  O   UNL     1       9.430   8.082   2.659  1.00  0.00    -0.550 OA
ATOM     24  O   UNL     1       7.650   9.501   2.393  1.00  0.00    -0.550 OA
ENDBRANCH  21  22
ENDBRANCH  20  21
ENDBRANCH  19  20
ENDBRANCH  18  19
ENDBRANCH  17  18
ENDBRANCH  16  17
ENDBRANCH  15  16
ENDBRANCH  14  15
ENDBRANCH  13  14
ENDBRANCH   1  13
TORSDOF 20
ENDMDL
MODEL 7
REMARK VINA RESULT:     2.564      3.661      9.637
REMARK INTER + INTRA:           4.859
REMARK INTER:                   3.755
REMARK INTRA:                   1.104
REMARK UNBOUND:                -0.703
REMARK SMILES CCCCCCCCCCCCCCCCCCCCCC(=O)[O-]
REMARK SMILES IDX 12 1 11 2 10 3 9 4 8 5 7 6 6 7 5 8 4 9 3 10 2 11 1 12 13 13
REMARK SMILES IDX 14 14 15 15 16 16 17 17 18 18 19 19 20 20 21 21 22 22 23 23
REMARK SMILES IDX 24 24
REMARK H PARENT
REMARK Flexibility Score: inf
ROOT
ATOM      1  C   UNL     1       4.418   9.322   3.698  1.00  0.00     0.000 C 
ENDROOT
BRANCH   1   2
ATOM      2  C   UNL     1       3.605   9.491   2.410  1.00  0.00     0.000 C 
BRANCH   2   3
ATOM      3  C   UNL     1       2.737   8.253   2.137  1.00  0.00     0.000 C 
BRANCH   3   4
ATOM      4  C   UNL     1       1.264   8.607   1.876  1.00  0.00    -0.000 C 
BRANCH   4   5
ATOM      5  C   UNL     1       0.291   7.748   2.703  1.00  0.00    -0.000 C 
BRANCH   5   6
ATOM      6  C   UNL     1       0.171   6.312   2.166  1.00  0.00    -0.000 C 
BRANCH   6   7
ATOM      7  C   UNL     1      -0.053   5.279   3.285  1.00  0.00    -0.000 C 
BRANCH   7   8
ATOM      8  C   UNL     1       0.771   5.587   4.547  1.00  0.00    -0.000 C 
BRANCH   8   9
ATOM      9  C   UNL     1       0.257   6.824   5.306  1.00  0.00    -0.000 C 
BRANCH   9  10
ATOM     10  C   UNL     1       1.277   7.977   5.326  1.00  0.00    -0.000 C 
BRANCH  10  11
ATOM     11  C   UNL     1       0.817   9.236   6.083  1.00  0.00    -0.003 C 
ATOM     12  C   UNL     1      -0.154  10.099   5.277  1.00  0.00     0.004 C 
ENDBRANCH  10  11
ENDBRANCH   9  10
ENDBRANCH   8   9
ENDBRANCH   7   8
ENDBRANCH   6   7
ENDBRANCH   5   6
ENDBRANCH   4   5
ENDBRANCH   3   4
ENDBRANCH   2   3
ENDBRANCH   1   2
BRANCH   1  13
ATOM     13  C   UNL     1       4.482   7.846   4.119  1.00  0.00     0.000 C 
BRANCH  13  14
ATOM     14  C   UNL     1       4.701   6.904   2.915  1.00  0.00     0.000 C 
BRANCH  14  15
ATOM     15  C   UNL     1       5.339   5.557   3.295  1.00  0.00     0.000 C 
BRANCH  15  16
ATOM     16  C   UNL     1       5.203   4.501   2.186  1.00  0.00     0.000 C 
BRANCH  16  17
ATOM     17  C   UNL     1       5.614   3.096   2.656  1.00  0.00     0.000 C 
BRANCH  17  18
ATOM     18  C   UNL     1       6.936   2.624   2.029  1.00  0.00     0.000 C 
BRANCH  18  19
ATOM     19  C   UNL     1       7.546   1.417   2.761  1.00  0.00     0.000 C 
BRANCH  19  20
ATOM     20  C   UNL     1       8.612   0.668   1.935  1.00  0.00     0.006 C 
BRANCH  20  21
ATOM     21  C   UNL     1       9.869   0.355   2.757  1.00  0.00     0.053 C 
BRANCH  21  22
ATOM     22  C   UNL     1      10.491  -0.925   2.297  1.00  0.00     0.041 C 
ATOM     23  O   UNL     1      11.745  -1.038   2.244  1.00  0.00    -0.550 OA
ATOM     24  O   UNL     1       9.688  -2.008   1.961  1.00  0.00    -0.550 OA
ENDBRANCH  21  22
ENDBRANCH  20  21
ENDBRANCH  19  20
ENDBRANCH  18  19
ENDBRANCH  17  18
ENDBRANCH  16  17
ENDBRANCH  15  16
ENDBRANCH  14  15
ENDBRANCH  13  14
ENDBRANCH   1  13
TORSDOF 20
ENDMDL
