MODEL 1
REMARK VINA RESULT:    14.735      0.000      0.000
REMARK INTER + INTRA:          27.607
REMARK INTER:                  28.517
REMARK INTRA:                  -0.910
REMARK UNBOUND:                -0.910
REMARK SMILES CCCCCCCCCCCCCCCCCC(=O)[O-]
REMARK SMILES IDX 10 1 11 2 12 3 13 4 14 5 15 6 16 7 17 8 18 9 19 10 20 11
REMARK SMILES IDX 9 12 8 13 7 14 6 15 5 16 4 17 3 18 2 19 1 20
REMARK H PARENT
REMARK Flexibility Score: inf
ROOT
ATOM      1  C   UNL     1     -12.400   3.505 -17.419  1.00  0.00     0.000 C 
ENDROOT
BRANCH   1   2
ATOM      2  C   UNL     1     -13.402   3.500 -18.586  1.00  0.00     0.000 C 
BRANCH   2   3
ATOM      3  C   UNL     1     -14.328   4.727 -18.572  1.00  0.00     0.000 C 
BRANCH   3   4
ATOM      4  C   UNL     1     -14.476   5.370 -19.962  1.00  0.00     0.000 C 
BRANCH   4   5
ATOM      5  C   UNL     1     -15.440   6.566 -19.958  1.00  0.00     0.000 C 
BRANCH   5   6
ATOM      6  C   UNL     1     -14.722   7.901 -19.697  1.00  0.00     0.000 C 
BRANCH   6   7
ATOM      7  C   UNL     1     -14.830   8.358 -18.230  1.00  0.00     0.006 C 
BRANCH   7   8
ATOM      8  C   UNL     1     -13.480   8.455 -17.500  1.00  0.00     0.053 C 
BRANCH   8   9
ATOM      9  C   UNL     1     -13.582   8.024 -16.070  1.00  0.00     0.041 C 
ATOM     10  O   UNL     1     -12.854   7.094 -15.635  1.00  0.00    -0.550 OA
ATOM     11  O   UNL     1     -14.508   8.626 -15.226  1.00  0.00    -0.550 OA
ENDBRANCH   8   9
ENDBRANCH   7   8
ENDBRANCH   6   7
ENDBRANCH   5   6
ENDBRANCH   4   5
ENDBRANCH   3   4
ENDBRANCH   2   3
ENDBRANCH   1   2
BRANCH   1  12
ATOM     12  C   UNL     1     -11.817   2.111 -17.131  1.00  0.00     0.000 C 
BRANCH  12  13
ATOM     13  C   UNL     1     -12.488   1.008 -17.968  1.00  0.00    -0.000 C 
BRANCH  13  14
ATOM     14  C   UNL     1     -12.152  -0.404 -17.461  1.00  0.00    -0.000 C 
BRANCH  14  15
ATOM     15  C   UNL     1     -10.900  -0.992 -18.129  1.00  0.00    -0.000 C 
BRANCH  15  16
ATOM     16  C   UNL     1      -9.688  -0.912 -17.191  1.00  0.00    -0.000 C 
BRANCH  16  17
ATOM     17  C   UNL     1      -8.378  -1.121 -17.965  1.00  0.00    -0.000 C 
BRANCH  17  18
ATOM     18  C   UNL     1      -7.144  -0.602 -17.205  1.00  0.00    -0.000 C 
BRANCH  18  19
ATOM     19  C   UNL     1      -7.321  -0.494 -15.680  1.00  0.00    -0.003 C 
ATOM     20  C   UNL     1      -6.881  -1.756 -14.937  1.00  0.00     0.004 C 
ENDBRANCH  18  19
ENDBRANCH  17  18
ENDBRANCH  16  17
ENDBRANCH  15  16
ENDBRANCH  14  15
ENDBRANCH  13  14
ENDBRANCH  12  13
ENDBRANCH   1  12
TORSDOF 16
ENDMDL
MODEL 2
REMARK VINA RESULT:    15.202      1.851      2.775
REMARK INTER + INTRA:          28.512
REMARK INTER:                  29.457
REMARK INTRA:                  -0.945
REMARK UNBOUND:                -0.910
REMARK SMILES CCCCCCCCCCCCCCCCCC(=O)[O-]
REMARK SMILES IDX 10 1 11 2 12 3 13 4 14 5 15 6 16 7 17 8 18 9 19 10 20 11
REMARK SMILES IDX 9 12 8 13 7 14 6 15 5 16 4 17 3 18 2 19 1 20
REMARK H PARENT
REMARK Flexibility Score: inf
ROOT
ATOM      1  C   UNL     1     -12.700   3.487 -17.714  1.00  0.00     0.000 C 
ENDROOT
BRANCH   1   2
ATOM      2  C   UNL     1     -11.551   3.671 -16.707  1.00  0.00     0.000 C 
BRANCH   2   3
ATOM      3  C   UNL     1     -11.468   5.107 -16.165  1.00  0.00     0.000 C 
BRANCH   3   4
ATOM      4  C   UNL     1     -12.730   5.930 -16.479  1.00  0.00     0.000 C 
BRANCH   4   5
ATOM      5  C   UNL     1     -13.017   6.998 -15.413  1.00  0.00     0.000 C 
BRANCH   5   6
ATOM      6  C   UNL     1     -13.839   8.175 -15.965  1.00  0.00     0.000 C 
BRANCH   6   7
ATOM      7  C   UNL     1     -13.695   8.338 -17.489  1.00  0.00     0.006 C 
BRANCH   7   8
ATOM      8  C   UNL     1     -15.024   8.262 -18.259  1.00  0.00     0.053 C 
BRANCH   8   9
ATOM      9  C   UNL     1     -14.850   7.671 -19.624  1.00  0.00     0.041 C 
ATOM     10  O   UNL     1     -15.276   6.512 -19.872  1.00  0.00    -0.550 OA
ATOM     11  O   UNL     1     -14.185   8.386 -20.612  1.00  0.00    -0.550 OA
ENDBRANCH   8   9
ENDBRANCH   7   8
ENDBRANCH   6   7
ENDBRANCH   5   6
ENDBRANCH   4   5
ENDBRANCH   3   4
ENDBRANCH   2   3
ENDBRANCH   1   2
BRANCH   1  12
ATOM     12  C   UNL     1     -13.040   2.008 -17.964  1.00  0.00     0.000 C 
BRANCH  12  13
ATOM     13  C   UNL     1     -12.067   1.052 -17.251  1.00  0.00    -0.000 C 
BRANCH  13  14
ATOM     14  C   UNL     1     -12.258  -0.412 -17.681  1.00  0.00    -0.000 C 
BRANCH  14  15
ATOM     15  C   UNL     1     -10.959  -1.055 -18.189  1.00  0.00    -0.000 C 
BRANCH  15  16
ATOM     16  C   UNL     1      -9.767  -0.651 -17.311  1.00  0.00    -0.000 C 
BRANCH  16  17
ATOM     17  C   UNL     1      -8.491  -1.389 -17.744  1.00  0.00    -0.000 C 
BRANCH  17  18
ATOM     18  C   UNL     1      -7.210  -0.761 -17.163  1.00  0.00    -0.000 C 
BRANCH  18  19
ATOM     19  C   UNL     1      -7.240  -0.517 -15.644  1.00  0.00    -0.003 C 
ATOM     20  C   UNL     1      -6.994  -1.786 -14.829  1.00  0.00     0.004 C 
ENDBRANCH  18  19
ENDBRANCH  17  18
ENDBRANCH  16  17
ENDBRANCH  15  16
ENDBRANCH  14  15
ENDBRANCH  13  14
ENDBRANCH  12  13
ENDBRANCH   1  12
TORSDOF 16
ENDMDL
MODEL 3
REMARK VINA RESULT:    15.408      5.395      7.885
REMARK INTER + INTRA:          28.911
REMARK INTER:                  29.729
REMARK INTRA:                  -0.818
REMARK UNBOUND:                -0.910
REMARK SMILES CCCCCCCCCCCCCCCCCC(=O)[O-]
REMARK SMILES IDX 10 1 11 2 12 3 13 4 14 5 15 6 16 7 17 8 18 9 19 10 20 11
REMARK SMILES IDX 9 12 8 13 7 14 6 15 5 16 4 17 3 18 2 19 1 20
REMARK H PARENT
REMARK Flexibility Score: inf
ROOT
ATOM      1  C   UNL     1     -13.435  -1.971 -16.558  1.00  0.00     0.000 C 
ENDROOT
BRANCH   1   2
ATOM      2  C   UNL     1     -14.582  -2.500 -15.678  1.00  0.00     0.000 C 
BRANCH   2   3
ATOM      3  C   UNL     1     -14.353  -3.948 -15.220  1.00  0.00     0.000 C 
BRANCH   3   4
ATOM      4  C   UNL     1     -13.985  -4.044 -13.728  1.00  0.00     0.000 C 
BRANCH   4   5
ATOM      5  C   UNL     1     -14.947  -3.247 -12.833  1.00  0.00     0.000 C 
BRANCH   5   6
ATOM      6  C   UNL     1     -14.869  -3.676 -11.357  1.00  0.00     0.000 C 
BRANCH   6   7
ATOM      7  C   UNL     1     -14.400  -2.538 -10.431  1.00  0.00     0.006 C 
BRANCH   7   8
ATOM      8  C   UNL     1     -15.263  -1.268 -10.509  1.00  0.00     0.053 C 
BRANCH   8   9
ATOM      9  C   UNL     1     -14.429  -0.026 -10.591  1.00  0.00     0.041 C 
ATOM     10  O   UNL     1     -14.683   0.852 -11.457  1.00  0.00    -0.550 OA
ATOM     11  O   UNL     1     -13.348   0.144  -9.734  1.00  0.00    -0.550 OA
ENDBRANCH   8   9
ENDBRANCH   7   8
ENDBRANCH   6   7
ENDBRANCH   5   6
ENDBRANCH   4   5
ENDBRANCH   3   4
ENDBRANCH   2   3
ENDBRANCH   1   2
BRANCH   1  12
ATOM     12  C   UNL     1     -13.261  -0.447 -16.454  1.00  0.00     0.000 C 
BRANCH  12  13
ATOM     13  C   UNL     1     -12.195   0.091 -17.424  1.00  0.00    -0.000 C 
BRANCH  13  14
ATOM     14  C   UNL     1     -11.716  -0.973 -18.424  1.00  0.00    -0.000 C 
BRANCH  14  15
ATOM     15  C   UNL     1     -10.415  -1.660 -17.982  1.00  0.00    -0.000 C 
BRANCH  15  16
ATOM     16  C   UNL     1      -9.499  -0.676 -17.242  1.00  0.00    -0.000 C 
BRANCH  16  17
ATOM     17  C   UNL     1      -8.088  -0.675 -17.850  1.00  0.00    -0.000 C 
BRANCH  17  18
ATOM     18  C   UNL     1      -6.978  -0.600 -16.786  1.00  0.00    -0.000 C 
BRANCH  18  19
ATOM     19  C   UNL     1      -7.046  -1.690 -15.702  1.00  0.00    -0.003 C 
ATOM     20  C   UNL     1      -7.408  -1.139 -14.322  1.00  0.00     0.004 C 
ENDBRANCH  18  19
ENDBRANCH  17  18
ENDBRANCH  16  17
ENDBRANCH  15  16
ENDBRANCH  14  15
ENDBRANCH  13  14
ENDBRANCH  12  13
ENDBRANCH   1  12
TORSDOF 16
ENDMDL
MODEL 4
REMARK VINA RESULT:    15.503      1.986      3.129
REMARK INTER + INTRA:          29.095
REMARK INTER:                  29.985
REMARK INTRA:                  -0.891
REMARK UNBOUND:                -0.910
REMARK SMILES CCCCCCCCCCCCCCCCCC(=O)[O-]
REMARK SMILES IDX 10 1 11 2 12 3 13 4 14 5 15 6 16 7 17 8 18 9 19 10 20 11
REMARK SMILES IDX 9 12 8 13 7 14 6 15 5 16 4 17 3 18 2 19 1 20
REMARK H PARENT
REMARK Flexibility Score: inf
ROOT
ATOM      1  C   UNL     1     -11.933   4.637 -17.050  1.00  0.00     0.000 C 
ENDROOT
BRANCH   1   2
ATOM      2  C   UNL     1     -12.186   5.508 -15.807  1.00  0.00     0.000 C 
BRANCH   2   3
ATOM      3  C   UNL     1     -12.440   6.982 -16.162  1.00  0.00     0.000 C 
BRANCH   3   4
ATOM      4  C   UNL     1     -13.548   7.613 -15.301  1.00  0.00     0.000 C 
BRANCH   4   5
ATOM      5  C   UNL     1     -14.427   8.591 -16.095  1.00  0.00     0.000 C 
BRANCH   5   6
ATOM      6  C   UNL     1     -13.989   8.715 -17.565  1.00  0.00     0.000 C 
BRANCH   6   7
ATOM      7  C   UNL     1     -15.082   8.263 -18.551  1.00  0.00     0.006 C 
BRANCH   7   8
ATOM      8  C   UNL     1     -14.541   7.703 -19.877  1.00  0.00     0.053 C 
BRANCH   8   9
ATOM      9  C   UNL     1     -15.075   6.334 -20.169  1.00  0.00     0.041 C 
ATOM     10  O   UNL     1     -15.728   6.119 -21.223  1.00  0.00    -0.550 OA
ATOM     11  O   UNL     1     -14.881   5.303 -19.257  1.00  0.00    -0.550 OA
ENDBRANCH   8   9
ENDBRANCH   7   8
ENDBRANCH   6   7
ENDBRANCH   5   6
ENDBRANCH   4   5
ENDBRANCH   3   4
ENDBRANCH   2   3
ENDBRANCH   1   2
BRANCH   1  12
ATOM     12  C   UNL     1     -11.623   3.174 -16.697  1.00  0.00     0.000 C 
BRANCH  12  13
ATOM     13  C   UNL     1     -12.293   2.180 -17.661  1.00  0.00    -0.000 C 
BRANCH  13  14
ATOM     14  C   UNL     1     -12.237   0.731 -17.148  1.00  0.00    -0.000 C 
BRANCH  14  15
ATOM     15  C   UNL     1     -12.074  -0.293 -18.281  1.00  0.00    -0.000 C 
BRANCH  15  16
ATOM     16  C   UNL     1     -11.002  -1.333 -17.931  1.00  0.00    -0.000 C 
BRANCH  16  17
ATOM     17  C   UNL     1      -9.807  -0.674 -17.225  1.00  0.00    -0.000 C 
BRANCH  17  18
ATOM     18  C   UNL     1      -8.487  -1.434 -17.447  1.00  0.00    -0.000 C 
BRANCH  18  19
ATOM     19  C   UNL     1      -7.254  -0.799 -16.782  1.00  0.00    -0.003 C 
ATOM     20  C   UNL     1      -7.118  -1.162 -15.303  1.00  0.00     0.004 C 
ENDBRANCH  18  19
ENDBRANCH  17  18
ENDBRANCH  16  17
ENDBRANCH  15  16
ENDBRANCH  14  15
ENDBRANCH  13  14
ENDBRANCH  12  13
ENDBRANCH   1  12
TORSDOF 16
ENDMDL
MODEL 5
REMARK VINA RESULT:    15.873      3.218      8.962
REMARK INTER + INTRA:          29.810
REMARK INTER:                  30.915
REMARK INTRA:                  -1.105
REMARK UNBOUND:                -0.910
REMARK SMILES CCCCCCCCCCCCCCCCCC(=O)[O-]
REMARK SMILES IDX 10 1 11 2 12 3 13 4 14 5 15 6 16 7 17 8 18 9 19 10 20 11
REMARK SMILES IDX 9 12 8 13 7 14 6 15 5 16 4 17 3 18 2 19 1 20
REMARK H PARENT
REMARK Flexibility Score: inf
ROOT
ATOM      1  C   UNL     1     -13.337   2.879 -18.492  1.00  0.00     0.000 C 
ENDROOT
BRANCH   1   2
ATOM      2  C   UNL     1     -12.236   2.475 -17.495  1.00  0.00     0.000 C 
BRANCH   2   3
ATOM      3  C   UNL     1     -12.363   1.013 -17.039  1.00  0.00     0.000 C 
BRANCH   3   4
ATOM      4  C   UNL     1     -12.199   0.017 -18.200  1.00  0.00     0.000 C 
BRANCH   4   5
ATOM      5  C   UNL     1     -11.950  -1.419 -17.714  1.00  0.00     0.000 C 
BRANCH   5   6
ATOM      6  C   UNL     1     -10.569  -1.952 -18.133  1.00  0.00     0.000 C 
BRANCH   6   7
ATOM      7  C   UNL     1      -9.432  -0.959 -17.830  1.00  0.00     0.006 C 
BRANCH   7   8
ATOM      8  C   UNL     1      -8.117  -1.622 -17.389  1.00  0.00     0.053 C 
BRANCH   8   9
ATOM      9  C   UNL     1      -7.621  -1.076 -16.086  1.00  0.00     0.041 C 
ATOM     10  O   UNL     1      -7.661   0.163 -15.862  1.00  0.00    -0.550 OA
ATOM     11  O   UNL     1      -7.081  -1.930 -15.133  1.00  0.00    -0.550 OA
ENDBRANCH   8   9
ENDBRANCH   7   8
ENDBRANCH   6   7
ENDBRANCH   5   6
ENDBRANCH   4   5
ENDBRANCH   3   4
ENDBRANCH   2   3
ENDBRANCH   1   2
BRANCH   1  12
ATOM     12  C   UNL     1     -13.372   4.393 -18.756  1.00  0.00     0.000 C 
BRANCH  12  13
ATOM     13  C   UNL     1     -14.805   4.930 -18.917  1.00  0.00    -0.000 C 
BRANCH  13  14
ATOM     14  C   UNL     1     -14.967   5.812 -20.166  1.00  0.00    -0.000 C 
BRANCH  14  15
ATOM     15  C   UNL     1     -15.425   7.239 -19.829  1.00  0.00    -0.000 C 
BRANCH  15  16
ATOM     16  C   UNL     1     -14.279   8.052 -19.213  1.00  0.00    -0.000 C 
BRANCH  16  17
ATOM     17  C   UNL     1     -14.638   8.522 -17.795  1.00  0.00    -0.000 C 
BRANCH  17  18
ATOM     18  C   UNL     1     -13.411   8.630 -16.871  1.00  0.00    -0.000 C 
BRANCH  18  19
ATOM     19  C   UNL     1     -13.348   7.576 -15.753  1.00  0.00    -0.003 C 
ATOM     20  C   UNL     1     -12.301   6.492 -16.010  1.00  0.00     0.004 C 
ENDBRANCH  18  19
ENDBRANCH  17  18
ENDBRANCH  16  17
ENDBRANCH  15  16
ENDBRANCH  14  15
ENDBRANCH  13  14
ENDBRANCH  12  13
ENDBRANCH   1  12
TORSDOF 16
ENDMDL
MODEL 6
REMARK VINA RESULT:    16.009      3.325      9.193
REMARK INTER + INTRA:          30.073
REMARK INTER:                  31.096
REMARK INTRA:                  -1.024
REMARK UNBOUND:                -0.910
REMARK SMILES CCCCCCCCCCCCCCCCCC(=O)[O-]
REMARK SMILES IDX 10 1 11 2 12 3 13 4 14 5 15 6 16 7 17 8 18 9 19 10 20 11
REMARK SMILES IDX 9 12 8 13 7 14 6 15 5 16 4 17 3 18 2 19 1 20
REMARK H PARENT
REMARK Flexibility Score: inf
ROOT
ATOM      1  C   UNL     1     -13.265   2.027 -18.279  1.00  0.00     0.000 C 
ENDROOT
BRANCH   1   2
ATOM      2  C   UNL     1     -12.228   1.201 -17.498  1.00  0.00     0.000 C 
BRANCH   2   3
ATOM      3  C   UNL     1     -12.757  -0.187 -17.104  1.00  0.00     0.000 C 
BRANCH   3   4
ATOM      4  C   UNL     1     -11.991  -1.329 -17.797  1.00  0.00     0.000 C 
BRANCH   4   5
ATOM      5  C   UNL     1     -10.581  -0.908 -18.239  1.00  0.00     0.000 C 
BRANCH   5   6
ATOM      6  C   UNL     1      -9.512  -1.228 -17.180  1.00  0.00     0.000 C 
BRANCH   6   7
ATOM      7  C   UNL     1      -8.081  -1.180 -17.747  1.00  0.00     0.006 C 
BRANCH   7   8
ATOM      8  C   UNL     1      -7.065  -0.476 -16.832  1.00  0.00     0.053 C 
BRANCH   8   9
ATOM      9  C   UNL     1      -7.120  -0.994 -15.428  1.00  0.00     0.041 C 
ATOM     10  O   UNL     1      -6.967  -2.222 -15.198  1.00  0.00    -0.550 OA
ATOM     11  O   UNL     1      -7.377  -0.124 -14.375  1.00  0.00    -0.550 OA
ENDBRANCH   8   9
ENDBRANCH   7   8
ENDBRANCH   6   7
ENDBRANCH   5   6
ENDBRANCH   4   5
ENDBRANCH   3   4
ENDBRANCH   2   3
ENDBRANCH   1   2
BRANCH   1  12
ATOM     12  C   UNL     1     -12.935   3.529 -18.298  1.00  0.00     0.000 C 
BRANCH  12  13
ATOM     13  C   UNL     1     -14.156   4.404 -17.965  1.00  0.00    -0.000 C 
BRANCH  13  14
ATOM     14  C   UNL     1     -14.970   4.781 -19.214  1.00  0.00    -0.000 C 
BRANCH  14  15
ATOM     15  C   UNL     1     -14.349   5.949 -19.996  1.00  0.00    -0.000 C 
BRANCH  15  16
ATOM     16  C   UNL     1     -15.308   7.145 -20.048  1.00  0.00    -0.000 C 
BRANCH  16  17
ATOM     17  C   UNL     1     -15.258   7.948 -18.739  1.00  0.00    -0.000 C 
BRANCH  17  18
ATOM     18  C   UNL     1     -13.854   8.497 -18.427  1.00  0.00    -0.000 C 
BRANCH  18  19
ATOM     19  C   UNL     1     -13.358   8.230 -16.995  1.00  0.00    -0.003 C 
ATOM     20  C   UNL     1     -14.381   8.612 -15.926  1.00  0.00     0.004 C 
ENDBRANCH  18  19
ENDBRANCH  17  18
ENDBRANCH  16  17
ENDBRANCH  15  16
ENDBRANCH  14  15
ENDBRANCH  13  14
ENDBRANCH  12  13
ENDBRANCH   1  12
TORSDOF 16
ENDMDL
MODEL 7
REMARK VINA RESULT:    16.047      5.719      8.803
REMARK INTER + INTRA:          30.146
REMARK INTER:                  30.993
REMARK INTRA:                  -0.847
REMARK UNBOUND:                -0.910
REMARK SMILES CCCCCCCCCCCCCCCCCC(=O)[O-]
REMARK SMILES IDX 10 1 11 2 12 3 13 4 14 5 15 6 16 7 17 8 18 9 19 10 20 11
REMARK SMILES IDX 9 12 8 13 7 14 6 15 5 16 4 17 3 18 2 19 1 20
REMARK H PARENT
REMARK Flexibility Score: inf
ROOT
ATOM      1  C   UNL     1     -14.453  -2.714 -16.046  1.00  0.00     0.000 C 
ENDROOT
BRANCH   1   2
ATOM      2  C   UNL     1     -13.234  -2.002 -16.659  1.00  0.00     0.000 C 
BRANCH   2   3
ATOM      3  C   UNL     1     -13.350  -0.471 -16.590  1.00  0.00     0.000 C 
BRANCH   3   4
ATOM      4  C   UNL     1     -12.226   0.241 -17.363  1.00  0.00     0.000 C 
BRANCH   4   5
ATOM      5  C   UNL     1     -11.857  -0.484 -18.666  1.00  0.00     0.000 C 
BRANCH   5   6
ATOM      6  C   UNL     1     -10.556  -1.295 -18.540  1.00  0.00     0.000 C 
BRANCH   6   7
ATOM      7  C   UNL     1      -9.633  -0.769 -17.424  1.00  0.00     0.006 C 
BRANCH   7   8
ATOM      8  C   UNL     1      -8.467  -1.709 -17.077  1.00  0.00     0.053 C 
BRANCH   8   9
ATOM      9  C   UNL     1      -7.422  -1.027 -16.248  1.00  0.00     0.041 C 
ATOM     10  O   UNL     1      -6.880   0.033 -16.659  1.00  0.00    -0.550 OA
ATOM     11  O   UNL     1      -7.022  -1.581 -15.039  1.00  0.00    -0.550 OA
ENDBRANCH   8   9
ENDBRANCH   7   8
ENDBRANCH   6   7
ENDBRANCH   5   6
ENDBRANCH   4   5
ENDBRANCH   3   4
ENDBRANCH   2   3
ENDBRANCH   1   2
BRANCH   1  12
ATOM     12  C   UNL     1     -14.066  -3.711 -14.942  1.00  0.00     0.000 C 
BRANCH  12  13
ATOM     13  C   UNL     1     -15.024  -3.660 -13.739  1.00  0.00    -0.000 C 
BRANCH  13  14
ATOM     14  C   UNL     1     -14.294  -3.823 -12.396  1.00  0.00    -0.000 C 
BRANCH  14  15
ATOM     15  C   UNL     1     -15.075  -3.220 -11.219  1.00  0.00    -0.000 C 
BRANCH  15  16
ATOM     16  C   UNL     1     -14.127  -2.799 -10.089  1.00  0.00    -0.000 C 
BRANCH  16  17
ATOM     17  C   UNL     1     -14.298  -1.309  -9.753  1.00  0.00    -0.000 C 
BRANCH  17  18
ATOM     18  C   UNL     1     -15.142  -0.554 -10.796  1.00  0.00    -0.000 C 
BRANCH  18  19
ATOM     19  C   UNL     1     -14.705   0.899 -11.053  1.00  0.00    -0.003 C 
ATOM     20  C   UNL     1     -13.228   1.143 -10.745  1.00  0.00     0.004 C 
ENDBRANCH  18  19
ENDBRANCH  17  18
ENDBRANCH  16  17
ENDBRANCH  15  16
ENDBRANCH  14  15
ENDBRANCH  13  14
ENDBRANCH  12  13
ENDBRANCH   1  12
TORSDOF 16
ENDMDL
MODEL 8
REMARK VINA RESULT:    16.124      1.691      2.560
REMARK INTER + INTRA:          30.295
REMARK INTER:                  31.014
REMARK INTRA:                  -0.719
REMARK UNBOUND:                -0.910
REMARK SMILES CCCCCCCCCCCCCCCCCC(=O)[O-]
REMARK SMILES IDX 10 1 11 2 12 3 13 4 14 5 15 6 16 7 17 8 18 9 19 10 20 11
REMARK SMILES IDX 9 12 8 13 7 14 6 15 5 16 4 17 3 18 2 19 1 20
REMARK H PARENT
REMARK Flexibility Score: inf
ROOT
ATOM      1  C   UNL     1     -12.225   1.272 -17.156  1.00  0.00     0.000 C 
ENDROOT
BRANCH   1   2
ATOM      2  C   UNL     1     -12.794   2.270 -18.181  1.00  0.00     0.000 C 
BRANCH   2   3
ATOM      3  C   UNL     1     -12.645   3.731 -17.725  1.00  0.00     0.000 C 
BRANCH   3   4
ATOM      4  C   UNL     1     -11.661   3.885 -16.551  1.00  0.00     0.000 C 
BRANCH   4   5
ATOM      5  C   UNL     1     -11.351   5.355 -16.233  1.00  0.00     0.000 C 
BRANCH   5   6
ATOM      6  C   UNL     1     -12.624   6.208 -16.091  1.00  0.00     0.000 C 
BRANCH   6   7
ATOM      7  C   UNL     1     -12.380   7.696 -16.405  1.00  0.00     0.006 C 
BRANCH   7   8
ATOM      8  C   UNL     1     -13.620   8.440 -16.928  1.00  0.00     0.053 C 
BRANCH   8   9
ATOM      9  C   UNL     1     -14.597   8.743 -15.834  1.00  0.00     0.041 C 
ATOM     10  O   UNL     1     -14.359   8.378 -14.653  1.00  0.00    -0.550 OA
ATOM     11  O   UNL     1     -15.787   9.396 -16.125  1.00  0.00    -0.550 OA
ENDBRANCH   8   9
ENDBRANCH   7   8
ENDBRANCH   6   7
ENDBRANCH   5   6
ENDBRANCH   4   5
ENDBRANCH   3   4
ENDBRANCH   2   3
ENDBRANCH   1   2
BRANCH   1  12
ATOM     12  C   UNL     1     -12.488  -0.192 -17.545  1.00  0.00     0.000 C 
BRANCH  12  13
ATOM     13  C   UNL     1     -11.561  -0.678 -18.672  1.00  0.00    -0.000 C 
BRANCH  13  14
ATOM     14  C   UNL     1     -10.674  -1.857 -18.239  1.00  0.00    -0.000 C 
BRANCH  14  15
ATOM     15  C   UNL     1      -9.439  -1.409 -17.444  1.00  0.00    -0.000 C 
BRANCH  15  16
ATOM     16  C   UNL     1      -8.490  -0.584 -18.323  1.00  0.00    -0.000 C 
BRANCH  16  17
ATOM     17  C   UNL     1      -7.097  -0.480 -17.682  1.00  0.00    -0.000 C 
BRANCH  17  18
ATOM     18  C   UNL     1      -6.891  -1.481 -16.531  1.00  0.00    -0.000 C 
BRANCH  18  19
ATOM     19  C   UNL     1      -6.957  -0.870 -15.121  1.00  0.00    -0.003 C 
ATOM     20  C   UNL     1      -7.344  -1.885 -14.046  1.00  0.00     0.004 C 
ENDBRANCH  18  19
ENDBRANCH  17  18
ENDBRANCH  16  17
ENDBRANCH  15  16
ENDBRANCH  14  15
ENDBRANCH  13  14
ENDBRANCH  12  13
ENDBRANCH   1  12
TORSDOF 16
ENDMDL
