MODEL 1
REMARK VINA RESULT:    -3.889      0.000      0.000
REMARK INTER + INTRA:          -3.889
REMARK INTER:                  -3.889
REMARK INTRA:                   0.000
REMARK UNBOUND:                 0.000
REMARK SMILES CC1(C)C(=O)[C@@]2(C)CC[C@@H]1C2
REMARK SMILES IDX 1 1 2 2 10 3 9 4 8 5 6 6 11 7 4 8 5 9 7 10 3 11
REMARK H PARENT
REMARK Flexibility Score: inf
ROOT
ATOM      1  C   UNL     1     166.104 158.573 171.497  1.00  0.00     0.020 C 
ATOM      2  C   UNL     1     167.154 158.541 170.364  1.00  0.00     0.027 C 
ATOM      3  C   UNL     1     168.193 159.719 170.415  1.00  0.00     0.003 C 
ATOM      4  C   UNL     1     167.482 161.084 170.602  1.00  0.00     0.005 C 
ATOM      5  C   UNL     1     166.738 161.277 169.260  1.00  0.00     0.015 C 
ATOM      6  C   UNL     1     167.196 160.054 168.443  1.00  0.00     0.027 C 
ATOM      7  C   UNL     1     168.611 159.859 168.951  1.00  0.00     0.019 C 
ATOM      8  C   UNL     1     166.533 158.839 169.030  1.00  0.00     0.144 C 
ATOM      9  O   UNL     1     165.590 158.236 168.538  1.00  0.00    -0.298 OA
ATOM     10  C   UNL     1     167.075 160.197 166.924  1.00  0.00     0.020 C 
ATOM     11  C   UNL     1     167.854 157.166 170.362  1.00  0.00     0.020 C 
ENDROOT
TORSDOF 0
ENDMDL
MODEL 2
REMARK VINA RESULT:    -3.886      8.193      9.302
REMARK INTER + INTRA:          -3.886
REMARK INTER:                  -3.886
REMARK INTRA:                   0.000
REMARK UNBOUND:                 0.000
REMARK SMILES CC1(C)C(=O)[C@@]2(C)CC[C@@H]1C2
REMARK SMILES IDX 1 1 2 2 10 3 9 4 8 5 6 6 11 7 4 8 5 9 7 10 3 11
REMARK H PARENT
REMARK Flexibility Score: inf
ROOT
ATOM      1  C   UNL     1     172.702 166.170 171.519  1.00  0.00     0.020 C 
ATOM      2  C   UNL     1     172.719 167.199 170.367  1.00  0.00     0.027 C 
ATOM      3  C   UNL     1     171.534 168.232 170.407  1.00  0.00     0.003 C 
ATOM      4  C   UNL     1     170.175 167.516 170.618  1.00  0.00     0.005 C 
ATOM      5  C   UNL     1     169.977 166.746 169.291  1.00  0.00     0.015 C 
ATOM      6  C   UNL     1     171.191 167.197 168.456  1.00  0.00     0.027 C 
ATOM      7  C   UNL     1     171.381 168.622 168.938  1.00  0.00     0.019 C 
ATOM      8  C   UNL     1     172.415 166.552 169.047  1.00  0.00     0.144 C 
ATOM      9  O   UNL     1     173.021 165.604 168.568  1.00  0.00    -0.298 OA
ATOM     10  C   UNL     1     171.039 167.047 166.942  1.00  0.00     0.020 C 
ATOM     11  C   UNL     1     174.089 167.908 170.342  1.00  0.00     0.020 C 
ENDROOT
TORSDOF 0
ENDMDL
MODEL 3
REMARK VINA RESULT:    -3.883     11.325     13.073
REMARK INTER + INTRA:          -3.883
REMARK INTER:                  -3.883
REMARK INTRA:                   0.000
REMARK UNBOUND:                 0.000
REMARK SMILES CC1(C)C(=O)[C@@]2(C)CC[C@@H]1C2
REMARK SMILES IDX 1 1 2 2 10 3 9 4 8 5 6 6 11 7 4 8 5 9 7 10 3 11
REMARK H PARENT
REMARK Flexibility Score: inf
ROOT
ATOM      1  C   UNL     1     165.122 172.632 171.544  1.00  0.00     0.020 C 
ATOM      2  C   UNL     1     164.058 172.652 170.424  1.00  0.00     0.027 C 
ATOM      3  C   UNL     1     163.024 171.471 170.494  1.00  0.00     0.003 C 
ATOM      4  C   UNL     1     163.743 170.110 170.682  1.00  0.00     0.005 C 
ATOM      5  C   UNL     1     164.472 169.911 169.332  1.00  0.00     0.015 C 
ATOM      6  C   UNL     1     163.999 171.127 168.513  1.00  0.00     0.027 C 
ATOM      7  C   UNL     1     162.589 171.320 169.037  1.00  0.00     0.019 C 
ATOM      8  C   UNL     1     164.664 172.348 169.084  1.00  0.00     0.144 C 
ATOM      9  O   UNL     1     165.598 172.952 168.577  1.00  0.00    -0.298 OA
ATOM     10  C   UNL     1     164.102 170.975 166.994  1.00  0.00     0.020 C 
ATOM     11  C   UNL     1     163.352 174.025 170.421  1.00  0.00     0.020 C 
ENDROOT
TORSDOF 0
ENDMDL
MODEL 4
REMARK VINA RESULT:    -3.876      8.162      9.251
REMARK INTER + INTRA:          -3.876
REMARK INTER:                  -3.876
REMARK INTRA:                   0.000
REMARK UNBOUND:                 0.000
REMARK SMILES CC1(C)C(=O)[C@@]2(C)CC[C@@H]1C2
REMARK SMILES IDX 1 1 2 2 10 3 9 4 8 5 6 6 11 7 4 8 5 9 7 10 3 11
REMARK H PARENT
REMARK Flexibility Score: inf
ROOT
ATOM      1  C   UNL     1     158.562 165.140 171.531  1.00  0.00     0.020 C 
ATOM      2  C   UNL     1     158.543 164.073 170.414  1.00  0.00     0.027 C 
ATOM      3  C   UNL     1     159.721 163.035 170.493  1.00  0.00     0.003 C 
ATOM      4  C   UNL     1     161.083 163.750 170.685  1.00  0.00     0.005 C 
ATOM      5  C   UNL     1     161.292 164.473 169.335  1.00  0.00     0.015 C 
ATOM      6  C   UNL     1     160.078 164.003 168.510  1.00  0.00     0.027 C 
ATOM      7  C   UNL     1     159.877 162.596 169.038  1.00  0.00     0.019 C 
ATOM      8  C   UNL     1     158.856 164.674 169.074  1.00  0.00     0.144 C 
ATOM      9  O   UNL     1     158.259 165.609 168.561  1.00  0.00    -0.298 OA
ATOM     10  C   UNL     1     160.238 164.101 166.992  1.00  0.00     0.020 C 
ATOM     11  C   UNL     1     157.168 163.373 170.406  1.00  0.00     0.020 C 
ENDROOT
TORSDOF 0
ENDMDL
MODEL 5
REMARK VINA RESULT:    -3.442      1.295      2.670
REMARK INTER + INTRA:          -3.442
REMARK INTER:                  -3.442
REMARK INTRA:                   0.000
REMARK UNBOUND:                 0.000
REMARK SMILES CC1(C)C(=O)[C@@]2(C)CC[C@@H]1C2
REMARK SMILES IDX 1 1 2 2 10 3 9 4 8 5 6 6 11 7 4 8 5 9 7 10 3 11
REMARK H PARENT
REMARK Flexibility Score: inf
ROOT
ATOM      1  C   UNL     1     168.234 157.409 168.891  1.00  0.00     0.020 C 
ATOM      2  C   UNL     1     167.273 158.612 168.776  1.00  0.00     0.027 C 
ATOM      3  C   UNL     1     167.978 160.013 168.873  1.00  0.00     0.003 C 
ATOM      4  C   UNL     1     168.946 160.070 170.083  1.00  0.00     0.005 C 
ATOM      5  C   UNL     1     167.989 160.029 171.297  1.00  0.00     0.015 C 
ATOM      6  C   UNL     1     166.600 160.057 170.631  1.00  0.00     0.027 C 
ATOM      7  C   UNL     1     166.864 160.912 169.408  1.00  0.00     0.019 C 
ATOM      8  C   UNL     1     166.381 158.720 169.979  1.00  0.00     0.144 C 
ATOM      9  O   UNL     1     165.652 157.834 170.400  1.00  0.00    -0.298 OA
ATOM     10  C   UNL     1     165.455 160.547 171.521  1.00  0.00     0.020 C 
ATOM     11  C   UNL     1     166.449 158.479 167.477  1.00  0.00     0.020 C 
ENDROOT
TORSDOF 0
ENDMDL
MODEL 6
REMARK VINA RESULT:    -3.423      8.501      9.774
REMARK INTER + INTRA:          -3.423
REMARK INTER:                  -3.423
REMARK INTRA:                   0.000
REMARK UNBOUND:                 0.000
REMARK SMILES CC1(C)C(=O)[C@@]2(C)CC[C@@H]1C2
REMARK SMILES IDX 1 1 2 2 10 3 9 4 8 5 6 6 11 7 4 8 5 9 7 10 3 11
REMARK H PARENT
REMARK Flexibility Score: inf
ROOT
ATOM      1  C   UNL     1     160.018 163.746 167.772  1.00  0.00     0.020 C 
ATOM      2  C   UNL     1     159.903 163.747 169.312  1.00  0.00     0.027 C 
ATOM      3  C   UNL     1     159.792 162.316 169.952  1.00  0.00     0.003 C 
ATOM      4  C   UNL     1     158.726 161.459 169.223  1.00  0.00     0.005 C 
ATOM      5  C   UNL     1     157.399 162.159 169.599  1.00  0.00     0.015 C 
ATOM      6  C   UNL     1     157.864 163.260 170.572  1.00  0.00     0.027 C 
ATOM      7  C   UNL     1     159.040 162.589 171.254  1.00  0.00     0.019 C 
ATOM      8  C   UNL     1     158.585 164.305 169.765  1.00  0.00     0.144 C 
ATOM      9  O   UNL     1     158.140 165.402 169.463  1.00  0.00    -0.298 OA
ATOM     10  C   UNL     1     156.790 163.792 171.522  1.00  0.00     0.020 C 
ATOM     11  C   UNL     1     161.083 164.545 169.906  1.00  0.00     0.020 C 
ENDROOT
TORSDOF 0
ENDMDL
MODEL 7
REMARK VINA RESULT:    -3.418      8.278      9.597
REMARK INTER + INTRA:          -3.418
REMARK INTER:                  -3.418
REMARK INTRA:                   0.000
REMARK UNBOUND:                 0.000
REMARK SMILES CC1(C)C(=O)[C@@]2(C)CC[C@@H]1C2
REMARK SMILES IDX 1 1 2 2 10 3 9 4 8 5 6 6 11 7 4 8 5 9 7 10 3 11
REMARK H PARENT
REMARK Flexibility Score: inf
ROOT
ATOM      1  C   UNL     1     157.481 162.863 169.084  1.00  0.00     0.020 C 
ATOM      2  C   UNL     1     158.643 163.868 168.930  1.00  0.00     0.027 C 
ATOM      3  C   UNL     1     160.072 163.228 169.066  1.00  0.00     0.003 C 
ATOM      4  C   UNL     1     160.161 162.320 170.320  1.00  0.00     0.005 C 
ATOM      5  C   UNL     1     160.072 163.330 171.488  1.00  0.00     0.015 C 
ATOM      6  C   UNL     1     160.047 164.687 170.759  1.00  0.00     0.027 C 
ATOM      7  C   UNL     1     160.920 164.402 169.553  1.00  0.00     0.019 C 
ATOM      8  C   UNL     1     158.706 164.819 170.090  1.00  0.00     0.144 C 
ATOM      9  O   UNL     1     157.787 165.528 170.473  1.00  0.00    -0.298 OA
ATOM     10  C   UNL     1     160.482 165.891 171.596  1.00  0.00     0.020 C 
ATOM     11  C   UNL     1     158.485 164.624 167.594  1.00  0.00     0.020 C 
ENDROOT
TORSDOF 0
ENDMDL
MODEL 8
REMARK VINA RESULT:    -3.400      8.486      9.938
REMARK INTER + INTRA:          -3.400
REMARK INTER:                  -3.400
REMARK INTRA:                   0.000
REMARK UNBOUND:                 0.000
REMARK SMILES CC1(C)C(=O)[C@@]2(C)CC[C@@H]1C2
REMARK SMILES IDX 1 1 2 2 10 3 9 4 8 5 6 6 11 7 4 8 5 9 7 10 3 11
REMARK H PARENT
REMARK Flexibility Score: inf
ROOT
ATOM      1  C   UNL     1     170.955 167.465 167.664  1.00  0.00     0.020 C 
ATOM      2  C   UNL     1     170.984 167.366 169.205  1.00  0.00     0.027 C 
ATOM      3  C   UNL     1     171.202 168.739 169.937  1.00  0.00     0.003 C 
ATOM      4  C   UNL     1     172.388 169.522 169.314  1.00  0.00     0.005 C 
ATOM      5  C   UNL     1     173.615 168.669 169.711  1.00  0.00     0.015 C 
ATOM      6  C   UNL     1     172.990 167.569 170.590  1.00  0.00     0.027 C 
ATOM      7  C   UNL     1     171.852 168.318 171.254  1.00  0.00     0.019 C 
ATOM      8  C   UNL     1     172.213 166.651 169.687  1.00  0.00     0.144 C 
ATOM      9  O   UNL     1     172.562 165.532 169.340  1.00  0.00    -0.298 OA
ATOM     10  C   UNL     1     173.952 166.876 171.557  1.00  0.00     0.020 C 
ATOM     11  C   UNL     1     169.700 166.661 169.691  1.00  0.00     0.020 C 
ENDROOT
TORSDOF 0
ENDMDL
MODEL 9
REMARK VINA RESULT:    -3.391     11.682     13.418
REMARK INTER + INTRA:          -3.391
REMARK INTER:                  -3.391
REMARK INTRA:                   0.000
REMARK UNBOUND:                 0.000
REMARK SMILES CC1(C)C(=O)[C@@]2(C)CC[C@@H]1C2
REMARK SMILES IDX 1 1 2 2 10 3 9 4 8 5 6 6 11 7 4 8 5 9 7 10 3 11
REMARK H PARENT
REMARK Flexibility Score: inf
ROOT
ATOM      1  C   UNL     1     163.755 170.924 167.717  1.00  0.00     0.020 C 
ATOM      2  C   UNL     1     163.817 170.966 169.259  1.00  0.00     0.027 C 
ATOM      3  C   UNL     1     162.428 171.199 169.956  1.00  0.00     0.003 C 
ATOM      4  C   UNL     1     161.669 172.384 169.305  1.00  0.00     0.005 C 
ATOM      5  C   UNL     1     162.520 173.609 169.711  1.00  0.00     0.015 C 
ATOM      6  C   UNL     1     163.594 172.985 170.622  1.00  0.00     0.027 C 
ATOM      7  C   UNL     1     162.822 171.857 171.277  1.00  0.00     0.019 C 
ATOM      8  C   UNL     1     164.528 172.194 169.748  1.00  0.00     0.144 C 
ATOM      9  O   UNL     1     165.658 172.533 169.424  1.00  0.00    -0.298 OA
ATOM     10  C   UNL     1     164.270 173.951 171.597  1.00  0.00     0.020 C 
ATOM     11  C   UNL     1     164.501 169.681 169.773  1.00  0.00     0.020 C 
ENDROOT
TORSDOF 0
ENDMDL
