MODEL 1
REMARK VINA RESULT:    -3.088      0.000      0.000
REMARK INTER + INTRA:          -3.088
REMARK INTER:                  -3.088
REMARK INTRA:                   0.000
REMARK UNBOUND:                 0.000
REMARK SMILES CC1(C)O[C@]2(C)CC[C@H]1CC2
REMARK SMILES IDX 1 1 2 2 9 3 10 4 11 5 5 6 4 7 7 8 8 9 6 10 3 11
REMARK H PARENT
REMARK Flexibility Score: inf
ROOT
ATOM      1  C   UNL     1     164.117 172.643 171.881  1.00  0.00     0.042 C 
ATOM      2  C   UNL     1     163.130 173.542 171.105  1.00  0.00     0.066 C 
ATOM      3  C   UNL     1     161.812 172.749 170.754  1.00  0.00     0.021 C 
ATOM      4  C   UNL     1     160.885 173.678 169.934  1.00  0.00     0.009 C 
ATOM      5  C   UNL     1     161.680 174.273 168.747  1.00  0.00     0.035 C 
ATOM      6  C   UNL     1     163.115 173.669 168.720  1.00  0.00     0.066 C 
ATOM      7  O   UNL     1     163.795 174.020 169.926  1.00  0.00    -0.369 OA
ATOM      8  C   UNL     1     163.010 172.121 168.624  1.00  0.00     0.035 C 
ATOM      9  C   UNL     1     162.182 171.576 169.814  1.00  0.00     0.009 C 
ATOM     10  C   UNL     1     163.904 174.225 167.530  1.00  0.00     0.042 C 
ATOM     11  C   UNL     1     162.812 174.757 172.002  1.00  0.00     0.042 C 
ENDROOT
TORSDOF 0
ENDMDL
MODEL 2
REMARK VINA RESULT:    -3.051     15.242     16.608
REMARK INTER + INTRA:          -3.051
REMARK INTER:                  -3.051
REMARK INTRA:                   0.000
REMARK UNBOUND:                 0.000
REMARK SMILES CC1(C)O[C@]2(C)CC[C@H]1CC2
REMARK SMILES IDX 1 1 2 2 9 3 10 4 11 5 5 6 4 7 7 8 8 9 6 10 3 11
REMARK H PARENT
REMARK Flexibility Score: inf
ROOT
ATOM      1  C   UNL     1     167.063 158.833 171.931  1.00  0.00     0.042 C 
ATOM      2  C   UNL     1     168.067 157.911 171.204  1.00  0.00     0.066 C 
ATOM      3  C   UNL     1     169.374 158.706 170.819  1.00  0.00     0.021 C 
ATOM      4  C   UNL     1     170.319 157.752 170.050  1.00  0.00     0.009 C 
ATOM      5  C   UNL     1     169.537 157.087 168.891  1.00  0.00     0.035 C 
ATOM      6  C   UNL     1     168.094 157.667 168.828  1.00  0.00     0.066 C 
ATOM      7  O   UNL     1     167.414 157.366 170.048  1.00  0.00    -0.369 OA
ATOM      8  C   UNL     1     168.177 159.210 168.657  1.00  0.00     0.035 C 
ATOM      9  C   UNL     1     168.991 159.825 169.821  1.00  0.00     0.009 C 
ATOM     10  C   UNL     1     167.319 157.042 167.664  1.00  0.00     0.042 C 
ATOM     11  C   UNL     1     168.399 156.747 172.162  1.00  0.00     0.042 C 
ENDROOT
TORSDOF 0
ENDMDL
MODEL 3
REMARK VINA RESULT:    -3.006      1.084      2.646
REMARK INTER + INTRA:          -3.006
REMARK INTER:                  -3.006
REMARK INTRA:                   0.000
REMARK UNBOUND:                 0.000
REMARK SMILES CC1(C)O[C@]2(C)CC[C@H]1CC2
REMARK SMILES IDX 1 1 2 2 9 3 10 4 11 5 5 6 4 7 7 8 8 9 6 10 3 11
REMARK H PARENT
REMARK Flexibility Score: inf
ROOT
ATOM      1  C   UNL     1     160.589 175.323 170.714  1.00  0.00     0.042 C 
ATOM      2  C   UNL     1     160.944 173.995 170.010  1.00  0.00     0.066 C 
ATOM      3  C   UNL     1     161.648 173.003 171.014  1.00  0.00     0.021 C 
ATOM      4  C   UNL     1     162.027 171.714 170.245  1.00  0.00     0.009 C 
ATOM      5  C   UNL     1     162.817 172.097 168.970  1.00  0.00     0.035 C 
ATOM      6  C   UNL     1     163.046 173.636 168.935  1.00  0.00     0.066 C 
ATOM      7  O   UNL     1     161.782 174.298 168.884  1.00  0.00    -0.369 OA
ATOM      8  C   UNL     1     163.797 174.065 170.228  1.00  0.00     0.035 C 
ATOM      9  C   UNL     1     162.984 173.636 171.473  1.00  0.00     0.009 C 
ATOM     10  C   UNL     1     163.857 174.025 167.694  1.00  0.00     0.042 C 
ATOM     11  C   UNL     1     159.627 173.390 169.479  1.00  0.00     0.042 C 
ENDROOT
TORSDOF 0
ENDMDL
MODEL 4
REMARK VINA RESULT:    -2.993     15.798     17.076
REMARK INTER + INTRA:          -2.993
REMARK INTER:                  -2.993
REMARK INTRA:                   0.000
REMARK UNBOUND:                 0.000
REMARK SMILES CC1(C)O[C@]2(C)CC[C@H]1CC2
REMARK SMILES IDX 1 1 2 2 9 3 10 4 11 5 5 6 4 7 7 8 8 9 6 10 3 11
REMARK H PARENT
REMARK Flexibility Score: inf
ROOT
ATOM      1  C   UNL     1     170.621 155.964 170.771  1.00  0.00     0.042 C 
ATOM      2  C   UNL     1     170.254 157.275 170.041  1.00  0.00     0.066 C 
ATOM      3  C   UNL     1     169.524 158.272 171.021  1.00  0.00     0.021 C 
ATOM      4  C   UNL     1     169.134 159.542 170.228  1.00  0.00     0.009 C 
ATOM      5  C   UNL     1     168.363 159.127 168.951  1.00  0.00     0.035 C 
ATOM      6  C   UNL     1     168.158 157.584 168.938  1.00  0.00     0.066 C 
ATOM      7  O   UNL     1     169.433 156.941 168.912  1.00  0.00    -0.369 OA
ATOM      8  C   UNL     1     167.400 157.164 170.230  1.00  0.00     0.035 C 
ATOM      9  C   UNL     1     168.194 157.626 171.477  1.00  0.00     0.009 C 
ATOM     10  C   UNL     1     167.367 157.163 167.696  1.00  0.00     0.042 C 
ATOM     11  C   UNL     1     171.567 157.891 169.514  1.00  0.00     0.042 C 
ENDROOT
TORSDOF 0
ENDMDL
MODEL 5
REMARK VINA RESULT:    -2.878     10.050     11.375
REMARK INTER + INTRA:          -2.878
REMARK INTER:                  -2.878
REMARK INTRA:                   0.000
REMARK UNBOUND:                 0.000
REMARK SMILES CC1(C)O[C@]2(C)CC[C@H]1CC2
REMARK SMILES IDX 1 1 2 2 9 3 10 4 11 5 5 6 4 7 7 8 8 9 6 10 3 11
REMARK H PARENT
REMARK Flexibility Score: inf
ROOT
ATOM      1  C   UNL     1     172.137 166.280 172.158  1.00  0.00     0.042 C 
ATOM      2  C   UNL     1     172.887 167.509 171.601  1.00  0.00     0.066 C 
ATOM      3  C   UNL     1     171.933 168.764 171.542  1.00  0.00     0.021 C 
ATOM      4  C   UNL     1     172.719 169.948 170.929  1.00  0.00     0.009 C 
ATOM      5  C   UNL     1     173.363 169.496 169.596  1.00  0.00     0.035 C 
ATOM      6  C   UNL     1     172.932 168.036 169.271  1.00  0.00     0.066 C 
ATOM      7  O   UNL     1     173.400 167.168 170.304  1.00  0.00    -0.369 OA
ATOM      8  C   UNL     1     171.379 167.970 169.212  1.00  0.00     0.035 C 
ATOM      9  C   UNL     1     170.781 168.458 170.554  1.00  0.00     0.009 C 
ATOM     10  C   UNL     1     173.536 167.587 167.937  1.00  0.00     0.042 C 
ATOM     11  C   UNL     1     174.086 167.779 172.535  1.00  0.00     0.042 C 
ENDROOT
TORSDOF 0
ENDMDL
MODEL 6
REMARK VINA RESULT:    -2.860     10.022     11.415
REMARK INTER + INTRA:          -2.860
REMARK INTER:                  -2.860
REMARK INTRA:                   0.000
REMARK UNBOUND:                 0.000
REMARK SMILES CC1(C)O[C@]2(C)CC[C@H]1CC2
REMARK SMILES IDX 1 1 2 2 9 3 10 4 11 5 5 6 4 7 7 8 8 9 6 10 3 11
REMARK H PARENT
REMARK Flexibility Score: inf
ROOT
ATOM      1  C   UNL     1     158.950 164.745 172.227  1.00  0.00     0.042 C 
ATOM      2  C   UNL     1     158.214 163.548 171.586  1.00  0.00     0.066 C 
ATOM      3  C   UNL     1     159.166 162.294 171.493  1.00  0.00     0.021 C 
ATOM      4  C   UNL     1     158.397 161.144 170.798  1.00  0.00     0.009 C 
ATOM      5  C   UNL     1     157.796 161.665 169.470  1.00  0.00     0.035 C 
ATOM      6  C   UNL     1     158.240 163.138 169.233  1.00  0.00     0.066 C 
ATOM      7  O   UNL     1     157.742 163.956 170.293  1.00  0.00    -0.369 OA
ATOM      8  C   UNL     1     159.794 163.202 169.225  1.00  0.00     0.035 C 
ATOM      9  C   UNL     1     160.349 162.644 170.558  1.00  0.00     0.009 C 
ATOM     10  C   UNL     1     157.679 163.656 167.905  1.00  0.00     0.042 C 
ATOM     11  C   UNL     1     156.987 163.236 172.468  1.00  0.00     0.042 C 
ENDROOT
TORSDOF 0
ENDMDL
MODEL 7
REMARK VINA RESULT:    -2.789      1.163      2.843
REMARK INTER + INTRA:          -2.789
REMARK INTER:                  -2.789
REMARK INTRA:                   0.000
REMARK UNBOUND:                 0.000
REMARK SMILES CC1(C)O[C@]2(C)CC[C@H]1CC2
REMARK SMILES IDX 1 1 2 2 9 3 10 4 11 5 5 6 4 7 7 8 8 9 6 10 3 11
REMARK H PARENT
REMARK Flexibility Score: inf
ROOT
ATOM      1  C   UNL     1     162.221 174.970 171.904  1.00  0.00     0.042 C 
ATOM      2  C   UNL     1     162.940 174.017 170.925  1.00  0.00     0.066 C 
ATOM      3  C   UNL     1     162.466 174.280 169.443  1.00  0.00     0.021 C 
ATOM      4  C   UNL     1     163.178 173.267 168.515  1.00  0.00     0.009 C 
ATOM      5  C   UNL     1     162.974 171.836 169.071  1.00  0.00     0.035 C 
ATOM      6  C   UNL     1     162.049 171.885 170.322  1.00  0.00     0.066 C 
ATOM      7  O   UNL     1     162.675 172.669 171.339  1.00  0.00    -0.369 OA
ATOM      8  C   UNL     1     160.698 172.547 169.926  1.00  0.00     0.035 C 
ATOM      9  C   UNL     1     160.955 173.960 169.349  1.00  0.00     0.009 C 
ATOM     10  C   UNL     1     161.811 170.472 170.864  1.00  0.00     0.042 C 
ATOM     11  C   UNL     1     164.456 174.273 171.065  1.00  0.00     0.042 C 
ENDROOT
TORSDOF 0
ENDMDL
MODEL 8
REMARK VINA RESULT:    -2.748      1.221      2.494
REMARK INTER + INTRA:          -2.748
REMARK INTER:                  -2.748
REMARK INTRA:                   0.000
REMARK UNBOUND:                 0.000
REMARK SMILES CC1(C)O[C@]2(C)CC[C@H]1CC2
REMARK SMILES IDX 1 1 2 2 9 3 10 4 11 5 5 6 4 7 7 8 8 9 6 10 3 11
REMARK H PARENT
REMARK Flexibility Score: inf
ROOT
ATOM      1  C   UNL     1     161.693 170.520 170.519  1.00  0.00     0.042 C 
ATOM      2  C   UNL     1     162.786 171.590 170.736  1.00  0.00     0.066 C 
ATOM      3  C   UNL     1     162.253 172.750 171.662  1.00  0.00     0.021 C 
ATOM      4  C   UNL     1     163.367 173.815 171.803  1.00  0.00     0.009 C 
ATOM      5  C   UNL     1     163.866 174.218 170.395  1.00  0.00     0.035 C 
ATOM      6  C   UNL     1     163.022 173.490 169.308  1.00  0.00     0.066 C 
ATOM      7  O   UNL     1     163.193 172.079 169.450  1.00  0.00    -0.369 OA
ATOM      8  C   UNL     1     161.522 173.846 169.511  1.00  0.00     0.035 C 
ATOM      9  C   UNL     1     161.077 173.453 170.940  1.00  0.00     0.009 C 
ATOM     10  C   UNL     1     163.485 173.905 167.908  1.00  0.00     0.042 C 
ATOM     11  C   UNL     1     163.995 170.886 171.387  1.00  0.00     0.042 C 
ENDROOT
TORSDOF 0
ENDMDL
MODEL 9
REMARK VINA RESULT:    -2.736      1.331      3.170
REMARK INTER + INTRA:          -2.736
REMARK INTER:                  -2.736
REMARK INTRA:                   0.000
REMARK UNBOUND:                 0.000
REMARK SMILES CC1(C)O[C@]2(C)CC[C@H]1CC2
REMARK SMILES IDX 1 1 2 2 9 3 10 4 11 5 5 6 4 7 7 8 8 9 6 10 3 11
REMARK H PARENT
REMARK Flexibility Score: inf
ROOT
ATOM      1  C   UNL     1     163.012 171.417 168.862  1.00  0.00     0.042 C 
ATOM      2  C   UNL     1     162.769 172.853 169.375  1.00  0.00     0.066 C 
ATOM      3  C   UNL     1     163.437 173.060 170.790  1.00  0.00     0.021 C 
ATOM      4  C   UNL     1     163.119 174.494 171.277  1.00  0.00     0.009 C 
ATOM      5  C   UNL     1     161.593 174.736 171.182  1.00  0.00     0.035 C 
ATOM      6  C   UNL     1     160.880 173.432 170.718  1.00  0.00     0.066 C 
ATOM      7  O   UNL     1     161.352 173.077 169.417  1.00  0.00    -0.369 OA
ATOM      8  C   UNL     1     161.220 172.288 171.715  1.00  0.00     0.035 C 
ATOM      9  C   UNL     1     162.755 172.103 171.798  1.00  0.00     0.009 C 
ATOM     10  C   UNL     1     159.365 173.649 170.651  1.00  0.00     0.042 C 
ATOM     11  C   UNL     1     163.378 173.821 168.339  1.00  0.00     0.042 C 
ENDROOT
TORSDOF 0
ENDMDL
