MODEL 1
REMARK VINA RESULT:    -4.622      0.000      0.000
REMARK INTER + INTRA:         -17.017
REMARK INTER:                 -12.186
REMARK INTRA:                  -4.830
REMARK UNBOUND:                -4.830
REMARK SMILES CCCCCCCCCCCCCCCCCCCCCCCCCCCCCC(=O)[O-]
REMARK SMILES IDX 16 1 17 2 18 3 19 4 20 5 21 6 22 7 23 8 24 9 25 10 26 11
REMARK SMILES IDX 27 12 28 13 29 14 30 15 31 16 32 17 15 18 14 19 13 20 12 21
REMARK SMILES IDX 11 22 10 23 9 24 8 25 7 26 6 27 5 28 4 29 3 30 2 31 1 32
REMARK H PARENT
REMARK Flexibility Score: inf
ROOT
ATOM      1  C   UNL     1      50.808   8.629  19.387  1.00  0.00     0.000 C 
ENDROOT
BRANCH   1   2
ATOM      2  C   UNL     1      50.820   7.479  18.369  1.00  0.00     0.000 C 
BRANCH   2   3
ATOM      3  C   UNL     1      51.950   6.463  18.608  1.00  0.00     0.000 C 
BRANCH   3   4
ATOM      4  C   UNL     1      51.540   5.179  19.358  1.00  0.00     0.000 C 
BRANCH   4   5
ATOM      5  C   UNL     1      51.975   3.856  18.702  1.00  0.00     0.000 C 
BRANCH   5   6
ATOM      6  C   UNL     1      51.696   2.619  19.576  1.00  0.00     0.000 C 
BRANCH   6   7
ATOM      7  C   UNL     1      51.366   2.986  21.033  1.00  0.00     0.000 C 
BRANCH   7   8
ATOM      8  C   UNL     1      50.048   2.403  21.584  1.00  0.00     0.000 C 
BRANCH   8   9
ATOM      9  C   UNL     1      48.971   2.135  20.514  1.00  0.00     0.000 C 
BRANCH   9  10
ATOM     10  C   UNL     1      47.592   2.716  20.877  1.00  0.00     0.000 C 
BRANCH  10  11
ATOM     11  C   UNL     1      47.128   2.233  22.262  1.00  0.00     0.000 C 
BRANCH  11  12
ATOM     12  C   UNL     1      45.681   2.660  22.568  1.00  0.00     0.000 C 
BRANCH  12  13
ATOM     13  C   UNL     1      44.669   1.538  22.284  1.00  0.00     0.006 C 
BRANCH  13  14
ATOM     14  C   UNL     1      43.549   2.016  21.343  1.00  0.00     0.053 C 
BRANCH  14  15
ATOM     15  C   UNL     1      43.838   3.379  20.790  1.00  0.00     0.041 C 
ATOM     16  O   UNL     1      44.482   3.503  19.714  1.00  0.00    -0.550 OA
ATOM     17  O   UNL     1      43.373   4.513  21.450  1.00  0.00    -0.550 OA
ENDBRANCH  14  15
ENDBRANCH  13  14
ENDBRANCH  12  13
ENDBRANCH  11  12
ENDBRANCH  10  11
ENDBRANCH   9  10
ENDBRANCH   8   9
ENDBRANCH   7   8
ENDBRANCH   6   7
ENDBRANCH   5   6
ENDBRANCH   4   5
ENDBRANCH   3   4
ENDBRANCH   2   3
ENDBRANCH   1   2
BRANCH   1  18
ATOM     18  C   UNL     1      50.027   8.233  20.652  1.00  0.00     0.000 C 
BRANCH  18  19
ATOM     19  C   UNL     1      48.626   7.685  20.343  1.00  0.00     0.000 C 
BRANCH  19  20
ATOM     20  C   UNL     1      48.229   6.504  21.247  1.00  0.00     0.000 C 
BRANCH  20  21
ATOM     21  C   UNL     1      49.383   6.033  22.148  1.00  0.00     0.000 C 
BRANCH  21  22
ATOM     22  C   UNL     1      48.895   5.431  23.476  1.00  0.00     0.000 C 
BRANCH  22  23
ATOM     23  C   UNL     1      50.037   5.203  24.480  1.00  0.00     0.000 C 
BRANCH  23  24
ATOM     24  C   UNL     1      49.536   5.078  25.929  1.00  0.00    -0.000 C 
BRANCH  24  25
ATOM     25  C   UNL     1      50.440   5.824  26.938  1.00  0.00    -0.000 C 
BRANCH  25  26
ATOM     26  C   UNL     1      49.688   6.864  27.786  1.00  0.00    -0.000 C 
BRANCH  26  27
ATOM     27  C   UNL     1      48.154   6.783  27.689  1.00  0.00    -0.000 C 
BRANCH  27  28
ATOM     28  C   UNL     1      47.497   8.073  27.147  1.00  0.00    -0.000 C 
BRANCH  28  29
ATOM     29  C   UNL     1      47.288   8.043  25.624  1.00  0.00    -0.000 C 
BRANCH  29  30
ATOM     30  C   UNL     1      47.565   9.402  24.962  1.00  0.00    -0.000 C 
BRANCH  30  31
ATOM     31  C   UNL     1      48.655   9.321  23.883  1.00  0.00    -0.003 C 
ATOM     32  C   UNL     1      49.989   8.889  24.485  1.00  0.00     0.004 C 
ENDBRANCH  30  31
ENDBRANCH  29  30
ENDBRANCH  28  29
ENDBRANCH  27  28
ENDBRANCH  26  27
ENDBRANCH  25  26
ENDBRANCH  24  25
ENDBRANCH  23  24
ENDBRANCH  22  23
ENDBRANCH  21  22
ENDBRANCH  20  21
ENDBRANCH  19  20
ENDBRANCH  18  19
ENDBRANCH   1  18
TORSDOF 28
ENDMDL
MODEL 2
REMARK VINA RESULT:    -4.603      2.648      7.366
REMARK INTER + INTRA:         -16.968
REMARK INTER:                 -11.202
REMARK INTRA:                  -5.765
REMARK UNBOUND:                -4.830
REMARK SMILES CCCCCCCCCCCCCCCCCCCCCCCCCCCCCC(=O)[O-]
REMARK SMILES IDX 16 1 17 2 18 3 19 4 20 5 21 6 22 7 23 8 24 9 25 10 26 11
REMARK SMILES IDX 27 12 28 13 29 14 30 15 31 16 32 17 15 18 14 19 13 20 12 21
REMARK SMILES IDX 11 22 10 23 9 24 8 25 7 26 6 27 5 28 4 29 3 30 2 31 1 32
REMARK H PARENT
REMARK Flexibility Score: inf
ROOT
ATOM      1  C   UNL     1      47.500   3.351  21.097  1.00  0.00     0.000 C 
ENDROOT
BRANCH   1   2
ATOM      2  C   UNL     1      46.793   4.334  22.042  1.00  0.00     0.000 C 
BRANCH   2   3
ATOM      3  C   UNL     1      47.100   4.082  23.528  1.00  0.00     0.000 C 
BRANCH   3   4
ATOM      4  C   UNL     1      48.493   3.491  23.827  1.00  0.00     0.000 C 
BRANCH   4   5
ATOM      5  C   UNL     1      48.746   3.086  25.291  1.00  0.00     0.000 C 
BRANCH   5   6
ATOM      6  C   UNL     1      48.445   4.211  26.297  1.00  0.00     0.000 C 
BRANCH   6   7
ATOM      7  C   UNL     1      49.721   4.829  26.894  1.00  0.00     0.000 C 
BRANCH   7   8
ATOM      8  C   UNL     1      50.484   5.803  25.972  1.00  0.00     0.000 C 
BRANCH   8   9
ATOM      9  C   UNL     1      49.602   6.881  25.312  1.00  0.00     0.000 C 
BRANCH   9  10
ATOM     10  C   UNL     1      50.409   7.932  24.526  1.00  0.00     0.000 C 
BRANCH  10  11
ATOM     11  C   UNL     1      49.889   8.073  23.085  1.00  0.00     0.000 C 
BRANCH  11  12
ATOM     12  C   UNL     1      49.574   6.708  22.449  1.00  0.00     0.000 C 
BRANCH  12  13
ATOM     13  C   UNL     1      49.672   6.742  20.915  1.00  0.00     0.006 C 
BRANCH  13  14
ATOM     14  C   UNL     1      50.192   8.101  20.414  1.00  0.00     0.053 C 
BRANCH  14  15
ATOM     15  C   UNL     1      50.958   7.961  19.134  1.00  0.00     0.041 C 
ATOM     16  O   UNL     1      52.053   7.337  19.114  1.00  0.00    -0.550 OA
ATOM     17  O   UNL     1      50.451   8.500  17.954  1.00  0.00    -0.550 OA
ENDBRANCH  14  15
ENDBRANCH  13  14
ENDBRANCH  12  13
ENDBRANCH  11  12
ENDBRANCH  10  11
ENDBRANCH   9  10
ENDBRANCH   8   9
ENDBRANCH   7   8
ENDBRANCH   6   7
ENDBRANCH   5   6
ENDBRANCH   4   5
ENDBRANCH   3   4
ENDBRANCH   2   3
ENDBRANCH   1   2
BRANCH   1  18
ATOM     18  C   UNL     1      46.479   2.601  20.224  1.00  0.00     0.000 C 
BRANCH  18  19
ATOM     19  C   UNL     1      45.074   3.219  20.279  1.00  0.00     0.000 C 
BRANCH  19  20
ATOM     20  C   UNL     1      44.008   2.243  20.806  1.00  0.00     0.000 C 
BRANCH  20  21
ATOM     21  C   UNL     1      43.981   2.165  22.342  1.00  0.00     0.000 C 
BRANCH  21  22
ATOM     22  C   UNL     1      44.420   0.793  22.878  1.00  0.00     0.000 C 
BRANCH  22  23
ATOM     23  C   UNL     1      45.331   0.900  24.112  1.00  0.00     0.000 C 
BRANCH  23  24
ATOM     24  C   UNL     1      46.652   0.132  23.941  1.00  0.00    -0.000 C 
BRANCH  24  25
ATOM     25  C   UNL     1      46.868  -0.368  22.494  1.00  0.00    -0.000 C 
BRANCH  25  26
ATOM     26  C   UNL     1      48.292  -0.123  21.964  1.00  0.00    -0.000 C 
BRANCH  26  27
ATOM     27  C   UNL     1      49.387  -0.125  23.045  1.00  0.00    -0.000 C 
BRANCH  27  28
ATOM     28  C   UNL     1      50.801   0.173  22.496  1.00  0.00    -0.000 C 
BRANCH  28  29
ATOM     29  C   UNL     1      51.419   1.447  23.097  1.00  0.00    -0.000 C 
BRANCH  29  30
ATOM     30  C   UNL     1      51.630   2.552  22.050  1.00  0.00    -0.000 C 
BRANCH  30  31
ATOM     31  C   UNL     1      50.850   2.292  20.753  1.00  0.00    -0.003 C 
ATOM     32  C   UNL     1      51.172   3.348  19.700  1.00  0.00     0.004 C 
ENDBRANCH  30  31
ENDBRANCH  29  30
ENDBRANCH  28  29
ENDBRANCH  27  28
ENDBRANCH  26  27
ENDBRANCH  25  26
ENDBRANCH  24  25
ENDBRANCH  23  24
ENDBRANCH  22  23
ENDBRANCH  21  22
ENDBRANCH  20  21
ENDBRANCH  19  20
ENDBRANCH  18  19
ENDBRANCH   1  18
TORSDOF 28
ENDMDL
MODEL 3
REMARK VINA RESULT:    -4.595      2.506      7.383
REMARK INTER + INTRA:         -16.948
REMARK INTER:                 -11.959
REMARK INTRA:                  -4.989
REMARK UNBOUND:                -4.830
REMARK SMILES CCCCCCCCCCCCCCCCCCCCCCCCCCCCCC(=O)[O-]
REMARK SMILES IDX 16 1 17 2 18 3 19 4 20 5 21 6 22 7 23 8 24 9 25 10 26 11
REMARK SMILES IDX 27 12 28 13 29 14 30 15 31 16 32 17 15 18 14 19 13 20 12 21
REMARK SMILES IDX 11 22 10 23 9 24 8 25 7 26 6 27 5 28 4 29 3 30 2 31 1 32
REMARK H PARENT
REMARK Flexibility Score: inf
ROOT
ATOM      1  C   UNL     1      48.724   2.848  21.439  1.00  0.00     0.000 C 
ENDROOT
BRANCH   1   2
ATOM      2  C   UNL     1      50.233   3.133  21.398  1.00  0.00     0.000 C 
BRANCH   2   3
ATOM      3  C   UNL     1      50.939   2.884  22.742  1.00  0.00     0.000 C 
BRANCH   3   4
ATOM      4  C   UNL     1      50.923   1.424  23.240  1.00  0.00     0.000 C 
BRANCH   4   5
ATOM      5  C   UNL     1      50.205   1.185  24.582  1.00  0.00     0.000 C 
BRANCH   5   6
ATOM      6  C   UNL     1      49.379   2.394  25.057  1.00  0.00     0.000 C 
BRANCH   6   7
ATOM      7  C   UNL     1      49.370   2.540  26.588  1.00  0.00     0.000 C 
BRANCH   7   8
ATOM      8  C   UNL     1      49.221   3.981  27.119  1.00  0.00     0.000 C 
BRANCH   8   9
ATOM      9  C   UNL     1      49.123   5.060  26.022  1.00  0.00     0.000 C 
BRANCH   9  10
ATOM     10  C   UNL     1      50.256   6.101  26.086  1.00  0.00     0.000 C 
BRANCH  10  11
ATOM     11  C   UNL     1      50.538   6.707  24.701  1.00  0.00     0.000 C 
BRANCH  11  12
ATOM     12  C   UNL     1      49.624   6.114  23.614  1.00  0.00     0.000 C 
BRANCH  12  13
ATOM     13  C   UNL     1      48.934   7.201  22.774  1.00  0.00     0.006 C 
BRANCH  13  14
ATOM     14  C   UNL     1      49.498   7.248  21.343  1.00  0.00     0.053 C 
BRANCH  14  15
ATOM     15  C   UNL     1      48.436   7.592  20.343  1.00  0.00     0.041 C 
ATOM     16  O   UNL     1      47.281   7.100  20.449  1.00  0.00    -0.550 OA
ATOM     17  O   UNL     1      48.716   8.477  19.304  1.00  0.00    -0.550 OA
ENDBRANCH  14  15
ENDBRANCH  13  14
ENDBRANCH  12  13
ENDBRANCH  11  12
ENDBRANCH  10  11
ENDBRANCH   9  10
ENDBRANCH   8   9
ENDBRANCH   7   8
ENDBRANCH   6   7
ENDBRANCH   5   6
ENDBRANCH   4   5
ENDBRANCH   3   4
ENDBRANCH   2   3
ENDBRANCH   1   2
BRANCH   1  18
ATOM     18  C   UNL     1      48.340   1.780  20.400  1.00  0.00     0.000 C 
BRANCH  18  19
ATOM     19  C   UNL     1      46.874   1.878  19.954  1.00  0.00     0.000 C 
BRANCH  19  20
ATOM     20  C   UNL     1      46.095   2.984  20.688  1.00  0.00     0.000 C 
BRANCH  20  21
ATOM     21  C   UNL     1      44.808   3.393  19.951  1.00  0.00     0.000 C 
BRANCH  21  22
ATOM     22  C   UNL     1      43.549   3.244  20.821  1.00  0.00     0.000 C 
BRANCH  22  23
ATOM     23  C   UNL     1      43.660   2.094  21.835  1.00  0.00     0.000 C 
BRANCH  23  24
ATOM     24  C   UNL     1      43.217   0.743  21.250  1.00  0.00    -0.000 C 
BRANCH  24  25
ATOM     25  C   UNL     1      43.104  -0.364  22.324  1.00  0.00    -0.000 C 
BRANCH  25  26
ATOM     26  C   UNL     1      43.293   0.153  23.761  1.00  0.00    -0.000 C 
BRANCH  26  27
ATOM     27  C   UNL     1      44.497  -0.451  24.506  1.00  0.00    -0.000 C 
BRANCH  27  28
ATOM     28  C   UNL     1      45.676   0.533  24.681  1.00  0.00    -0.000 C 
BRANCH  28  29
ATOM     29  C   UNL     1      46.617   0.561  23.465  1.00  0.00    -0.000 C 
BRANCH  29  30
ATOM     30  C   UNL     1      46.714  -0.802  22.761  1.00  0.00    -0.000 C 
BRANCH  30  31
ATOM     31  C   UNL     1      48.166  -1.270  22.578  1.00  0.00    -0.003 C 
ATOM     32  C   UNL     1      48.358  -2.681  23.125  1.00  0.00     0.004 C 
ENDBRANCH  30  31
ENDBRANCH  29  30
ENDBRANCH  28  29
ENDBRANCH  27  28
ENDBRANCH  26  27
ENDBRANCH  25  26
ENDBRANCH  24  25
ENDBRANCH  23  24
ENDBRANCH  22  23
ENDBRANCH  21  22
ENDBRANCH  20  21
ENDBRANCH  19  20
ENDBRANCH  18  19
ENDBRANCH   1  18
TORSDOF 28
ENDMDL
MODEL 4
REMARK VINA RESULT:    -4.570      2.341      6.085
REMARK INTER + INTRA:         -16.881
REMARK INTER:                 -11.124
REMARK INTRA:                  -5.757
REMARK UNBOUND:                -4.830
REMARK SMILES CCCCCCCCCCCCCCCCCCCCCCCCCCCCCC(=O)[O-]
REMARK SMILES IDX 16 1 17 2 18 3 19 4 20 5 21 6 22 7 23 8 24 9 25 10 26 11
REMARK SMILES IDX 27 12 28 13 29 14 30 15 31 16 32 17 15 18 14 19 13 20 12 21
REMARK SMILES IDX 11 22 10 23 9 24 8 25 7 26 6 27 5 28 4 29 3 30 2 31 1 32
REMARK H PARENT
REMARK Flexibility Score: inf
ROOT
ATOM      1  C   UNL     1      47.741   3.759  24.346  1.00  0.00     0.000 C 
ENDROOT
BRANCH   1   2
ATOM      2  C   UNL     1      46.591   2.742  24.284  1.00  0.00     0.000 C 
BRANCH   2   3
ATOM      3  C   UNL     1      47.065   1.297  24.050  1.00  0.00     0.000 C 
BRANCH   3   4
ATOM      4  C   UNL     1      45.986   0.320  23.539  1.00  0.00     0.000 C 
BRANCH   4   5
ATOM      5  C   UNL     1      44.562   0.895  23.433  1.00  0.00     0.000 C 
BRANCH   5   6
ATOM      6  C   UNL     1      43.864   0.560  22.103  1.00  0.00     0.000 C 
BRANCH   6   7
ATOM      7  C   UNL     1      43.505   1.815  21.289  1.00  0.00     0.000 C 
BRANCH   7   8
ATOM      8  C   UNL     1      43.655   3.157  22.034  1.00  0.00     0.000 C 
BRANCH   8   9
ATOM      9  C   UNL     1      44.639   4.146  21.378  1.00  0.00     0.000 C 
BRANCH   9  10
ATOM     10  C   UNL     1      45.459   3.523  20.233  1.00  0.00     0.000 C 
BRANCH  10  11
ATOM     11  C   UNL     1      46.892   3.194  20.686  1.00  0.00     0.000 C 
BRANCH  11  12
ATOM     12  C   UNL     1      47.309   1.767  20.291  1.00  0.00     0.000 C 
BRANCH  12  13
ATOM     13  C   UNL     1      48.726   1.417  20.775  1.00  0.00     0.006 C 
BRANCH  13  14
ATOM     14  C   UNL     1      49.484   2.670  21.248  1.00  0.00     0.053 C 
BRANCH  14  15
ATOM     15  C   UNL     1      50.849   2.754  20.635  1.00  0.00     0.041 C 
ATOM     16  O   UNL     1      50.979   3.022  19.410  1.00  0.00    -0.550 OA
ATOM     17  O   UNL     1      51.981   2.559  21.422  1.00  0.00    -0.550 OA
ENDBRANCH  14  15
ENDBRANCH  13  14
ENDBRANCH  12  13
ENDBRANCH  11  12
ENDBRANCH  10  11
ENDBRANCH   9  10
ENDBRANCH   8   9
ENDBRANCH   7   8
ENDBRANCH   6   7
ENDBRANCH   5   6
ENDBRANCH   4   5
ENDBRANCH   3   4
ENDBRANCH   2   3
ENDBRANCH   1   2
BRANCH   1  18
ATOM     18  C   UNL     1      48.975   3.149  25.035  1.00  0.00     0.000 C 
BRANCH  18  19
ATOM     19  C   UNL     1      48.844   3.100  26.564  1.00  0.00     0.000 C 
BRANCH  19  20
ATOM     20  C   UNL     1      49.643   4.209  27.271  1.00  0.00     0.000 C 
BRANCH  20  21
ATOM     21  C   UNL     1      48.813   5.485  27.499  1.00  0.00     0.000 C 
BRANCH  21  22
ATOM     22  C   UNL     1      49.410   6.718  26.802  1.00  0.00     0.000 C 
BRANCH  22  23
ATOM     23  C   UNL     1      50.585   6.366  25.875  1.00  0.00     0.000 C 
BRANCH  23  24
ATOM     24  C   UNL     1      50.349   6.812  24.422  1.00  0.00    -0.000 C 
BRANCH  24  25
ATOM     25  C   UNL     1      50.019   8.319  24.309  1.00  0.00    -0.000 C 
BRANCH  25  26
ATOM     26  C   UNL     1      48.577   8.600  23.853  1.00  0.00    -0.000 C 
BRANCH  26  27
ATOM     27  C   UNL     1      47.747   7.343  23.538  1.00  0.00    -0.000 C 
BRANCH  27  28
ATOM     28  C   UNL     1      47.096   7.363  22.136  1.00  0.00    -0.000 C 
BRANCH  28  29
ATOM     29  C   UNL     1      47.996   6.749  21.050  1.00  0.00    -0.000 C 
BRANCH  29  30
ATOM     30  C   UNL     1      48.796   7.808  20.275  1.00  0.00    -0.000 C 
BRANCH  30  31
ATOM     31  C   UNL     1      50.303   7.733  20.559  1.00  0.00    -0.003 C 
ATOM     32  C   UNL     1      51.111   8.207  19.355  1.00  0.00     0.004 C 
ENDBRANCH  30  31
ENDBRANCH  29  30
ENDBRANCH  28  29
ENDBRANCH  27  28
ENDBRANCH  26  27
ENDBRANCH  25  26
ENDBRANCH  24  25
ENDBRANCH  23  24
ENDBRANCH  22  23
ENDBRANCH  21  22
ENDBRANCH  20  21
ENDBRANCH  19  20
ENDBRANCH  18  19
ENDBRANCH   1  18
TORSDOF 28
ENDMDL
MODEL 5
REMARK VINA RESULT:    -4.567      2.599      7.404
REMARK INTER + INTRA:         -16.874
REMARK INTER:                 -11.090
REMARK INTRA:                  -5.784
REMARK UNBOUND:                -4.830
REMARK SMILES CCCCCCCCCCCCCCCCCCCCCCCCCCCCCC(=O)[O-]
REMARK SMILES IDX 16 1 17 2 18 3 19 4 20 5 21 6 22 7 23 8 24 9 25 10 26 11
REMARK SMILES IDX 27 12 28 13 29 14 30 15 31 16 32 17 15 18 14 19 13 20 12 21
REMARK SMILES IDX 11 22 10 23 9 24 8 25 7 26 6 27 5 28 4 29 3 30 2 31 1 32
REMARK H PARENT
REMARK Flexibility Score: inf
ROOT
ATOM      1  C   UNL     1      46.411   5.962  21.953  1.00  0.00     0.000 C 
ENDROOT
BRANCH   1   2
ATOM      2  C   UNL     1      46.004   6.016  23.433  1.00  0.00     0.000 C 
BRANCH   2   3
ATOM      3  C   UNL     1      46.222   7.395  24.078  1.00  0.00     0.000 C 
BRANCH   3   4
ATOM      4  C   UNL     1      46.653   7.374  25.559  1.00  0.00     0.000 C 
BRANCH   4   5
ATOM      5  C   UNL     1      46.837   5.977  26.180  1.00  0.00     0.000 C 
BRANCH   5   6
ATOM      6  C   UNL     1      48.038   5.888  27.138  1.00  0.00     0.000 C 
BRANCH   6   7
ATOM      7  C   UNL     1      49.255   5.196  26.500  1.00  0.00     0.000 C 
BRANCH   7   8
ATOM      8  C   UNL     1      50.495   6.089  26.292  1.00  0.00     0.000 C 
BRANCH   8   9
ATOM      9  C   UNL     1      50.545   6.806  24.928  1.00  0.00     0.000 C 
BRANCH   9  10
ATOM     10  C   UNL     1      50.067   8.269  24.991  1.00  0.00     0.000 C 
BRANCH  10  11
ATOM     11  C   UNL     1      49.655   8.783  23.600  1.00  0.00     0.000 C 
BRANCH  11  12
ATOM     12  C   UNL     1      49.832   7.710  22.512  1.00  0.00     0.000 C 
BRANCH  12  13
ATOM     13  C   UNL     1      49.530   8.249  21.104  1.00  0.00     0.006 C 
BRANCH  13  14
ATOM     14  C   UNL     1      50.678   7.942  20.127  1.00  0.00     0.053 C 
BRANCH  14  15
ATOM     15  C   UNL     1      50.534   8.710  18.848  1.00  0.00     0.041 C 
ATOM     16  O   UNL     1      50.539   9.971  18.861  1.00  0.00    -0.550 OA
ATOM     17  O   UNL     1      50.418   8.034  17.636  1.00  0.00    -0.550 OA
ENDBRANCH  14  15
ENDBRANCH  13  14
ENDBRANCH  12  13
ENDBRANCH  11  12
ENDBRANCH  10  11
ENDBRANCH   9  10
ENDBRANCH   8   9
ENDBRANCH   7   8
ENDBRANCH   6   7
ENDBRANCH   5   6
ENDBRANCH   4   5
ENDBRANCH   3   4
ENDBRANCH   2   3
ENDBRANCH   1   2
BRANCH   1  18
ATOM     18  C   UNL     1      47.638   5.056  21.755  1.00  0.00     0.000 C 
BRANCH  18  19
ATOM     19  C   UNL     1      48.185   4.492  23.074  1.00  0.00     0.000 C 
BRANCH  19  20
ATOM     20  C   UNL     1      49.634   3.986  22.957  1.00  0.00     0.000 C 
BRANCH  20  21
ATOM     21  C   UNL     1      50.034   3.662  21.507  1.00  0.00     0.000 C 
BRANCH  21  22
ATOM     22  C   UNL     1      50.233   2.157  21.265  1.00  0.00     0.000 C 
BRANCH  22  23
ATOM     23  C   UNL     1      49.548   1.288  22.332  1.00  0.00     0.000 C 
BRANCH  23  24
ATOM     24  C   UNL     1      49.079  -0.069  21.780  1.00  0.00    -0.000 C 
BRANCH  24  25
ATOM     25  C   UNL     1      47.773   0.041  20.960  1.00  0.00    -0.000 C 
BRANCH  25  26
ATOM     26  C   UNL     1      47.013   1.360  21.187  1.00  0.00    -0.000 C 
BRANCH  26  27
ATOM     27  C   UNL     1      46.650   2.121  19.899  1.00  0.00    -0.000 C 
BRANCH  27  28
ATOM     28  C   UNL     1      45.399   3.017  20.039  1.00  0.00    -0.000 C 
BRANCH  28  29
ATOM     29  C   UNL     1      44.330   2.410  20.964  1.00  0.00    -0.000 C 
BRANCH  29  30
ATOM     30  C   UNL     1      43.538   3.479  21.734  1.00  0.00    -0.000 C 
BRANCH  30  31
ATOM     31  C   UNL     1      43.428   3.166  23.233  1.00  0.00    -0.003 C 
ATOM     32  C   UNL     1      44.723   2.557  23.761  1.00  0.00     0.004 C 
ENDBRANCH  30  31
ENDBRANCH  29  30
ENDBRANCH  28  29
ENDBRANCH  27  28
ENDBRANCH  26  27
ENDBRANCH  25  26
ENDBRANCH  24  25
ENDBRANCH  23  24
ENDBRANCH  22  23
ENDBRANCH  21  22
ENDBRANCH  20  21
ENDBRANCH  19  20
ENDBRANCH  18  19
ENDBRANCH   1  18
TORSDOF 28
ENDMDL
MODEL 6
REMARK VINA RESULT:    -4.524      3.229      7.346
REMARK INTER + INTRA:         -16.758
REMARK INTER:                 -11.880
REMARK INTRA:                  -4.879
REMARK UNBOUND:                -4.830
REMARK SMILES CCCCCCCCCCCCCCCCCCCCCCCCCCCCCC(=O)[O-]
REMARK SMILES IDX 16 1 17 2 18 3 19 4 20 5 21 6 22 7 23 8 24 9 25 10 26 11
REMARK SMILES IDX 27 12 28 13 29 14 30 15 31 16 32 17 15 18 14 19 13 20 12 21
REMARK SMILES IDX 11 22 10 23 9 24 8 25 7 26 6 27 5 28 4 29 3 30 2 31 1 32
REMARK H PARENT
REMARK Flexibility Score: inf
ROOT
ATOM      1  C   UNL     1      47.558   0.795  20.420  1.00  0.00     0.000 C 
ENDROOT
BRANCH   1   2
ATOM      2  C   UNL     1      46.857   2.035  19.846  1.00  0.00     0.000 C 
BRANCH   2   3
ATOM      3  C   UNL     1      46.069   2.835  20.898  1.00  0.00     0.000 C 
BRANCH   3   4
ATOM      4  C   UNL     1      44.633   3.227  20.494  1.00  0.00     0.000 C 
BRANCH   4   5
ATOM      5  C   UNL     1      43.506   2.448  21.196  1.00  0.00     0.000 C 
BRANCH   5   6
ATOM      6  C   UNL     1      43.601   0.924  20.997  1.00  0.00     0.000 C 
BRANCH   6   7
ATOM      7  C   UNL     1      43.147   0.135  22.237  1.00  0.00     0.000 C 
BRANCH   7   8
ATOM      8  C   UNL     1      43.305   0.867  23.586  1.00  0.00     0.000 C 
BRANCH   8   9
ATOM      9  C   UNL     1      44.247   0.168  24.586  1.00  0.00     0.000 C 
BRANCH   9  10
ATOM     10  C   UNL     1      45.348   1.093  25.137  1.00  0.00     0.000 C 
BRANCH  10  11
ATOM     11  C   UNL     1      45.269   2.494  24.506  1.00  0.00     0.000 C 
BRANCH  11  12
ATOM     12  C   UNL     1      46.335   3.445  25.077  1.00  0.00     0.000 C 
BRANCH  12  13
ATOM     13  C   UNL     1      47.653   3.388  24.287  1.00  0.00     0.006 C 
BRANCH  13  14
ATOM     14  C   UNL     1      48.846   3.068  25.205  1.00  0.00     0.053 C 
BRANCH  14  15
ATOM     15  C   UNL     1      49.184   4.226  26.094  1.00  0.00     0.041 C 
ATOM     16  O   UNL     1      49.387   4.043  27.324  1.00  0.00    -0.550 OA
ATOM     17  O   UNL     1      49.300   5.507  25.559  1.00  0.00    -0.550 OA
ENDBRANCH  14  15
ENDBRANCH  13  14
ENDBRANCH  12  13
ENDBRANCH  11  12
ENDBRANCH  10  11
ENDBRANCH   9  10
ENDBRANCH   8   9
ENDBRANCH   7   8
ENDBRANCH   6   7
ENDBRANCH   5   6
ENDBRANCH   4   5
ENDBRANCH   3   4
ENDBRANCH   2   3
ENDBRANCH   1   2
BRANCH   1  18
ATOM     18  C   UNL     1      47.267   0.649  21.924  1.00  0.00     0.000 C 
BRANCH  18  19
ATOM     19  C   UNL     1      47.352  -0.804  22.413  1.00  0.00     0.000 C 
BRANCH  19  20
ATOM     20  C   UNL     1      48.799  -1.288  22.616  1.00  0.00     0.000 C 
BRANCH  20  21
ATOM     21  C   UNL     1      49.703  -0.209  23.238  1.00  0.00     0.000 C 
BRANCH  21  22
ATOM     22  C   UNL     1      51.024  -0.025  22.473  1.00  0.00     0.000 C 
BRANCH  22  23
ATOM     23  C   UNL     1      51.499   1.437  22.452  1.00  0.00     0.000 C 
BRANCH  23  24
ATOM     24  C   UNL     1      50.408   2.408  21.969  1.00  0.00    -0.000 C 
BRANCH  24  25
ATOM     25  C   UNL     1      50.637   2.887  20.517  1.00  0.00    -0.000 C 
BRANCH  25  26
ATOM     26  C   UNL     1      52.016   2.504  19.953  1.00  0.00    -0.000 C 
BRANCH  26  27
ATOM     27  C   UNL     1      52.727   3.629  19.179  1.00  0.00    -0.000 C 
BRANCH  27  28
ATOM     28  C   UNL     1      51.769   4.514  18.350  1.00  0.00    -0.000 C 
BRANCH  28  29
ATOM     29  C   UNL     1      52.276   5.957  18.191  1.00  0.00    -0.000 C 
BRANCH  29  30
ATOM     30  C   UNL     1      51.505   6.955  19.070  1.00  0.00    -0.000 C 
BRANCH  30  31
ATOM     31  C   UNL     1      50.774   8.025  18.246  1.00  0.00    -0.003 C 
ATOM     32  C   UNL     1      50.631   9.321  19.038  1.00  0.00     0.004 C 
ENDBRANCH  30  31
ENDBRANCH  29  30
ENDBRANCH  28  29
ENDBRANCH  27  28
ENDBRANCH  26  27
ENDBRANCH  25  26
ENDBRANCH  24  25
ENDBRANCH  23  24
ENDBRANCH  22  23
ENDBRANCH  21  22
ENDBRANCH  20  21
ENDBRANCH  19  20
ENDBRANCH  18  19
ENDBRANCH   1  18
TORSDOF 28
ENDMDL
MODEL 7
REMARK VINA RESULT:    -4.523      3.032      6.758
REMARK INTER + INTRA:         -16.756
REMARK INTER:                 -11.061
REMARK INTRA:                  -5.695
REMARK UNBOUND:                -4.830
REMARK SMILES CCCCCCCCCCCCCCCCCCCCCCCCCCCCCC(=O)[O-]
REMARK SMILES IDX 16 1 17 2 18 3 19 4 20 5 21 6 22 7 23 8 24 9 25 10 26 11
REMARK SMILES IDX 27 12 28 13 29 14 30 15 31 16 32 17 15 18 14 19 13 20 12 21
REMARK SMILES IDX 11 22 10 23 9 24 8 25 7 26 6 27 5 28 4 29 3 30 2 31 1 32
REMARK H PARENT
REMARK Flexibility Score: inf
ROOT
ATOM      1  C   UNL     1      47.148   4.557  26.302  1.00  0.00     0.000 C 
ENDROOT
BRANCH   1   2
ATOM      2  C   UNL     1      47.982   4.688  27.585  1.00  0.00     0.000 C 
BRANCH   2   3
ATOM      3  C   UNL     1      49.481   4.414  27.370  1.00  0.00     0.000 C 
BRANCH   3   4
ATOM      4  C   UNL     1      50.375   5.667  27.262  1.00  0.00     0.000 C 
BRANCH   4   5
ATOM      5  C   UNL     1      50.691   6.138  25.830  1.00  0.00     0.000 C 
BRANCH   5   6
ATOM      6  C   UNL     1      49.769   7.271  25.342  1.00  0.00     0.000 C 
BRANCH   6   7
ATOM      7  C   UNL     1      50.212   7.853  23.989  1.00  0.00     0.000 C 
BRANCH   7   8
ATOM      8  C   UNL     1      49.405   7.376  22.763  1.00  0.00     0.000 C 
BRANCH   8   9
ATOM      9  C   UNL     1      48.190   6.491  23.103  1.00  0.00     0.000 C 
BRANCH   9  10
ATOM     10  C   UNL     1      48.096   5.223  22.234  1.00  0.00     0.000 C 
BRANCH  10  11
ATOM     11  C   UNL     1      48.624   3.989  22.986  1.00  0.00     0.000 C 
BRANCH  11  12
ATOM     12  C   UNL     1      50.077   3.658  22.604  1.00  0.00     0.000 C 
BRANCH  12  13
ATOM     13  C   UNL     1      50.427   4.119  21.179  1.00  0.00     0.006 C 
BRANCH  13  14
ATOM     14  C   UNL     1      50.455   2.935  20.197  1.00  0.00     0.053 C 
BRANCH  14  15
ATOM     15  C   UNL     1      51.641   3.004  19.283  1.00  0.00     0.041 C 
ATOM     16  O   UNL     1      51.816   4.012  18.547  1.00  0.00    -0.550 OA
ATOM     17  O   UNL     1      52.567   1.965  19.262  1.00  0.00    -0.550 OA
ENDBRANCH  14  15
ENDBRANCH  13  14
ENDBRANCH  12  13
ENDBRANCH  11  12
ENDBRANCH  10  11
ENDBRANCH   9  10
ENDBRANCH   8   9
ENDBRANCH   7   8
ENDBRANCH   6   7
ENDBRANCH   5   6
ENDBRANCH   4   5
ENDBRANCH   3   4
ENDBRANCH   2   3
ENDBRANCH   1   2
BRANCH   1  18
ATOM     18  C   UNL     1      45.997   5.579  26.290  1.00  0.00     0.000 C 
BRANCH  18  19
ATOM     19  C   UNL     1      46.385   6.924  26.922  1.00  0.00     0.000 C 
BRANCH  19  20
ATOM     20  C   UNL     1      46.263   8.106  25.944  1.00  0.00     0.000 C 
BRANCH  20  21
ATOM     21  C   UNL     1      45.252   7.840  24.815  1.00  0.00     0.000 C 
BRANCH  21  22
ATOM     22  C   UNL     1      44.399   9.072  24.475  1.00  0.00     0.000 C 
BRANCH  22  23
ATOM     23  C   UNL     1      44.829  10.326  25.254  1.00  0.00     0.000 C 
BRANCH  23  24
ATOM     24  C   UNL     1      45.376  11.434  24.338  1.00  0.00    -0.000 C 
BRANCH  24  25
ATOM     25  C   UNL     1      46.920  11.507  24.349  1.00  0.00    -0.000 C 
BRANCH  25  26
ATOM     26  C   UNL     1      47.591  10.489  23.410  1.00  0.00    -0.000 C 
BRANCH  26  27
ATOM     27  C   UNL     1      47.121  10.561  21.946  1.00  0.00    -0.000 C 
BRANCH  27  28
ATOM     28  C   UNL     1      46.417   9.275  21.457  1.00  0.00    -0.000 C 
BRANCH  28  29
ATOM     29  C   UNL     1      47.034   8.710  20.166  1.00  0.00    -0.000 C 
BRANCH  29  30
ATOM     30  C   UNL     1      48.398   9.338  19.838  1.00  0.00    -0.000 C 
BRANCH  30  31
ATOM     31  C   UNL     1      49.364   8.341  19.182  1.00  0.00    -0.003 C 
ATOM     32  C   UNL     1      50.799   8.856  19.232  1.00  0.00     0.004 C 
ENDBRANCH  30  31
ENDBRANCH  29  30
ENDBRANCH  28  29
ENDBRANCH  27  28
ENDBRANCH  26  27
ENDBRANCH  25  26
ENDBRANCH  24  25
ENDBRANCH  23  24
ENDBRANCH  22  23
ENDBRANCH  21  22
ENDBRANCH  20  21
ENDBRANCH  19  20
ENDBRANCH  18  19
ENDBRANCH   1  18
TORSDOF 28
ENDMDL
MODEL 8
REMARK VINA RESULT:    -4.504      2.557      7.444
REMARK INTER + INTRA:         -16.708
REMARK INTER:                 -11.391
REMARK INTRA:                  -5.317
REMARK UNBOUND:                -4.830
REMARK SMILES CCCCCCCCCCCCCCCCCCCCCCCCCCCCCC(=O)[O-]
REMARK SMILES IDX 16 1 17 2 18 3 19 4 20 5 21 6 22 7 23 8 24 9 25 10 26 11
REMARK SMILES IDX 27 12 28 13 29 14 30 15 31 16 32 17 15 18 14 19 13 20 12 21
REMARK SMILES IDX 11 22 10 23 9 24 8 25 7 26 6 27 5 28 4 29 3 30 2 31 1 32
REMARK H PARENT
REMARK Flexibility Score: inf
ROOT
ATOM      1  C   UNL     1      49.885   4.562  23.939  1.00  0.00     0.000 C 
ENDROOT
BRANCH   1   2
ATOM      2  C   UNL     1      49.252   3.900  25.173  1.00  0.00     0.000 C 
BRANCH   2   3
ATOM      3  C   UNL     1      49.625   4.591  26.496  1.00  0.00     0.000 C 
BRANCH   3   4
ATOM      4  C   UNL     1      50.361   5.939  26.356  1.00  0.00     0.000 C 
BRANCH   4   5
ATOM      5  C   UNL     1      49.832   7.083  27.242  1.00  0.00     0.000 C 
BRANCH   5   6
ATOM      6  C   UNL     1      48.508   6.744  27.951  1.00  0.00     0.000 C 
BRANCH   6   7
ATOM      7  C   UNL     1      47.290   7.398  27.276  1.00  0.00     0.000 C 
BRANCH   7   8
ATOM      8  C   UNL     1      46.402   6.450  26.444  1.00  0.00     0.000 C 
BRANCH   8   9
ATOM      9  C   UNL     1      46.658   6.504  24.924  1.00  0.00     0.000 C 
BRANCH   9  10
ATOM     10  C   UNL     1      47.570   7.671  24.500  1.00  0.00     0.000 C 
BRANCH  10  11
ATOM     11  C   UNL     1      47.517   7.898  22.979  1.00  0.00     0.000 C 
BRANCH  11  12
ATOM     12  C   UNL     1      48.631   8.843  22.498  1.00  0.00     0.000 C 
BRANCH  12  13
ATOM     13  C   UNL     1      49.701   8.113  21.670  1.00  0.00     0.006 C 
BRANCH  13  14
ATOM     14  C   UNL     1      49.313   8.049  20.182  1.00  0.00     0.053 C 
BRANCH  14  15
ATOM     15  C   UNL     1      50.487   8.328  19.293  1.00  0.00     0.041 C 
ATOM     16  O   UNL     1      51.623   7.863  19.579  1.00  0.00    -0.550 OA
ATOM     17  O   UNL     1      50.322   9.082  18.134  1.00  0.00    -0.550 OA
ENDBRANCH  14  15
ENDBRANCH  13  14
ENDBRANCH  12  13
ENDBRANCH  11  12
ENDBRANCH  10  11
ENDBRANCH   9  10
ENDBRANCH   8   9
ENDBRANCH   7   8
ENDBRANCH   6   7
ENDBRANCH   5   6
ENDBRANCH   4   5
ENDBRANCH   3   4
ENDBRANCH   2   3
ENDBRANCH   1   2
BRANCH   1  18
ATOM     18  C   UNL     1      48.947   4.461  22.724  1.00  0.00     0.000 C 
BRANCH  18  19
ATOM     19  C   UNL     1      49.693   4.542  21.384  1.00  0.00     0.000 C 
BRANCH  19  20
ATOM     20  C   UNL     1      50.095   3.162  20.835  1.00  0.00     0.000 C 
BRANCH  20  21
ATOM     21  C   UNL     1      51.613   3.024  20.629  1.00  0.00     0.000 C 
BRANCH  21  22
ATOM     22  C   UNL     1      52.198   1.781  21.319  1.00  0.00     0.000 C 
BRANCH  22  23
ATOM     23  C   UNL     1      51.874   1.727  22.821  1.00  0.00     0.000 C 
BRANCH  23  24
ATOM     24  C   UNL     1      51.123   0.445  23.219  1.00  0.00    -0.000 C 
BRANCH  24  25
ATOM     25  C   UNL     1      49.631   0.701  23.532  1.00  0.00    -0.000 C 
BRANCH  25  26
ATOM     26  C   UNL     1      48.668  -0.007  22.563  1.00  0.00    -0.000 C 
BRANCH  26  27
ATOM     27  C   UNL     1      47.574   0.899  21.969  1.00  0.00    -0.000 C 
BRANCH  27  28
ATOM     28  C   UNL     1      47.424   0.768  20.437  1.00  0.00    -0.000 C 
BRANCH  28  29
ATOM     29  C   UNL     1      46.820   2.024  19.785  1.00  0.00    -0.000 C 
BRANCH  29  30
ATOM     30  C   UNL     1      46.128   2.944  20.804  1.00  0.00    -0.000 C 
BRANCH  30  31
ATOM     31  C   UNL     1      44.662   3.226  20.442  1.00  0.00    -0.003 C 
ATOM     32  C   UNL     1      43.754   2.098  20.920  1.00  0.00     0.004 C 
ENDBRANCH  30  31
ENDBRANCH  29  30
ENDBRANCH  28  29
ENDBRANCH  27  28
ENDBRANCH  26  27
ENDBRANCH  25  26
ENDBRANCH  24  25
ENDBRANCH  23  24
ENDBRANCH  22  23
ENDBRANCH  21  22
ENDBRANCH  20  21
ENDBRANCH  19  20
ENDBRANCH  18  19
ENDBRANCH   1  18
TORSDOF 28
ENDMDL
MODEL 9
REMARK VINA RESULT:    -4.464      3.491      6.736
REMARK INTER + INTRA:         -16.601
REMARK INTER:                 -10.713
REMARK INTRA:                  -5.888
REMARK UNBOUND:                -4.830
REMARK SMILES CCCCCCCCCCCCCCCCCCCCCCCCCCCCCC(=O)[O-]
REMARK SMILES IDX 16 1 17 2 18 3 19 4 20 5 21 6 22 7 23 8 24 9 25 10 26 11
REMARK SMILES IDX 27 12 28 13 29 14 30 15 31 16 32 17 15 18 14 19 13 20 12 21
REMARK SMILES IDX 11 22 10 23 9 24 8 25 7 26 6 27 5 28 4 29 3 30 2 31 1 32
REMARK H PARENT
REMARK Flexibility Score: inf
ROOT
ATOM      1  C   UNL     1      44.723   3.360  19.852  1.00  0.00     0.000 C 
ENDROOT
BRANCH   1   2
ATOM      2  C   UNL     1      45.956   3.398  20.768  1.00  0.00     0.000 C 
BRANCH   2   3
ATOM      3  C   UNL     1      47.156   2.613  20.211  1.00  0.00     0.000 C 
BRANCH   3   4
ATOM      4  C   UNL     1      46.996   1.079  20.196  1.00  0.00     0.000 C 
BRANCH   4   5
ATOM      5  C   UNL     1      47.713   0.323  21.330  1.00  0.00     0.000 C 
BRANCH   5   6
ATOM      6  C   UNL     1      46.842   0.131  22.584  1.00  0.00     0.000 C 
BRANCH   6   7
ATOM      7  C   UNL     1      46.958   1.305  23.571  1.00  0.00     0.000 C 
BRANCH   7   8
ATOM      8  C   UNL     1      48.326   1.457  24.268  1.00  0.00     0.000 C 
BRANCH   8   9
ATOM      9  C   UNL     1      48.853   2.904  24.335  1.00  0.00     0.000 C 
BRANCH   9  10
ATOM     10  C   UNL     1      49.184   3.498  22.953  1.00  0.00     0.000 C 
BRANCH  10  11
ATOM     11  C   UNL     1      48.809   4.989  22.881  1.00  0.00     0.000 C 
BRANCH  11  12
ATOM     12  C   UNL     1      49.065   5.581  21.484  1.00  0.00     0.000 C 
BRANCH  12  13
ATOM     13  C   UNL     1      49.622   7.013  21.549  1.00  0.00     0.006 C 
BRANCH  13  14
ATOM     14  C   UNL     1      49.394   7.765  20.226  1.00  0.00     0.053 C 
BRANCH  14  15
ATOM     15  C   UNL     1      50.687   8.218  19.618  1.00  0.00     0.041 C 
ATOM     16  O   UNL     1      51.661   7.423  19.536  1.00  0.00    -0.550 OA
ATOM     17  O   UNL     1      50.809   9.512  19.119  1.00  0.00    -0.550 OA
ENDBRANCH  14  15
ENDBRANCH  13  14
ENDBRANCH  12  13
ENDBRANCH  11  12
ENDBRANCH  10  11
ENDBRANCH   9  10
ENDBRANCH   8   9
ENDBRANCH   7   8
ENDBRANCH   6   7
ENDBRANCH   5   6
ENDBRANCH   4   5
ENDBRANCH   3   4
ENDBRANCH   2   3
ENDBRANCH   1   2
BRANCH   1  18
ATOM     18  C   UNL     1      43.438   3.147  20.671  1.00  0.00     0.000 C 
BRANCH  18  19
ATOM     19  C   UNL     1      43.596   2.082  21.766  1.00  0.00     0.000 C 
BRANCH  19  20
ATOM     20  C   UNL     1      43.348   0.652  21.255  1.00  0.00     0.000 C 
BRANCH  20  21
ATOM     21  C   UNL     1      43.168  -0.364  22.396  1.00  0.00     0.000 C 
BRANCH  21  22
ATOM     22  C   UNL     1      43.139   0.297  23.784  1.00  0.00     0.000 C 
BRANCH  22  23
ATOM     23  C   UNL     1      43.947  -0.486  24.832  1.00  0.00     0.000 C 
BRANCH  23  24
ATOM     24  C   UNL     1      44.180   0.318  26.122  1.00  0.00    -0.000 C 
BRANCH  24  25
ATOM     25  C   UNL     1      43.076   1.371  26.375  1.00  0.00    -0.000 C 
BRANCH  25  26
ATOM     26  C   UNL     1      43.606   2.815  26.433  1.00  0.00    -0.000 C 
BRANCH  26  27
ATOM     27  C   UNL     1      45.138   2.939  26.364  1.00  0.00    -0.000 C 
BRANCH  27  28
ATOM     28  C   UNL     1      45.626   4.162  25.554  1.00  0.00    -0.000 C 
BRANCH  28  29
ATOM     29  C   UNL     1      44.864   4.345  24.231  1.00  0.00    -0.000 C 
BRANCH  29  30
ATOM     30  C   UNL     1      45.113   5.720  23.591  1.00  0.00    -0.000 C 
BRANCH  30  31
ATOM     31  C   UNL     1      44.044   6.089  22.551  1.00  0.00    -0.003 C 
ATOM     32  C   UNL     1      43.713   7.577  22.611  1.00  0.00     0.004 C 
ENDBRANCH  30  31
ENDBRANCH  29  30
ENDBRANCH  28  29
ENDBRANCH  27  28
ENDBRANCH  26  27
ENDBRANCH  25  26
ENDBRANCH  24  25
ENDBRANCH  23  24
ENDBRANCH  22  23
ENDBRANCH  21  22
ENDBRANCH  20  21
ENDBRANCH  19  20
ENDBRANCH  18  19
ENDBRANCH   1  18
TORSDOF 28
ENDMDL
