MODEL 1
REMARK VINA RESULT:     1.784      0.000      0.000
REMARK INTER + INTRA:           1.532
REMARK INTER:                   2.618
REMARK INTRA:                  -1.086
REMARK UNBOUND:                -1.086
REMARK SMILES O=c1c(O[C@@H]2O[C@@H](CO)[C@@H](O)[C@H](O)[C@H]2O)c(-c2ccc(O)c(O)c2)oc2cc(O)cc(O)c12
REMARK SMILES IDX 4 1 3 2 16 3 25 4 2 5 26 6 1 7 33 8 27 9 31 10 28 11 30 12
REMARK SMILES IDX 17 13 18 14 19 15 20 16 24 17 22 18 21 19 23 21 32 23 29 25
REMARK SMILES IDX 5 27 14 28 6 29 12 30 7 31 10 32 15 33 13 35 8 37 9 38 11 40
REMARK H PARENT 21 20 23 22 32 24 29 26 15 34 13 36 9 39 11 41
REMARK Flexibility Score: inf
ROOT
ATOM      1  O   UNL     1       2.802  22.034  26.432  1.00  0.00    -0.454 OA
ENDROOT
BRANCH   1   2
ATOM      2  C   UNL     1       3.695  20.957  26.397  1.00  0.00     0.214 A 
ATOM      3  C   UNL     1       5.066  21.191  26.206  1.00  0.00     0.180 A 
ATOM      4  O   UNL     1       5.914  20.170  26.204  1.00  0.00    -0.452 OA
ATOM      5  C   UNL     1       3.244  19.639  26.553  1.00  0.00     0.239 A 
ATOM      6  C   UNL     1       5.539  18.907  26.371  1.00  0.00     0.146 A 
ATOM      7  O   UNL     1       2.005  19.429  26.618  1.00  0.00    -0.285 OA
ATOM      8  C   UNL     1       4.176  18.574  26.585  1.00  0.00     0.111 A 
ATOM      9  C   UNL     1       6.515  17.909  26.319  1.00  0.00     0.094 A 
ATOM     10  C   UNL     1       3.834  17.203  26.786  1.00  0.00     0.134 A 
ATOM     11  C   UNL     1       6.160  16.567  26.461  1.00  0.00     0.123 A 
ATOM     12  C   UNL     1       4.828  16.222  26.687  1.00  0.00     0.093 A 
BRANCH   3  13
ATOM     13  C   UNL     1       5.611  22.557  26.029  1.00  0.00     0.025 A 
ATOM     14  C   UNL     1       5.637  23.436  27.124  1.00  0.00     0.016 A 
ATOM     15  C   UNL     1       6.136  24.733  26.981  1.00  0.00     0.051 A 
ATOM     16  C   UNL     1       6.626  25.166  25.741  1.00  0.00     0.157 A 
ATOM     17  C   UNL     1       6.134  22.986  24.796  1.00  0.00     0.062 A 
ATOM     18  C   UNL     1       6.628  24.286  24.645  1.00  0.00     0.158 A 
BRANCH  16  19
ATOM     19  O   UNL     1       7.112  26.465  25.597  1.00  0.00    -0.504 OA
ATOM     20  H   UNL     1       7.702  26.729  24.816  1.00  0.00     0.293 HD
ENDBRANCH  16  19
BRANCH  18  21
ATOM     21  O   UNL     1       7.116  24.684  23.400  1.00  0.00    -0.504 OA
ATOM     22  H   UNL     1       6.722  24.337  22.535  1.00  0.00     0.293 HD
ENDBRANCH  18  21
ENDBRANCH   3  13
BRANCH  10  23
ATOM     23  O   UNL     1       2.549  16.757  27.107  1.00  0.00    -0.507 OA
ATOM     24  H   UNL     1       1.734  17.347  27.166  1.00  0.00     0.293 HD
ENDBRANCH  10  23
BRANCH  11  25
ATOM     25  O   UNL     1       7.125  15.565  26.388  1.00  0.00    -0.508 OA
ATOM     26  H   UNL     1       7.075  14.831  25.690  1.00  0.00     0.293 HD
ENDBRANCH  11  25
ENDBRANCH   1   2
BRANCH   1  27
ATOM     27  C   UNL     1       1.695  22.155  25.533  1.00  0.00     0.339 C 
ATOM     28  C   UNL     1       0.621  23.095  26.115  1.00  0.00     0.214 C 
ATOM     29  O   UNL     1       2.111  22.564  24.240  1.00  0.00    -0.332 OA
ATOM     30  C   UNL     1       1.054  24.578  26.049  1.00  0.00     0.180 C 
ATOM     31  C   UNL     1       2.715  23.846  24.267  1.00  0.00     0.179 C 
ATOM     32  C   UNL     1       1.690  24.927  24.684  1.00  0.00     0.177 C 
BRANCH  28  33
ATOM     33  O   UNL     1      -0.572  22.918  25.390  1.00  0.00    -0.384 OA
ATOM     34  H   UNL     1      -0.921  22.018  25.618  1.00  0.00     0.211 HD
ENDBRANCH  28  33
BRANCH  30  35
ATOM     35  O   UNL     1       1.904  24.917  27.123  1.00  0.00    -0.387 OA
ATOM     36  H   UNL     1       2.827  25.008  26.777  1.00  0.00     0.211 HD
ENDBRANCH  30  35
BRANCH  31  37
ATOM     37  C   UNL     1       3.303  24.133  22.876  1.00  0.00     0.191 C 
BRANCH  37  38
ATOM     38  O   UNL     1       2.744  23.283  21.909  1.00  0.00    -0.394 OA
ATOM     39  H   UNL     1       3.490  22.742  21.539  1.00  0.00     0.210 HD
ENDBRANCH  37  38
ENDBRANCH  31  37
BRANCH  32  40
ATOM     40  O   UNL     1       0.682  25.022  23.706  1.00  0.00    -0.387 OA
ATOM     41  H   UNL     1       1.085  25.470  22.919  1.00  0.00     0.211 HD
ENDBRANCH  32  40
ENDBRANCH   1  27
TORSDOF 12
ENDMDL
