MODEL 1
REMARK VINA RESULT:    -7.404      0.000      0.000
REMARK INTER + INTRA:         -12.242
REMARK INTER:                 -10.866
REMARK INTRA:                  -1.376
REMARK UNBOUND:                -1.376
REMARK SMILES O=c1c(O[C@@H]2O[C@@H](CO)[C@@H](O)[C@@H](O)[C@@H]2O)c(-c2ccc(O)c(O)c2)oc2cc(O)cc(O)c12
REMARK SMILES IDX 4 1 3 2 16 3 25 4 2 5 26 6 1 7 33 8 27 9 31 10 28 11 30 12
REMARK SMILES IDX 17 13 18 14 19 15 20 16 24 17 22 18 21 19 23 21 32 23 29 25
REMARK SMILES IDX 5 27 14 28 6 29 12 30 7 31 10 32 15 33 13 35 8 37 9 38 11 40
REMARK H PARENT 21 20 23 22 32 24 29 26 15 34 13 36 9 39 11 41
REMARK Flexibility Score: inf
ROOT
ATOM      1  O   UNL     1      55.657   4.579  79.956  1.00  0.00    -0.454 OA
ENDROOT
BRANCH   1   2
ATOM      2  C   UNL     1      55.970   5.651  79.095  1.00  0.00     0.214 A 
ATOM      3  C   UNL     1      54.955   6.136  78.247  1.00  0.00     0.180 A 
ATOM      4  O   UNL     1      55.180   7.187  77.464  1.00  0.00    -0.452 OA
ATOM      5  C   UNL     1      57.228   6.296  79.065  1.00  0.00     0.239 A 
ATOM      6  C   UNL     1      56.351   7.802  77.388  1.00  0.00     0.146 A 
ATOM      7  O   UNL     1      58.114   5.970  79.896  1.00  0.00    -0.285 OA
ATOM      8  C   UNL     1      57.458   7.352  78.151  1.00  0.00     0.111 A 
ATOM      9  C   UNL     1      56.468   8.915  76.548  1.00  0.00     0.094 A 
ATOM     10  C   UNL     1      58.708   8.021  77.993  1.00  0.00     0.134 A 
ATOM     11  C   UNL     1      57.673   9.606  76.460  1.00  0.00     0.123 A 
ATOM     12  C   UNL     1      58.786   9.160  77.181  1.00  0.00     0.093 A 
BRANCH   3  13
ATOM     13  C   UNL     1      53.608   5.526  78.211  1.00  0.00     0.025 A 
ATOM     14  C   UNL     1      52.483   6.217  78.686  1.00  0.00     0.016 A 
ATOM     15  C   UNL     1      51.223   5.614  78.666  1.00  0.00     0.051 A 
ATOM     16  C   UNL     1      51.071   4.308  78.188  1.00  0.00     0.157 A 
ATOM     17  C   UNL     1      53.457   4.209  77.750  1.00  0.00     0.062 A 
ATOM     18  C   UNL     1      52.193   3.601  77.728  1.00  0.00     0.158 A 
BRANCH  16  19
ATOM     19  O   UNL     1      49.801   3.732  78.179  1.00  0.00    -0.504 OA
ATOM     20  H   UNL     1      49.322   3.497  77.316  1.00  0.00     0.293 HD
ENDBRANCH  16  19
BRANCH  18  21
ATOM     21  O   UNL     1      52.050   2.297  77.252  1.00  0.00    -0.504 OA
ATOM     22  H   UNL     1      51.346   1.671  77.623  1.00  0.00     0.293 HD
ENDBRANCH  18  21
ENDBRANCH   3  13
BRANCH  10  23
ATOM     23  O   UNL     1      59.900   7.588  78.583  1.00  0.00    -0.507 OA
ATOM     24  H   UNL     1      59.978   6.775  79.180  1.00  0.00     0.293 HD
ENDBRANCH  10  23
BRANCH  11  25
ATOM     25  O   UNL     1      57.759  10.733  75.648  1.00  0.00    -0.508 OA
ATOM     26  H   UNL     1      58.637  11.221  75.510  1.00  0.00     0.293 HD
ENDBRANCH  11  25
ENDBRANCH   1   2
BRANCH   1  27
ATOM     27  C   UNL     1      55.339   4.644  81.349  1.00  0.00     0.339 C 
ATOM     28  C   UNL     1      54.041   3.836  81.614  1.00  0.00     0.214 C 
ATOM     29  O   UNL     1      56.417   4.118  82.106  1.00  0.00    -0.332 OA
ATOM     30  C   UNL     1      53.969   3.318  83.073  1.00  0.00     0.180 C 
ATOM     31  C   UNL     1      56.244   4.297  83.513  1.00  0.00     0.179 C 
ATOM     32  C   UNL     1      54.764   4.241  84.004  1.00  0.00     0.177 C 
BRANCH  28  33
ATOM     33  O   UNL     1      53.904   2.767  80.709  1.00  0.00    -0.384 OA
ATOM     34  H   UNL     1      53.185   3.008  80.069  1.00  0.00     0.211 HD
ENDBRANCH  28  33
BRANCH  30  35
ATOM     35  O   UNL     1      52.636   3.234  83.507  1.00  0.00    -0.387 OA
ATOM     36  H   UNL     1      52.656   3.234  84.500  1.00  0.00     0.211 HD
ENDBRANCH  30  35
BRANCH  31  37
ATOM     37  C   UNL     1      57.000   5.549  83.989  1.00  0.00     0.191 C 
BRANCH  37  38
ATOM     38  O   UNL     1      58.018   5.881  83.082  1.00  0.00    -0.394 OA
ATOM     39  H   UNL     1      58.835   6.071  83.619  1.00  0.00     0.210 HD
ENDBRANCH  37  38
ENDBRANCH  31  37
BRANCH  32  40
ATOM     40  O   UNL     1      54.188   5.526  84.019  1.00  0.00    -0.387 OA
ATOM     41  H   UNL     1      53.200   5.404  83.993  1.00  0.00     0.211 HD
ENDBRANCH  32  40
ENDBRANCH   1  27
TORSDOF 12
ENDMDL
MODEL 2
REMARK VINA RESULT:    -7.177      1.773      2.880
REMARK INTER + INTRA:         -11.910
REMARK INTER:                 -10.855
REMARK INTRA:                  -1.055
REMARK UNBOUND:                -1.376
REMARK SMILES O=c1c(O[C@@H]2O[C@@H](CO)[C@@H](O)[C@@H](O)[C@@H]2O)c(-c2ccc(O)c(O)c2)oc2cc(O)cc(O)c12
REMARK SMILES IDX 4 1 3 2 16 3 25 4 2 5 26 6 1 7 33 8 27 9 31 10 28 11 30 12
REMARK SMILES IDX 17 13 18 14 19 15 20 16 24 17 22 18 21 19 23 21 32 23 29 25
REMARK SMILES IDX 5 27 14 28 6 29 12 30 7 31 10 32 15 33 13 35 8 37 9 38 11 40
REMARK H PARENT 21 20 23 22 32 24 29 26 15 34 13 36 9 39 11 41
REMARK Flexibility Score: inf
ROOT
ATOM      1  O   UNL     1      53.742   6.466  81.054  1.00  0.00    -0.454 OA
ENDROOT
BRANCH   1   2
ATOM      2  C   UNL     1      54.661   6.877  80.067  1.00  0.00     0.214 A 
ATOM      3  C   UNL     1      54.466   6.416  78.749  1.00  0.00     0.180 A 
ATOM      4  O   UNL     1      55.265   6.826  77.770  1.00  0.00    -0.452 OA
ATOM      5  C   UNL     1      55.740   7.757  80.311  1.00  0.00     0.239 A 
ATOM      6  C   UNL     1      56.302   7.629  77.962  1.00  0.00     0.146 A 
ATOM      7  O   UNL     1      55.867   8.285  81.445  1.00  0.00    -0.285 OA
ATOM      8  C   UNL     1      56.625   8.098  79.261  1.00  0.00     0.111 A 
ATOM      9  C   UNL     1      57.061   8.018  76.853  1.00  0.00     0.094 A 
ATOM     10  C   UNL     1      57.780   8.920  79.417  1.00  0.00     0.134 A 
ATOM     11  C   UNL     1      58.140   8.883  77.008  1.00  0.00     0.123 A 
ATOM     12  C   UNL     1      58.495   9.331  78.285  1.00  0.00     0.093 A 
BRANCH   3  13
ATOM     13  C   UNL     1      53.364   5.493  78.399  1.00  0.00     0.025 A 
ATOM     14  C   UNL     1      52.023   5.906  78.456  1.00  0.00     0.016 A 
ATOM     15  C   UNL     1      50.996   5.012  78.145  1.00  0.00     0.051 A 
ATOM     16  C   UNL     1      51.290   3.692  77.789  1.00  0.00     0.157 A 
ATOM     17  C   UNL     1      53.656   4.163  78.061  1.00  0.00     0.062 A 
ATOM     18  C   UNL     1      52.626   3.263  77.748  1.00  0.00     0.158 A 
BRANCH  16  19
ATOM     19  O   UNL     1      50.243   2.822  77.483  1.00  0.00    -0.504 OA
ATOM     20  H   UNL     1      49.531   2.575  78.161  1.00  0.00     0.293 HD
ENDBRANCH  16  19
BRANCH  18  21
ATOM     21  O   UNL     1      52.927   1.947  77.396  1.00  0.00    -0.504 OA
ATOM     22  H   UNL     1      53.036   1.223  78.096  1.00  0.00     0.293 HD
ENDBRANCH  18  21
ENDBRANCH   3  13
BRANCH  10  23
ATOM     23  O   UNL     1      58.279   9.330  80.657  1.00  0.00    -0.507 OA
ATOM     24  H   UNL     1      58.641  10.255  80.849  1.00  0.00     0.293 HD
ENDBRANCH  10  23
BRANCH  11  25
ATOM     25  O   UNL     1      58.861   9.286  75.888  1.00  0.00    -0.508 OA
ATOM     26  H   UNL     1      59.452   8.640  75.377  1.00  0.00     0.293 HD
ENDBRANCH  11  25
ENDBRANCH   1   2
BRANCH   1  27
ATOM     27  C   UNL     1      53.521   5.140  81.541  1.00  0.00     0.339 C 
ATOM     28  C   UNL     1      54.677   4.749  82.500  1.00  0.00     0.214 C 
ATOM     29  O   UNL     1      52.275   5.085  82.215  1.00  0.00    -0.332 OA
ATOM     30  C   UNL     1      54.238   3.675  83.528  1.00  0.00     0.180 C 
ATOM     31  C   UNL     1      51.906   3.757  82.590  1.00  0.00     0.179 C 
ATOM     32  C   UNL     1      53.102   2.822  82.953  1.00  0.00     0.177 C 
BRANCH  28  33
ATOM     33  O   UNL     1      55.203   5.873  83.162  1.00  0.00    -0.384 OA
ATOM     34  H   UNL     1      54.467   6.281  83.689  1.00  0.00     0.211 HD
ENDBRANCH  28  33
BRANCH  30  35
ATOM     35  O   UNL     1      55.321   2.854  83.884  1.00  0.00    -0.387 OA
ATOM     36  H   UNL     1      54.992   2.235  84.588  1.00  0.00     0.211 HD
ENDBRANCH  30  35
BRANCH  31  37
ATOM     37  C   UNL     1      50.953   3.152  81.545  1.00  0.00     0.191 C 
BRANCH  37  38
ATOM     38  O   UNL     1      49.836   3.983  81.361  1.00  0.00    -0.394 OA
ATOM     39  H   UNL     1      50.183   4.893  81.155  1.00  0.00     0.210 HD
ENDBRANCH  37  38
ENDBRANCH  31  37
BRANCH  32  40
ATOM     40  O   UNL     1      53.552   2.115  81.822  1.00  0.00    -0.387 OA
ATOM     41  H   UNL     1      54.029   1.306  82.154  1.00  0.00     0.211 HD
ENDBRANCH  32  40
ENDBRANCH   1  27
TORSDOF 12
ENDMDL
MODEL 3
REMARK VINA RESULT:    -7.125      2.024      4.781
REMARK INTER + INTRA:         -11.833
REMARK INTER:                 -10.255
REMARK INTRA:                  -1.578
REMARK UNBOUND:                -1.376
REMARK SMILES O=c1c(O[C@@H]2O[C@@H](CO)[C@@H](O)[C@@H](O)[C@@H]2O)c(-c2ccc(O)c(O)c2)oc2cc(O)cc(O)c12
REMARK SMILES IDX 4 1 3 2 16 3 25 4 2 5 26 6 1 7 33 8 27 9 31 10 28 11 30 12
REMARK SMILES IDX 17 13 18 14 19 15 20 16 24 17 22 18 21 19 23 21 32 23 29 25
REMARK SMILES IDX 5 27 14 28 6 29 12 30 7 31 10 32 15 33 13 35 8 37 9 38 11 40
REMARK H PARENT 21 20 23 22 32 24 29 26 15 34 13 36 9 39 11 41
REMARK Flexibility Score: inf
ROOT
ATOM      1  O   UNL     1      53.960   4.622  79.335  1.00  0.00    -0.454 OA
ENDROOT
BRANCH   1   2
ATOM      2  C   UNL     1      54.332   5.840  78.730  1.00  0.00     0.214 A 
ATOM      3  C   UNL     1      55.482   6.496  79.214  1.00  0.00     0.180 A 
ATOM      4  O   UNL     1      55.911   7.612  78.635  1.00  0.00    -0.452 OA
ATOM      5  C   UNL     1      53.645   6.420  77.639  1.00  0.00     0.239 A 
ATOM      6  C   UNL     1      55.282   8.201  77.628  1.00  0.00     0.146 A 
ATOM      7  O   UNL     1      52.692   5.799  77.103  1.00  0.00    -0.285 OA
ATOM      8  C   UNL     1      54.079   7.659  77.108  1.00  0.00     0.111 A 
ATOM      9  C   UNL     1      55.838   9.361  77.078  1.00  0.00     0.094 A 
ATOM     10  C   UNL     1      53.417   8.360  76.057  1.00  0.00     0.134 A 
ATOM     11  C   UNL     1      55.223   9.993  76.001  1.00  0.00     0.123 A 
ATOM     12  C   UNL     1      54.019   9.492  75.495  1.00  0.00     0.093 A 
BRANCH   3  13
ATOM     13  C   UNL     1      56.265   5.963  80.350  1.00  0.00     0.025 A 
ATOM     14  C   UNL     1      57.114   4.857  80.194  1.00  0.00     0.016 A 
ATOM     15  C   UNL     1      57.827   4.354  81.286  1.00  0.00     0.051 A 
ATOM     16  C   UNL     1      57.689   4.937  82.550  1.00  0.00     0.157 A 
ATOM     17  C   UNL     1      56.113   6.535  81.624  1.00  0.00     0.062 A 
ATOM     18  C   UNL     1      56.827   6.032  82.721  1.00  0.00     0.158 A 
BRANCH  16  19
ATOM     19  O   UNL     1      58.414   4.414  83.621  1.00  0.00    -0.504 OA
ATOM     20  H   UNL     1      57.981   3.841  84.337  1.00  0.00     0.293 HD
ENDBRANCH  16  19
BRANCH  18  21
ATOM     21  O   UNL     1      56.683   6.617  83.980  1.00  0.00    -0.504 OA
ATOM     22  H   UNL     1      57.442   7.122  84.420  1.00  0.00     0.293 HD
ENDBRANCH  18  21
ENDBRANCH   3  13
BRANCH  10  23
ATOM     23  O   UNL     1      52.161   8.003  75.557  1.00  0.00    -0.507 OA
ATOM     24  H   UNL     1      51.390   8.647  75.439  1.00  0.00     0.293 HD
ENDBRANCH  10  23
BRANCH  11  25
ATOM     25  O   UNL     1      55.811  11.125  75.445  1.00  0.00    -0.508 OA
ATOM     26  H   UNL     1      56.421  11.727  75.988  1.00  0.00     0.293 HD
ENDBRANCH  11  25
ENDBRANCH   1   2
BRANCH   1  27
ATOM     27  C   UNL     1      53.225   4.440  80.548  1.00  0.00     0.339 C 
ATOM     28  C   UNL     1      51.716   4.293  80.212  1.00  0.00     0.214 C 
ATOM     29  O   UNL     1      53.700   3.287  81.222  1.00  0.00    -0.332 OA
ATOM     30  C   UNL     1      50.958   3.488  81.299  1.00  0.00     0.180 C 
ATOM     31  C   UNL     1      53.127   3.129  82.521  1.00  0.00     0.179 C 
ATOM     32  C   UNL     1      51.657   3.637  82.655  1.00  0.00     0.177 C 
BRANCH  28  33
ATOM     33  O   UNL     1      51.523   3.708  78.947  1.00  0.00    -0.384 OA
ATOM     34  H   UNL     1      52.331   3.170  78.740  1.00  0.00     0.211 HD
ENDBRANCH  28  33
BRANCH  30  35
ATOM     35  O   UNL     1      49.624   3.919  81.398  1.00  0.00    -0.387 OA
ATOM     36  H   UNL     1      49.147   3.249  81.954  1.00  0.00     0.211 HD
ENDBRANCH  30  35
BRANCH  31  37
ATOM     37  C   UNL     1      54.071   3.697  83.593  1.00  0.00     0.191 C 
BRANCH  37  38
ATOM     38  O   UNL     1      55.214   2.893  83.717  1.00  0.00    -0.394 OA
ATOM     39  H   UNL     1      55.203   2.254  82.953  1.00  0.00     0.210 HD
ENDBRANCH  37  38
ENDBRANCH  31  37
BRANCH  32  40
ATOM     40  O   UNL     1      51.624   4.980  83.073  1.00  0.00    -0.387 OA
ATOM     41  H   UNL     1      51.021   5.025  83.864  1.00  0.00     0.211 HD
ENDBRANCH  32  40
ENDBRANCH   1  27
TORSDOF 12
ENDMDL
MODEL 4
REMARK VINA RESULT:    -6.928      1.625      2.703
REMARK INTER + INTRA:         -11.544
REMARK INTER:                 -10.511
REMARK INTRA:                  -1.033
REMARK UNBOUND:                -1.376
REMARK SMILES O=c1c(O[C@@H]2O[C@@H](CO)[C@@H](O)[C@@H](O)[C@@H]2O)c(-c2ccc(O)c(O)c2)oc2cc(O)cc(O)c12
REMARK SMILES IDX 4 1 3 2 16 3 25 4 2 5 26 6 1 7 33 8 27 9 31 10 28 11 30 12
REMARK SMILES IDX 17 13 18 14 19 15 20 16 24 17 22 18 21 19 23 21 32 23 29 25
REMARK SMILES IDX 5 27 14 28 6 29 12 30 7 31 10 32 15 33 13 35 8 37 9 38 11 40
REMARK H PARENT 21 20 23 22 32 24 29 26 15 34 13 36 9 39 11 41
REMARK Flexibility Score: inf
ROOT
ATOM      1  O   UNL     1      55.480   4.445  79.109  1.00  0.00    -0.454 OA
ENDROOT
BRANCH   1   2
ATOM      2  C   UNL     1      55.267   5.600  78.329  1.00  0.00     0.214 A 
ATOM      3  C   UNL     1      53.962   5.850  77.860  1.00  0.00     0.180 A 
ATOM      4  O   UNL     1      53.696   6.959  77.176  1.00  0.00    -0.452 OA
ATOM      5  C   UNL     1      56.275   6.544  78.027  1.00  0.00     0.239 A 
ATOM      6  C   UNL     1      54.616   7.855  76.851  1.00  0.00     0.146 A 
ATOM      7  O   UNL     1      57.418   6.417  78.535  1.00  0.00    -0.285 OA
ATOM      8  C   UNL     1      55.973   7.666  77.218  1.00  0.00     0.111 A 
ATOM      9  C   UNL     1      54.219   8.999  76.151  1.00  0.00     0.094 A 
ATOM     10  C   UNL     1      56.930   8.637  76.800  1.00  0.00     0.134 A 
ATOM     11  C   UNL     1      55.150   9.977  75.815  1.00  0.00     0.123 A 
ATOM     12  C   UNL     1      56.498   9.795  76.140  1.00  0.00     0.093 A 
BRANCH   3  13
ATOM     13  C   UNL     1      52.844   4.920  78.127  1.00  0.00     0.025 A 
ATOM     14  C   UNL     1      52.488   3.924  77.203  1.00  0.00     0.016 A 
ATOM     15  C   UNL     1      51.414   3.071  77.463  1.00  0.00     0.051 A 
ATOM     16  C   UNL     1      50.669   3.208  78.639  1.00  0.00     0.157 A 
ATOM     17  C   UNL     1      52.083   5.069  79.297  1.00  0.00     0.062 A 
ATOM     18  C   UNL     1      51.003   4.213  79.561  1.00  0.00     0.158 A 
BRANCH  16  19
ATOM     19  O   UNL     1      49.601   2.341  78.872  1.00  0.00    -0.504 OA
ATOM     20  H   UNL     1      49.435   1.524  78.295  1.00  0.00     0.293 HD
ENDBRANCH  16  19
BRANCH  18  21
ATOM     21  O   UNL     1      50.263   4.358  80.735  1.00  0.00    -0.504 OA
ATOM     22  H   UNL     1      50.073   5.270  81.133  1.00  0.00     0.293 HD
ENDBRANCH  18  21
ENDBRANCH   3  13
BRANCH  10  23
ATOM     23  O   UNL     1      58.310   8.495  76.979  1.00  0.00    -0.507 OA
ATOM     24  H   UNL     1      58.987   9.225  76.802  1.00  0.00     0.293 HD
ENDBRANCH  10  23
BRANCH  11  25
ATOM     25  O   UNL     1      54.728  11.124  75.150  1.00  0.00    -0.508 OA
ATOM     26  H   UNL     1      54.397  11.939  75.657  1.00  0.00     0.293 HD
ENDBRANCH  11  25
ENDBRANCH   1   2
BRANCH   1  27
ATOM     27  C   UNL     1      55.596   4.364  80.532  1.00  0.00     0.339 C 
ATOM     28  C   UNL     1      57.062   4.012  80.905  1.00  0.00     0.214 C 
ATOM     29  O   UNL     1      55.219   5.602  81.110  1.00  0.00    -0.332 OA
ATOM     30  C   UNL     1      57.434   4.511  82.324  1.00  0.00     0.180 C 
ATOM     31  C   UNL     1      55.153   5.550  82.536  1.00  0.00     0.179 C 
ATOM     32  C   UNL     1      56.183   4.587  83.206  1.00  0.00     0.177 C 
BRANCH  28  33
ATOM     33  O   UNL     1      57.971   4.513  79.955  1.00  0.00    -0.384 OA
ATOM     34  H   UNL     1      58.306   5.384  80.293  1.00  0.00     0.211 HD
ENDBRANCH  28  33
BRANCH  30  35
ATOM     35  O   UNL     1      58.387   3.667  82.916  1.00  0.00    -0.387 OA
ATOM     36  H   UNL     1      58.467   3.946  83.865  1.00  0.00     0.211 HD
ENDBRANCH  30  35
BRANCH  31  37
ATOM     37  C   UNL     1      53.705   5.312  82.995  1.00  0.00     0.191 C 
BRANCH  37  38
ATOM     38  O   UNL     1      53.240   4.072  82.530  1.00  0.00    -0.394 OA
ATOM     39  H   UNL     1      53.348   3.423  83.277  1.00  0.00     0.210 HD
ENDBRANCH  37  38
ENDBRANCH  31  37
BRANCH  32  40
ATOM     40  O   UNL     1      55.634   3.303  83.378  1.00  0.00    -0.387 OA
ATOM     41  H   UNL     1      56.350   2.729  83.766  1.00  0.00     0.211 HD
ENDBRANCH  32  40
ENDBRANCH   1  27
TORSDOF 12
ENDMDL
MODEL 5
REMARK VINA RESULT:    -6.928      1.424      1.954
REMARK INTER + INTRA:         -11.544
REMARK INTER:                 -10.302
REMARK INTRA:                  -1.241
REMARK UNBOUND:                -1.376
REMARK SMILES O=c1c(O[C@@H]2O[C@@H](CO)[C@@H](O)[C@@H](O)[C@@H]2O)c(-c2ccc(O)c(O)c2)oc2cc(O)cc(O)c12
REMARK SMILES IDX 4 1 3 2 16 3 25 4 2 5 26 6 1 7 33 8 27 9 31 10 28 11 30 12
REMARK SMILES IDX 17 13 18 14 19 15 20 16 24 17 22 18 21 19 23 21 32 23 29 25
REMARK SMILES IDX 5 27 14 28 6 29 12 30 7 31 10 32 15 33 13 35 8 37 9 38 11 40
REMARK H PARENT 21 20 23 22 32 24 29 26 15 34 13 36 9 39 11 41
REMARK Flexibility Score: inf
ROOT
ATOM      1  O   UNL     1      55.671   4.733  80.951  1.00  0.00    -0.454 OA
ENDROOT
BRANCH   1   2
ATOM      2  C   UNL     1      56.177   5.562  79.929  1.00  0.00     0.214 A 
ATOM      3  C   UNL     1      55.495   5.582  78.696  1.00  0.00     0.180 A 
ATOM      4  O   UNL     1      55.894   6.395  77.723  1.00  0.00    -0.452 OA
ATOM      5  C   UNL     1      57.301   6.405  80.082  1.00  0.00     0.239 A 
ATOM      6  C   UNL     1      56.956   7.181  77.817  1.00  0.00     0.146 A 
ATOM      7  O   UNL     1      57.855   6.505  81.207  1.00  0.00    -0.285 OA
ATOM      8  C   UNL     1      57.751   7.188  78.992  1.00  0.00     0.111 A 
ATOM      9  C   UNL     1      57.269   8.015  76.739  1.00  0.00     0.094 A 
ATOM     10  C   UNL     1      58.911   8.017  79.021  1.00  0.00     0.134 A 
ATOM     11  C   UNL     1      58.360   8.876  76.809  1.00  0.00     0.123 A 
ATOM     12  C   UNL     1      59.175   8.876  77.946  1.00  0.00     0.093 A 
BRANCH   3  13
ATOM     13  C   UNL     1      54.309   4.735  78.444  1.00  0.00     0.025 A 
ATOM     14  C   UNL     1      54.443   3.396  78.043  1.00  0.00     0.016 A 
ATOM     15  C   UNL     1      53.311   2.619  77.786  1.00  0.00     0.051 A 
ATOM     16  C   UNL     1      52.031   3.170  77.911  1.00  0.00     0.157 A 
ATOM     17  C   UNL     1      53.025   5.292  78.550  1.00  0.00     0.062 A 
ATOM     18  C   UNL     1      51.886   4.514  78.294  1.00  0.00     0.158 A 
BRANCH  16  19
ATOM     19  O   UNL     1      50.919   2.370  77.650  1.00  0.00    -0.504 OA
ATOM     20  H   UNL     1      49.991   2.761  77.525  1.00  0.00     0.293 HD
ENDBRANCH  16  19
BRANCH  18  21
ATOM     21  O   UNL     1      50.613   5.071  78.418  1.00  0.00    -0.504 OA
ATOM     22  H   UNL     1      49.790   4.597  78.068  1.00  0.00     0.293 HD
ENDBRANCH  18  21
ENDBRANCH   3  13
BRANCH  10  23
ATOM     23  O   UNL     1      59.845   8.008  80.062  1.00  0.00    -0.507 OA
ATOM     24  H   UNL     1      60.827   8.222  79.949  1.00  0.00     0.293 HD
ENDBRANCH  10  23
BRANCH  11  25
ATOM     25  O   UNL     1      58.633   9.725  75.741  1.00  0.00    -0.508 OA
ATOM     26  H   UNL     1      58.700  10.729  75.865  1.00  0.00     0.293 HD
ENDBRANCH  11  25
ENDBRANCH   1   2
BRANCH   1  27
ATOM     27  C   UNL     1      54.689   5.066  81.937  1.00  0.00     0.339 C 
ATOM     28  C   UNL     1      53.894   3.788  82.318  1.00  0.00     0.214 C 
ATOM     29  O   UNL     1      55.329   5.613  83.077  1.00  0.00    -0.332 OA
ATOM     30  C   UNL     1      53.300   3.880  83.746  1.00  0.00     0.180 C 
ATOM     31  C   UNL     1      54.405   6.121  84.041  1.00  0.00     0.179 C 
ATOM     32  C   UNL     1      53.053   5.345  84.125  1.00  0.00     0.177 C 
BRANCH  28  33
ATOM     33  O   UNL     1      54.685   2.631  82.191  1.00  0.00    -0.384 OA
ATOM     34  H   UNL     1      55.207   2.532  83.029  1.00  0.00     0.211 HD
ENDBRANCH  28  33
BRANCH  30  35
ATOM     35  O   UNL     1      52.101   3.154  83.835  1.00  0.00    -0.387 OA
ATOM     36  H   UNL     1      52.259   2.416  84.479  1.00  0.00     0.211 HD
ENDBRANCH  30  35
BRANCH  31  37
ATOM     37  C   UNL     1      54.229   7.638  83.865  1.00  0.00     0.191 C 
BRANCH  37  38
ATOM     38  O   UNL     1      53.758   7.931  82.576  1.00  0.00    -0.394 OA
ATOM     39  H   UNL     1      52.844   7.542  82.505  1.00  0.00     0.210 HD
ENDBRANCH  37  38
ENDBRANCH  31  37
BRANCH  32  40
ATOM     40  O   UNL     1      52.092   5.912  83.267  1.00  0.00    -0.387 OA
ATOM     41  H   UNL     1      51.253   6.011  83.794  1.00  0.00     0.211 HD
ENDBRANCH  32  40
ENDBRANCH   1  27
TORSDOF 12
ENDMDL
MODEL 6
REMARK VINA RESULT:    -6.794      2.136      6.772
REMARK INTER + INTRA:         -11.348
REMARK INTER:                  -9.716
REMARK INTRA:                  -1.632
REMARK UNBOUND:                -1.376
REMARK SMILES O=c1c(O[C@@H]2O[C@@H](CO)[C@@H](O)[C@@H](O)[C@@H]2O)c(-c2ccc(O)c(O)c2)oc2cc(O)cc(O)c12
REMARK SMILES IDX 4 1 3 2 16 3 25 4 2 5 26 6 1 7 33 8 27 9 31 10 28 11 30 12
REMARK SMILES IDX 17 13 18 14 19 15 20 16 24 17 22 18 21 19 23 21 32 23 29 25
REMARK SMILES IDX 5 27 14 28 6 29 12 30 7 31 10 32 15 33 13 35 8 37 9 38 11 40
REMARK H PARENT 21 20 23 22 32 24 29 26 15 34 13 36 9 39 11 41
REMARK Flexibility Score: inf
ROOT
ATOM      1  O   UNL     1      56.289   5.916  78.527  1.00  0.00    -0.454 OA
ENDROOT
BRANCH   1   2
ATOM      2  C   UNL     1      55.353   5.593  79.531  1.00  0.00     0.214 A 
ATOM      3  C   UNL     1      54.044   6.100  79.403  1.00  0.00     0.180 A 
ATOM      4  O   UNL     1      53.109   5.771  80.288  1.00  0.00    -0.452 OA
ATOM      5  C   UNL     1      55.638   4.756  80.634  1.00  0.00     0.239 A 
ATOM      6  C   UNL     1      53.341   5.011  81.348  1.00  0.00     0.146 A 
ATOM      7  O   UNL     1      56.757   4.187  80.710  1.00  0.00    -0.285 OA
ATOM      8  C   UNL     1      54.640   4.504  81.606  1.00  0.00     0.111 A 
ATOM      9  C   UNL     1      52.274   4.707  82.201  1.00  0.00     0.094 A 
ATOM     10  C   UNL     1      54.845   3.732  82.787  1.00  0.00     0.134 A 
ATOM     11  C   UNL     1      52.471   3.890  83.310  1.00  0.00     0.123 A 
ATOM     12  C   UNL     1      53.751   3.405  83.598  1.00  0.00     0.093 A 
BRANCH   3  13
ATOM     13  C   UNL     1      53.654   6.983  78.282  1.00  0.00     0.025 A 
ATOM     14  C   UNL     1      53.543   6.490  76.972  1.00  0.00     0.016 A 
ATOM     15  C   UNL     1      53.197   7.345  75.923  1.00  0.00     0.051 A 
ATOM     16  C   UNL     1      52.972   8.705  76.163  1.00  0.00     0.157 A 
ATOM     17  C   UNL     1      53.447   8.351  78.518  1.00  0.00     0.062 A 
ATOM     18  C   UNL     1      53.098   9.211  77.467  1.00  0.00     0.158 A 
BRANCH  16  19
ATOM     19  O   UNL     1      52.626   9.534  75.096  1.00  0.00    -0.504 OA
ATOM     20  H   UNL     1      53.190   9.594  74.256  1.00  0.00     0.293 HD
ENDBRANCH  16  19
BRANCH  18  21
ATOM     21  O   UNL     1      52.878  10.567  77.713  1.00  0.00    -0.504 OA
ATOM     22  H   UNL     1      52.985  11.263  76.986  1.00  0.00     0.293 HD
ENDBRANCH  18  21
ENDBRANCH   3  13
BRANCH  10  23
ATOM     23  O   UNL     1      56.100   3.294  83.220  1.00  0.00    -0.507 OA
ATOM     24  H   UNL     1      56.605   3.692  84.001  1.00  0.00     0.293 HD
ENDBRANCH  10  23
BRANCH  11  25
ATOM     25  O   UNL     1      51.390   3.570  84.125  1.00  0.00    -0.508 OA
ATOM     26  H   UNL     1      50.582   3.074  83.764  1.00  0.00     0.293 HD
ENDBRANCH  11  25
ENDBRANCH   1   2
BRANCH   1  27
ATOM     27  C   UNL     1      57.051   7.120  78.401  1.00  0.00     0.339 C 
ATOM     28  C   UNL     1      58.432   6.922  79.082  1.00  0.00     0.214 C 
ATOM     29  O   UNL     1      57.214   7.436  77.028  1.00  0.00    -0.332 OA
ATOM     30  C   UNL     1      59.514   7.854  78.479  1.00  0.00     0.180 C 
ATOM     31  C   UNL     1      57.825   8.710  76.822  1.00  0.00     0.179 C 
ATOM     32  C   UNL     1      58.866   9.122  77.910  1.00  0.00     0.177 C 
BRANCH  28  33
ATOM     33  O   UNL     1      58.852   5.581  79.020  1.00  0.00    -0.384 OA
ATOM     34  H   UNL     1      58.748   5.193  79.928  1.00  0.00     0.211 HD
ENDBRANCH  28  33
BRANCH  30  35
ATOM     35  O   UNL     1      60.472   8.198  79.446  1.00  0.00    -0.387 OA
ATOM     36  H   UNL     1      61.361   7.991  79.057  1.00  0.00     0.211 HD
ENDBRANCH  30  35
BRANCH  31  37
ATOM     37  C   UNL     1      56.753   9.782  76.566  1.00  0.00     0.191 C 
BRANCH  37  38
ATOM     38  O   UNL     1      57.353  11.023  76.302  1.00  0.00    -0.394 OA
ATOM     39  H   UNL     1      57.282  11.177  75.321  1.00  0.00     0.210 HD
ENDBRANCH  37  38
ENDBRANCH  31  37
BRANCH  32  40
ATOM     40  O   UNL     1      58.253   9.857  78.943  1.00  0.00    -0.387 OA
ATOM     41  H   UNL     1      57.458   9.335  79.240  1.00  0.00     0.211 HD
ENDBRANCH  32  40
ENDBRANCH   1  27
TORSDOF 12
ENDMDL
MODEL 7
REMARK VINA RESULT:    -6.695      1.756      6.310
REMARK INTER + INTRA:         -11.202
REMARK INTER:                  -9.772
REMARK INTRA:                  -1.430
REMARK UNBOUND:                -1.376
REMARK SMILES O=c1c(O[C@@H]2O[C@@H](CO)[C@@H](O)[C@@H](O)[C@@H]2O)c(-c2ccc(O)c(O)c2)oc2cc(O)cc(O)c12
REMARK SMILES IDX 4 1 3 2 16 3 25 4 2 5 26 6 1 7 33 8 27 9 31 10 28 11 30 12
REMARK SMILES IDX 17 13 18 14 19 15 20 16 24 17 22 18 21 19 23 21 32 23 29 25
REMARK SMILES IDX 5 27 14 28 6 29 12 30 7 31 10 32 15 33 13 35 8 37 9 38 11 40
REMARK H PARENT 21 20 23 22 32 24 29 26 15 34 13 36 9 39 11 41
REMARK Flexibility Score: inf
ROOT
ATOM      1  O   UNL     1      54.417   6.473  80.880  1.00  0.00    -0.454 OA
ENDROOT
BRANCH   1   2
ATOM      2  C   UNL     1      53.597   5.764  79.978  1.00  0.00     0.214 A 
ATOM      3  C   UNL     1      53.964   5.754  78.618  1.00  0.00     0.180 A 
ATOM      4  O   UNL     1      53.262   5.047  77.739  1.00  0.00    -0.452 OA
ATOM      5  C   UNL     1      52.455   5.027  80.365  1.00  0.00     0.239 A 
ATOM      6  C   UNL     1      52.171   4.364  78.056  1.00  0.00     0.146 A 
ATOM      7  O   UNL     1      52.172   4.912  81.585  1.00  0.00    -0.285 OA
ATOM      8  C   UNL     1      51.678   4.362  79.386  1.00  0.00     0.111 A 
ATOM      9  C   UNL     1      51.525   3.634  77.054  1.00  0.00     0.094 A 
ATOM     10  C   UNL     1      50.473   3.650  79.661  1.00  0.00     0.134 A 
ATOM     11  C   UNL     1      50.392   2.881  77.351  1.00  0.00     0.123 A 
ATOM     12  C   UNL     1      49.872   2.890  78.650  1.00  0.00     0.093 A 
BRANCH   3  13
ATOM     13  C   UNL     1      55.144   6.496  78.121  1.00  0.00     0.025 A 
ATOM     14  C   UNL     1      56.438   5.963  78.231  1.00  0.00     0.016 A 
ATOM     15  C   UNL     1      57.542   6.689  77.778  1.00  0.00     0.051 A 
ATOM     16  C   UNL     1      57.373   7.962  77.225  1.00  0.00     0.157 A 
ATOM     17  C   UNL     1      54.978   7.782  77.583  1.00  0.00     0.062 A 
ATOM     18  C   UNL     1      56.085   8.513  77.127  1.00  0.00     0.158 A 
BRANCH  16  19
ATOM     19  O   UNL     1      58.493   8.664  76.780  1.00  0.00    -0.504 OA
ATOM     20  H   UNL     1      58.990   8.406  75.934  1.00  0.00     0.293 HD
ENDBRANCH  16  19
BRANCH  18  21
ATOM     21  O   UNL     1      55.908   9.783  76.579  1.00  0.00    -0.504 OA
ATOM     22  H   UNL     1      55.759  10.597  77.162  1.00  0.00     0.293 HD
ENDBRANCH  18  21
ENDBRANCH   3  13
BRANCH  10  23
ATOM     23  O   UNL     1      49.816   3.686  80.895  1.00  0.00    -0.507 OA
ATOM     24  H   UNL     1      48.865   4.004  81.026  1.00  0.00     0.293 HD
ENDBRANCH  10  23
BRANCH  11  25
ATOM     25  O   UNL     1      49.785   2.132  76.348  1.00  0.00    -0.508 OA
ATOM     26  H   UNL     1      49.328   1.249  76.549  1.00  0.00     0.293 HD
ENDBRANCH  11  25
ENDBRANCH   1   2
BRANCH   1  27
ATOM     27  C   UNL     1      55.352   5.933  81.818  1.00  0.00     0.339 C 
ATOM     28  C   UNL     1      56.594   6.862  81.893  1.00  0.00     0.214 C 
ATOM     29  O   UNL     1      54.736   5.821  83.090  1.00  0.00    -0.332 OA
ATOM     30  C   UNL     1      57.322   6.746  83.256  1.00  0.00     0.180 C 
ATOM     31  C   UNL     1      55.553   5.139  84.043  1.00  0.00     0.179 C 
ATOM     32  C   UNL     1      57.088   5.359  83.867  1.00  0.00     0.177 C 
BRANCH  28  33
ATOM     33  O   UNL     1      56.253   8.202  81.633  1.00  0.00    -0.384 OA
ATOM     34  H   UNL     1      56.750   8.768  82.280  1.00  0.00     0.211 HD
ENDBRANCH  28  33
BRANCH  30  35
ATOM     35  O   UNL     1      58.699   6.978  83.108  1.00  0.00    -0.387 OA
ATOM     36  H   UNL     1      58.911   7.792  83.633  1.00  0.00     0.211 HD
ENDBRANCH  30  35
BRANCH  31  37
ATOM     37  C   UNL     1      55.153   3.657  84.125  1.00  0.00     0.191 C 
BRANCH  37  38
ATOM     38  O   UNL     1      53.810   3.490  83.753  1.00  0.00    -0.394 OA
ATOM     39  H   UNL     1      53.279   3.446  84.594  1.00  0.00     0.210 HD
ENDBRANCH  37  38
ENDBRANCH  31  37
BRANCH  32  40
ATOM     40  O   UNL     1      57.649   4.366  83.042  1.00  0.00    -0.387 OA
ATOM     41  H   UNL     1      57.015   4.221  82.287  1.00  0.00     0.211 HD
ENDBRANCH  32  40
ENDBRANCH   1  27
TORSDOF 12
ENDMDL
MODEL 8
REMARK VINA RESULT:    -6.450      2.256      6.605
REMARK INTER + INTRA:         -10.842
REMARK INTER:                  -9.441
REMARK INTRA:                  -1.401
REMARK UNBOUND:                -1.376
REMARK SMILES O=c1c(O[C@@H]2O[C@@H](CO)[C@@H](O)[C@@H](O)[C@@H]2O)c(-c2ccc(O)c(O)c2)oc2cc(O)cc(O)c12
REMARK SMILES IDX 4 1 3 2 16 3 25 4 2 5 26 6 1 7 33 8 27 9 31 10 28 11 30 12
REMARK SMILES IDX 17 13 18 14 19 15 20 16 24 17 22 18 21 19 23 21 32 23 29 25
REMARK SMILES IDX 5 27 14 28 6 29 12 30 7 31 10 32 15 33 13 35 8 37 9 38 11 40
REMARK H PARENT 21 20 23 22 32 24 29 26 15 34 13 36 9 39 11 41
REMARK Flexibility Score: inf
ROOT
ATOM      1  O   UNL     1      55.533   8.541  79.770  1.00  0.00    -0.454 OA
ENDROOT
BRANCH   1   2
ATOM      2  C   UNL     1      55.029   7.303  80.218  1.00  0.00     0.214 A 
ATOM      3  C   UNL     1      53.889   6.780  79.574  1.00  0.00     0.180 A 
ATOM      4  O   UNL     1      53.415   5.587  79.916  1.00  0.00    -0.452 OA
ATOM      5  C   UNL     1      55.626   6.534  81.243  1.00  0.00     0.239 A 
ATOM      6  C   UNL     1      53.930   4.847  80.888  1.00  0.00     0.146 A 
ATOM      7  O   UNL     1      56.714   6.911  81.750  1.00  0.00    -0.285 OA
ATOM      8  C   UNL     1      55.038   5.310  81.642  1.00  0.00     0.111 A 
ATOM      9  C   UNL     1      53.365   3.593  81.145  1.00  0.00     0.094 A 
ATOM     10  C   UNL     1      55.520   4.495  82.709  1.00  0.00     0.134 A 
ATOM     11  C   UNL     1      53.893   2.774  82.138  1.00  0.00     0.123 A 
ATOM     12  C   UNL     1      54.966   3.225  82.914  1.00  0.00     0.093 A 
BRANCH   3  13
ATOM     13  C   UNL     1      53.199   7.513  78.491  1.00  0.00     0.025 A 
ATOM     14  C   UNL     1      52.136   8.387  78.766  1.00  0.00     0.016 A 
ATOM     15  C   UNL     1      51.480   9.051  77.726  1.00  0.00     0.051 A 
ATOM     16  C   UNL     1      51.865   8.840  76.398  1.00  0.00     0.157 A 
ATOM     17  C   UNL     1      53.571   7.287  77.156  1.00  0.00     0.062 A 
ATOM     18  C   UNL     1      52.915   7.953  76.110  1.00  0.00     0.158 A 
BRANCH  16  19
ATOM     19  O   UNL     1      51.193   9.518  75.380  1.00  0.00    -0.504 OA
ATOM     20  H   UNL     1      50.344  10.044  75.553  1.00  0.00     0.293 HD
ENDBRANCH  16  19
BRANCH  18  21
ATOM     21  O   UNL     1      53.303   7.736  74.788  1.00  0.00    -0.504 OA
ATOM     22  H   UNL     1      53.970   8.340  74.324  1.00  0.00     0.293 HD
ENDBRANCH  18  21
ENDBRANCH   3  13
BRANCH  10  23
ATOM     23  O   UNL     1      56.512   4.901  83.607  1.00  0.00    -0.507 OA
ATOM     24  H   UNL     1      56.471   5.749  84.157  1.00  0.00     0.293 HD
ENDBRANCH  10  23
BRANCH  11  25
ATOM     25  O   UNL     1      53.341   1.516  82.354  1.00  0.00    -0.508 OA
ATOM     26  H   UNL     1      52.564   1.175  81.797  1.00  0.00     0.293 HD
ENDBRANCH  11  25
ENDBRANCH   1   2
BRANCH   1  27
ATOM     27  C   UNL     1      56.618   8.766  78.865  1.00  0.00     0.339 C 
ATOM     28  C   UNL     1      56.137   9.680  77.707  1.00  0.00     0.214 C 
ATOM     29  O   UNL     1      57.697   9.368  79.561  1.00  0.00    -0.332 OA
ATOM     30  C   UNL     1      57.306  10.474  77.072  1.00  0.00     0.180 C 
ATOM     31  C   UNL     1      58.878   9.476  78.764  1.00  0.00     0.179 C 
ATOM     32  C   UNL     1      58.623   9.707  77.242  1.00  0.00     0.177 C 
BRANCH  28  33
ATOM     33  O   UNL     1      55.122  10.559  78.130  1.00  0.00    -0.384 OA
ATOM     34  H   UNL     1      54.251  10.124  77.938  1.00  0.00     0.211 HD
ENDBRANCH  28  33
BRANCH  30  35
ATOM     35  O   UNL     1      57.064  10.714  75.709  1.00  0.00    -0.387 OA
ATOM     36  H   UNL     1      57.171   9.845  75.241  1.00  0.00     0.211 HD
ENDBRANCH  30  35
BRANCH  31  37
ATOM     37  C   UNL     1      59.826   8.301  79.054  1.00  0.00     0.191 C 
BRANCH  37  38
ATOM     38  O   UNL     1      59.190   7.079  78.784  1.00  0.00    -0.394 OA
ATOM     39  H   UNL     1      58.589   7.230  78.005  1.00  0.00     0.210 HD
ENDBRANCH  37  38
ENDBRANCH  31  37
BRANCH  32  40
ATOM     40  O   UNL     1      58.563   8.483  76.549  1.00  0.00    -0.387 OA
ATOM     41  H   UNL     1      58.637   7.759  77.229  1.00  0.00     0.211 HD
ENDBRANCH  32  40
ENDBRANCH   1  27
TORSDOF 12
ENDMDL
MODEL 9
REMARK VINA RESULT:    -6.412      2.985      5.490
REMARK INTER + INTRA:         -10.787
REMARK INTER:                  -9.092
REMARK INTRA:                  -1.695
REMARK UNBOUND:                -1.376
REMARK SMILES O=c1c(O[C@@H]2O[C@@H](CO)[C@@H](O)[C@@H](O)[C@@H]2O)c(-c2ccc(O)c(O)c2)oc2cc(O)cc(O)c12
REMARK SMILES IDX 4 1 3 2 16 3 25 4 2 5 26 6 1 7 33 8 27 9 31 10 28 11 30 12
REMARK SMILES IDX 17 13 18 14 19 15 20 16 24 17 22 18 21 19 23 21 32 23 29 25
REMARK SMILES IDX 5 27 14 28 6 29 12 30 7 31 10 32 15 33 13 35 8 37 9 38 11 40
REMARK H PARENT 21 20 23 22 32 24 29 26 15 34 13 36 9 39 11 41
REMARK Flexibility Score: inf
ROOT
ATOM      1  O   UNL     1      55.600   7.150  77.357  1.00  0.00    -0.454 OA
ENDROOT
BRANCH   1   2
ATOM      2  C   UNL     1      54.355   7.749  77.076  1.00  0.00     0.214 A 
ATOM      3  C   UNL     1      53.204   7.190  77.667  1.00  0.00     0.180 A 
ATOM      4  O   UNL     1      52.015   7.756  77.486  1.00  0.00    -0.452 OA
ATOM      5  C   UNL     1      54.198   8.902  76.273  1.00  0.00     0.239 A 
ATOM      6  C   UNL     1      51.822   8.821  76.721  1.00  0.00     0.146 A 
ATOM      7  O   UNL     1      55.215   9.498  75.835  1.00  0.00    -0.285 OA
ATOM      8  C   UNL     1      52.904   9.422  76.029  1.00  0.00     0.111 A 
ATOM      9  C   UNL     1      50.531   9.349  76.623  1.00  0.00     0.094 A 
ATOM     10  C   UNL     1      52.632  10.536  75.180  1.00  0.00     0.134 A 
ATOM     11  C   UNL     1      50.291  10.483  75.853  1.00  0.00     0.123 A 
ATOM     12  C   UNL     1      51.339  11.072  75.137  1.00  0.00     0.093 A 
BRANCH   3  13
ATOM     13  C   UNL     1      53.271   5.985  78.522  1.00  0.00     0.025 A 
ATOM     14  C   UNL     1      53.283   6.086  79.922  1.00  0.00     0.016 A 
ATOM     15  C   UNL     1      53.372   4.937  80.712  1.00  0.00     0.051 A 
ATOM     16  C   UNL     1      53.466   3.675  80.118  1.00  0.00     0.157 A 
ATOM     17  C   UNL     1      53.386   4.719  77.927  1.00  0.00     0.062 A 
ATOM     18  C   UNL     1      53.474   3.564  78.718  1.00  0.00     0.158 A 
BRANCH  16  19
ATOM     19  O   UNL     1      53.552   2.545  80.932  1.00  0.00    -0.504 OA
ATOM     20  H   UNL     1      52.768   2.222  81.489  1.00  0.00     0.293 HD
ENDBRANCH  16  19
BRANCH  18  21
ATOM     21  O   UNL     1      53.570   2.308  78.117  1.00  0.00    -0.504 OA
ATOM     22  H   UNL     1      53.535   2.197  77.112  1.00  0.00     0.293 HD
ENDBRANCH  18  21
ENDBRANCH   3  13
BRANCH  10  23
ATOM     23  O   UNL     1      53.584  11.125  74.344  1.00  0.00    -0.507 OA
ATOM     24  H   UNL     1      53.633  10.980  73.343  1.00  0.00     0.293 HD
ENDBRANCH  10  23
BRANCH  11  25
ATOM     25  O   UNL     1      49.006  11.015  75.798  1.00  0.00    -0.508 OA
ATOM     26  H   UNL     1      48.201  10.488  76.118  1.00  0.00     0.293 HD
ENDBRANCH  11  25
ENDBRANCH   1   2
BRANCH   1  27
ATOM     27  C   UNL     1      56.455   7.400  78.476  1.00  0.00     0.339 C 
ATOM     28  C   UNL     1      57.912   7.590  77.973  1.00  0.00     0.214 C 
ATOM     29  O   UNL     1      56.010   8.558  79.162  1.00  0.00    -0.332 OA
ATOM     30  C   UNL     1      58.751   8.458  78.944  1.00  0.00     0.180 C 
ATOM     31  C   UNL     1      56.714   8.782  80.385  1.00  0.00     0.179 C 
ATOM     32  C   UNL     1      58.209   8.332  80.373  1.00  0.00     0.177 C 
BRANCH  28  33
ATOM     33  O   UNL     1      57.944   8.136  76.677  1.00  0.00    -0.384 OA
ATOM     34  H   UNL     1      57.669   9.087  76.747  1.00  0.00     0.211 HD
ENDBRANCH  28  33
BRANCH  30  35
ATOM     35  O   UNL     1      60.103   8.079  78.910  1.00  0.00    -0.387 OA
ATOM     36  H   UNL     1      60.132   7.101  79.082  1.00  0.00     0.211 HD
ENDBRANCH  30  35
BRANCH  31  37
ATOM     37  C   UNL     1      55.916   8.218  81.571  1.00  0.00     0.191 C 
BRANCH  37  38
ATOM     38  O   UNL     1      56.694   8.237  82.740  1.00  0.00    -0.394 OA
ATOM     39  H   UNL     1      57.485   8.811  82.552  1.00  0.00     0.210 HD
ENDBRANCH  37  38
ENDBRANCH  31  37
BRANCH  32  40
ATOM     40  O   UNL     1      58.340   7.005  80.825  1.00  0.00    -0.387 OA
ATOM     41  H   UNL     1      59.281   6.893  81.132  1.00  0.00     0.211 HD
ENDBRANCH  32  40
ENDBRANCH   1  27
TORSDOF 12
ENDMDL
