MODEL 1
REMARK VINA RESULT:    -5.262      0.000      0.000
REMARK INTER + INTRA:          -5.416
REMARK INTER:                  -5.416
REMARK INTRA:                   0.000
REMARK UNBOUND:                 0.000
REMARK SMILES O=c1ccc2ccc(O)cc2o1
REMARK SMILES IDX 6 1 7 2 8 3 10 4 11 5 5 6 4 7 3 8 2 9 1 10 12 11 9 12
REMARK H PARENT 9 13
REMARK Flexibility Score: inf
ROOT
ATOM      1  C   UNL     1      15.123  79.871  -1.165  1.00  0.00     0.016 A 
ATOM      2  C   UNL     1      14.838  79.094  -0.038  1.00  0.00     0.047 A 
ATOM      3  C   UNL     1      14.261  77.826  -0.179  1.00  0.00     0.119 A 
ATOM      4  C   UNL     1      13.966  77.329  -1.457  1.00  0.00     0.094 A 
ATOM      5  C   UNL     1      14.248  78.099  -2.591  1.00  0.00     0.142 A 
ATOM      6  C   UNL     1      14.830  79.378  -2.445  1.00  0.00     0.018 A 
ATOM      7  C   UNL     1      15.099  80.125  -3.596  1.00  0.00     0.019 A 
ATOM      8  C   UNL     1      14.789  79.589  -4.846  1.00  0.00     0.094 A 
ATOM      9  C   UNL     1      14.213  78.316  -4.915  1.00  0.00     0.336 A 
ATOM     10  O   UNL     1      13.926  77.816  -6.034  1.00  0.00    -0.246 OA
ATOM     11  O   UNL     1      13.967  77.627  -3.803  1.00  0.00    -0.423 OA
ENDROOT
BRANCH   3  12
ATOM     12  O   UNL     1      13.985  77.067   0.956  1.00  0.00    -0.508 OA
ATOM     13  H   UNL     1      13.247  77.326   1.601  1.00  0.00     0.293 HD
ENDBRANCH   3  12
TORSDOF 1
ENDMDL
MODEL 2
REMARK VINA RESULT:    -5.101      1.701      2.474
REMARK INTER + INTRA:          -5.250
REMARK INTER:                  -5.250
REMARK INTRA:                   0.000
REMARK UNBOUND:                 0.000
REMARK SMILES O=c1ccc2ccc(O)cc2o1
REMARK SMILES IDX 6 1 7 2 8 3 10 4 11 5 5 6 4 7 3 8 2 9 1 10 12 11 9 12
REMARK H PARENT 9 13
REMARK Flexibility Score: inf
ROOT
ATOM      1  C   UNL     1      13.968  77.487  -0.256  1.00  0.00     0.016 A 
ATOM      2  C   UNL     1      14.217  78.146   0.951  1.00  0.00     0.047 A 
ATOM      3  C   UNL     1      14.733  79.448   0.953  1.00  0.00     0.119 A 
ATOM      4  C   UNL     1      15.001  80.097  -0.261  1.00  0.00     0.094 A 
ATOM      5  C   UNL     1      14.754  79.446  -1.474  1.00  0.00     0.142 A 
ATOM      6  C   UNL     1      14.234  78.132  -1.473  1.00  0.00     0.018 A 
ATOM      7  C   UNL     1      13.999  77.506  -2.701  1.00  0.00     0.019 A 
ATOM      8  C   UNL     1      14.281  78.191  -3.883  1.00  0.00     0.094 A 
ATOM      9  C   UNL     1      14.794  79.490  -3.808  1.00  0.00     0.336 A 
ATOM     10  O   UNL     1      15.055  80.125  -4.863  1.00  0.00    -0.246 OA
ATOM     11  O   UNL     1      15.009  80.062  -2.625  1.00  0.00    -0.423 OA
ENDROOT
BRANCH   3  12
ATOM     12  O   UNL     1      14.974  80.088   2.167  1.00  0.00    -0.508 OA
ATOM     13  H   UNL     1      14.794  79.630   3.053  1.00  0.00     0.293 HD
ENDBRANCH   3  12
TORSDOF 1
ENDMDL
MODEL 3
REMARK VINA RESULT:    -4.609      0.893      4.216
REMARK INTER + INTRA:          -4.743
REMARK INTER:                  -4.743
REMARK INTRA:                   0.000
REMARK UNBOUND:                 0.000
REMARK SMILES O=c1ccc2ccc(O)cc2o1
REMARK SMILES IDX 6 1 7 2 8 3 10 4 11 5 5 6 4 7 3 8 2 9 1 10 12 11 9 12
REMARK H PARENT 9 13
REMARK Flexibility Score: inf
ROOT
ATOM      1  C   UNL     1      15.125  80.125  -3.150  1.00  0.00     0.016 A 
ATOM      2  C   UNL     1      14.876  79.852  -4.498  1.00  0.00     0.047 A 
ATOM      3  C   UNL     1      14.255  78.656  -4.876  1.00  0.00     0.119 A 
ATOM      4  C   UNL     1      13.878  77.723  -3.898  1.00  0.00     0.094 A 
ATOM      5  C   UNL     1      14.123  77.987  -2.546  1.00  0.00     0.142 A 
ATOM      6  C   UNL     1      14.751  79.195  -2.168  1.00  0.00     0.018 A 
ATOM      7  C   UNL     1      14.983  79.431  -0.810  1.00  0.00     0.019 A 
ATOM      8  C   UNL     1      14.592  78.474   0.127  1.00  0.00     0.094 A 
ATOM      9  C   UNL     1      13.976  77.300  -0.320  1.00  0.00     0.336 A 
ATOM     10  O   UNL     1      13.615  76.425   0.510  1.00  0.00    -0.246 OA
ATOM     11  O   UNL     1      13.767  77.101  -1.619  1.00  0.00    -0.423 OA
ENDROOT
BRANCH   3  12
ATOM     12  O   UNL     1      14.015  78.403  -6.225  1.00  0.00    -0.508 OA
ATOM     13  H   UNL     1      13.926  77.458  -6.580  1.00  0.00     0.293 HD
ENDBRANCH   3  12
TORSDOF 1
ENDMDL
MODEL 4
REMARK VINA RESULT:    -4.513      1.782      4.922
REMARK INTER + INTRA:          -4.645
REMARK INTER:                  -4.645
REMARK INTRA:                   0.000
REMARK UNBOUND:                 0.000
REMARK SMILES O=c1ccc2ccc(O)cc2o1
REMARK SMILES IDX 6 1 7 2 8 3 10 4 11 5 5 6 4 7 3 8 2 9 1 10 12 11 9 12
REMARK H PARENT 9 13
REMARK Flexibility Score: inf
ROOT
ATOM      1  C   UNL     1      13.890  77.524  -2.511  1.00  0.00     0.016 A 
ATOM      2  C   UNL     1      14.246  78.186  -3.690  1.00  0.00     0.047 A 
ATOM      3  C   UNL     1      14.776  79.481  -3.643  1.00  0.00     0.119 A 
ATOM      4  C   UNL     1      14.953  80.120  -2.407  1.00  0.00     0.094 A 
ATOM      5  C   UNL     1      14.601  79.466  -1.222  1.00  0.00     0.142 A 
ATOM      6  C   UNL     1      14.065  78.159  -1.273  1.00  0.00     0.018 A 
ATOM      7  C   UNL     1      13.721  77.531  -0.072  1.00  0.00     0.019 A 
ATOM      8  C   UNL     1      13.916  78.207   1.133  1.00  0.00     0.094 A 
ATOM      9  C   UNL     1      14.450  79.499   1.108  1.00  0.00     0.336 A 
ATOM     10  O   UNL     1      14.633  80.125   2.184  1.00  0.00    -0.246 OA
ATOM     11  O   UNL     1      14.769  80.074  -0.050  1.00  0.00    -0.423 OA
ENDROOT
BRANCH   3  12
ATOM     12  O   UNL     1      15.125  80.123  -4.829  1.00  0.00    -0.508 OA
ATOM     13  H   UNL     1      15.134  79.631  -5.715  1.00  0.00     0.293 HD
ENDBRANCH   3  12
TORSDOF 1
ENDMDL
