MODEL 1
REMARK VINA RESULT:    -4.989      0.000      0.000
REMARK INTER + INTRA:          -9.433
REMARK INTER:                  -7.906
REMARK INTRA:                  -1.527
REMARK UNBOUND:                -1.527
REMARK SMILES CCCCCCCCCCCC(=O)[O-]
REMARK SMILES IDX 7 1 8 2 9 3 10 4 11 5 12 6 13 7 14 8 6 9 5 10 4 11 3 12 2 13
REMARK SMILES IDX 1 14
REMARK H PARENT
REMARK Flexibility Score: inf
ROOT
ATOM      1  C   UNL     1      10.279   4.381  21.165  1.00  0.00     0.000 C 
ENDROOT
BRANCH   1   2
ATOM      2  C   UNL     1       9.118   5.379  21.030  1.00  0.00     0.000 C 
BRANCH   2   3
ATOM      3  C   UNL     1       9.580   6.844  21.105  1.00  0.00     0.000 C 
BRANCH   3   4
ATOM      4  C   UNL     1      10.989   7.019  21.711  1.00  0.00     0.006 C 
BRANCH   4   5
ATOM      5  C   UNL     1      11.826   8.048  20.939  1.00  0.00     0.053 C 
BRANCH   5   6
ATOM      6  C   UNL     1      12.654   8.863  21.881  1.00  0.00     0.041 C 
ATOM      7  O   UNL     1      13.805   8.475  22.212  1.00  0.00    -0.550 OA
ATOM      8  O   UNL     1      12.175  10.078  22.355  1.00  0.00    -0.550 OA
ENDBRANCH   5   6
ENDBRANCH   4   5
ENDBRANCH   3   4
ENDBRANCH   2   3
ENDBRANCH   1   2
BRANCH   1   9
ATOM      9  C   UNL     1      10.239   3.269  20.101  1.00  0.00     0.000 C 
BRANCH   9  10
ATOM     10  C   UNL     1      10.799   3.662  18.719  1.00  0.00    -0.000 C 
BRANCH  10  11
ATOM     11  C   UNL     1      12.077   4.524  18.748  1.00  0.00    -0.000 C 
BRANCH  11  12
ATOM     12  C   UNL     1      11.916   5.944  18.175  1.00  0.00    -0.000 C 
BRANCH  12  13
ATOM     13  C   UNL     1      10.520   6.191  17.585  1.00  0.00    -0.003 C 
ATOM     14  C   UNL     1      10.232   7.684  17.460  1.00  0.00     0.004 C 
ENDBRANCH  12  13
ENDBRANCH  11  12
ENDBRANCH  10  11
ENDBRANCH   9  10
ENDBRANCH   1   9
TORSDOF 10
ENDMDL
MODEL 2
REMARK VINA RESULT:    -4.958      1.345      3.012
REMARK INTER + INTRA:          -9.384
REMARK INTER:                  -7.785
REMARK INTRA:                  -1.599
REMARK UNBOUND:                -1.527
REMARK SMILES CCCCCCCCCCCC(=O)[O-]
REMARK SMILES IDX 7 1 8 2 9 3 10 4 11 5 12 6 13 7 14 8 6 9 5 10 4 11 3 12 2 13
REMARK SMILES IDX 1 14
REMARK H PARENT
REMARK Flexibility Score: inf
ROOT
ATOM      1  C   UNL     1       8.362   6.269  18.550  1.00  0.00     0.000 C 
ENDROOT
BRANCH   1   2
ATOM      2  C   UNL     1       9.522   7.180  18.983  1.00  0.00     0.000 C 
BRANCH   2   3
ATOM      3  C   UNL     1      10.793   6.965  18.145  1.00  0.00     0.000 C 
BRANCH   3   4
ATOM      4  C   UNL     1      12.087   6.900  18.985  1.00  0.00     0.006 C 
BRANCH   4   5
ATOM      5  C   UNL     1      11.856   7.347  20.435  1.00  0.00     0.053 C 
BRANCH   5   6
ATOM      6  C   UNL     1      12.864   8.380  20.831  1.00  0.00     0.041 C 
ATOM      7  O   UNL     1      13.817   8.664  20.059  1.00  0.00    -0.550 OA
ATOM      8  O   UNL     1      12.722   9.065  22.031  1.00  0.00    -0.550 OA
ENDBRANCH   5   6
ENDBRANCH   4   5
ENDBRANCH   3   4
ENDBRANCH   2   3
ENDBRANCH   1   2
BRANCH   1   9
ATOM      9  C   UNL     1       7.950   5.264  19.642  1.00  0.00     0.000 C 
BRANCH   9  10
ATOM     10  C   UNL     1       8.782   5.325  20.938  1.00  0.00    -0.000 C 
BRANCH  10  11
ATOM     11  C   UNL     1       9.881   4.251  21.065  1.00  0.00    -0.000 C 
BRANCH  11  12
ATOM     12  C   UNL     1       9.825   3.137  20.004  1.00  0.00    -0.000 C 
BRANCH  12  13
ATOM     13  C   UNL     1      10.868   3.323  18.893  1.00  0.00    -0.003 C 
ATOM     14  C   UNL     1      10.253   3.090  17.516  1.00  0.00     0.004 C 
ENDBRANCH  12  13
ENDBRANCH  11  12
ENDBRANCH  10  11
ENDBRANCH   9  10
ENDBRANCH   1   9
TORSDOF 10
ENDMDL
MODEL 3
REMARK VINA RESULT:    -4.951      4.370      6.270
REMARK INTER + INTRA:          -9.373
REMARK INTER:                  -7.991
REMARK INTRA:                  -1.383
REMARK UNBOUND:                -1.527
REMARK SMILES CCCCCCCCCCCC(=O)[O-]
REMARK SMILES IDX 7 1 8 2 9 3 10 4 11 5 12 6 13 7 14 8 6 9 5 10 4 11 3 12 2 13
REMARK SMILES IDX 1 14
REMARK H PARENT
REMARK Flexibility Score: inf
ROOT
ATOM      1  C   UNL     1      12.175   5.489  18.368  1.00  0.00     0.000 C 
ENDROOT
BRANCH   1   2
ATOM      2  C   UNL     1      11.689   4.327  19.249  1.00  0.00     0.000 C 
BRANCH   2   3
ATOM      3  C   UNL     1      10.798   3.333  18.485  1.00  0.00     0.000 C 
BRANCH   3   4
ATOM      4  C   UNL     1       9.802   2.573  19.388  1.00  0.00     0.006 C 
BRANCH   4   5
ATOM      5  C   UNL     1       8.499   2.234  18.652  1.00  0.00     0.053 C 
BRANCH   5   6
ATOM      6  C   UNL     1       8.418   0.765  18.379  1.00  0.00     0.041 C 
ATOM      7  O   UNL     1       8.719  -0.064  19.278  1.00  0.00    -0.550 OA
ATOM      8  O   UNL     1       7.963   0.311  17.148  1.00  0.00    -0.550 OA
ENDBRANCH   5   6
ENDBRANCH   4   5
ENDBRANCH   3   4
ENDBRANCH   2   3
ENDBRANCH   1   2
BRANCH   1   9
ATOM      9  C   UNL     1      11.921   6.868  19.002  1.00  0.00     0.000 C 
BRANCH   9  10
ATOM     10  C   UNL     1      11.356   6.838  20.437  1.00  0.00    -0.000 C 
BRANCH  10  11
ATOM     11  C   UNL     1       9.861   7.191  20.563  1.00  0.00    -0.000 C 
BRANCH  11  12
ATOM     12  C   UNL     1       8.985   6.092  21.191  1.00  0.00    -0.000 C 
BRANCH  12  13
ATOM     13  C   UNL     1       7.927   5.548  20.220  1.00  0.00    -0.003 C 
ATOM     14  C   UNL     1       8.206   6.005  18.791  1.00  0.00     0.004 C 
ENDBRANCH  12  13
ENDBRANCH  11  12
ENDBRANCH  10  11
ENDBRANCH   9  10
ENDBRANCH   1   9
TORSDOF 10
ENDMDL
MODEL 4
REMARK VINA RESULT:    -4.939     18.670     20.416
REMARK INTER + INTRA:          -9.354
REMARK INTER:                  -7.748
REMARK INTRA:                  -1.606
REMARK UNBOUND:                -1.527
REMARK SMILES CCCCCCCCCCCC(=O)[O-]
REMARK SMILES IDX 7 1 8 2 9 3 10 4 11 5 12 6 13 7 14 8 6 9 5 10 4 11 3 12 2 13
REMARK SMILES IDX 1 14
REMARK H PARENT
REMARK Flexibility Score: inf
ROOT
ATOM      1  C   UNL     1      17.496  -6.052  36.698  1.00  0.00     0.000 C 
ENDROOT
BRANCH   1   2
ATOM      2  C   UNL     1      17.243  -7.243  35.760  1.00  0.00     0.000 C 
BRANCH   2   3
ATOM      3  C   UNL     1      18.473  -7.604  34.911  1.00  0.00     0.000 C 
BRANCH   3   4
ATOM      4  C   UNL     1      18.221  -7.527  33.389  1.00  0.00     0.006 C 
BRANCH   4   5
ATOM      5  C   UNL     1      16.757  -7.816  33.032  1.00  0.00     0.053 C 
BRANCH   5   6
ATOM      6  C   UNL     1      16.675  -8.838  31.944  1.00  0.00     0.041 C 
ATOM      7  O   UNL     1      17.671  -9.561  31.676  1.00  0.00    -0.550 OA
ATOM      8  O   UNL     1      15.482  -9.029  31.257  1.00  0.00    -0.550 OA
ENDBRANCH   5   6
ENDBRANCH   4   5
ENDBRANCH   3   4
ENDBRANCH   2   3
ENDBRANCH   1   2
BRANCH   1   9
ATOM      9  C   UNL     1      16.511  -4.890  36.469  1.00  0.00     0.000 C 
BRANCH   9  10
ATOM     10  C   UNL     1      15.545  -5.073  35.281  1.00  0.00    -0.000 C 
BRANCH  10  11
ATOM     11  C   UNL     1      15.965  -4.366  33.977  1.00  0.00    -0.000 C 
BRANCH  11  12
ATOM     12  C   UNL     1      17.120  -3.360  34.127  1.00  0.00    -0.000 C 
BRANCH  12  13
ATOM     13  C   UNL     1      18.453  -3.900  33.591  1.00  0.00    -0.003 C 
ATOM     14  C   UNL     1      19.567  -3.736  34.621  1.00  0.00     0.004 C 
ENDBRANCH  12  13
ENDBRANCH  11  12
ENDBRANCH  10  11
ENDBRANCH   9  10
ENDBRANCH   1   9
TORSDOF 10
ENDMDL
MODEL 5
REMARK VINA RESULT:    -4.915     18.434     19.651
REMARK INTER + INTRA:          -9.316
REMARK INTER:                  -7.868
REMARK INTRA:                  -1.448
REMARK UNBOUND:                -1.527
REMARK SMILES CCCCCCCCCCCC(=O)[O-]
REMARK SMILES IDX 7 1 8 2 9 3 10 4 11 5 12 6 13 7 14 8 6 9 5 10 4 11 3 12 2 13
REMARK SMILES IDX 1 14
REMARK H PARENT
REMARK Flexibility Score: inf
ROOT
ATOM      1  C   UNL     1      18.849  -6.777  33.870  1.00  0.00     0.000 C 
ENDROOT
BRANCH   1   2
ATOM      2  C   UNL     1      19.234  -5.507  33.094  1.00  0.00     0.000 C 
BRANCH   2   3
ATOM      3  C   UNL     1      18.318  -4.314  33.413  1.00  0.00     0.000 C 
BRANCH   3   4
ATOM      4  C   UNL     1      18.878  -3.377  34.506  1.00  0.00     0.006 C 
BRANCH   4   5
ATOM      5  C   UNL     1      18.043  -2.099  34.654  1.00  0.00     0.053 C 
BRANCH   5   6
ATOM      6  C   UNL     1      18.228  -1.506  36.015  1.00  0.00     0.041 C 
ATOM      7  O   UNL     1      19.134  -0.655  36.218  1.00  0.00    -0.550 OA
ATOM      8  O   UNL     1      17.368  -1.855  37.048  1.00  0.00    -0.550 OA
ENDBRANCH   5   6
ENDBRANCH   4   5
ENDBRANCH   3   4
ENDBRANCH   2   3
ENDBRANCH   1   2
BRANCH   1   9
ATOM      9  C   UNL     1      17.933  -7.716  33.065  1.00  0.00     0.000 C 
BRANCH   9  10
ATOM     10  C   UNL     1      16.424  -7.555  33.339  1.00  0.00    -0.000 C 
BRANCH  10  11
ATOM     11  C   UNL     1      16.060  -7.093  34.765  1.00  0.00    -0.000 C 
BRANCH  11  12
ATOM     12  C   UNL     1      15.276  -5.770  34.838  1.00  0.00    -0.000 C 
BRANCH  12  13
ATOM     13  C   UNL     1      15.677  -4.908  36.043  1.00  0.00    -0.003 C 
ATOM     14  C   UNL     1      16.905  -5.480  36.745  1.00  0.00     0.004 C 
ENDBRANCH  12  13
ENDBRANCH  11  12
ENDBRANCH  10  11
ENDBRANCH   9  10
ENDBRANCH   1   9
TORSDOF 10
ENDMDL
MODEL 6
REMARK VINA RESULT:    -4.861      1.138      2.576
REMARK INTER + INTRA:          -9.230
REMARK INTER:                  -7.947
REMARK INTRA:                  -1.283
REMARK UNBOUND:                -1.527
REMARK SMILES CCCCCCCCCCCC(=O)[O-]
REMARK SMILES IDX 7 1 8 2 9 3 10 4 11 5 12 6 13 7 14 8 6 9 5 10 4 11 3 12 2 13
REMARK SMILES IDX 1 14
REMARK H PARENT
REMARK Flexibility Score: inf
ROOT
ATOM      1  C   UNL     1      11.913   4.671  19.029  1.00  0.00     0.000 C 
ENDROOT
BRANCH   1   2
ATOM      2  C   UNL     1      11.752   5.806  18.005  1.00  0.00     0.000 C 
BRANCH   2   3
ATOM      3  C   UNL     1      11.472   7.167  18.664  1.00  0.00     0.000 C 
BRANCH   3   4
ATOM      4  C   UNL     1      11.889   7.235  20.149  1.00  0.00     0.006 C 
BRANCH   4   5
ATOM      5  C   UNL     1      12.971   8.294  20.396  1.00  0.00     0.053 C 
BRANCH   5   6
ATOM      6  C   UNL     1      12.870   8.830  21.789  1.00  0.00     0.041 C 
ATOM      7  O   UNL     1      13.761   8.562  22.638  1.00  0.00    -0.550 OA
ATOM      8  O   UNL     1      11.818   9.668  22.138  1.00  0.00    -0.550 OA
ENDBRANCH   5   6
ENDBRANCH   4   5
ENDBRANCH   3   4
ENDBRANCH   2   3
ENDBRANCH   1   2
BRANCH   1   9
ATOM      9  C   UNL     1      10.951   3.496  18.777  1.00  0.00     0.000 C 
BRANCH   9  10
ATOM     10  C   UNL     1      10.021   3.144  19.955  1.00  0.00    -0.000 C 
BRANCH  10  11
ATOM     11  C   UNL     1       9.820   4.267  20.992  1.00  0.00    -0.000 C 
BRANCH  11  12
ATOM     12  C   UNL     1       8.715   5.281  20.644  1.00  0.00    -0.000 C 
BRANCH  12  13
ATOM     13  C   UNL     1       7.824   4.815  19.484  1.00  0.00    -0.003 C 
ATOM     14  C   UNL     1       7.938   5.758  18.290  1.00  0.00     0.004 C 
ENDBRANCH  12  13
ENDBRANCH  11  12
ENDBRANCH  10  11
ENDBRANCH   9  10
ENDBRANCH   1   9
TORSDOF 10
ENDMDL
MODEL 7
REMARK VINA RESULT:    -4.860     18.059     19.613
REMARK INTER + INTRA:          -9.229
REMARK INTER:                  -7.705
REMARK INTRA:                  -1.524
REMARK UNBOUND:                -1.527
REMARK SMILES CCCCCCCCCCCC(=O)[O-]
REMARK SMILES IDX 7 1 8 2 9 3 10 4 11 5 12 6 13 7 14 8 6 9 5 10 4 11 3 12 2 13
REMARK SMILES IDX 1 14
REMARK H PARENT
REMARK Flexibility Score: inf
ROOT
ATOM      1  C   UNL     1      16.219  -4.657  33.395  1.00  0.00     0.000 C 
ENDROOT
BRANCH   1   2
ATOM      2  C   UNL     1      16.979  -3.392  33.824  1.00  0.00     0.000 C 
BRANCH   2   3
ATOM      3  C   UNL     1      18.505  -3.586  33.824  1.00  0.00     0.000 C 
BRANCH   3   4
ATOM      4  C   UNL     1      19.198  -3.047  35.094  1.00  0.00     0.006 C 
BRANCH   4   5
ATOM      5  C   UNL     1      18.246  -2.215  35.963  1.00  0.00     0.053 C 
BRANCH   5   6
ATOM      6  C   UNL     1      18.675  -0.782  35.986  1.00  0.00     0.041 C 
ATOM      7  O   UNL     1      18.148   0.050  35.201  1.00  0.00    -0.550 OA
ATOM      8  O   UNL     1      19.620  -0.354  36.910  1.00  0.00    -0.550 OA
ENDBRANCH   5   6
ENDBRANCH   4   5
ENDBRANCH   3   4
ENDBRANCH   2   3
ENDBRANCH   1   2
BRANCH   1   9
ATOM      9  C   UNL     1      15.423  -5.297  34.547  1.00  0.00     0.000 C 
BRANCH   9  10
ATOM     10  C   UNL     1      15.859  -4.870  35.963  1.00  0.00    -0.000 C 
BRANCH  10  11
ATOM     11  C   UNL     1      16.994  -5.710  36.583  1.00  0.00    -0.000 C 
BRANCH  11  12
ATOM     12  C   UNL     1      17.232  -7.074  35.912  1.00  0.00    -0.000 C 
BRANCH  12  13
ATOM     13  C   UNL     1      18.616  -7.180  35.257  1.00  0.00    -0.003 C 
ATOM     14  C   UNL     1      18.497  -7.437  33.757  1.00  0.00     0.004 C 
ENDBRANCH  12  13
ENDBRANCH  11  12
ENDBRANCH  10  11
ENDBRANCH   9  10
ENDBRANCH   1   9
TORSDOF 10
ENDMDL
MODEL 8
REMARK VINA RESULT:    -4.834      1.203      2.325
REMARK INTER + INTRA:          -9.187
REMARK INTER:                  -7.670
REMARK INTRA:                  -1.517
REMARK UNBOUND:                -1.527
REMARK SMILES CCCCCCCCCCCC(=O)[O-]
REMARK SMILES IDX 7 1 8 2 9 3 10 4 11 5 12 6 13 7 14 8 6 9 5 10 4 11 3 12 2 13
REMARK SMILES IDX 1 14
REMARK H PARENT
REMARK Flexibility Score: inf
ROOT
ATOM      1  C   UNL     1       8.150   5.311  20.325  1.00  0.00     0.000 C 
ENDROOT
BRANCH   1   2
ATOM      2  C   UNL     1       9.225   6.127  21.060  1.00  0.00     0.000 C 
BRANCH   2   3
ATOM      3  C   UNL     1      10.459   5.287  21.434  1.00  0.00     0.000 C 
BRANCH   3   4
ATOM      4  C   UNL     1      11.694   6.132  21.810  1.00  0.00     0.006 C 
BRANCH   4   5
ATOM      5  C   UNL     1      11.582   7.576  21.305  1.00  0.00     0.053 C 
BRANCH   5   6
ATOM      6  C   UNL     1      12.915   8.253  21.352  1.00  0.00     0.041 C 
ATOM      7  O   UNL     1      13.515   8.396  22.449  1.00  0.00    -0.550 OA
ATOM      8  O   UNL     1      13.518   8.683  20.177  1.00  0.00    -0.550 OA
ENDBRANCH   5   6
ENDBRANCH   4   5
ENDBRANCH   3   4
ENDBRANCH   2   3
ENDBRANCH   1   2
BRANCH   1   9
ATOM      9  C   UNL     1       8.038   5.676  18.833  1.00  0.00     0.000 C 
BRANCH   9  10
ATOM     10  C   UNL     1       9.041   6.738  18.339  1.00  0.00    -0.000 C 
BRANCH  10  11
ATOM     11  C   UNL     1      10.161   6.208  17.422  1.00  0.00    -0.000 C 
BRANCH  11  12
ATOM     12  C   UNL     1      11.582   6.314  18.004  1.00  0.00    -0.000 C 
BRANCH  12  13
ATOM     13  C   UNL     1      12.183   4.946  18.357  1.00  0.00    -0.003 C 
ATOM     14  C   UNL     1      11.184   3.823  18.095  1.00  0.00     0.004 C 
ENDBRANCH  12  13
ENDBRANCH  11  12
ENDBRANCH  10  11
ENDBRANCH   9  10
ENDBRANCH   1   9
TORSDOF 10
ENDMDL
MODEL 9
REMARK VINA RESULT:    -4.813     18.723     20.305
REMARK INTER + INTRA:          -9.154
REMARK INTER:                  -7.728
REMARK INTRA:                  -1.426
REMARK UNBOUND:                -1.527
REMARK SMILES CCCCCCCCCCCC(=O)[O-]
REMARK SMILES IDX 7 1 8 2 9 3 10 4 11 5 12 6 13 7 14 8 6 9 5 10 4 11 3 12 2 13
REMARK SMILES IDX 1 14
REMARK H PARENT
REMARK Flexibility Score: inf
ROOT
ATOM      1  C   UNL     1      15.046  -4.915  35.725  1.00  0.00     0.000 C 
ENDROOT
BRANCH   1   2
ATOM      2  C   UNL     1      15.187  -5.994  34.640  1.00  0.00     0.000 C 
BRANCH   2   3
ATOM      3  C   UNL     1      15.672  -5.426  33.295  1.00  0.00     0.000 C 
BRANCH   3   4
ATOM      4  C   UNL     1      15.980  -6.510  32.240  1.00  0.00     0.006 C 
BRANCH   4   5
ATOM      5  C   UNL     1      15.981  -7.920  32.843  1.00  0.00     0.053 C 
BRANCH   5   6
ATOM      6  C   UNL     1      16.182  -8.947  31.774  1.00  0.00     0.041 C 
ATOM      7  O   UNL     1      15.243  -9.233  30.985  1.00  0.00    -0.550 OA
ATOM      8  O   UNL     1      17.422  -9.554  31.617  1.00  0.00    -0.550 OA
ENDBRANCH   5   6
ENDBRANCH   4   5
ENDBRANCH   3   4
ENDBRANCH   2   3
ENDBRANCH   1   2
BRANCH   1   9
ATOM      9  C   UNL     1      16.381  -4.581  36.415  1.00  0.00     0.000 C 
BRANCH   9  10
ATOM     10  C   UNL     1      17.295  -5.790  36.697  1.00  0.00    -0.000 C 
BRANCH  10  11
ATOM     11  C   UNL     1      18.705  -5.707  36.077  1.00  0.00    -0.000 C 
BRANCH  11  12
ATOM     12  C   UNL     1      18.878  -6.472  34.753  1.00  0.00    -0.000 C 
BRANCH  12  13
ATOM     13  C   UNL     1      19.281  -5.558  33.587  1.00  0.00    -0.003 C 
ATOM     14  C   UNL     1      19.272  -4.092  34.010  1.00  0.00     0.004 C 
ENDBRANCH  12  13
ENDBRANCH  11  12
ENDBRANCH  10  11
ENDBRANCH   9  10
ENDBRANCH   1   9
TORSDOF 10
ENDMDL
