MODEL 1
REMARK VINA RESULT:    -4.773      0.000      0.000
REMARK INTER + INTRA:         -17.238
REMARK INTER:                 -12.587
REMARK INTRA:                  -4.651
REMARK UNBOUND:                -4.651
REMARK SMILES CCCCCCCCCCCCCCCCCCCCCCCCCCCCCC(=O)[O-]
REMARK SMILES IDX 16 1 17 2 18 3 19 4 20 5 21 6 22 7 23 8 24 9 25 10 26 11
REMARK SMILES IDX 27 12 28 13 29 14 30 15 31 16 32 17 15 18 14 19 13 20 12 21
REMARK SMILES IDX 11 22 10 23 9 24 8 25 7 26 6 27 5 28 4 29 3 30 2 31 1 32
REMARK H PARENT
REMARK Flexibility Score: inf
ROOT
ATOM      1  C   UNL     1      42.501  -1.038  20.739  1.00  0.00     0.000 C 
ENDROOT
BRANCH   1   2
ATOM      2  C   UNL     1      42.657   0.025  21.842  1.00  0.00     0.000 C 
BRANCH   2   3
ATOM      3  C   UNL     1      42.968  -0.533  23.246  1.00  0.00     0.000 C 
BRANCH   3   4
ATOM      4  C   UNL     1      42.743   0.456  24.403  1.00  0.00     0.000 C 
BRANCH   4   5
ATOM      5  C   UNL     1      43.875   0.427  25.440  1.00  0.00     0.000 C 
BRANCH   5   6
ATOM      6  C   UNL     1      45.225   0.765  24.787  1.00  0.00     0.000 C 
BRANCH   6   7
ATOM      7  C   UNL     1      45.152   2.016  23.896  1.00  0.00     0.000 C 
BRANCH   7   8
ATOM      8  C   UNL     1      46.201   1.994  22.770  1.00  0.00     0.000 C 
BRANCH   8   9
ATOM      9  C   UNL     1      46.554   0.570  22.312  1.00  0.00     0.000 C 
BRANCH   9  10
ATOM     10  C   UNL     1      47.466   0.551  21.073  1.00  0.00     0.000 C 
BRANCH  10  11
ATOM     11  C   UNL     1      48.478   1.708  21.071  1.00  0.00     0.000 C 
BRANCH  11  12
ATOM     12  C   UNL     1      49.897   1.250  20.690  1.00  0.00     0.000 C 
BRANCH  12  13
ATOM     13  C   UNL     1      50.173  -0.209  21.089  1.00  0.00     0.006 C 
BRANCH  13  14
ATOM     14  C   UNL     1      50.722  -1.048  19.928  1.00  0.00     0.053 C 
BRANCH  14  15
ATOM     15  C   UNL     1      52.168  -0.742  19.697  1.00  0.00     0.041 C 
ATOM     16  O   UNL     1      52.950  -0.595  20.674  1.00  0.00    -0.550 OA
ATOM     17  O   UNL     1      52.659  -0.641  18.401  1.00  0.00    -0.550 OA
ENDBRANCH  14  15
ENDBRANCH  13  14
ENDBRANCH  12  13
ENDBRANCH  11  12
ENDBRANCH  10  11
ENDBRANCH   9  10
ENDBRANCH   8   9
ENDBRANCH   7   8
ENDBRANCH   6   7
ENDBRANCH   5   6
ENDBRANCH   4   5
ENDBRANCH   3   4
ENDBRANCH   2   3
ENDBRANCH   1   2
BRANCH   1  18
ATOM     18  C   UNL     1      41.087  -1.070  20.139  1.00  0.00     0.000 C 
BRANCH  18  19
ATOM     19  C   UNL     1      41.116  -0.729  18.641  1.00  0.00     0.000 C 
BRANCH  19  20
ATOM     20  C   UNL     1      42.104   0.402  18.308  1.00  0.00     0.000 C 
BRANCH  20  21
ATOM     21  C   UNL     1      41.455   1.530  17.489  1.00  0.00     0.000 C 
BRANCH  21  22
ATOM     22  C   UNL     1      42.387   2.093  16.400  1.00  0.00     0.000 C 
BRANCH  22  23
ATOM     23  C   UNL     1      42.979   1.043  15.442  1.00  0.00     0.000 C 
BRANCH  23  24
ATOM     24  C   UNL     1      44.481   0.810  15.664  1.00  0.00    -0.000 C 
BRANCH  24  25
ATOM     25  C   UNL     1      45.211   2.137  15.918  1.00  0.00    -0.000 C 
BRANCH  25  26
ATOM     26  C   UNL     1      46.450   1.974  16.813  1.00  0.00    -0.000 C 
BRANCH  26  27
ATOM     27  C   UNL     1      46.398   2.858  18.069  1.00  0.00    -0.000 C 
BRANCH  27  28
ATOM     28  C   UNL     1      44.953   3.270  18.389  1.00  0.00    -0.000 C 
BRANCH  28  29
ATOM     29  C   UNL     1      44.424   2.623  19.680  1.00  0.00    -0.000 C 
BRANCH  29  30
ATOM     30  C   UNL     1      43.818   3.644  20.653  1.00  0.00    -0.000 C 
BRANCH  30  31
ATOM     31  C   UNL     1      42.309   3.424  20.810  1.00  0.00    -0.003 C 
ATOM     32  C   UNL     1      41.886   3.519  22.273  1.00  0.00     0.004 C 
ENDBRANCH  30  31
ENDBRANCH  29  30
ENDBRANCH  28  29
ENDBRANCH  27  28
ENDBRANCH  26  27
ENDBRANCH  25  26
ENDBRANCH  24  25
ENDBRANCH  23  24
ENDBRANCH  22  23
ENDBRANCH  21  22
ENDBRANCH  20  21
ENDBRANCH  19  20
ENDBRANCH  18  19
ENDBRANCH   1  18
TORSDOF 28
ENDMDL
MODEL 2
REMARK VINA RESULT:    -4.699      1.773      5.863
REMARK INTER + INTRA:         -17.041
REMARK INTER:                 -11.843
REMARK INTRA:                  -5.198
REMARK UNBOUND:                -4.651
REMARK SMILES CCCCCCCCCCCCCCCCCCCCCCCCCCCCCC(=O)[O-]
REMARK SMILES IDX 16 1 17 2 18 3 19 4 20 5 21 6 22 7 23 8 24 9 25 10 26 11
REMARK SMILES IDX 27 12 28 13 29 14 30 15 31 16 32 17 15 18 14 19 13 20 12 21
REMARK SMILES IDX 11 22 10 23 9 24 8 25 7 26 6 27 5 28 4 29 3 30 2 31 1 32
REMARK H PARENT
REMARK Flexibility Score: inf
ROOT
ATOM      1  C   UNL     1      41.206  -0.824  19.994  1.00  0.00     0.000 C 
ENDROOT
BRANCH   1   2
ATOM      2  C   UNL     1      41.875  -0.198  18.756  1.00  0.00     0.000 C 
BRANCH   2   3
ATOM      3  C   UNL     1      41.210   1.094  18.239  1.00  0.00     0.000 C 
BRANCH   3   4
ATOM      4  C   UNL     1      42.183   2.242  17.918  1.00  0.00     0.000 C 
BRANCH   4   5
ATOM      5  C   UNL     1      43.353   1.799  17.026  1.00  0.00     0.000 C 
BRANCH   5   6
ATOM      6  C   UNL     1      44.689   2.330  17.570  1.00  0.00     0.000 C 
BRANCH   6   7
ATOM      7  C   UNL     1      44.521   3.122  18.877  1.00  0.00     0.000 C 
BRANCH   7   8
ATOM      8  C   UNL     1      45.854   3.692  19.392  1.00  0.00     0.000 C 
BRANCH   8   9
ATOM      9  C   UNL     1      45.757   4.226  20.830  1.00  0.00     0.000 C 
BRANCH   9  10
ATOM     10  C   UNL     1      45.711   3.103  21.881  1.00  0.00     0.000 C 
BRANCH  10  11
ATOM     11  C   UNL     1      47.050   2.355  22.000  1.00  0.00     0.000 C 
BRANCH  11  12
ATOM     12  C   UNL     1      46.936   0.875  21.597  1.00  0.00     0.000 C 
BRANCH  12  13
ATOM     13  C   UNL     1      48.289   0.144  21.648  1.00  0.00     0.006 C 
BRANCH  13  14
ATOM     14  C   UNL     1      49.003   0.122  20.291  1.00  0.00     0.053 C 
BRANCH  14  15
ATOM     15  C   UNL     1      50.400   0.641  20.425  1.00  0.00     0.041 C 
ATOM     16  O   UNL     1      51.374  -0.158  20.465  1.00  0.00    -0.550 OA
ATOM     17  O   UNL     1      50.630   2.010  20.484  1.00  0.00    -0.550 OA
ENDBRANCH  14  15
ENDBRANCH  13  14
ENDBRANCH  12  13
ENDBRANCH  11  12
ENDBRANCH  10  11
ENDBRANCH   9  10
ENDBRANCH   8   9
ENDBRANCH   7   8
ENDBRANCH   6   7
ENDBRANCH   5   6
ENDBRANCH   4   5
ENDBRANCH   3   4
ENDBRANCH   2   3
ENDBRANCH   1   2
BRANCH   1  18
ATOM     18  C   UNL     1      42.012  -0.601  21.283  1.00  0.00     0.000 C 
BRANCH  18  19
ATOM     19  C   UNL     1      43.081   0.484  21.085  1.00  0.00     0.000 C 
BRANCH  19  20
ATOM     20  C   UNL     1      42.676   1.836  21.697  1.00  0.00     0.000 C 
BRANCH  20  21
ATOM     21  C   UNL     1      41.694   1.682  22.871  1.00  0.00     0.000 C 
BRANCH  21  22
ATOM     22  C   UNL     1      41.338   3.026  23.534  1.00  0.00     0.000 C 
BRANCH  22  23
ATOM     23  C   UNL     1      42.431   4.107  23.446  1.00  0.00     0.000 C 
BRANCH  23  24
ATOM     24  C   UNL     1      42.269   5.209  24.504  1.00  0.00    -0.000 C 
BRANCH  24  25
ATOM     25  C   UNL     1      42.818   4.749  25.863  1.00  0.00    -0.000 C 
BRANCH  25  26
ATOM     26  C   UNL     1      44.107   3.922  25.736  1.00  0.00    -0.000 C 
BRANCH  26  27
ATOM     27  C   UNL     1      44.125   2.701  26.668  1.00  0.00    -0.000 C 
BRANCH  27  28
ATOM     28  C   UNL     1      43.791   1.416  25.896  1.00  0.00    -0.000 C 
BRANCH  28  29
ATOM     29  C   UNL     1      44.890   1.022  24.896  1.00  0.00    -0.000 C 
BRANCH  29  30
ATOM     30  C   UNL     1      44.669  -0.369  24.286  1.00  0.00    -0.000 C 
BRANCH  30  31
ATOM     31  C   UNL     1      43.374  -1.000  24.810  1.00  0.00    -0.003 C 
ATOM     32  C   UNL     1      43.628  -2.394  25.376  1.00  0.00     0.004 C 
ENDBRANCH  30  31
ENDBRANCH  29  30
ENDBRANCH  28  29
ENDBRANCH  27  28
ENDBRANCH  26  27
ENDBRANCH  25  26
ENDBRANCH  24  25
ENDBRANCH  23  24
ENDBRANCH  22  23
ENDBRANCH  21  22
ENDBRANCH  20  21
ENDBRANCH  19  20
ENDBRANCH  18  19
ENDBRANCH   1  18
TORSDOF 28
ENDMDL
MODEL 3
REMARK VINA RESULT:    -4.679      2.958      7.451
REMARK INTER + INTRA:         -16.989
REMARK INTER:                 -11.901
REMARK INTRA:                  -5.088
REMARK UNBOUND:                -4.651
REMARK SMILES CCCCCCCCCCCCCCCCCCCCCCCCCCCCCC(=O)[O-]
REMARK SMILES IDX 16 1 17 2 18 3 19 4 20 5 21 6 22 7 23 8 24 9 25 10 26 11
REMARK SMILES IDX 27 12 28 13 29 14 30 15 31 16 32 17 15 18 14 19 13 20 12 21
REMARK SMILES IDX 11 22 10 23 9 24 8 25 7 26 6 27 5 28 4 29 3 30 2 31 1 32
REMARK H PARENT
REMARK Flexibility Score: inf
ROOT
ATOM      1  C   UNL     1      47.923   0.118  21.655  1.00  0.00     0.000 C 
ENDROOT
BRANCH   1   2
ATOM      2  C   UNL     1      48.987  -0.174  20.581  1.00  0.00     0.000 C 
BRANCH   2   3
ATOM      3  C   UNL     1      50.425  -0.337  21.115  1.00  0.00     0.000 C 
BRANCH   3   4
ATOM      4  C   UNL     1      51.318  -1.286  20.297  1.00  0.00     0.000 C 
BRANCH   4   5
ATOM      5  C   UNL     1      52.713  -0.703  20.026  1.00  0.00     0.000 C 
BRANCH   5   6
ATOM      6  C   UNL     1      52.824  -0.196  18.580  1.00  0.00     0.000 C 
BRANCH   6   7
ATOM      7  C   UNL     1      51.610  -0.587  17.722  1.00  0.00     0.000 C 
BRANCH   7   8
ATOM      8  C   UNL     1      50.899   0.638  17.118  1.00  0.00     0.000 C 
BRANCH   8   9
ATOM      9  C   UNL     1      51.112   1.916  17.945  1.00  0.00     0.000 C 
BRANCH   9  10
ATOM     10  C   UNL     1      49.791   2.570  18.383  1.00  0.00     0.000 C 
BRANCH  10  11
ATOM     11  C   UNL     1      48.592   2.089  17.547  1.00  0.00     0.000 C 
BRANCH  11  12
ATOM     12  C   UNL     1      47.261   2.698  18.020  1.00  0.00     0.000 C 
BRANCH  12  13
ATOM     13  C   UNL     1      46.046   2.101  17.290  1.00  0.00     0.006 C 
BRANCH  13  14
ATOM     14  C   UNL     1      44.710   2.536  17.906  1.00  0.00     0.053 C 
BRANCH  14  15
ATOM     15  C   UNL     1      43.565   1.970  17.126  1.00  0.00     0.041 C 
ATOM     16  O   UNL     1      43.761   1.063  16.275  1.00  0.00    -0.550 OA
ATOM     17  O   UNL     1      42.274   2.431  17.356  1.00  0.00    -0.550 OA
ENDBRANCH  14  15
ENDBRANCH  13  14
ENDBRANCH  12  13
ENDBRANCH  11  12
ENDBRANCH  10  11
ENDBRANCH   9  10
ENDBRANCH   8   9
ENDBRANCH   7   8
ENDBRANCH   6   7
ENDBRANCH   5   6
ENDBRANCH   4   5
ENDBRANCH   3   4
ENDBRANCH   2   3
ENDBRANCH   1   2
BRANCH   1  18
ATOM     18  C   UNL     1      47.139   1.411  21.382  1.00  0.00     0.000 C 
BRANCH  18  19
ATOM     19  C   UNL     1      47.994   2.649  21.692  1.00  0.00     0.000 C 
BRANCH  19  20
ATOM     20  C   UNL     1      47.165   3.943  21.751  1.00  0.00     0.000 C 
BRANCH  20  21
ATOM     21  C   UNL     1      45.677   3.707  21.440  1.00  0.00     0.000 C 
BRANCH  21  22
ATOM     22  C   UNL     1      44.761   3.983  22.647  1.00  0.00     0.000 C 
BRANCH  22  23
ATOM     23  C   UNL     1      45.235   3.370  23.978  1.00  0.00     0.000 C 
BRANCH  23  24
ATOM     24  C   UNL     1      44.222   2.381  24.576  1.00  0.00    -0.000 C 
BRANCH  24  25
ATOM     25  C   UNL     1      44.939   1.188  25.225  1.00  0.00    -0.000 C 
BRANCH  25  26
ATOM     26  C   UNL     1      45.065  -0.017  24.280  1.00  0.00    -0.000 C 
BRANCH  26  27
ATOM     27  C   UNL     1      43.764  -0.314  23.518  1.00  0.00    -0.000 C 
BRANCH  27  28
ATOM     28  C   UNL     1      44.000  -0.284  22.000  1.00  0.00    -0.000 C 
BRANCH  28  29
ATOM     29  C   UNL     1      43.258   0.871  21.307  1.00  0.00    -0.000 C 
BRANCH  29  30
ATOM     30  C   UNL     1      42.220   0.384  20.286  1.00  0.00    -0.000 C 
BRANCH  30  31
ATOM     31  C   UNL     1      41.689  -1.005  20.660  1.00  0.00    -0.003 C 
ATOM     32  C   UNL     1      40.785  -1.564  19.566  1.00  0.00     0.004 C 
ENDBRANCH  30  31
ENDBRANCH  29  30
ENDBRANCH  28  29
ENDBRANCH  27  28
ENDBRANCH  26  27
ENDBRANCH  25  26
ENDBRANCH  24  25
ENDBRANCH  23  24
ENDBRANCH  22  23
ENDBRANCH  21  22
ENDBRANCH  20  21
ENDBRANCH  19  20
ENDBRANCH  18  19
ENDBRANCH   1  18
TORSDOF 28
ENDMDL
MODEL 4
REMARK VINA RESULT:    -4.665      1.289      4.504
REMARK INTER + INTRA:         -16.952
REMARK INTER:                 -11.899
REMARK INTRA:                  -5.054
REMARK UNBOUND:                -4.651
REMARK SMILES CCCCCCCCCCCCCCCCCCCCCCCCCCCCCC(=O)[O-]
REMARK SMILES IDX 16 1 17 2 18 3 19 4 20 5 21 6 22 7 23 8 24 9 25 10 26 11
REMARK SMILES IDX 27 12 28 13 29 14 30 15 31 16 32 17 15 18 14 19 13 20 12 21
REMARK SMILES IDX 11 22 10 23 9 24 8 25 7 26 6 27 5 28 4 29 3 30 2 31 1 32
REMARK H PARENT
REMARK Flexibility Score: inf
ROOT
ATOM      1  C   UNL     1      46.581   2.050  17.486  1.00  0.00     0.000 C 
ENDROOT
BRANCH   1   2
ATOM      2  C   UNL     1      46.722   3.482  18.034  1.00  0.00     0.000 C 
BRANCH   2   3
ATOM      3  C   UNL     1      45.824   3.809  19.245  1.00  0.00     0.000 C 
BRANCH   3   4
ATOM      4  C   UNL     1      44.919   2.656  19.713  1.00  0.00     0.000 C 
BRANCH   4   5
ATOM      5  C   UNL     1      44.786   2.587  21.241  1.00  0.00     0.000 C 
BRANCH   5   6
ATOM      6  C   UNL     1      46.159   2.393  21.903  1.00  0.00     0.000 C 
BRANCH   6   7
ATOM      7  C   UNL     1      46.758   1.006  21.621  1.00  0.00     0.000 C 
BRANCH   7   8
ATOM      8  C   UNL     1      48.075   1.086  20.829  1.00  0.00     0.000 C 
BRANCH   8   9
ATOM      9  C   UNL     1      49.082   2.069  21.447  1.00  0.00     0.000 C 
BRANCH   9  10
ATOM     10  C   UNL     1      49.504   3.182  20.473  1.00  0.00     0.000 C 
BRANCH  10  11
ATOM     11  C   UNL     1      50.381   2.656  19.324  1.00  0.00     0.000 C 
BRANCH  11  12
ATOM     12  C   UNL     1      51.803   2.293  19.787  1.00  0.00     0.000 C 
BRANCH  12  13
ATOM     13  C   UNL     1      52.349   1.038  19.087  1.00  0.00     0.006 C 
BRANCH  13  14
ATOM     14  C   UNL     1      52.612  -0.118  20.060  1.00  0.00     0.053 C 
BRANCH  14  15
ATOM     15  C   UNL     1      51.341  -0.849  20.362  1.00  0.00     0.041 C 
ATOM     16  O   UNL     1      50.740  -1.481  19.454  1.00  0.00    -0.550 OA
ATOM     17  O   UNL     1      50.832  -0.851  21.655  1.00  0.00    -0.550 OA
ENDBRANCH  14  15
ENDBRANCH  13  14
ENDBRANCH  12  13
ENDBRANCH  11  12
ENDBRANCH  10  11
ENDBRANCH   9  10
ENDBRANCH   8   9
ENDBRANCH   7   8
ENDBRANCH   6   7
ENDBRANCH   5   6
ENDBRANCH   4   5
ENDBRANCH   3   4
ENDBRANCH   2   3
ENDBRANCH   1   2
BRANCH   1  18
ATOM     18  C   UNL     1      46.977   1.938  16.006  1.00  0.00     0.000 C 
BRANCH  18  19
ATOM     19  C   UNL     1      45.896   1.202  15.200  1.00  0.00     0.000 C 
BRANCH  19  20
ATOM     20  C   UNL     1      44.620   0.941  16.017  1.00  0.00     0.000 C 
BRANCH  20  21
ATOM     21  C   UNL     1      43.477   1.903  15.650  1.00  0.00     0.000 C 
BRANCH  21  22
ATOM     22  C   UNL     1      42.686   2.391  16.877  1.00  0.00     0.000 C 
BRANCH  22  23
ATOM     23  C   UNL     1      41.544   1.461  17.329  1.00  0.00     0.000 C 
BRANCH  23  24
ATOM     24  C   UNL     1      41.729   0.940  18.763  1.00  0.00    -0.000 C 
BRANCH  24  25
ATOM     25  C   UNL     1      41.388  -0.556  18.850  1.00  0.00    -0.000 C 
BRANCH  25  26
ATOM     26  C   UNL     1      41.812  -1.186  20.186  1.00  0.00    -0.000 C 
BRANCH  26  27
ATOM     27  C   UNL     1      42.321  -0.148  21.198  1.00  0.00    -0.000 C 
BRANCH  27  28
ATOM     28  C   UNL     1      43.546  -0.677  21.958  1.00  0.00    -0.000 C 
BRANCH  28  29
ATOM     29  C   UNL     1      43.359  -0.641  23.483  1.00  0.00    -0.000 C 
BRANCH  29  30
ATOM     30  C   UNL     1      42.614   0.612  23.963  1.00  0.00    -0.000 C 
BRANCH  30  31
ATOM     31  C   UNL     1      43.578   1.609  24.617  1.00  0.00    -0.003 C 
ATOM     32  C   UNL     1      44.843   0.913  25.109  1.00  0.00     0.004 C 
ENDBRANCH  30  31
ENDBRANCH  29  30
ENDBRANCH  28  29
ENDBRANCH  27  28
ENDBRANCH  26  27
ENDBRANCH  25  26
ENDBRANCH  24  25
ENDBRANCH  23  24
ENDBRANCH  22  23
ENDBRANCH  21  22
ENDBRANCH  20  21
ENDBRANCH  19  20
ENDBRANCH  18  19
ENDBRANCH   1  18
TORSDOF 28
ENDMDL
MODEL 5
REMARK VINA RESULT:    -4.638      2.802      7.027
REMARK INTER + INTRA:         -16.880
REMARK INTER:                 -12.386
REMARK INTRA:                  -4.494
REMARK UNBOUND:                -4.651
REMARK SMILES CCCCCCCCCCCCCCCCCCCCCCCCCCCCCC(=O)[O-]
REMARK SMILES IDX 16 1 17 2 18 3 19 4 20 5 21 6 22 7 23 8 24 9 25 10 26 11
REMARK SMILES IDX 27 12 28 13 29 14 30 15 31 16 32 17 15 18 14 19 13 20 12 21
REMARK SMILES IDX 11 22 10 23 9 24 8 25 7 26 6 27 5 28 4 29 3 30 2 31 1 32
REMARK H PARENT
REMARK Flexibility Score: inf
ROOT
ATOM      1  C   UNL     1      44.921   3.286  22.359  1.00  0.00     0.000 C 
ENDROOT
BRANCH   1   2
ATOM      2  C   UNL     1      45.172   3.322  23.878  1.00  0.00     0.000 C 
BRANCH   2   3
ATOM      3  C   UNL     1      44.020   2.774  24.744  1.00  0.00     0.000 C 
BRANCH   3   4
ATOM      4  C   UNL     1      44.388   1.571  25.629  1.00  0.00     0.000 C 
BRANCH   4   5
ATOM      5  C   UNL     1      45.098   0.455  24.850  1.00  0.00     0.000 C 
BRANCH   5   6
ATOM      6  C   UNL     1      44.096  -0.614  24.387  1.00  0.00     0.000 C 
BRANCH   6   7
ATOM      7  C   UNL     1      43.875  -0.594  22.865  1.00  0.00     0.000 C 
BRANCH   7   8
ATOM      8  C   UNL     1      42.630   0.217  22.464  1.00  0.00     0.000 C 
BRANCH   8   9
ATOM      9  C   UNL     1      42.616   0.586  20.973  1.00  0.00     0.000 C 
BRANCH   9  10
ATOM     10  C   UNL     1      41.727  -0.349  20.135  1.00  0.00     0.000 C 
BRANCH  10  11
ATOM     11  C   UNL     1      41.852  -0.082  18.626  1.00  0.00     0.000 C 
BRANCH  11  12
ATOM     12  C   UNL     1      41.149   1.219  18.197  1.00  0.00     0.000 C 
BRANCH  12  13
ATOM     13  C   UNL     1      41.950   2.002  17.143  1.00  0.00     0.006 C 
BRANCH  13  14
ATOM     14  C   UNL     1      43.433   1.612  17.114  1.00  0.00     0.053 C 
BRANCH  14  15
ATOM     15  C   UNL     1      43.847   1.225  15.729  1.00  0.00     0.041 C 
ATOM     16  O   UNL     1      43.439   1.883  14.736  1.00  0.00    -0.550 OA
ATOM     17  O   UNL     1      44.704   0.148  15.537  1.00  0.00    -0.550 OA
ENDBRANCH  14  15
ENDBRANCH  13  14
ENDBRANCH  12  13
ENDBRANCH  11  12
ENDBRANCH  10  11
ENDBRANCH   9  10
ENDBRANCH   8   9
ENDBRANCH   7   8
ENDBRANCH   6   7
ENDBRANCH   5   6
ENDBRANCH   4   5
ENDBRANCH   3   4
ENDBRANCH   2   3
ENDBRANCH   1   2
BRANCH   1  18
ATOM     18  C   UNL     1      46.207   3.070  21.547  1.00  0.00     0.000 C 
BRANCH  18  19
ATOM     19  C   UNL     1      46.214   1.685  20.883  1.00  0.00     0.000 C 
BRANCH  19  20
ATOM     20  C   UNL     1      47.024   0.648  21.678  1.00  0.00     0.000 C 
BRANCH  20  21
ATOM     21  C   UNL     1      48.226   0.105  20.887  1.00  0.00     0.000 C 
BRANCH  21  22
ATOM     22  C   UNL     1      49.557   0.241  21.650  1.00  0.00     0.000 C 
BRANCH  22  23
ATOM     23  C   UNL     1      50.531  -0.939  21.477  1.00  0.00     0.000 C 
BRANCH  23  24
ATOM     24  C   UNL     1      51.173  -0.986  20.081  1.00  0.00    -0.000 C 
BRANCH  24  25
ATOM     25  C   UNL     1      52.670  -0.648  20.155  1.00  0.00    -0.000 C 
BRANCH  25  26
ATOM     26  C   UNL     1      52.968   0.817  19.800  1.00  0.00    -0.000 C 
BRANCH  26  27
ATOM     27  C   UNL     1      52.329   1.249  18.471  1.00  0.00    -0.000 C 
BRANCH  27  28
ATOM     28  C   UNL     1      51.801   2.689  18.559  1.00  0.00    -0.000 C 
BRANCH  28  29
ATOM     29  C   UNL     1      50.280   2.777  18.355  1.00  0.00    -0.000 C 
BRANCH  29  30
ATOM     30  C   UNL     1      49.534   3.216  19.622  1.00  0.00    -0.000 C 
BRANCH  30  31
ATOM     31  C   UNL     1      50.513   3.708  20.695  1.00  0.00    -0.003 C 
ATOM     32  C   UNL     1      49.814   3.891  22.039  1.00  0.00     0.004 C 
ENDBRANCH  30  31
ENDBRANCH  29  30
ENDBRANCH  28  29
ENDBRANCH  27  28
ENDBRANCH  26  27
ENDBRANCH  25  26
ENDBRANCH  24  25
ENDBRANCH  23  24
ENDBRANCH  22  23
ENDBRANCH  21  22
ENDBRANCH  20  21
ENDBRANCH  19  20
ENDBRANCH  18  19
ENDBRANCH   1  18
TORSDOF 28
ENDMDL
MODEL 6
REMARK VINA RESULT:    -4.620      2.848      7.076
REMARK INTER + INTRA:         -16.835
REMARK INTER:                 -11.360
REMARK INTRA:                  -5.475
REMARK UNBOUND:                -4.651
REMARK SMILES CCCCCCCCCCCCCCCCCCCCCCCCCCCCCC(=O)[O-]
REMARK SMILES IDX 16 1 17 2 18 3 19 4 20 5 21 6 22 7 23 8 24 9 25 10 26 11
REMARK SMILES IDX 27 12 28 13 29 14 30 15 31 16 32 17 15 18 14 19 13 20 12 21
REMARK SMILES IDX 11 22 10 23 9 24 8 25 7 26 6 27 5 28 4 29 3 30 2 31 1 32
REMARK H PARENT
REMARK Flexibility Score: inf
ROOT
ATOM      1  C   UNL     1      47.359   0.300  21.537  1.00  0.00     0.000 C 
ENDROOT
BRANCH   1   2
ATOM      2  C   UNL     1      47.476   1.768  21.987  1.00  0.00     0.000 C 
BRANCH   2   3
ATOM      3  C   UNL     1      46.208   2.619  21.774  1.00  0.00     0.000 C 
BRANCH   3   4
ATOM      4  C   UNL     1      45.660   3.299  23.041  1.00  0.00     0.000 C 
BRANCH   4   5
ATOM      5  C   UNL     1      44.260   3.897  22.837  1.00  0.00     0.000 C 
BRANCH   5   6
ATOM      6  C   UNL     1      43.776   3.680  21.395  1.00  0.00     0.000 C 
BRANCH   6   7
ATOM      7  C   UNL     1      42.261   3.435  21.312  1.00  0.00     0.000 C 
BRANCH   7   8
ATOM      8  C   UNL     1      41.852   2.722  20.011  1.00  0.00     0.000 C 
BRANCH   8   9
ATOM      9  C   UNL     1      42.755   1.522  19.681  1.00  0.00     0.000 C 
BRANCH   9  10
ATOM     10  C   UNL     1      42.035   0.173  19.843  1.00  0.00     0.000 C 
BRANCH  10  11
ATOM     11  C   UNL     1      42.268  -0.455  21.228  1.00  0.00     0.000 C 
BRANCH  11  12
ATOM     12  C   UNL     1      43.666  -0.144  21.789  1.00  0.00     0.000 C 
BRANCH  12  13
ATOM     13  C   UNL     1      43.818  -0.562  23.261  1.00  0.00     0.006 C 
BRANCH  13  14
ATOM     14  C   UNL     1      43.216   0.461  24.233  1.00  0.00     0.053 C 
BRANCH  14  15
ATOM     15  C   UNL     1      44.236   0.890  25.241  1.00  0.00     0.041 C 
ATOM     16  O   UNL     1      45.330   0.275  25.339  1.00  0.00    -0.550 OA
ATOM     17  O   UNL     1      43.986   1.987  26.057  1.00  0.00    -0.550 OA
ENDBRANCH  14  15
ENDBRANCH  13  14
ENDBRANCH  12  13
ENDBRANCH  11  12
ENDBRANCH  10  11
ENDBRANCH   9  10
ENDBRANCH   8   9
ENDBRANCH   7   8
ENDBRANCH   6   7
ENDBRANCH   5   6
ENDBRANCH   4   5
ENDBRANCH   3   4
ENDBRANCH   2   3
ENDBRANCH   1   2
BRANCH   1  18
ATOM     18  C   UNL     1      48.624  -0.208  20.828  1.00  0.00     0.000 C 
BRANCH  18  19
ATOM     19  C   UNL     1      49.824  -0.225  21.787  1.00  0.00     0.000 C 
BRANCH  19  20
ATOM     20  C   UNL     1      51.070  -0.880  21.168  1.00  0.00     0.000 C 
BRANCH  20  21
ATOM     21  C   UNL     1      50.859  -1.280  19.698  1.00  0.00     0.000 C 
BRANCH  21  22
ATOM     22  C   UNL     1      51.871  -0.618  18.744  1.00  0.00     0.000 C 
BRANCH  22  23
ATOM     23  C   UNL     1      53.082   0.038  19.433  1.00  0.00     0.000 C 
BRANCH  23  24
ATOM     24  C   UNL     1      53.008   1.573  19.441  1.00  0.00    -0.000 C 
BRANCH  24  25
ATOM     25  C   UNL     1      51.682   2.061  18.839  1.00  0.00    -0.000 C 
BRANCH  25  26
ATOM     26  C   UNL     1      50.824   2.844  19.845  1.00  0.00    -0.000 C 
BRANCH  26  27
ATOM     27  C   UNL     1      49.477   3.289  19.257  1.00  0.00    -0.000 C 
BRANCH  27  28
ATOM     28  C   UNL     1      49.005   2.317  18.166  1.00  0.00    -0.000 C 
BRANCH  28  29
ATOM     29  C   UNL     1      47.498   2.026  18.241  1.00  0.00    -0.000 C 
BRANCH  29  30
ATOM     30  C   UNL     1      46.822   2.023  16.862  1.00  0.00    -0.000 C 
BRANCH  30  31
ATOM     31  C   UNL     1      45.415   2.627  16.938  1.00  0.00    -0.003 C 
ATOM     32  C   UNL     1      45.307   3.635  18.078  1.00  0.00     0.004 C 
ENDBRANCH  30  31
ENDBRANCH  29  30
ENDBRANCH  28  29
ENDBRANCH  27  28
ENDBRANCH  26  27
ENDBRANCH  25  26
ENDBRANCH  24  25
ENDBRANCH  23  24
ENDBRANCH  22  23
ENDBRANCH  21  22
ENDBRANCH  20  21
ENDBRANCH  19  20
ENDBRANCH  18  19
ENDBRANCH   1  18
TORSDOF 28
ENDMDL
MODEL 7
REMARK VINA RESULT:    -4.603      3.157      7.024
REMARK INTER + INTRA:         -16.789
REMARK INTER:                 -11.513
REMARK INTRA:                  -5.275
REMARK UNBOUND:                -4.651
REMARK SMILES CCCCCCCCCCCCCCCCCCCCCCCCCCCCCC(=O)[O-]
REMARK SMILES IDX 16 1 17 2 18 3 19 4 20 5 21 6 22 7 23 8 24 9 25 10 26 11
REMARK SMILES IDX 27 12 28 13 29 14 30 15 31 16 32 17 15 18 14 19 13 20 12 21
REMARK SMILES IDX 11 22 10 23 9 24 8 25 7 26 6 27 5 28 4 29 3 30 2 31 1 32
REMARK H PARENT
REMARK Flexibility Score: inf
ROOT
ATOM      1  C   UNL     1      48.340   0.054  20.915  1.00  0.00     0.000 C 
ENDROOT
BRANCH   1   2
ATOM      2  C   UNL     1      47.175   0.879  21.493  1.00  0.00     0.000 C 
BRANCH   2   3
ATOM      3  C   UNL     1      47.553   2.295  21.973  1.00  0.00     0.000 C 
BRANCH   3   4
ATOM      4  C   UNL     1      46.434   3.344  21.847  1.00  0.00     0.000 C 
BRANCH   4   5
ATOM      5  C   UNL     1      45.041   2.713  21.702  1.00  0.00     0.000 C 
BRANCH   5   6
ATOM      6  C   UNL     1      44.028   3.402  22.630  1.00  0.00     0.000 C 
BRANCH   6   7
ATOM      7  C   UNL     1      44.696   4.381  23.609  1.00  0.00     0.000 C 
BRANCH   7   8
ATOM      8  C   UNL     1      44.569   3.925  25.073  1.00  0.00     0.000 C 
BRANCH   8   9
ATOM      9  C   UNL     1      43.570   2.771  25.252  1.00  0.00     0.000 C 
BRANCH   9  10
ATOM     10  C   UNL     1      44.207   1.524  25.888  1.00  0.00     0.000 C 
BRANCH  10  11
ATOM     11  C   UNL     1      45.174   0.805  24.930  1.00  0.00     0.000 C 
BRANCH  11  12
ATOM     12  C   UNL     1      44.591  -0.508  24.380  1.00  0.00     0.000 C 
BRANCH  12  13
ATOM     13  C   UNL     1      43.358  -0.280  23.490  1.00  0.00     0.006 C 
BRANCH  13  14
ATOM     14  C   UNL     1      43.613  -0.633  22.019  1.00  0.00     0.053 C 
BRANCH  14  15
ATOM     15  C   UNL     1      42.434  -0.260  21.178  1.00  0.00     0.041 C 
ATOM     16  O   UNL     1      41.915   0.883  21.281  1.00  0.00    -0.550 OA
ATOM     17  O   UNL     1      41.920  -1.169  20.261  1.00  0.00    -0.550 OA
ENDBRANCH  14  15
ENDBRANCH  13  14
ENDBRANCH  12  13
ENDBRANCH  11  12
ENDBRANCH  10  11
ENDBRANCH   9  10
ENDBRANCH   8   9
ENDBRANCH   7   8
ENDBRANCH   6   7
ENDBRANCH   5   6
ENDBRANCH   4   5
ENDBRANCH   3   4
ENDBRANCH   2   3
ENDBRANCH   1   2
BRANCH   1  18
ATOM     18  C   UNL     1      49.494  -0.127  21.913  1.00  0.00     0.000 C 
BRANCH  18  19
ATOM     19  C   UNL     1      50.748  -0.671  21.213  1.00  0.00     0.000 C 
BRANCH  19  20
ATOM     20  C   UNL     1      50.493  -1.046  19.743  1.00  0.00     0.000 C 
BRANCH  20  21
ATOM     21  C   UNL     1      51.777  -1.028  18.897  1.00  0.00     0.000 C 
BRANCH  21  22
ATOM     22  C   UNL     1      52.788   0.036  19.364  1.00  0.00     0.000 C 
BRANCH  22  23
ATOM     23  C   UNL     1      52.622   1.423  18.715  1.00  0.00     0.000 C 
BRANCH  23  24
ATOM     24  C   UNL     1      52.322   2.530  19.736  1.00  0.00    -0.000 C 
BRANCH  24  25
ATOM     25  C   UNL     1      50.808   2.735  19.893  1.00  0.00    -0.000 C 
BRANCH  25  26
ATOM     26  C   UNL     1      50.032   2.460  18.596  1.00  0.00    -0.000 C 
BRANCH  26  27
ATOM     27  C   UNL     1      48.636   3.102  18.589  1.00  0.00    -0.000 C 
BRANCH  27  28
ATOM     28  C   UNL     1      47.596   2.149  17.982  1.00  0.00    -0.000 C 
BRANCH  28  29
ATOM     29  C   UNL     1      46.152   2.623  18.211  1.00  0.00    -0.000 C 
BRANCH  29  30
ATOM     30  C   UNL     1      45.319   2.639  16.921  1.00  0.00    -0.000 C 
BRANCH  30  31
ATOM     31  C   UNL     1      43.937   2.017  17.151  1.00  0.00    -0.003 C 
ATOM     32  C   UNL     1      43.644   0.927  16.125  1.00  0.00     0.004 C 
ENDBRANCH  30  31
ENDBRANCH  29  30
ENDBRANCH  28  29
ENDBRANCH  27  28
ENDBRANCH  26  27
ENDBRANCH  25  26
ENDBRANCH  24  25
ENDBRANCH  23  24
ENDBRANCH  22  23
ENDBRANCH  21  22
ENDBRANCH  20  21
ENDBRANCH  19  20
ENDBRANCH  18  19
ENDBRANCH   1  18
TORSDOF 28
ENDMDL
MODEL 8
REMARK VINA RESULT:    -4.582      3.327      7.515
REMARK INTER + INTRA:         -16.734
REMARK INTER:                 -11.460
REMARK INTRA:                  -5.273
REMARK UNBOUND:                -4.651
REMARK SMILES CCCCCCCCCCCCCCCCCCCCCCCCCCCCCC(=O)[O-]
REMARK SMILES IDX 16 1 17 2 18 3 19 4 20 5 21 6 22 7 23 8 24 9 25 10 26 11
REMARK SMILES IDX 27 12 28 13 29 14 30 15 31 16 32 17 15 18 14 19 13 20 12 21
REMARK SMILES IDX 11 22 10 23 9 24 8 25 7 26 6 27 5 28 4 29 3 30 2 31 1 32
REMARK H PARENT
REMARK Flexibility Score: inf
ROOT
ATOM      1  C   UNL     1      50.687  -1.019  19.446  1.00  0.00     0.000 C 
ENDROOT
BRANCH   1   2
ATOM      2  C   UNL     1      50.956  -0.789  20.945  1.00  0.00     0.000 C 
BRANCH   2   3
ATOM      3  C   UNL     1      49.750  -0.268  21.752  1.00  0.00     0.000 C 
BRANCH   3   4
ATOM      4  C   UNL     1      48.480  -0.001  20.925  1.00  0.00     0.000 C 
BRANCH   4   5
ATOM      5  C   UNL     1      47.496   0.941  21.634  1.00  0.00     0.000 C 
BRANCH   5   6
ATOM      6  C   UNL     1      48.037   2.379  21.663  1.00  0.00     0.000 C 
BRANCH   6   7
ATOM      7  C   UNL     1      46.947   3.413  21.990  1.00  0.00     0.000 C 
BRANCH   7   8
ATOM      8  C   UNL     1      45.997   2.931  23.101  1.00  0.00     0.000 C 
BRANCH   8   9
ATOM      9  C   UNL     1      44.528   2.892  22.652  1.00  0.00     0.000 C 
BRANCH   9  10
ATOM     10  C   UNL     1      43.680   1.904  23.472  1.00  0.00     0.000 C 
BRANCH  10  11
ATOM     11  C   UNL     1      44.302   0.499  23.524  1.00  0.00     0.000 C 
BRANCH  11  12
ATOM     12  C   UNL     1      44.003  -0.326  22.260  1.00  0.00     0.000 C 
BRANCH  12  13
ATOM     13  C   UNL     1      42.517  -0.282  21.865  1.00  0.00     0.006 C 
BRANCH  13  14
ATOM     14  C   UNL     1      42.285   0.371  20.497  1.00  0.00     0.053 C 
BRANCH  14  15
ATOM     15  C   UNL     1      41.473  -0.528  19.618  1.00  0.00     0.041 C 
ATOM     16  O   UNL     1      41.415  -0.320  18.377  1.00  0.00    -0.550 OA
ATOM     17  O   UNL     1      40.798  -1.612  20.167  1.00  0.00    -0.550 OA
ENDBRANCH  14  15
ENDBRANCH  13  14
ENDBRANCH  12  13
ENDBRANCH  11  12
ENDBRANCH  10  11
ENDBRANCH   9  10
ENDBRANCH   8   9
ENDBRANCH   7   8
ENDBRANCH   6   7
ENDBRANCH   5   6
ENDBRANCH   4   5
ENDBRANCH   3   4
ENDBRANCH   2   3
ENDBRANCH   1   2
BRANCH   1  18
ATOM     18  C   UNL     1      51.963  -0.947  18.594  1.00  0.00     0.000 C 
BRANCH  18  19
ATOM     19  C   UNL     1      53.019  -0.050  19.257  1.00  0.00     0.000 C 
BRANCH  19  20
ATOM     20  C   UNL     1      53.034   1.376  18.681  1.00  0.00     0.000 C 
BRANCH  20  21
ATOM     21  C   UNL     1      52.762   2.447  19.750  1.00  0.00     0.000 C 
BRANCH  21  22
ATOM     22  C   UNL     1      51.260   2.662  20.016  1.00  0.00     0.000 C 
BRANCH  22  23
ATOM     23  C   UNL     1      50.689   3.993  19.492  1.00  0.00     0.000 C 
BRANCH  23  24
ATOM     24  C   UNL     1      49.591   3.798  18.435  1.00  0.00    -0.000 C 
BRANCH  24  25
ATOM     25  C   UNL     1      49.342   2.305  18.173  1.00  0.00    -0.000 C 
BRANCH  25  26
ATOM     26  C   UNL     1      47.868   1.992  17.871  1.00  0.00    -0.000 C 
BRANCH  26  27
ATOM     27  C   UNL     1      46.926   3.149  18.240  1.00  0.00    -0.000 C 
BRANCH  27  28
ATOM     28  C   UNL     1      45.582   2.618  18.760  1.00  0.00    -0.000 C 
BRANCH  28  29
ATOM     29  C   UNL     1      44.412   2.941  17.817  1.00  0.00    -0.000 C 
BRANCH  29  30
ATOM     30  C   UNL     1      43.986   1.739  16.962  1.00  0.00    -0.000 C 
BRANCH  30  31
ATOM     31  C   UNL     1      44.770   1.695  15.645  1.00  0.00    -0.003 C 
ATOM     32  C   UNL     1      45.206   0.272  15.308  1.00  0.00     0.004 C 
ENDBRANCH  30  31
ENDBRANCH  29  30
ENDBRANCH  28  29
ENDBRANCH  27  28
ENDBRANCH  26  27
ENDBRANCH  25  26
ENDBRANCH  24  25
ENDBRANCH  23  24
ENDBRANCH  22  23
ENDBRANCH  21  22
ENDBRANCH  20  21
ENDBRANCH  19  20
ENDBRANCH  18  19
ENDBRANCH   1  18
TORSDOF 28
ENDMDL
MODEL 9
REMARK VINA RESULT:    -4.538      1.717      5.679
REMARK INTER + INTRA:         -16.618
REMARK INTER:                 -11.096
REMARK INTRA:                  -5.522
REMARK UNBOUND:                -4.651
REMARK SMILES CCCCCCCCCCCCCCCCCCCCCCCCCCCCCC(=O)[O-]
REMARK SMILES IDX 16 1 17 2 18 3 19 4 20 5 21 6 22 7 23 8 24 9 25 10 26 11
REMARK SMILES IDX 27 12 28 13 29 14 30 15 31 16 32 17 15 18 14 19 13 20 12 21
REMARK SMILES IDX 11 22 10 23 9 24 8 25 7 26 6 27 5 28 4 29 3 30 2 31 1 32
REMARK H PARENT
REMARK Flexibility Score: inf
ROOT
ATOM      1  C   UNL     1      43.762  -0.202  21.596  1.00  0.00     0.000 C 
ENDROOT
BRANCH   1   2
ATOM      2  C   UNL     1      42.258   0.038  21.371  1.00  0.00     0.000 C 
BRANCH   2   3
ATOM      3  C   UNL     1      41.557  -1.007  20.479  1.00  0.00     0.000 C 
BRANCH   3   4
ATOM      4  C   UNL     1      41.566  -0.686  18.974  1.00  0.00     0.000 C 
BRANCH   4   5
ATOM      5  C   UNL     1      41.512   0.822  18.686  1.00  0.00     0.000 C 
BRANCH   5   6
ATOM      6  C   UNL     1      42.628   1.235  17.714  1.00  0.00     0.000 C 
BRANCH   6   7
ATOM      7  C   UNL     1      43.508   2.365  18.272  1.00  0.00     0.000 C 
BRANCH   7   8
ATOM      8  C   UNL     1      44.755   2.619  17.407  1.00  0.00     0.000 C 
BRANCH   8   9
ATOM      9  C   UNL     1      45.950   3.135  18.223  1.00  0.00     0.000 C 
BRANCH   9  10
ATOM     10  C   UNL     1      46.834   2.001  18.770  1.00  0.00     0.000 C 
BRANCH  10  11
ATOM     11  C   UNL     1      47.296   2.261  20.214  1.00  0.00     0.000 C 
BRANCH  11  12
ATOM     12  C   UNL     1      47.312   0.981  21.067  1.00  0.00     0.000 C 
BRANCH  12  13
ATOM     13  C   UNL     1      48.703   0.677  21.648  1.00  0.00     0.006 C 
BRANCH  13  14
ATOM     14  C   UNL     1      49.841   1.248  20.793  1.00  0.00     0.053 C 
BRANCH  14  15
ATOM     15  C   UNL     1      50.679   0.144  20.229  1.00  0.00     0.041 C 
ATOM     16  O   UNL     1      50.929  -0.880  20.918  1.00  0.00    -0.550 OA
ATOM     17  O   UNL     1      51.166   0.236  18.930  1.00  0.00    -0.550 OA
ENDBRANCH  14  15
ENDBRANCH  13  14
ENDBRANCH  12  13
ENDBRANCH  11  12
ENDBRANCH  10  11
ENDBRANCH   9  10
ENDBRANCH   8   9
ENDBRANCH   7   8
ENDBRANCH   6   7
ENDBRANCH   5   6
ENDBRANCH   4   5
ENDBRANCH   3   4
ENDBRANCH   2   3
ENDBRANCH   1   2
BRANCH   1  18
ATOM     18  C   UNL     1      44.157  -0.157  23.080  1.00  0.00     0.000 C 
BRANCH  18  19
ATOM     19  C   UNL     1      42.978  -0.562  23.977  1.00  0.00     0.000 C 
BRANCH  19  20
ATOM     20  C   UNL     1      43.060   0.058  25.382  1.00  0.00     0.000 C 
BRANCH  20  21
ATOM     21  C   UNL     1      44.136   1.153  25.483  1.00  0.00     0.000 C 
BRANCH  21  22
ATOM     22  C   UNL     1      43.670   2.380  26.288  1.00  0.00     0.000 C 
BRANCH  22  23
ATOM     23  C   UNL     1      44.678   3.542  26.348  1.00  0.00     0.000 C 
BRANCH  23  24
ATOM     24  C   UNL     1      44.020   4.917  26.159  1.00  0.00    -0.000 C 
BRANCH  24  25
ATOM     25  C   UNL     1      44.611   5.645  24.942  1.00  0.00    -0.000 C 
BRANCH  25  26
ATOM     26  C   UNL     1      45.901   4.989  24.425  1.00  0.00    -0.000 C 
BRANCH  26  27
ATOM     27  C   UNL     1      45.811   4.583  22.946  1.00  0.00    -0.000 C 
BRANCH  27  28
ATOM     28  C   UNL     1      44.824   3.422  22.755  1.00  0.00    -0.000 C 
BRANCH  28  29
ATOM     29  C   UNL     1      44.021   3.535  21.449  1.00  0.00    -0.000 C 
BRANCH  29  30
ATOM     30  C   UNL     1      42.520   3.750  21.691  1.00  0.00    -0.000 C 
BRANCH  30  31
ATOM     31  C   UNL     1      42.187   3.675  23.186  1.00  0.00    -0.003 C 
ATOM     32  C   UNL     1      41.031   2.714  23.447  1.00  0.00     0.004 C 
ENDBRANCH  30  31
ENDBRANCH  29  30
ENDBRANCH  28  29
ENDBRANCH  27  28
ENDBRANCH  26  27
ENDBRANCH  25  26
ENDBRANCH  24  25
ENDBRANCH  23  24
ENDBRANCH  22  23
ENDBRANCH  21  22
ENDBRANCH  20  21
ENDBRANCH  19  20
ENDBRANCH  18  19
ENDBRANCH   1  18
TORSDOF 28
ENDMDL
