MODEL 1
REMARK VINA RESULT:     0.795      0.000      0.000
REMARK INTER + INTRA:           0.696
REMARK INTER:                   0.958
REMARK INTRA:                  -0.261
REMARK UNBOUND:                -0.261
REMARK SMILES O=c1c(O)c(-c2ccc(O)cc2O)oc2cc(O)cc(O)c12
REMARK SMILES IDX 5 1 3 2 2 3 1 4 22 5 20 6 19 7 17 8 16 9 15 10 14 11 6 12
REMARK SMILES IDX 8 13 7 14 9 15 11 16 12 17 10 18 13 20 4 22 21 24 18 26
REMARK H PARENT 10 19 13 21 4 23 21 25 18 27
REMARK Flexibility Score: inf
ROOT
ATOM      1  C   UNL     1      72.772  42.407  21.078  1.00  0.00     0.184 A 
ATOM      2  C   UNL     1      72.523  42.563  22.450  1.00  0.00     0.208 A 
ATOM      3  C   UNL     1      71.204  42.777  22.882  1.00  0.00     0.238 A 
ATOM      4  O   UNL     1      70.994  42.977  24.107  1.00  0.00    -0.285 OA
ATOM      5  C   UNL     1      70.149  42.802  21.936  1.00  0.00     0.111 A 
ATOM      6  C   UNL     1      68.771  42.972  22.264  1.00  0.00     0.134 A 
ATOM      7  C   UNL     1      67.828  43.104  21.237  1.00  0.00     0.093 A 
ATOM      8  C   UNL     1      68.206  43.008  19.896  1.00  0.00     0.123 A 
ATOM      9  C   UNL     1      69.540  42.785  19.567  1.00  0.00     0.094 A 
ATOM     10  C   UNL     1      70.509  42.685  20.568  1.00  0.00     0.146 A 
ATOM     11  O   UNL     1      71.772  42.487  20.210  1.00  0.00    -0.451 OA
ENDROOT
BRANCH   1  12
ATOM     12  C   UNL     1      74.137  42.156  20.568  1.00  0.00     0.063 A 
ATOM     13  C   UNL     1      76.069  42.937  19.312  1.00  0.00     0.047 A 
ATOM     14  C   UNL     1      74.760  43.123  19.761  1.00  0.00     0.020 A 
ATOM     15  C   UNL     1      76.778  41.787  19.667  1.00  0.00     0.119 A 
ATOM     16  C   UNL     1      76.168  40.817  20.473  1.00  0.00     0.093 A 
ATOM     17  C   UNL     1      74.852  40.987  20.921  1.00  0.00     0.130 A 
BRANCH  15  18
ATOM     18  O   UNL     1      78.084  41.618  19.216  1.00  0.00    -0.508 OA
ATOM     19  H   UNL     1      78.880  41.863  19.793  1.00  0.00     0.293 HD
ENDBRANCH  15  18
BRANCH  17  20
ATOM     20  O   UNL     1      74.282  39.971  21.691  1.00  0.00    -0.507 OA
ATOM     21  H   UNL     1      73.323  39.669  21.583  1.00  0.00     0.293 HD
ENDBRANCH  17  20
ENDBRANCH   1  12
BRANCH   2  22
ATOM     22  O   UNL     1      73.582  42.529  23.361  1.00  0.00    -0.502 OA
ATOM     23  H   UNL     1      74.507  42.204  23.107  1.00  0.00     0.293 HD
ENDBRANCH   2  22
BRANCH   6  24
ATOM     24  O   UNL     1      68.275  42.990  23.571  1.00  0.00    -0.507 OA
ATOM     25  H   UNL     1      67.769  43.759  23.984  1.00  0.00     0.293 HD
ENDBRANCH   6  24
BRANCH   8  26
ATOM     26  O   UNL     1      67.258  43.124  18.880  1.00  0.00    -0.508 OA
ATOM     27  H   UNL     1      66.759  42.317  18.527  1.00  0.00     0.293 HD
ENDBRANCH   8  26
TORSDOF 6
ENDMDL
MODEL 2
REMARK VINA RESULT:     1.235      1.754      2.253
REMARK INTER + INTRA:           1.227
REMARK INTER:                   1.083
REMARK INTRA:                   0.143
REMARK UNBOUND:                -0.261
REMARK SMILES O=c1c(O)c(-c2ccc(O)cc2O)oc2cc(O)cc(O)c12
REMARK SMILES IDX 5 1 3 2 2 3 1 4 22 5 20 6 19 7 17 8 16 9 15 10 14 11 6 12
REMARK SMILES IDX 8 13 7 14 9 15 11 16 12 17 10 18 13 20 4 22 21 24 18 26
REMARK H PARENT 10 19 13 21 4 23 21 25 18 27
REMARK Flexibility Score: inf
ROOT
ATOM      1  C   UNL     1      74.294  41.945  21.352  1.00  0.00     0.184 A 
ATOM      2  C   UNL     1      74.131  41.232  22.549  1.00  0.00     0.208 A 
ATOM      3  C   UNL     1      72.832  40.985  23.023  1.00  0.00     0.238 A 
ATOM      4  O   UNL     1      72.694  40.399  24.128  1.00  0.00    -0.285 OA
ATOM      5  C   UNL     1      71.714  41.430  22.276  1.00  0.00     0.111 A 
ATOM      6  C   UNL     1      70.353  41.202  22.640  1.00  0.00     0.134 A 
ATOM      7  C   UNL     1      69.330  41.794  21.890  1.00  0.00     0.093 A 
ATOM      8  C   UNL     1      69.616  42.553  20.753  1.00  0.00     0.123 A 
ATOM      9  C   UNL     1      70.938  42.733  20.356  1.00  0.00     0.094 A 
ATOM     10  C   UNL     1      71.983  42.186  21.104  1.00  0.00     0.146 A 
ATOM     11  O   UNL     1      73.230  42.395  20.699  1.00  0.00    -0.451 OA
ENDROOT
BRANCH   1  12
ATOM     12  C   UNL     1      75.636  42.213  20.793  1.00  0.00     0.063 A 
ATOM     13  C   UNL     1      77.138  42.201  18.878  1.00  0.00     0.047 A 
ATOM     14  C   UNL     1      75.896  41.907  19.446  1.00  0.00     0.020 A 
ATOM     15  C   UNL     1      78.134  42.811  19.643  1.00  0.00     0.119 A 
ATOM     16  C   UNL     1      77.886  43.123  20.986  1.00  0.00     0.093 A 
ATOM     17  C   UNL     1      76.650  42.823  21.570  1.00  0.00     0.130 A 
BRANCH  15  18
ATOM     18  O   UNL     1      79.365  43.103  19.061  1.00  0.00    -0.508 OA
ATOM     19  H   UNL     1      79.473  43.171  18.056  1.00  0.00     0.293 HD
ENDBRANCH  15  18
BRANCH  17  20
ATOM     20  O   UNL     1      76.470  43.123  22.922  1.00  0.00    -0.507 OA
ATOM     21  H   UNL     1      76.176  44.033  23.251  1.00  0.00     0.293 HD
ENDBRANCH  17  20
ENDBRANCH   1  12
BRANCH   2  22
ATOM     22  O   UNL     1      75.252  40.801  23.264  1.00  0.00    -0.502 OA
ATOM     23  H   UNL     1      75.611  39.857  23.193  1.00  0.00     0.293 HD
ENDBRANCH   2  22
BRANCH   6  24
ATOM     24  O   UNL     1      69.955  40.387  23.704  1.00  0.00    -0.507 OA
ATOM     25  H   UNL     1      69.375  40.686  24.472  1.00  0.00     0.293 HD
ENDBRANCH   6  24
BRANCH   8  26
ATOM     26  O   UNL     1      68.590  43.125  20.003  1.00  0.00    -0.508 OA
ATOM     27  H   UNL     1      68.243  42.686  19.158  1.00  0.00     0.293 HD
ENDBRANCH   8  26
TORSDOF 6
ENDMDL
MODEL 3
REMARK VINA RESULT:     1.382      3.335      4.809
REMARK INTER + INTRA:           1.403
REMARK INTER:                   1.677
REMARK INTRA:                  -0.274
REMARK UNBOUND:                -0.261
REMARK SMILES O=c1c(O)c(-c2ccc(O)cc2O)oc2cc(O)cc(O)c12
REMARK SMILES IDX 5 1 3 2 2 3 1 4 22 5 20 6 19 7 17 8 16 9 15 10 14 11 6 12
REMARK SMILES IDX 8 13 7 14 9 15 11 16 12 17 10 18 13 20 4 22 21 24 18 26
REMARK H PARENT 10 19 13 21 4 23 21 25 18 27
REMARK Flexibility Score: inf
ROOT
ATOM      1  C   UNL     1      73.824  40.844  21.282  1.00  0.00     0.184 A 
ATOM      2  C   UNL     1      72.673  41.559  20.920  1.00  0.00     0.208 A 
ATOM      3  C   UNL     1      71.653  40.898  20.216  1.00  0.00     0.238 A 
ATOM      4  O   UNL     1      70.651  41.561  19.842  1.00  0.00    -0.285 OA
ATOM      5  C   UNL     1      71.789  39.522  19.909  1.00  0.00     0.111 A 
ATOM      6  C   UNL     1      70.803  38.742  19.234  1.00  0.00     0.134 A 
ATOM      7  C   UNL     1      71.095  37.420  18.875  1.00  0.00     0.093 A 
ATOM      8  C   UNL     1      72.313  36.832  19.223  1.00  0.00     0.123 A 
ATOM      9  C   UNL     1      73.259  37.567  19.931  1.00  0.00     0.094 A 
ATOM     10  C   UNL     1      73.012  38.899  20.272  1.00  0.00     0.146 A 
ATOM     11  O   UNL     1      73.947  39.568  20.936  1.00  0.00    -0.451 OA
ENDROOT
BRANCH   1  12
ATOM     12  C   UNL     1      74.919  41.481  22.044  1.00  0.00     0.063 A 
ATOM     13  C   UNL     1      76.301  41.549  24.046  1.00  0.00     0.047 A 
ATOM     14  C   UNL     1      75.236  41.002  23.327  1.00  0.00     0.020 A 
ATOM     15  C   UNL     1      77.069  42.576  23.493  1.00  0.00     0.119 A 
ATOM     16  C   UNL     1      76.763  43.061  22.215  1.00  0.00     0.093 A 
ATOM     17  C   UNL     1      75.692  42.528  21.488  1.00  0.00     0.130 A 
BRANCH  15  18
ATOM     18  O   UNL     1      78.131  43.108  24.220  1.00  0.00    -0.508 OA
ATOM     19  H   UNL     1      78.766  42.515  24.740  1.00  0.00     0.293 HD
ENDBRANCH  15  18
BRANCH  17  20
ATOM     20  O   UNL     1      75.410  43.074  20.234  1.00  0.00    -0.507 OA
ATOM     21  H   UNL     1      75.632  42.605  19.365  1.00  0.00     0.293 HD
ENDBRANCH  17  20
ENDBRANCH   1  12
BRANCH   2  22
ATOM     22  O   UNL     1      72.565  42.915  21.241  1.00  0.00    -0.502 OA
ATOM     23  H   UNL     1      72.816  43.649  20.589  1.00  0.00     0.293 HD
ENDBRANCH   2  22
BRANCH   6  24
ATOM     24  O   UNL     1      69.521  39.203  18.921  1.00  0.00    -0.507 OA
ATOM     25  H   UNL     1      68.768  39.308  19.584  1.00  0.00     0.293 HD
ENDBRANCH   6  24
BRANCH   8  26
ATOM     26  O   UNL     1      72.590  35.511  18.875  1.00  0.00    -0.508 OA
ATOM     27  H   UNL     1      72.279  34.736  19.449  1.00  0.00     0.293 HD
ENDBRANCH   8  26
TORSDOF 6
ENDMDL
MODEL 4
REMARK VINA RESULT:     1.768      3.331      4.743
REMARK INTER + INTRA:           1.869
REMARK INTER:                   2.218
REMARK INTRA:                  -0.349
REMARK UNBOUND:                -0.261
REMARK SMILES O=c1c(O)c(-c2ccc(O)cc2O)oc2cc(O)cc(O)c12
REMARK SMILES IDX 5 1 3 2 2 3 1 4 22 5 20 6 19 7 17 8 16 9 15 10 14 11 6 12
REMARK SMILES IDX 8 13 7 14 9 15 11 16 12 17 10 18 13 20 4 22 21 24 18 26
REMARK H PARENT 10 19 13 21 4 23 21 25 18 27
REMARK Flexibility Score: inf
ROOT
ATOM      1  C   UNL     1      74.032  40.662  21.286  1.00  0.00     0.184 A 
ATOM      2  C   UNL     1      72.908  41.424  20.934  1.00  0.00     0.208 A 
ATOM      3  C   UNL     1      71.858  40.806  20.235  1.00  0.00     0.238 A 
ATOM      4  O   UNL     1      70.881  41.510  19.869  1.00  0.00    -0.285 OA
ATOM      5  C   UNL     1      71.936  39.426  19.923  1.00  0.00     0.111 A 
ATOM      6  C   UNL     1      70.915  38.688  19.254  1.00  0.00     0.134 A 
ATOM      7  C   UNL     1      71.152  37.357  18.889  1.00  0.00     0.093 A 
ATOM      8  C   UNL     1      72.348  36.720  19.228  1.00  0.00     0.123 A 
ATOM      9  C   UNL     1      73.327  37.414  19.932  1.00  0.00     0.094 A 
ATOM     10  C   UNL     1      73.136  38.754  20.277  1.00  0.00     0.146 A 
ATOM     11  O   UNL     1      74.102  39.383  20.936  1.00  0.00    -0.451 OA
ENDROOT
BRANCH   1  12
ATOM     12  C   UNL     1      75.157  41.253  22.042  1.00  0.00     0.063 A 
ATOM     13  C   UNL     1      76.999  42.840  22.139  1.00  0.00     0.047 A 
ATOM     14  C   UNL     1      75.965  42.226  21.429  1.00  0.00     0.020 A 
ATOM     15  C   UNL     1      77.236  42.499  23.472  1.00  0.00     0.119 A 
ATOM     16  C   UNL     1      76.437  41.532  24.094  1.00  0.00     0.093 A 
ATOM     17  C   UNL     1      75.404  40.901  23.390  1.00  0.00     0.130 A 
BRANCH  15  18
ATOM     18  O   UNL     1      78.268  43.124  24.168  1.00  0.00    -0.508 OA
ATOM     19  H   UNL     1      78.631  44.025  23.880  1.00  0.00     0.293 HD
ENDBRANCH  15  18
BRANCH  17  20
ATOM     20  O   UNL     1      74.662  39.918  24.050  1.00  0.00    -0.507 OA
ATOM     21  H   UNL     1      74.525  39.910  25.052  1.00  0.00     0.293 HD
ENDBRANCH  17  20
ENDBRANCH   1  12
BRANCH   2  22
ATOM     22  O   UNL     1      72.857  42.783  21.258  1.00  0.00    -0.502 OA
ATOM     23  H   UNL     1      72.023  43.221  21.631  1.00  0.00     0.293 HD
ENDBRANCH   2  22
BRANCH   6  24
ATOM     24  O   UNL     1      69.651  39.202  18.949  1.00  0.00    -0.507 OA
ATOM     25  H   UNL     1      69.465  40.159  18.691  1.00  0.00     0.293 HD
ENDBRANCH   6  24
BRANCH   8  26
ATOM     26  O   UNL     1      72.569  35.389  18.875  1.00  0.00    -0.508 OA
ATOM     27  H   UNL     1      72.986  34.732  19.523  1.00  0.00     0.293 HD
ENDBRANCH   8  26
TORSDOF 6
ENDMDL
MODEL 5
REMARK VINA RESULT:     1.961      2.831      6.512
REMARK INTER + INTRA:           2.101
REMARK INTER:                   2.446
REMARK INTRA:                  -0.345
REMARK UNBOUND:                -0.261
REMARK SMILES O=c1c(O)c(-c2ccc(O)cc2O)oc2cc(O)cc(O)c12
REMARK SMILES IDX 5 1 3 2 2 3 1 4 22 5 20 6 19 7 17 8 16 9 15 10 14 11 6 12
REMARK SMILES IDX 8 13 7 14 9 15 11 16 12 17 10 18 13 20 4 22 21 24 18 26
REMARK H PARENT 10 19 13 21 4 23 21 25 18 27
REMARK Flexibility Score: inf
ROOT
ATOM      1  C   UNL     1      73.828  40.911  21.083  1.00  0.00     0.184 A 
ATOM      2  C   UNL     1      74.048  41.050  22.462  1.00  0.00     0.208 A 
ATOM      3  C   UNL     1      75.245  41.635  22.905  1.00  0.00     0.238 A 
ATOM      4  O   UNL     1      75.462  41.702  24.143  1.00  0.00    -0.285 OA
ATOM      5  C   UNL     1      76.194  42.098  21.960  1.00  0.00     0.111 A 
ATOM      6  C   UNL     1      77.423  42.742  22.295  1.00  0.00     0.134 A 
ATOM      7  C   UNL     1      78.340  43.048  21.281  1.00  0.00     0.093 A 
ATOM      8  C   UNL     1      78.044  42.791  19.941  1.00  0.00     0.123 A 
ATOM      9  C   UNL     1      76.823  42.216  19.600  1.00  0.00     0.094 A 
ATOM     10  C   UNL     1      75.903  41.866  20.590  1.00  0.00     0.146 A 
ATOM     11  O   UNL     1      74.757  41.306  20.222  1.00  0.00    -0.451 OA
ENDROOT
BRANCH   1  12
ATOM     12  C   UNL     1      72.576  40.324  20.559  1.00  0.00     0.063 A 
ATOM     13  C   UNL     1      70.488  40.613  19.344  1.00  0.00     0.047 A 
ATOM     14  C   UNL     1      71.652  41.151  19.897  1.00  0.00     0.020 A 
ATOM     15  C   UNL     1      70.233  39.243  19.437  1.00  0.00     0.119 A 
ATOM     16  C   UNL     1      71.147  38.409  20.093  1.00  0.00     0.093 A 
ATOM     17  C   UNL     1      72.313  38.938  20.661  1.00  0.00     0.130 A 
BRANCH  15  18
ATOM     18  O   UNL     1      69.070  38.721  18.875  1.00  0.00    -0.508 OA
ATOM     19  H   UNL     1      69.102  38.078  18.093  1.00  0.00     0.293 HD
ENDBRANCH  15  18
BRANCH  17  20
ATOM     20  O   UNL     1      73.171  38.066  21.334  1.00  0.00    -0.507 OA
ATOM     21  H   UNL     1      72.851  37.227  21.801  1.00  0.00     0.293 HD
ENDBRANCH  17  20
ENDBRANCH   1  12
BRANCH   2  22
ATOM     22  O   UNL     1      73.092  40.588  23.372  1.00  0.00    -0.502 OA
ATOM     23  H   UNL     1      72.123  40.443  23.115  1.00  0.00     0.293 HD
ENDBRANCH   2  22
BRANCH   6  24
ATOM     24  O   UNL     1      77.777  43.125  23.592  1.00  0.00    -0.507 OA
ATOM     25  H   UNL     1      77.167  43.600  24.239  1.00  0.00     0.293 HD
ENDBRANCH   6  24
BRANCH   8  26
ATOM     26  O   UNL     1      78.956  43.113  18.937  1.00  0.00    -0.508 OA
ATOM     27  H   UNL     1      79.952  42.980  19.065  1.00  0.00     0.293 HD
ENDBRANCH   8  26
TORSDOF 6
ENDMDL
MODEL 6
REMARK VINA RESULT:     2.654      1.811      3.389
REMARK INTER + INTRA:           2.935
REMARK INTER:                   2.389
REMARK INTRA:                   0.546
REMARK UNBOUND:                -0.261
REMARK SMILES O=c1c(O)c(-c2ccc(O)cc2O)oc2cc(O)cc(O)c12
REMARK SMILES IDX 5 1 3 2 2 3 1 4 22 5 20 6 19 7 17 8 16 9 15 10 14 11 6 12
REMARK SMILES IDX 8 13 7 14 9 15 11 16 12 17 10 18 13 20 4 22 21 24 18 26
REMARK H PARENT 10 19 13 21 4 23 21 25 18 27
REMARK Flexibility Score: inf
ROOT
ATOM      1  C   UNL     1      74.052  42.568  21.170  1.00  0.00     0.184 A 
ATOM      2  C   UNL     1      73.092  42.287  20.186  1.00  0.00     0.208 A 
ATOM      3  C   UNL     1      71.735  42.259  20.548  1.00  0.00     0.238 A 
ATOM      4  O   UNL     1      70.884  41.947  19.675  1.00  0.00    -0.285 OA
ATOM      5  C   UNL     1      71.357  42.541  21.884  1.00  0.00     0.111 A 
ATOM      6  C   UNL     1      70.010  42.578  22.354  1.00  0.00     0.134 A 
ATOM      7  C   UNL     1      69.761  42.747  23.722  1.00  0.00     0.093 A 
ATOM      8  C   UNL     1      70.808  42.942  24.626  1.00  0.00     0.123 A 
ATOM      9  C   UNL     1      72.122  42.964  24.168  1.00  0.00     0.094 A 
ATOM     10  C   UNL     1      72.405  42.763  22.816  1.00  0.00     0.146 A 
ATOM     11  O   UNL     1      73.674  42.777  22.425  1.00  0.00    -0.451 OA
ENDROOT
BRANCH   1  12
ATOM     12  C   UNL     1      75.492  42.634  20.842  1.00  0.00     0.063 A 
ATOM     13  C   UNL     1      77.255  42.549  19.166  1.00  0.00     0.047 A 
ATOM     14  C   UNL     1      75.907  42.437  19.513  1.00  0.00     0.020 A 
ATOM     15  C   UNL     1      78.207  42.866  20.137  1.00  0.00     0.119 A 
ATOM     16  C   UNL     1      77.806  43.066  21.464  1.00  0.00     0.093 A 
ATOM     17  C   UNL     1      76.459  42.946  21.827  1.00  0.00     0.130 A 
BRANCH  15  18
ATOM     18  O   UNL     1      79.547  42.979  19.775  1.00  0.00    -0.508 OA
ATOM     19  H   UNL     1      80.041  42.216  19.328  1.00  0.00     0.293 HD
ENDBRANCH  15  18
BRANCH  17  20
ATOM     20  O   UNL     1      76.121  43.121  23.171  1.00  0.00    -0.507 OA
ATOM     21  H   UNL     1      75.361  43.716  23.476  1.00  0.00     0.293 HD
ENDBRANCH  17  20
ENDBRANCH   1  12
BRANCH   2  22
ATOM     22  O   UNL     1      73.493  42.017  18.875  1.00  0.00    -0.502 OA
ATOM     23  H   UNL     1      74.399  41.620  18.655  1.00  0.00     0.293 HD
ENDBRANCH   2  22
BRANCH   6  24
ATOM     24  O   UNL     1      68.890  42.484  21.524  1.00  0.00    -0.507 OA
ATOM     25  H   UNL     1      68.490  43.252  21.007  1.00  0.00     0.293 HD
ENDBRANCH   6  24
BRANCH   8  26
ATOM     26  O   UNL     1      70.549  43.125  25.983  1.00  0.00    -0.508 OA
ATOM     27  H   UNL     1      70.636  42.364  26.646  1.00  0.00     0.293 HD
ENDBRANCH   8  26
TORSDOF 6
ENDMDL
MODEL 7
REMARK VINA RESULT:     3.054      2.636      4.074
REMARK INTER + INTRA:           3.418
REMARK INTER:                   3.583
REMARK INTRA:                  -0.165
REMARK UNBOUND:                -0.261
REMARK SMILES O=c1c(O)c(-c2ccc(O)cc2O)oc2cc(O)cc(O)c12
REMARK SMILES IDX 5 1 3 2 2 3 1 4 22 5 20 6 19 7 17 8 16 9 15 10 14 11 6 12
REMARK SMILES IDX 8 13 7 14 9 15 11 16 12 17 10 18 13 20 4 22 21 24 18 26
REMARK H PARENT 10 19 13 21 4 23 21 25 18 27
REMARK Flexibility Score: inf
ROOT
ATOM      1  C   UNL     1      73.636  41.443  22.662  1.00  0.00     0.184 A 
ATOM      2  C   UNL     1      73.868  41.515  21.281  1.00  0.00     0.208 A 
ATOM      3  C   UNL     1      72.832  41.949  20.438  1.00  0.00     0.238 A 
ATOM      4  O   UNL     1      73.026  41.953  19.195  1.00  0.00    -0.285 OA
ATOM      5  C   UNL     1      71.586  42.332  20.994  1.00  0.00     0.111 A 
ATOM      6  C   UNL     1      70.479  42.824  20.240  1.00  0.00     0.134 A 
ATOM      7  C   UNL     1      69.256  43.056  20.881  1.00  0.00     0.093 A 
ATOM      8  C   UNL     1      69.119  42.876  22.259  1.00  0.00     0.123 A 
ATOM      9  C   UNL     1      70.210  42.451  23.013  1.00  0.00     0.094 A 
ATOM     10  C   UNL     1      71.433  42.176  22.397  1.00  0.00     0.146 A 
ATOM     11  O   UNL     1      72.443  41.759  23.151  1.00  0.00    -0.451 OA
ENDROOT
BRANCH   1  12
ATOM     12  C   UNL     1      74.697  41.016  23.599  1.00  0.00     0.063 A 
ATOM     13  C   UNL     1      75.500  39.421  25.252  1.00  0.00     0.047 A 
ATOM     14  C   UNL     1      74.494  39.879  24.399  1.00  0.00     0.020 A 
ATOM     15  C   UNL     1      76.726  40.088  25.314  1.00  0.00     0.119 A 
ATOM     16  C   UNL     1      76.941  41.222  24.521  1.00  0.00     0.093 A 
ATOM     17  C   UNL     1      75.936  41.696  23.669  1.00  0.00     0.130 A 
BRANCH  15  18
ATOM     18  O   UNL     1      77.722  39.617  26.166  1.00  0.00    -0.508 OA
ATOM     19  H   UNL     1      78.653  39.404  25.826  1.00  0.00     0.293 HD
ENDBRANCH  15  18
BRANCH  17  20
ATOM     20  O   UNL     1      76.192  42.852  22.928  1.00  0.00    -0.507 OA
ATOM     21  H   UNL     1      76.291  42.851  21.921  1.00  0.00     0.293 HD
ENDBRANCH  17  20
ENDBRANCH   1  12
BRANCH   2  22
ATOM     22  O   UNL     1      75.108  41.135  20.760  1.00  0.00    -0.502 OA
ATOM     23  H   UNL     1      75.824  40.697  21.327  1.00  0.00     0.293 HD
ENDBRANCH   2  22
BRANCH   6  24
ATOM     24  O   UNL     1      70.534  43.125  18.876  1.00  0.00    -0.507 OA
ATOM     25  H   UNL     1      70.564  42.440  18.136  1.00  0.00     0.293 HD
ENDBRANCH   6  24
BRANCH   8  26
ATOM     26  O   UNL     1      67.902  43.125  22.892  1.00  0.00    -0.508 OA
ATOM     27  H   UNL     1      67.091  43.442  22.374  1.00  0.00     0.293 HD
ENDBRANCH   8  26
TORSDOF 6
ENDMDL
