MODEL 1
REMARK VINA RESULT:    -2.865      0.000      0.000
REMARK INTER + INTRA:          -8.159
REMARK INTER:                  -5.377
REMARK INTRA:                  -2.782
REMARK UNBOUND:                -2.782
REMARK SMILES CCCCCCCCC=CCCCCCCCC(=O)[O-]
REMARK SMILES IDX 10 1 9 2 11 3 12 4 13 5 14 6 15 7 16 8 17 9 18 10 19 11
REMARK SMILES IDX 20 12 8 13 7 14 6 15 5 16 4 17 3 18 2 19 1 20
REMARK H PARENT
REMARK Flexibility Score: inf
ROOT
ATOM      1  C   UNL     1      -8.369  43.851 100.382  1.00  0.00    -0.031 C 
ATOM      2  C   UNL     1      -7.453  44.750  99.974  1.00  0.00    -0.031 C 
ENDROOT
BRANCH   1   3
ATOM      3  C   UNL     1      -9.397  44.104 101.458  1.00  0.00     0.027 C 
BRANCH   3   4
ATOM      4  C   UNL     1     -10.786  44.391 100.869  1.00  0.00     0.004 C 
BRANCH   4   5
ATOM      5  C   UNL     1     -11.898  44.290 101.929  1.00  0.00     0.000 C 
BRANCH   5   6
ATOM      6  C   UNL     1     -11.377  43.729 103.269  1.00  0.00     0.000 C 
BRANCH   6   7
ATOM      7  C   UNL     1     -12.216  42.561 103.815  1.00  0.00     0.000 C 
BRANCH   7   8
ATOM      8  C   UNL     1     -11.433  41.240 103.878  1.00  0.00     0.006 C 
BRANCH   8   9
ATOM      9  C   UNL     1     -10.788  40.884 102.532  1.00  0.00     0.053 C 
BRANCH   9  10
ATOM     10  C   UNL     1      -9.471  40.194 102.714  1.00  0.00     0.041 C 
ATOM     11  O   UNL     1      -9.413  39.084 103.306  1.00  0.00    -0.550 OA
ATOM     12  O   UNL     1      -8.312  40.761 102.199  1.00  0.00    -0.550 OA
ENDBRANCH   9  10
ENDBRANCH   8   9
ENDBRANCH   7   8
ENDBRANCH   6   7
ENDBRANCH   5   6
ENDBRANCH   4   5
ENDBRANCH   3   4
ENDBRANCH   1   3
BRANCH   2  13
ATOM     13  C   UNL     1      -7.256  46.111 100.590  1.00  0.00     0.027 C 
BRANCH  13  14
ATOM     14  C   UNL     1      -6.310  46.027 101.797  1.00  0.00     0.004 C 
BRANCH  14  15
ATOM     15  C   UNL     1      -7.021  46.317 103.128  1.00  0.00     0.000 C 
BRANCH  15  16
ATOM     16  C   UNL     1      -7.973  47.523 103.041  1.00  0.00     0.000 C 
BRANCH  16  17
ATOM     17  C   UNL     1      -9.413  47.160 103.463  1.00  0.00    -0.000 C 
BRANCH  17  18
ATOM     18  C   UNL     1     -10.493  47.717 102.515  1.00  0.00    -0.000 C 
BRANCH  18  19
ATOM     19  C   UNL     1      -9.951  48.564 101.353  1.00  0.00    -0.003 C 
ATOM     20  C   UNL     1     -10.350  48.017  99.983  1.00  0.00     0.004 C 
ENDBRANCH  18  19
ENDBRANCH  17  18
ENDBRANCH  16  17
ENDBRANCH  15  16
ENDBRANCH  14  15
ENDBRANCH  13  14
ENDBRANCH   2  13
TORSDOF 15
ENDMDL
MODEL 2
REMARK VINA RESULT:    -2.836      1.023      2.950
REMARK INTER + INTRA:          -8.106
REMARK INTER:                  -5.729
REMARK INTRA:                  -2.377
REMARK UNBOUND:                -2.782
REMARK SMILES CCCCCCCCC=CCCCCCCCC(=O)[O-]
REMARK SMILES IDX 10 1 9 2 11 3 12 4 13 5 14 6 15 7 16 8 17 9 18 10 19 11
REMARK SMILES IDX 20 12 8 13 7 14 6 15 5 16 4 17 3 18 2 19 1 20
REMARK H PARENT
REMARK Flexibility Score: inf
ROOT
ATOM      1  C   UNL     1     -11.090  46.258 100.499  1.00  0.00    -0.031 C 
ATOM      2  C   UNL     1     -10.148  47.059 101.032  1.00  0.00    -0.031 C 
ENDROOT
BRANCH   1   3
ATOM      3  C   UNL     1     -12.503  46.134 101.016  1.00  0.00     0.027 C 
BRANCH   3   4
ATOM      4  C   UNL     1     -12.792  44.729 101.564  1.00  0.00     0.004 C 
BRANCH   4   5
ATOM      5  C   UNL     1     -11.502  43.938 101.845  1.00  0.00     0.000 C 
BRANCH   5   6
ATOM      6  C   UNL     1     -11.265  43.728 103.357  1.00  0.00     0.000 C 
BRANCH   6   7
ATOM      7  C   UNL     1     -12.069  42.559 103.949  1.00  0.00     0.000 C 
BRANCH   7   8
ATOM      8  C   UNL     1     -11.897  41.253 103.157  1.00  0.00     0.006 C 
BRANCH   8   9
ATOM      9  C   UNL     1     -10.840  40.333 103.780  1.00  0.00     0.053 C 
BRANCH   9  10
ATOM     10  C   UNL     1      -9.596  40.275 102.947  1.00  0.00     0.041 C 
ATOM     11  O   UNL     1      -9.527  40.913 101.863  1.00  0.00    -0.550 OA
ATOM     12  O   UNL     1      -8.499  39.543 103.385  1.00  0.00    -0.550 OA
ENDBRANCH   9  10
ENDBRANCH   8   9
ENDBRANCH   7   8
ENDBRANCH   6   7
ENDBRANCH   5   6
ENDBRANCH   4   5
ENDBRANCH   3   4
ENDBRANCH   1   3
BRANCH   2  13
ATOM     13  C   UNL     1     -10.333  47.884 102.280  1.00  0.00     0.027 C 
BRANCH  13  14
ATOM     14  C   UNL     1      -9.799  47.133 103.509  1.00  0.00     0.004 C 
BRANCH  14  15
ATOM     15  C   UNL     1      -8.513  46.347 103.208  1.00  0.00     0.000 C 
BRANCH  15  16
ATOM     16  C   UNL     1      -7.268  47.248 103.144  1.00  0.00     0.000 C 
BRANCH  16  17
ATOM     17  C   UNL     1      -6.249  46.761 102.091  1.00  0.00    -0.000 C 
BRANCH  17  18
ATOM     18  C   UNL     1      -6.312  45.245 101.825  1.00  0.00    -0.000 C 
BRANCH  18  19
ATOM     19  C   UNL     1      -6.760  44.862 100.405  1.00  0.00    -0.003 C 
ATOM     20  C   UNL     1      -8.030  44.011 100.394  1.00  0.00     0.004 C 
ENDBRANCH  18  19
ENDBRANCH  17  18
ENDBRANCH  16  17
ENDBRANCH  15  16
ENDBRANCH  14  15
ENDBRANCH  13  14
ENDBRANCH   2  13
TORSDOF 15
ENDMDL
MODEL 3
REMARK VINA RESULT:    -2.787      2.331      5.924
REMARK INTER + INTRA:          -8.014
REMARK INTER:                  -5.269
REMARK INTRA:                  -2.745
REMARK UNBOUND:                -2.782
REMARK SMILES CCCCCCCCC=CCCCCCCCC(=O)[O-]
REMARK SMILES IDX 10 1 9 2 11 3 12 4 13 5 14 6 15 7 16 8 17 9 18 10 19 11
REMARK SMILES IDX 20 12 8 13 7 14 6 15 5 16 4 17 3 18 2 19 1 20
REMARK H PARENT
REMARK Flexibility Score: inf
ROOT
ATOM      1  C   UNL     1     -10.954  44.186 100.683  1.00  0.00    -0.031 C 
ATOM      2  C   UNL     1     -10.757  43.522 101.838  1.00  0.00    -0.031 C 
ENDROOT
BRANCH   1   3
ATOM      3  C   UNL     1     -11.862  45.380 100.524  1.00  0.00     0.027 C 
BRANCH   3   4
ATOM      4  C   UNL     1     -11.080  46.701 100.522  1.00  0.00     0.004 C 
BRANCH   4   5
ATOM      5  C   UNL     1     -11.364  47.546 101.777  1.00  0.00     0.000 C 
BRANCH   5   6
ATOM      6  C   UNL     1     -10.067  47.963 102.505  1.00  0.00     0.000 C 
BRANCH   6   7
ATOM      7  C   UNL     1      -9.498  46.868 103.421  1.00  0.00     0.000 C 
BRANCH   7   8
ATOM      8  C   UNL     1      -8.013  46.575 103.151  1.00  0.00     0.006 C 
BRANCH   8   9
ATOM      9  C   UNL     1      -7.802  45.825 101.830  1.00  0.00     0.053 C 
BRANCH   9  10
ATOM     10  C   UNL     1      -6.382  45.375 101.670  1.00  0.00     0.041 C 
ATOM     11  O   UNL     1      -6.008  44.825 100.600  1.00  0.00    -0.550 OA
ATOM     12  O   UNL     1      -5.464  45.591 102.690  1.00  0.00    -0.550 OA
ENDBRANCH   9  10
ENDBRANCH   8   9
ENDBRANCH   7   8
ENDBRANCH   6   7
ENDBRANCH   5   6
ENDBRANCH   4   5
ENDBRANCH   3   4
ENDBRANCH   1   3
BRANCH   2  13
ATOM     13  C   UNL     1     -11.482  43.814 103.126  1.00  0.00     0.027 C 
BRANCH  13  14
ATOM     14  C   UNL     1     -11.877  42.509 103.832  1.00  0.00     0.004 C 
BRANCH  14  15
ATOM     15  C   UNL     1     -11.275  41.267 103.159  1.00  0.00     0.000 C 
BRANCH  15  16
ATOM     16  C   UNL     1     -12.325  40.180 102.870  1.00  0.00     0.000 C 
BRANCH  16  17
ATOM     17  C   UNL     1     -13.063  40.422 101.536  1.00  0.00    -0.000 C 
BRANCH  17  18
ATOM     18  C   UNL     1     -14.353  41.251 101.685  1.00  0.00    -0.000 C 
BRANCH  18  19
ATOM     19  C   UNL     1     -14.352  42.582 100.917  1.00  0.00    -0.003 C 
ATOM     20  C   UNL     1     -15.033  43.712 101.689  1.00  0.00     0.004 C 
ENDBRANCH  18  19
ENDBRANCH  17  18
ENDBRANCH  16  17
ENDBRANCH  15  16
ENDBRANCH  14  15
ENDBRANCH  13  14
ENDBRANCH   2  13
TORSDOF 15
ENDMDL
MODEL 4
REMARK VINA RESULT:    -2.772     14.719     17.618
REMARK INTER + INTRA:          -7.984
REMARK INTER:                  -5.033
REMARK INTRA:                  -2.952
REMARK UNBOUND:                -2.782
REMARK SMILES CCCCCCCCC=CCCCCCCCC(=O)[O-]
REMARK SMILES IDX 10 1 9 2 11 3 12 4 13 5 14 6 15 7 16 8 17 9 18 10 19 11
REMARK SMILES IDX 20 12 8 13 7 14 6 15 5 16 4 17 3 18 2 19 1 20
REMARK H PARENT
REMARK Flexibility Score: inf
ROOT
ATOM      1  C   UNL     1      -3.515  46.161  85.495  1.00  0.00    -0.031 C 
ATOM      2  C   UNL     1      -4.854  46.024  85.451  1.00  0.00    -0.031 C 
ENDROOT
BRANCH   1   3
ATOM      3  C   UNL     1      -2.795  47.473  85.688  1.00  0.00     0.027 C 
BRANCH   3   4
ATOM      4  C   UNL     1      -2.711  47.869  87.169  1.00  0.00     0.004 C 
BRANCH   4   5
ATOM      5  C   UNL     1      -2.775  49.395  87.367  1.00  0.00     0.000 C 
BRANCH   5   6
ATOM      6  C   UNL     1      -3.579  50.094  86.249  1.00  0.00     0.000 C 
BRANCH   6   7
ATOM      7  C   UNL     1      -4.961  50.591  86.705  1.00  0.00     0.000 C 
BRANCH   7   8
ATOM      8  C   UNL     1      -5.829  51.093  85.540  1.00  0.00     0.006 C 
BRANCH   8   9
ATOM      9  C   UNL     1      -7.264  50.555  85.613  1.00  0.00     0.053 C 
BRANCH   9  10
ATOM     10  C   UNL     1      -8.271  51.619  85.301  1.00  0.00     0.041 C 
ATOM     11  O   UNL     1      -9.407  51.596  85.843  1.00  0.00    -0.550 OA
ATOM     12  O   UNL     1      -7.943  52.656  84.435  1.00  0.00    -0.550 OA
ENDBRANCH   9  10
ENDBRANCH   8   9
ENDBRANCH   7   8
ENDBRANCH   6   7
ENDBRANCH   5   6
ENDBRANCH   4   5
ENDBRANCH   3   4
ENDBRANCH   1   3
BRANCH   2  13
ATOM     13  C   UNL     1      -5.834  47.168  85.498  1.00  0.00     0.027 C 
BRANCH  13  14
ATOM     14  C   UNL     1      -6.861  46.955  86.619  1.00  0.00     0.004 C 
BRANCH  14  15
ATOM     15  C   UNL     1      -6.311  47.333  88.004  1.00  0.00     0.000 C 
BRANCH  15  16
ATOM     16  C   UNL     1      -6.284  46.141  88.977  1.00  0.00     0.000 C 
BRANCH  16  17
ATOM     17  C   UNL     1      -4.844  45.687  89.302  1.00  0.00    -0.000 C 
BRANCH  17  18
ATOM     18  C   UNL     1      -4.457  44.346  88.650  1.00  0.00    -0.000 C 
BRANCH  18  19
ATOM     19  C   UNL     1      -2.945  44.125  88.485  1.00  0.00    -0.003 C 
ATOM     20  C   UNL     1      -2.608  43.128  87.377  1.00  0.00     0.004 C 
ENDBRANCH  18  19
ENDBRANCH  17  18
ENDBRANCH  16  17
ENDBRANCH  15  16
ENDBRANCH  14  15
ENDBRANCH  13  14
ENDBRANCH   2  13
TORSDOF 15
ENDMDL
MODEL 5
REMARK VINA RESULT:    -2.758      3.174      6.942
REMARK INTER + INTRA:          -7.958
REMARK INTER:                  -5.121
REMARK INTRA:                  -2.837
REMARK UNBOUND:                -2.782
REMARK SMILES CCCCCCCCC=CCCCCCCCC(=O)[O-]
REMARK SMILES IDX 10 1 9 2 11 3 12 4 13 5 14 6 15 7 16 8 17 9 18 10 19 11
REMARK SMILES IDX 20 12 8 13 7 14 6 15 5 16 4 17 3 18 2 19 1 20
REMARK H PARENT
REMARK Flexibility Score: inf
ROOT
ATOM      1  C   UNL     1     -10.307  43.216 100.882  1.00  0.00    -0.031 C 
ATOM      2  C   UNL     1     -11.409  43.406 101.633  1.00  0.00    -0.031 C 
ENDROOT
BRANCH   1   3
ATOM      3  C   UNL     1      -8.933  42.926 101.434  1.00  0.00     0.027 C 
BRANCH   3   4
ATOM      4  C   UNL     1      -7.829  43.601 100.608  1.00  0.00     0.004 C 
BRANCH   4   5
ATOM      5  C   UNL     1      -7.082  44.682 101.410  1.00  0.00     0.000 C 
BRANCH   5   6
ATOM      6  C   UNL     1      -7.916  45.972 101.567  1.00  0.00     0.000 C 
BRANCH   6   7
ATOM      7  C   UNL     1      -8.122  46.395 103.030  1.00  0.00     0.000 C 
BRANCH   7   8
ATOM      8  C   UNL     1      -9.588  46.722 103.357  1.00  0.00     0.006 C 
BRANCH   8   9
ATOM      9  C   UNL     1     -10.440  46.890 102.092  1.00  0.00     0.053 C 
BRANCH   9  10
ATOM     10  C   UNL     1     -10.833  48.320 101.875  1.00  0.00     0.041 C 
ATOM     11  O   UNL     1      -9.970  49.234 101.950  1.00  0.00    -0.550 OA
ATOM     12  O   UNL     1     -12.148  48.639 101.557  1.00  0.00    -0.550 OA
ENDBRANCH   9  10
ENDBRANCH   8   9
ENDBRANCH   7   8
ENDBRANCH   6   7
ENDBRANCH   5   6
ENDBRANCH   4   5
ENDBRANCH   3   4
ENDBRANCH   1   3
BRANCH   2  13
ATOM     13  C   UNL     1     -11.419  43.448 103.140  1.00  0.00     0.027 C 
BRANCH  13  14
ATOM     14  C   UNL     1     -12.069  42.179 103.712  1.00  0.00     0.004 C 
BRANCH  14  15
ATOM     15  C   UNL     1     -13.102  41.561 102.756  1.00  0.00     0.000 C 
BRANCH  15  16
ATOM     16  C   UNL     1     -12.833  40.073 102.473  1.00  0.00     0.000 C 
BRANCH  16  17
ATOM     17  C   UNL     1     -12.106  39.857 101.128  1.00  0.00    -0.000 C 
BRANCH  17  18
ATOM     18  C   UNL     1     -10.621  39.477 101.282  1.00  0.00    -0.000 C 
BRANCH  18  19
ATOM     19  C   UNL     1     -10.226  38.993 102.686  1.00  0.00    -0.003 C 
ATOM     20  C   UNL     1      -9.030  39.752 103.260  1.00  0.00     0.004 C 
ENDBRANCH  18  19
ENDBRANCH  17  18
ENDBRANCH  16  17
ENDBRANCH  15  16
ENDBRANCH  14  15
ENDBRANCH  13  14
ENDBRANCH   2  13
TORSDOF 15
ENDMDL
MODEL 6
REMARK VINA RESULT:    -2.754      5.297      8.101
REMARK INTER + INTRA:          -7.951
REMARK INTER:                  -5.515
REMARK INTRA:                  -2.436
REMARK UNBOUND:                -2.782
REMARK SMILES CCCCCCCCC=CCCCCCCCC(=O)[O-]
REMARK SMILES IDX 10 1 9 2 11 3 12 4 13 5 14 6 15 7 16 8 17 9 18 10 19 11
REMARK SMILES IDX 20 12 8 13 7 14 6 15 5 16 4 17 3 18 2 19 1 20
REMARK H PARENT
REMARK Flexibility Score: inf
ROOT
ATOM      1  C   UNL     1     -13.711  49.265 101.441  1.00  0.00    -0.031 C 
ATOM      2  C   UNL     1     -14.953  49.048 101.912  1.00  0.00    -0.031 C 
ENDROOT
BRANCH   1   3
ATOM      3  C   UNL     1     -13.299  49.096  99.999  1.00  0.00     0.027 C 
BRANCH   3   4
ATOM      4  C   UNL     1     -11.954  49.776  99.703  1.00  0.00     0.004 C 
BRANCH   4   5
ATOM      5  C   UNL     1     -11.624  50.881 100.722  1.00  0.00     0.000 C 
BRANCH   5   6
ATOM      6  C   UNL     1     -10.178  50.774 101.251  1.00  0.00     0.000 C 
BRANCH   6   7
ATOM      7  C   UNL     1      -9.535  49.399 101.007  1.00  0.00     0.000 C 
BRANCH   7   8
ATOM      8  C   UNL     1      -9.153  48.677 102.309  1.00  0.00     0.006 C 
BRANCH   8   9
ATOM      9  C   UNL     1     -10.208  47.648 102.733  1.00  0.00     0.053 C 
BRANCH   9  10
ATOM     10  C   UNL     1      -9.591  46.322 103.057  1.00  0.00     0.041 C 
ATOM     11  O   UNL     1      -8.341  46.216 103.174  1.00  0.00    -0.550 OA
ATOM     12  O   UNL     1     -10.398  45.210 103.262  1.00  0.00    -0.550 OA
ENDBRANCH   9  10
ENDBRANCH   8   9
ENDBRANCH   7   8
ENDBRANCH   6   7
ENDBRANCH   5   6
ENDBRANCH   4   5
ENDBRANCH   3   4
ENDBRANCH   1   3
BRANCH   2  13
ATOM     13  C   UNL     1     -16.099  48.516 101.089  1.00  0.00     0.027 C 
BRANCH  13  14
ATOM     14  C   UNL     1     -17.439  49.034 101.630  1.00  0.00     0.004 C 
BRANCH  14  15
ATOM     15  C   UNL     1     -17.264  50.091 102.731  1.00  0.00     0.000 C 
BRANCH  15  16
ATOM     16  C   UNL     1     -18.118  51.348 102.488  1.00  0.00     0.000 C 
BRANCH  16  17
ATOM     17  C   UNL     1     -17.880  51.952 101.087  1.00  0.00    -0.000 C 
BRANCH  17  18
ATOM     18  C   UNL     1     -16.615  52.826 100.997  1.00  0.00    -0.000 C 
BRANCH  18  19
ATOM     19  C   UNL     1     -15.569  52.339  99.982  1.00  0.00    -0.003 C 
ATOM     20  C   UNL     1     -16.167  51.442  98.898  1.00  0.00     0.004 C 
ENDBRANCH  18  19
ENDBRANCH  17  18
ENDBRANCH  16  17
ENDBRANCH  15  16
ENDBRANCH  14  15
ENDBRANCH  13  14
ENDBRANCH   2  13
TORSDOF 15
ENDMDL
MODEL 7
REMARK VINA RESULT:    -2.732      1.741      2.469
REMARK INTER + INTRA:          -7.910
REMARK INTER:                  -4.966
REMARK INTRA:                  -2.945
REMARK UNBOUND:                -2.782
REMARK SMILES CCCCCCCCC=CCCCCCCCC(=O)[O-]
REMARK SMILES IDX 10 1 9 2 11 3 12 4 13 5 14 6 15 7 16 8 17 9 18 10 19 11
REMARK SMILES IDX 20 12 8 13 7 14 6 15 5 16 4 17 3 18 2 19 1 20
REMARK H PARENT
REMARK Flexibility Score: inf
ROOT
ATOM      1  C   UNL     1      -8.550  44.547 100.615  1.00  0.00    -0.031 C 
ATOM      2  C   UNL     1      -7.751  45.411 101.269  1.00  0.00    -0.031 C 
ENDROOT
BRANCH   1   3
ATOM      3  C   UNL     1      -9.672  43.765 101.254  1.00  0.00     0.027 C 
BRANCH   3   4
ATOM      4  C   UNL     1     -11.046  44.374 100.943  1.00  0.00     0.004 C 
BRANCH   4   5
ATOM      5  C   UNL     1     -11.948  44.438 102.189  1.00  0.00     0.000 C 
BRANCH   5   6
ATOM      6  C   UNL     1     -11.312  43.733 103.406  1.00  0.00     0.000 C 
BRANCH   6   7
ATOM      7  C   UNL     1     -12.134  42.542 103.925  1.00  0.00     0.000 C 
BRANCH   7   8
ATOM      8  C   UNL     1     -11.392  41.201 103.796  1.00  0.00     0.006 C 
BRANCH   8   9
ATOM      9  C   UNL     1     -11.431  40.653 102.364  1.00  0.00     0.053 C 
BRANCH   9  10
ATOM     10  C   UNL     1     -12.823  40.653 101.809  1.00  0.00     0.041 C 
ATOM     11  O   UNL     1     -13.107  41.363 100.808  1.00  0.00    -0.550 OA
ATOM     12  O   UNL     1     -13.798  39.844 102.378  1.00  0.00    -0.550 OA
ENDBRANCH   9  10
ENDBRANCH   8   9
ENDBRANCH   7   8
ENDBRANCH   6   7
ENDBRANCH   5   6
ENDBRANCH   4   5
ENDBRANCH   3   4
ENDBRANCH   1   3
BRANCH   2  13
ATOM     13  C   UNL     1      -7.796  45.661 102.755  1.00  0.00     0.027 C 
BRANCH  13  14
ATOM     14  C   UNL     1      -8.233  47.104 103.048  1.00  0.00     0.004 C 
BRANCH  14  15
ATOM     15  C   UNL     1      -9.718  47.207 103.428  1.00  0.00     0.000 C 
BRANCH  15  16
ATOM     16  C   UNL     1     -10.566  47.876 102.332  1.00  0.00     0.000 C 
BRANCH  16  17
ATOM     17  C   UNL     1      -9.831  49.061 101.668  1.00  0.00    -0.000 C 
BRANCH  17  18
ATOM     18  C   UNL     1      -9.539  48.845 100.170  1.00  0.00    -0.000 C 
BRANCH  18  19
ATOM     19  C   UNL     1     -10.270  47.649  99.541  1.00  0.00    -0.003 C 
ATOM     20  C   UNL     1     -10.545  47.840  98.049  1.00  0.00     0.004 C 
ENDBRANCH  18  19
ENDBRANCH  17  18
ENDBRANCH  16  17
ENDBRANCH  15  16
ENDBRANCH  14  15
ENDBRANCH  13  14
ENDBRANCH   2  13
TORSDOF 15
ENDMDL
MODEL 8
REMARK VINA RESULT:    -2.720     14.263     16.725
REMARK INTER + INTRA:          -7.888
REMARK INTER:                  -5.190
REMARK INTRA:                  -2.699
REMARK UNBOUND:                -2.782
REMARK SMILES CCCCCCCCC=CCCCCCCCC(=O)[O-]
REMARK SMILES IDX 10 1 9 2 11 3 12 4 13 5 14 6 15 7 16 8 17 9 18 10 19 11
REMARK SMILES IDX 20 12 8 13 7 14 6 15 5 16 4 17 3 18 2 19 1 20
REMARK H PARENT
REMARK Flexibility Score: inf
ROOT
ATOM      1  C   UNL     1      -4.761  46.878  89.125  1.00  0.00    -0.031 C 
ATOM      2  C   UNL     1      -6.008  46.436  88.873  1.00  0.00    -0.031 C 
ENDROOT
BRANCH   1   3
ATOM      3  C   UNL     1      -4.225  48.222  88.694  1.00  0.00     0.027 C 
BRANCH   3   4
ATOM      4  C   UNL     1      -3.021  48.084  87.752  1.00  0.00     0.004 C 
BRANCH   4   5
ATOM      5  C   UNL     1      -3.380  48.429  86.296  1.00  0.00     0.000 C 
BRANCH   5   6
ATOM      6  C   UNL     1      -3.170  47.231  85.345  1.00  0.00     0.000 C 
BRANCH   6   7
ATOM      7  C   UNL     1      -2.975  45.893  86.075  1.00  0.00     0.000 C 
BRANCH   7   8
ATOM      8  C   UNL     1      -3.988  44.821  85.642  1.00  0.00     0.006 C 
BRANCH   8   9
ATOM      9  C   UNL     1      -4.287  43.819  86.764  1.00  0.00     0.053 C 
BRANCH   9  10
ATOM     10  C   UNL     1      -3.049  43.450  87.522  1.00  0.00     0.041 C 
ATOM     11  O   UNL     1      -2.152  42.757  86.973  1.00  0.00    -0.550 OA
ATOM     12  O   UNL     1      -2.871  43.899  88.825  1.00  0.00    -0.550 OA
ENDBRANCH   9  10
ENDBRANCH   8   9
ENDBRANCH   7   8
ENDBRANCH   6   7
ENDBRANCH   5   6
ENDBRANCH   4   5
ENDBRANCH   3   4
ENDBRANCH   1   3
BRANCH   2  13
ATOM     13  C   UNL     1      -7.027  47.175  88.045  1.00  0.00     0.027 C 
BRANCH  13  14
ATOM     14  C   UNL     1      -6.912  46.779  86.565  1.00  0.00     0.004 C 
BRANCH  14  15
ATOM     15  C   UNL     1      -6.940  47.993  85.624  1.00  0.00     0.000 C 
BRANCH  15  16
ATOM     16  C   UNL     1      -7.329  49.295  86.346  1.00  0.00     0.000 C 
BRANCH  16  17
ATOM     17  C   UNL     1      -6.409  50.473  85.958  1.00  0.00    -0.000 C 
BRANCH  17  18
ATOM     18  C   UNL     1      -7.040  51.438  84.936  1.00  0.00    -0.000 C 
BRANCH  18  19
ATOM     19  C   UNL     1      -8.347  52.100  85.401  1.00  0.00    -0.003 C 
ATOM     20  C   UNL     1      -8.870  53.141  84.411  1.00  0.00     0.004 C 
ENDBRANCH  18  19
ENDBRANCH  17  18
ENDBRANCH  16  17
ENDBRANCH  15  16
ENDBRANCH  14  15
ENDBRANCH  13  14
ENDBRANCH   2  13
TORSDOF 15
ENDMDL
MODEL 9
REMARK VINA RESULT:    -2.648      3.939      6.724
REMARK INTER + INTRA:          -7.753
REMARK INTER:                  -4.942
REMARK INTRA:                  -2.811
REMARK UNBOUND:                -2.782
REMARK SMILES CCCCCCCCC=CCCCCCCCC(=O)[O-]
REMARK SMILES IDX 10 1 9 2 11 3 12 4 13 5 14 6 15 7 16 8 17 9 18 10 19 11
REMARK SMILES IDX 20 12 8 13 7 14 6 15 5 16 4 17 3 18 2 19 1 20
REMARK H PARENT
REMARK Flexibility Score: inf
ROOT
ATOM      1  C   UNL     1      -9.032  46.567 103.401  1.00  0.00    -0.031 C 
ATOM      2  C   UNL     1     -10.050  45.764 103.037  1.00  0.00    -0.031 C 
ENDROOT
BRANCH   1   3
ATOM      3  C   UNL     1      -7.591  46.357 103.005  1.00  0.00     0.027 C 
BRANCH   3   4
ATOM      4  C   UNL     1      -6.977  47.619 102.381  1.00  0.00     0.004 C 
BRANCH   4   5
ATOM      5  C   UNL     1      -8.042  48.524 101.735  1.00  0.00     0.000 C 
BRANCH   5   6
ATOM      6  C   UNL     1      -8.500  47.995 100.359  1.00  0.00     0.000 C 
BRANCH   6   7
ATOM      7  C   UNL     1      -9.959  48.342 100.022  1.00  0.00     0.000 C 
BRANCH   7   8
ATOM      8  C   UNL     1     -10.683  49.063 101.170  1.00  0.00     0.006 C 
BRANCH   8   9
ATOM      9  C   UNL     1     -11.986  48.359 101.567  1.00  0.00     0.053 C 
BRANCH   9  10
ATOM     10  C   UNL     1     -13.174  49.257 101.403  1.00  0.00     0.041 C 
ATOM     11  O   UNL     1     -14.249  49.004 102.008  1.00  0.00    -0.550 OA
ATOM     12  O   UNL     1     -13.082  50.392 100.607  1.00  0.00    -0.550 OA
ENDBRANCH   9  10
ENDBRANCH   8   9
ENDBRANCH   7   8
ENDBRANCH   6   7
ENDBRANCH   5   6
ENDBRANCH   4   5
ENDBRANCH   3   4
ENDBRANCH   1   3
BRANCH   2  13
ATOM     13  C   UNL     1      -9.893  44.484 102.256  1.00  0.00     0.027 C 
BRANCH  13  14
ATOM     14  C   UNL     1     -10.243  44.707 100.778  1.00  0.00     0.004 C 
BRANCH  14  15
ATOM     15  C   UNL     1      -9.201  44.100  99.825  1.00  0.00     0.000 C 
BRANCH  15  16
ATOM     16  C   UNL     1      -7.915  43.666 100.551  1.00  0.00     0.000 C 
BRANCH  16  17
ATOM     17  C   UNL     1      -6.677  44.450 100.064  1.00  0.00    -0.000 C 
BRANCH  17  18
ATOM     18  C   UNL     1      -5.346  43.910 100.619  1.00  0.00    -0.000 C 
BRANCH  18  19
ATOM     19  C   UNL     1      -4.416  44.981 101.211  1.00  0.00    -0.003 C 
ATOM     20  C   UNL     1      -4.018  44.688 102.657  1.00  0.00     0.004 C 
ENDBRANCH  18  19
ENDBRANCH  17  18
ENDBRANCH  16  17
ENDBRANCH  15  16
ENDBRANCH  14  15
ENDBRANCH  13  14
ENDBRANCH   2  13
TORSDOF 15
ENDMDL
