MODEL 1
REMARK VINA RESULT:    -0.232      0.000      0.000
REMARK INTER + INTRA:          -2.081
REMARK INTER:                  -0.530
REMARK INTRA:                  -1.551
REMARK UNBOUND:                -1.551
REMARK SMILES CCCCCCCCCCCCCCCCCCCCCCCC(=O)[O-]
REMARK SMILES IDX 13 1 14 2 15 3 16 4 17 5 18 6 19 7 20 8 21 9 22 10 23 11
REMARK SMILES IDX 24 12 25 13 26 14 12 15 11 16 10 17 9 18 8 19 7 20 6 21 5 22
REMARK SMILES IDX 4 23 3 24 2 25 1 26
REMARK H PARENT
REMARK Flexibility Score: inf
ROOT
ATOM      1  C   UNL     1       4.005 -36.961  19.337  1.00  0.00     0.000 C 
ENDROOT
BRANCH   1   2
ATOM      2  C   UNL     1       4.859 -37.075  20.617  1.00  0.00     0.000 C 
BRANCH   2   3
ATOM      3  C   UNL     1       6.001 -36.051  20.751  1.00  0.00     0.000 C 
BRANCH   3   4
ATOM      4  C   UNL     1       5.606 -34.573  20.538  1.00  0.00     0.000 C 
BRANCH   4   5
ATOM      5  C   UNL     1       5.276 -33.801  21.831  1.00  0.00     0.000 C 
BRANCH   5   6
ATOM      6  C   UNL     1       5.903 -34.418  23.093  1.00  0.00     0.000 C 
BRANCH   6   7
ATOM      7  C   UNL     1       4.912 -35.286  23.887  1.00  0.00     0.000 C 
BRANCH   7   8
ATOM      8  C   UNL     1       5.386 -35.627  25.317  1.00  0.00     0.000 C 
BRANCH   8   9
ATOM      9  C   UNL     1       5.429 -37.144  25.578  1.00  0.00     0.000 C 
BRANCH   9  10
ATOM     10  C   UNL     1       5.843 -37.959  24.339  1.00  0.00     0.006 C 
BRANCH  10  11
ATOM     11  C   UNL     1       5.364 -39.422  24.369  1.00  0.00     0.053 C 
BRANCH  11  12
ATOM     12  C   UNL     1       5.714 -40.163  23.114  1.00  0.00     0.041 C 
ATOM     13  O   UNL     1       5.931 -39.533  22.046  1.00  0.00    -0.550 OA
ATOM     14  O   UNL     1       5.838 -41.547  23.133  1.00  0.00    -0.550 OA
ENDBRANCH  11  12
ENDBRANCH  10  11
ENDBRANCH   9  10
ENDBRANCH   8   9
ENDBRANCH   7   8
ENDBRANCH   6   7
ENDBRANCH   5   6
ENDBRANCH   4   5
ENDBRANCH   3   4
ENDBRANCH   2   3
ENDBRANCH   1   2
BRANCH   1  15
ATOM     15  C   UNL     1       2.489 -36.837  19.599  1.00  0.00     0.000 C 
BRANCH  15  16
ATOM     16  C   UNL     1       1.642 -37.502  18.504  1.00  0.00     0.000 C 
BRANCH  16  17
ATOM     17  C   UNL     1       2.162 -37.140  17.107  1.00  0.00     0.000 C 
BRANCH  17  18
ATOM     18  C   UNL     1       1.379 -35.957  16.521  1.00  0.00    -0.000 C 
BRANCH  18  19
ATOM     19  C   UNL     1       2.221 -35.095  15.565  1.00  0.00    -0.000 C 
BRANCH  19  20
ATOM     20  C   UNL     1       3.629 -35.667  15.298  1.00  0.00    -0.000 C 
BRANCH  20  21
ATOM     21  C   UNL     1       3.670 -36.539  14.030  1.00  0.00    -0.000 C 
BRANCH  21  22
ATOM     22  C   UNL     1       4.960 -37.366  13.917  1.00  0.00    -0.000 C 
BRANCH  22  23
ATOM     23  C   UNL     1       4.830 -38.760  14.550  1.00  0.00    -0.000 C 
BRANCH  23  24
ATOM     24  C   UNL     1       5.787 -39.758  13.878  1.00  0.00    -0.000 C 
BRANCH  24  25
ATOM     25  C   UNL     1       5.380 -41.221  14.118  1.00  0.00    -0.003 C 
ATOM     26  C   UNL     1       5.735 -41.711  15.523  1.00  0.00     0.004 C 
ENDBRANCH  24  25
ENDBRANCH  23  24
ENDBRANCH  22  23
ENDBRANCH  21  22
ENDBRANCH  20  21
ENDBRANCH  19  20
ENDBRANCH  18  19
ENDBRANCH  17  18
ENDBRANCH  16  17
ENDBRANCH  15  16
ENDBRANCH   1  15
TORSDOF 22
ENDMDL
MODEL 2
REMARK VINA RESULT:     0.106      1.003      2.074
REMARK INTER + INTRA:          -1.309
REMARK INTER:                   0.837
REMARK INTRA:                  -2.146
REMARK UNBOUND:                -1.551
REMARK SMILES CCCCCCCCCCCCCCCCCCCCCCCC(=O)[O-]
REMARK SMILES IDX 13 1 14 2 15 3 16 4 17 5 18 6 19 7 20 8 21 9 22 10 23 11
REMARK SMILES IDX 24 12 25 13 26 14 12 15 11 16 10 17 9 18 8 19 7 20 6 21 5 22
REMARK SMILES IDX 4 23 3 24 2 25 1 26
REMARK H PARENT
REMARK Flexibility Score: inf
ROOT
ATOM      1  C   UNL     1       5.356 -36.158  18.779  1.00  0.00     0.000 C 
ENDROOT
BRANCH   1   2
ATOM      2  C   UNL     1       5.776 -35.046  19.762  1.00  0.00     0.000 C 
BRANCH   2   3
ATOM      3  C   UNL     1       5.804 -35.445  21.249  1.00  0.00     0.000 C 
BRANCH   3   4
ATOM      4  C   UNL     1       6.040 -34.292  22.249  1.00  0.00     0.000 C 
BRANCH   4   5
ATOM      5  C   UNL     1       5.242 -34.404  23.563  1.00  0.00     0.000 C 
BRANCH   5   6
ATOM      6  C   UNL     1       6.125 -34.381  24.822  1.00  0.00     0.000 C 
BRANCH   6   7
ATOM      7  C   UNL     1       6.044 -35.688  25.630  1.00  0.00     0.000 C 
BRANCH   7   8
ATOM      8  C   UNL     1       4.639 -36.329  25.642  1.00  0.00     0.000 C 
BRANCH   8   9
ATOM      9  C   UNL     1       4.682 -37.849  25.403  1.00  0.00     0.000 C 
BRANCH   9  10
ATOM     10  C   UNL     1       5.168 -38.225  23.992  1.00  0.00     0.006 C 
BRANCH  10  11
ATOM     11  C   UNL     1       5.612 -39.694  23.858  1.00  0.00     0.053 C 
BRANCH  11  12
ATOM     12  C   UNL     1       5.874 -40.083  22.434  1.00  0.00     0.041 C 
ATOM     13  O   UNL     1       5.967 -39.200  21.542  1.00  0.00    -0.550 OA
ATOM     14  O   UNL     1       6.054 -41.419  22.099  1.00  0.00    -0.550 OA
ENDBRANCH  11  12
ENDBRANCH  10  11
ENDBRANCH   9  10
ENDBRANCH   8   9
ENDBRANCH   7   8
ENDBRANCH   6   7
ENDBRANCH   5   6
ENDBRANCH   4   5
ENDBRANCH   3   4
ENDBRANCH   2   3
ENDBRANCH   1   2
BRANCH   1  15
ATOM     15  C   UNL     1       4.187 -37.033  19.278  1.00  0.00     0.000 C 
BRANCH  15  16
ATOM     16  C   UNL     1       2.955 -36.205  19.676  1.00  0.00     0.000 C 
BRANCH  16  17
ATOM     17  C   UNL     1       1.685 -37.065  19.669  1.00  0.00     0.000 C 
BRANCH  17  18
ATOM     18  C   UNL     1       0.915 -36.893  18.352  1.00  0.00    -0.000 C 
BRANCH  18  19
ATOM     19  C   UNL     1       1.809 -37.044  17.110  1.00  0.00    -0.000 C 
BRANCH  19  20
ATOM     20  C   UNL     1       1.593 -35.937  16.056  1.00  0.00    -0.000 C 
BRANCH  20  21
ATOM     21  C   UNL     1       2.633 -34.809  16.180  1.00  0.00    -0.000 C 
BRANCH  21  22
ATOM     22  C   UNL     1       3.930 -35.107  15.411  1.00  0.00    -0.000 C 
BRANCH  22  23
ATOM     23  C   UNL     1       3.680 -35.844  14.086  1.00  0.00    -0.000 C 
BRANCH  23  24
ATOM     24  C   UNL     1       4.714 -36.963  13.877  1.00  0.00    -0.000 C 
BRANCH  24  25
ATOM     25  C   UNL     1       4.307 -38.279  14.557  1.00  0.00    -0.003 C 
ATOM     26  C   UNL     1       5.245 -39.437  14.213  1.00  0.00     0.004 C 
ENDBRANCH  24  25
ENDBRANCH  23  24
ENDBRANCH  22  23
ENDBRANCH  21  22
ENDBRANCH  20  21
ENDBRANCH  19  20
ENDBRANCH  18  19
ENDBRANCH  17  18
ENDBRANCH  16  17
ENDBRANCH  15  16
ENDBRANCH   1  15
TORSDOF 22
ENDMDL
MODEL 3
REMARK VINA RESULT:     0.578      2.427      5.619
REMARK INTER + INTRA:          -0.230
REMARK INTER:                   1.298
REMARK INTRA:                  -1.529
REMARK UNBOUND:                -1.551
REMARK SMILES CCCCCCCCCCCCCCCCCCCCCCCC(=O)[O-]
REMARK SMILES IDX 13 1 14 2 15 3 16 4 17 5 18 6 19 7 20 8 21 9 22 10 23 11
REMARK SMILES IDX 24 12 25 13 26 14 12 15 11 16 10 17 9 18 8 19 7 20 6 21 5 22
REMARK SMILES IDX 4 23 3 24 2 25 1 26
REMARK H PARENT
REMARK Flexibility Score: inf
ROOT
ATOM      1  C   UNL     1       6.024 -36.273  24.587  1.00  0.00     0.000 C 
ENDROOT
BRANCH   1   2
ATOM      2  C   UNL     1       6.116 -36.860  26.010  1.00  0.00     0.000 C 
BRANCH   2   3
ATOM      3  C   UNL     1       5.076 -37.942  26.355  1.00  0.00     0.000 C 
BRANCH   3   4
ATOM      4  C   UNL     1       4.481 -38.708  25.154  1.00  0.00     0.000 C 
BRANCH   4   5
ATOM      5  C   UNL     1       5.519 -39.426  24.268  1.00  0.00     0.000 C 
BRANCH   5   6
ATOM      6  C   UNL     1       5.125 -39.483  22.782  1.00  0.00     0.000 C 
BRANCH   6   7
ATOM      7  C   UNL     1       5.674 -38.295  21.974  1.00  0.00     0.000 C 
BRANCH   7   8
ATOM      8  C   UNL     1       5.880 -38.602  20.474  1.00  0.00     0.000 C 
BRANCH   8   9
ATOM      9  C   UNL     1       5.676 -37.361  19.586  1.00  0.00     0.000 C 
BRANCH   9  10
ATOM     10  C   UNL     1       4.263 -37.276  18.982  1.00  0.00     0.006 C 
BRANCH  10  11
ATOM     11  C   UNL     1       3.191 -36.783  19.973  1.00  0.00     0.053 C 
BRANCH  11  12
ATOM     12  C   UNL     1       1.800 -36.964  19.446  1.00  0.00     0.041 C 
ATOM     13  O   UNL     1       0.809 -36.791  20.202  1.00  0.00    -0.550 OA
ATOM     14  O   UNL     1       1.597 -37.288  18.110  1.00  0.00    -0.550 OA
ENDBRANCH  11  12
ENDBRANCH  10  11
ENDBRANCH   9  10
ENDBRANCH   8   9
ENDBRANCH   7   8
ENDBRANCH   6   7
ENDBRANCH   5   6
ENDBRANCH   4   5
ENDBRANCH   3   4
ENDBRANCH   2   3
ENDBRANCH   1   2
BRANCH   1  15
ATOM     15  C   UNL     1       5.696 -34.765  24.547  1.00  0.00     0.000 C 
BRANCH  15  16
ATOM     16  C   UNL     1       6.125 -34.101  23.230  1.00  0.00     0.000 C 
BRANCH  16  17
ATOM     17  C   UNL     1       5.256 -34.582  22.060  1.00  0.00     0.000 C 
BRANCH  17  18
ATOM     18  C   UNL     1       6.070 -34.636  20.760  1.00  0.00    -0.000 C 
BRANCH  18  19
ATOM     19  C   UNL     1       5.674 -33.536  19.759  1.00  0.00    -0.000 C 
BRANCH  19  20
ATOM     20  C   UNL     1       5.686 -34.006  18.289  1.00  0.00    -0.000 C 
BRANCH  20  21
ATOM     21  C   UNL     1       4.266 -34.223  17.738  1.00  0.00    -0.000 C 
BRANCH  21  22
ATOM     22  C   UNL     1       4.234 -35.164  16.524  1.00  0.00    -0.000 C 
BRANCH  22  23
ATOM     23  C   UNL     1       2.852 -35.228  15.856  1.00  0.00    -0.000 C 
BRANCH  23  24
ATOM     24  C   UNL     1       2.896 -36.096  14.588  1.00  0.00    -0.000 C 
BRANCH  24  25
ATOM     25  C   UNL     1       4.329 -36.455  14.166  1.00  0.00    -0.003 C 
ATOM     26  C   UNL     1       4.556 -37.964  14.068  1.00  0.00     0.004 C 
ENDBRANCH  24  25
ENDBRANCH  23  24
ENDBRANCH  22  23
ENDBRANCH  21  22
ENDBRANCH  20  21
ENDBRANCH  19  20
ENDBRANCH  18  19
ENDBRANCH  17  18
ENDBRANCH  16  17
ENDBRANCH  15  16
ENDBRANCH   1  15
TORSDOF 22
ENDMDL
MODEL 4
REMARK VINA RESULT:     1.769      2.905      8.018
REMARK INTER + INTRA:           2.494
REMARK INTER:                   3.723
REMARK INTRA:                  -1.229
REMARK UNBOUND:                -1.551
REMARK SMILES CCCCCCCCCCCCCCCCCCCCCCCC(=O)[O-]
REMARK SMILES IDX 13 1 14 2 15 3 16 4 17 5 18 6 19 7 20 8 21 9 22 10 23 11
REMARK SMILES IDX 24 12 25 13 26 14 12 15 11 16 10 17 9 18 8 19 7 20 6 21 5 22
REMARK SMILES IDX 4 23 3 24 2 25 1 26
REMARK H PARENT
REMARK Flexibility Score: inf
ROOT
ATOM      1  C   UNL     1       5.915 -34.014  23.663  1.00  0.00     0.000 C 
ENDROOT
BRANCH   1   2
ATOM      2  C   UNL     1       5.295 -34.886  22.553  1.00  0.00     0.000 C 
BRANCH   2   3
ATOM      3  C   UNL     1       5.038 -34.177  21.210  1.00  0.00     0.000 C 
BRANCH   3   4
ATOM      4  C   UNL     1       6.108 -34.398  20.119  1.00  0.00     0.000 C 
BRANCH   4   5
ATOM      5  C   UNL     1       5.546 -34.645  18.705  1.00  0.00     0.000 C 
BRANCH   5   6
ATOM      6  C   UNL     1       4.964 -33.384  18.045  1.00  0.00     0.000 C 
BRANCH   6   7
ATOM      7  C   UNL     1       3.880 -33.705  17.001  1.00  0.00     0.000 C 
BRANCH   7   8
ATOM      8  C   UNL     1       3.745 -35.210  16.684  1.00  0.00     0.000 C 
BRANCH   8   9
ATOM      9  C   UNL     1       2.553 -35.512  15.757  1.00  0.00     0.000 C 
BRANCH   9  10
ATOM     10  C   UNL     1       2.975 -35.802  14.305  1.00  0.00     0.006 C 
BRANCH  10  11
ATOM     11  C   UNL     1       3.287 -37.286  14.032  1.00  0.00     0.053 C 
BRANCH  11  12
ATOM     12  C   UNL     1       4.756 -37.578  14.078  1.00  0.00     0.041 C 
ATOM     13  O   UNL     1       5.587 -36.636  14.150  1.00  0.00    -0.550 OA
ATOM     14  O   UNL     1       5.205 -38.892  14.079  1.00  0.00    -0.550 OA
ENDBRANCH  11  12
ENDBRANCH  10  11
ENDBRANCH   9  10
ENDBRANCH   8   9
ENDBRANCH   7   8
ENDBRANCH   6   7
ENDBRANCH   5   6
ENDBRANCH   4   5
ENDBRANCH   3   4
ENDBRANCH   2   3
ENDBRANCH   1   2
BRANCH   1  15
ATOM     15  C   UNL     1       6.046 -34.726  25.026  1.00  0.00     0.000 C 
BRANCH  15  16
ATOM     16  C   UNL     1       6.125 -36.254  24.891  1.00  0.00     0.000 C 
BRANCH  16  17
ATOM     17  C   UNL     1       6.080 -36.934  26.265  1.00  0.00     0.000 C 
BRANCH  17  18
ATOM     18  C   UNL     1       5.209 -38.197  26.223  1.00  0.00    -0.000 C 
BRANCH  18  19
ATOM     19  C   UNL     1       4.771 -38.576  24.798  1.00  0.00    -0.000 C 
BRANCH  19  20
ATOM     20  C   UNL     1       5.347 -39.924  24.314  1.00  0.00    -0.000 C 
BRANCH  20  21
ATOM     21  C   UNL     1       5.510 -39.969  22.785  1.00  0.00    -0.000 C 
BRANCH  21  22
ATOM     22  C   UNL     1       4.921 -38.734  22.086  1.00  0.00    -0.000 C 
BRANCH  22  23
ATOM     23  C   UNL     1       5.830 -38.191  20.972  1.00  0.00    -0.000 C 
BRANCH  23  24
ATOM     24  C   UNL     1       5.002 -37.766  19.748  1.00  0.00    -0.000 C 
BRANCH  24  25
ATOM     25  C   UNL     1       3.872 -36.788  20.109  1.00  0.00    -0.003 C 
ATOM     26  C   UNL     1       2.688 -36.871  19.144  1.00  0.00     0.004 C 
ENDBRANCH  24  25
ENDBRANCH  23  24
ENDBRANCH  22  23
ENDBRANCH  21  22
ENDBRANCH  20  21
ENDBRANCH  19  20
ENDBRANCH  18  19
ENDBRANCH  17  18
ENDBRANCH  16  17
ENDBRANCH  15  16
ENDBRANCH   1  15
TORSDOF 22
ENDMDL
MODEL 5
REMARK VINA RESULT:     2.362      3.651      5.578
REMARK INTER + INTRA:           3.850
REMARK INTER:                   4.999
REMARK INTRA:                  -1.149
REMARK UNBOUND:                -1.551
REMARK SMILES CCCCCCCCCCCCCCCCCCCCCCCC(=O)[O-]
REMARK SMILES IDX 13 1 14 2 15 3 16 4 17 5 18 6 19 7 20 8 21 9 22 10 23 11
REMARK SMILES IDX 24 12 25 13 26 14 12 15 11 16 10 17 9 18 8 19 7 20 6 21 5 22
REMARK SMILES IDX 4 23 3 24 2 25 1 26
REMARK H PARENT
REMARK Flexibility Score: inf
ROOT
ATOM      1  C   UNL     1       4.086 -34.544  21.747  1.00  0.00     0.000 C 
ENDROOT
BRANCH   1   2
ATOM      2  C   UNL     1       4.751 -33.844  22.949  1.00  0.00     0.000 C 
BRANCH   2   3
ATOM      3  C   UNL     1       6.125 -34.399  23.370  1.00  0.00     0.000 C 
BRANCH   3   4
ATOM      4  C   UNL     1       6.102 -35.746  24.124  1.00  0.00     0.000 C 
BRANCH   4   5
ATOM      5  C   UNL     1       5.924 -35.628  25.651  1.00  0.00     0.000 C 
BRANCH   5   6
ATOM      6  C   UNL     1       5.993 -36.978  26.384  1.00  0.00     0.000 C 
BRANCH   6   7
ATOM      7  C   UNL     1       4.714 -37.815  26.213  1.00  0.00     0.000 C 
BRANCH   7   8
ATOM      8  C   UNL     1       3.418 -36.974  26.177  1.00  0.00     0.000 C 
BRANCH   8   9
ATOM      9  C   UNL     1       2.674 -36.981  27.525  1.00  0.00     0.000 C 
BRANCH   9  10
ATOM     10  C   UNL     1       1.642 -35.846  27.652  1.00  0.00     0.006 C 
BRANCH  10  11
ATOM     11  C   UNL     1       2.211 -34.552  28.262  1.00  0.00     0.053 C 
BRANCH  11  12
ATOM     12  C   UNL     1       1.316 -33.977  29.318  1.00  0.00     0.041 C 
ATOM     13  O   UNL     1       0.153 -33.597  29.025  1.00  0.00    -0.550 OA
ATOM     14  O   UNL     1       1.754 -33.895  30.634  1.00  0.00    -0.550 OA
ENDBRANCH  11  12
ENDBRANCH  10  11
ENDBRANCH   9  10
ENDBRANCH   8   9
ENDBRANCH   7   8
ENDBRANCH   6   7
ENDBRANCH   5   6
ENDBRANCH   4   5
ENDBRANCH   3   4
ENDBRANCH   2   3
ENDBRANCH   1   2
BRANCH   1  15
ATOM     15  C   UNL     1       4.622 -34.083  20.374  1.00  0.00     0.000 C 
BRANCH  15  16
ATOM     16  C   UNL     1       5.718 -35.008  19.825  1.00  0.00     0.000 C 
BRANCH  16  17
ATOM     17  C   UNL     1       5.629 -36.405  20.453  1.00  0.00     0.000 C 
BRANCH  17  18
ATOM     18  C   UNL     1       4.952 -37.394  19.495  1.00  0.00    -0.000 C 
BRANCH  18  19
ATOM     19  C   UNL     1       3.780 -36.769  18.717  1.00  0.00    -0.000 C 
BRANCH  19  20
ATOM     20  C   UNL     1       2.394 -37.168  19.266  1.00  0.00    -0.000 C 
BRANCH  20  21
ATOM     21  C   UNL     1       1.260 -36.809  18.289  1.00  0.00    -0.000 C 
BRANCH  21  22
ATOM     22  C   UNL     1       1.707 -36.838  16.820  1.00  0.00    -0.000 C 
BRANCH  22  23
ATOM     23  C   UNL     1       2.114 -35.453  16.294  1.00  0.00    -0.000 C 
BRANCH  23  24
ATOM     24  C   UNL     1       3.592 -35.439  15.872  1.00  0.00    -0.000 C 
BRANCH  24  25
ATOM     25  C   UNL     1       3.797 -35.895  14.419  1.00  0.00    -0.003 C 
ATOM     26  C   UNL     1       4.175 -37.373  14.311  1.00  0.00     0.004 C 
ENDBRANCH  24  25
ENDBRANCH  23  24
ENDBRANCH  22  23
ENDBRANCH  21  22
ENDBRANCH  20  21
ENDBRANCH  19  20
ENDBRANCH  18  19
ENDBRANCH  17  18
ENDBRANCH  16  17
ENDBRANCH  15  16
ENDBRANCH   1  15
TORSDOF 22
ENDMDL
MODEL 6
REMARK VINA RESULT:     2.500      1.478      3.579
REMARK INTER + INTRA:           4.164
REMARK INTER:                   3.808
REMARK INTRA:                   0.356
REMARK UNBOUND:                -1.551
REMARK SMILES CCCCCCCCCCCCCCCCCCCCCCCC(=O)[O-]
REMARK SMILES IDX 13 1 14 2 15 3 16 4 17 5 18 6 19 7 20 8 21 9 22 10 23 11
REMARK SMILES IDX 24 12 25 13 26 14 12 15 11 16 10 17 9 18 8 19 7 20 6 21 5 22
REMARK SMILES IDX 4 23 3 24 2 25 1 26
REMARK H PARENT
REMARK Flexibility Score: inf
ROOT
ATOM      1  C   UNL     1       4.189 -34.323  21.494  1.00  0.00     0.000 C 
ENDROOT
BRANCH   1   2
ATOM      2  C   UNL     1       4.691 -33.836  22.869  1.00  0.00     0.000 C 
BRANCH   2   3
ATOM      3  C   UNL     1       6.088 -34.333  23.284  1.00  0.00     0.000 C 
BRANCH   3   4
ATOM      4  C   UNL     1       6.125 -35.678  24.041  1.00  0.00     0.000 C 
BRANCH   4   5
ATOM      5  C   UNL     1       5.373 -35.681  25.387  1.00  0.00     0.000 C 
BRANCH   5   6
ATOM      6  C   UNL     1       5.911 -36.716  26.390  1.00  0.00     0.000 C 
BRANCH   6   7
ATOM      7  C   UNL     1       4.985 -37.935  26.543  1.00  0.00     0.000 C 
BRANCH   7   8
ATOM      8  C   UNL     1       4.237 -38.317  25.247  1.00  0.00     0.000 C 
BRANCH   8   9
ATOM      9  C   UNL     1       4.980 -37.857  23.979  1.00  0.00     0.000 C 
BRANCH   9  10
ATOM     10  C   UNL     1       4.784 -38.807  22.784  1.00  0.00     0.006 C 
BRANCH  10  11
ATOM     11  C   UNL     1       5.997 -39.713  22.503  1.00  0.00     0.053 C 
BRANCH  11  12
ATOM     12  C   UNL     1       5.883 -41.046  23.177  1.00  0.00     0.041 C 
ATOM     13  O   UNL     1       5.992 -42.106  22.507  1.00  0.00    -0.550 OA
ATOM     14  O   UNL     1       5.695 -41.119  24.551  1.00  0.00    -0.550 OA
ENDBRANCH  11  12
ENDBRANCH  10  11
ENDBRANCH   9  10
ENDBRANCH   8   9
ENDBRANCH   7   8
ENDBRANCH   6   7
ENDBRANCH   5   6
ENDBRANCH   4   5
ENDBRANCH   3   4
ENDBRANCH   2   3
ENDBRANCH   1   2
BRANCH   1  15
ATOM     15  C   UNL     1       5.137 -33.991  20.322  1.00  0.00     0.000 C 
BRANCH  15  16
ATOM     16  C   UNL     1       6.081 -35.152  19.977  1.00  0.00     0.000 C 
BRANCH  16  17
ATOM     17  C   UNL     1       5.611 -36.459  20.626  1.00  0.00     0.000 C 
BRANCH  17  18
ATOM     18  C   UNL     1       5.375 -37.544  19.565  1.00  0.00    -0.000 C 
BRANCH  18  19
ATOM     19  C   UNL     1       4.584 -37.031  18.349  1.00  0.00    -0.000 C 
BRANCH  19  20
ATOM     20  C   UNL     1       3.054 -37.107  18.532  1.00  0.00    -0.000 C 
BRANCH  20  21
ATOM     21  C   UNL     1       2.301 -36.302  17.457  1.00  0.00    -0.000 C 
BRANCH  21  22
ATOM     22  C   UNL     1       3.246 -35.567  16.494  1.00  0.00    -0.000 C 
BRANCH  22  23
ATOM     23  C   UNL     1       3.071 -36.013  15.034  1.00  0.00    -0.000 C 
BRANCH  23  24
ATOM     24  C   UNL     1       4.425 -36.048  14.306  1.00  0.00    -0.000 C 
BRANCH  24  25
ATOM     25  C   UNL     1       4.828 -37.467  13.875  1.00  0.00    -0.003 C 
ATOM     26  C   UNL     1       4.107 -38.555  14.672  1.00  0.00     0.004 C 
ENDBRANCH  24  25
ENDBRANCH  23  24
ENDBRANCH  22  23
ENDBRANCH  21  22
ENDBRANCH  20  21
ENDBRANCH  19  20
ENDBRANCH  18  19
ENDBRANCH  17  18
ENDBRANCH  16  17
ENDBRANCH  15  16
ENDBRANCH   1  15
TORSDOF 22
ENDMDL
MODEL 7
REMARK VINA RESULT:     2.506      2.412      4.685
REMARK INTER + INTRA:           4.179
REMARK INTER:                   4.829
REMARK INTRA:                  -0.650
REMARK UNBOUND:                -1.551
REMARK SMILES CCCCCCCCCCCCCCCCCCCCCCCC(=O)[O-]
REMARK SMILES IDX 13 1 14 2 15 3 16 4 17 5 18 6 19 7 20 8 21 9 22 10 23 11
REMARK SMILES IDX 24 12 25 13 26 14 12 15 11 16 10 17 9 18 8 19 7 20 6 21 5 22
REMARK SMILES IDX 4 23 3 24 2 25 1 26
REMARK H PARENT
REMARK Flexibility Score: inf
ROOT
ATOM      1  C   UNL     1       5.756 -34.961  22.670  1.00  0.00     0.000 C 
ENDROOT
BRANCH   1   2
ATOM      2  C   UNL     1       6.104 -34.016  23.838  1.00  0.00     0.000 C 
BRANCH   2   3
ATOM      3  C   UNL     1       5.782 -34.548  25.247  1.00  0.00     0.000 C 
BRANCH   3   4
ATOM      4  C   UNL     1       6.124 -36.033  25.497  1.00  0.00     0.000 C 
BRANCH   4   5
ATOM      5  C   UNL     1       5.030 -36.833  26.231  1.00  0.00     0.000 C 
BRANCH   5   6
ATOM      6  C   UNL     1       4.672 -38.161  25.542  1.00  0.00     0.000 C 
BRANCH   6   7
ATOM      7  C   UNL     1       5.251 -38.269  24.121  1.00  0.00     0.000 C 
BRANCH   7   8
ATOM      8  C   UNL     1       5.452 -39.723  23.638  1.00  0.00     0.000 C 
BRANCH   8   9
ATOM      9  C   UNL     1       5.719 -39.809  22.124  1.00  0.00     0.000 C 
BRANCH   9  10
ATOM     10  C   UNL     1       6.111 -38.457  21.501  1.00  0.00     0.006 C 
BRANCH  10  11
ATOM     11  C   UNL     1       5.789 -38.347  19.999  1.00  0.00     0.053 C 
BRANCH  11  12
ATOM     12  C   UNL     1       4.530 -37.577  19.739  1.00  0.00     0.041 C 
ATOM     13  O   UNL     1       3.730 -37.335  20.680  1.00  0.00    -0.550 OA
ATOM     14  O   UNL     1       4.258 -37.094  18.465  1.00  0.00    -0.550 OA
ENDBRANCH  11  12
ENDBRANCH  10  11
ENDBRANCH   9  10
ENDBRANCH   8   9
ENDBRANCH   7   8
ENDBRANCH   6   7
ENDBRANCH   5   6
ENDBRANCH   4   5
ENDBRANCH   3   4
ENDBRANCH   2   3
ENDBRANCH   1   2
BRANCH   1  15
ATOM     15  C   UNL     1       4.428 -34.623  21.959  1.00  0.00     0.000 C 
BRANCH  15  16
ATOM     16  C   UNL     1       4.641 -33.996  20.574  1.00  0.00     0.000 C 
BRANCH  16  17
ATOM     17  C   UNL     1       5.930 -34.514  19.924  1.00  0.00     0.000 C 
BRANCH  17  18
ATOM     18  C   UNL     1       5.867 -34.379  18.396  1.00  0.00    -0.000 C 
BRANCH  18  19
ATOM     19  C   UNL     1       4.542 -33.771  17.903  1.00  0.00    -0.000 C 
BRANCH  19  20
ATOM     20  C   UNL     1       4.130 -34.253  16.496  1.00  0.00    -0.000 C 
BRANCH  20  21
ATOM     21  C   UNL     1       4.437 -35.745  16.281  1.00  0.00    -0.000 C 
BRANCH  21  22
ATOM     22  C   UNL     1       3.546 -36.388  15.206  1.00  0.00    -0.000 C 
BRANCH  22  23
ATOM     23  C   UNL     1       2.236 -35.619  14.982  1.00  0.00    -0.000 C 
BRANCH  23  24
ATOM     24  C   UNL     1       1.373 -35.621  16.254  1.00  0.00    -0.000 C 
BRANCH  24  25
ATOM     25  C   UNL     1       1.536 -36.909  17.077  1.00  0.00    -0.003 C 
ATOM     26  C   UNL     1       0.729 -36.888  18.375  1.00  0.00     0.004 C 
ENDBRANCH  24  25
ENDBRANCH  23  24
ENDBRANCH  22  23
ENDBRANCH  21  22
ENDBRANCH  20  21
ENDBRANCH  19  20
ENDBRANCH  18  19
ENDBRANCH  17  18
ENDBRANCH  16  17
ENDBRANCH  15  16
ENDBRANCH   1  15
TORSDOF 22
ENDMDL
MODEL 8
REMARK VINA RESULT:     2.629      2.564      4.652
REMARK INTER + INTRA:           4.459
REMARK INTER:                   1.944
REMARK INTRA:                   2.515
REMARK UNBOUND:                -1.551
REMARK SMILES CCCCCCCCCCCCCCCCCCCCCCCC(=O)[O-]
REMARK SMILES IDX 13 1 14 2 15 3 16 4 17 5 18 6 19 7 20 8 21 9 22 10 23 11
REMARK SMILES IDX 24 12 25 13 26 14 12 15 11 16 10 17 9 18 8 19 7 20 6 21 5 22
REMARK SMILES IDX 4 23 3 24 2 25 1 26
REMARK H PARENT
REMARK Flexibility Score: inf
ROOT
ATOM      1  C   UNL     1       5.040 -38.544  21.646  1.00  0.00     0.000 C 
ENDROOT
BRANCH   1   2
ATOM      2  C   UNL     1       5.932 -39.776  21.900  1.00  0.00     0.000 C 
BRANCH   2   3
ATOM      3  C   UNL     1       5.466 -40.717  23.026  1.00  0.00     0.000 C 
BRANCH   3   4
ATOM      4  C   UNL     1       5.535 -40.138  24.456  1.00  0.00     0.000 C 
BRANCH   4   5
ATOM      5  C   UNL     1       5.010 -38.696  24.595  1.00  0.00     0.000 C 
BRANCH   5   6
ATOM      6  C   UNL     1       5.239 -38.089  25.989  1.00  0.00     0.000 C 
BRANCH   6   7
ATOM      7  C   UNL     1       6.125 -36.831  25.953  1.00  0.00     0.000 C 
BRANCH   7   8
ATOM      8  C   UNL     1       5.976 -35.999  24.660  1.00  0.00     0.000 C 
BRANCH   8   9
ATOM      9  C   UNL     1       5.973 -34.484  24.932  1.00  0.00     0.000 C 
BRANCH   9  10
ATOM     10  C   UNL     1       5.427 -33.659  23.753  1.00  0.00     0.006 C 
BRANCH  10  11
ATOM     11  C   UNL     1       4.622 -34.487  22.734  1.00  0.00     0.053 C 
BRANCH  11  12
ATOM     12  C   UNL     1       3.773 -33.630  21.844  1.00  0.00     0.041 C 
ATOM     13  O   UNL     1       4.251 -33.150  20.783  1.00  0.00    -0.550 OA
ATOM     14  O   UNL     1       2.443 -33.392  22.168  1.00  0.00    -0.550 OA
ENDBRANCH  11  12
ENDBRANCH  10  11
ENDBRANCH   9  10
ENDBRANCH   8   9
ENDBRANCH   7   8
ENDBRANCH   6   7
ENDBRANCH   5   6
ENDBRANCH   4   5
ENDBRANCH   3   4
ENDBRANCH   2   3
ENDBRANCH   1   2
BRANCH   1  15
ATOM     15  C   UNL     1       5.393 -37.764  20.361  1.00  0.00     0.000 C 
BRANCH  15  16
ATOM     16  C   UNL     1       5.437 -36.245  20.583  1.00  0.00     0.000 C 
BRANCH  16  17
ATOM     17  C   UNL     1       5.718 -35.503  19.270  1.00  0.00     0.000 C 
BRANCH  17  18
ATOM     18  C   UNL     1       4.417 -35.241  18.499  1.00  0.00    -0.000 C 
BRANCH  18  19
ATOM     19  C   UNL     1       3.917 -36.476  17.730  1.00  0.00    -0.000 C 
BRANCH  19  20
ATOM     20  C   UNL     1       2.562 -37.013  18.240  1.00  0.00    -0.000 C 
BRANCH  20  21
ATOM     21  C   UNL     1       1.383 -36.514  17.386  1.00  0.00    -0.000 C 
BRANCH  21  22
ATOM     22  C   UNL     1       1.837 -35.789  16.109  1.00  0.00    -0.000 C 
BRANCH  22  23
ATOM     23  C   UNL     1       3.309 -36.060  15.763  1.00  0.00    -0.000 C 
BRANCH  23  24
ATOM     24  C   UNL     1       3.498 -36.202  14.244  1.00  0.00    -0.000 C 
BRANCH  24  25
ATOM     25  C   UNL     1       4.815 -36.902  13.875  1.00  0.00    -0.003 C 
ATOM     26  C   UNL     1       4.748 -38.420  14.050  1.00  0.00     0.004 C 
ENDBRANCH  24  25
ENDBRANCH  23  24
ENDBRANCH  22  23
ENDBRANCH  21  22
ENDBRANCH  20  21
ENDBRANCH  19  20
ENDBRANCH  18  19
ENDBRANCH  17  18
ENDBRANCH  16  17
ENDBRANCH  15  16
ENDBRANCH   1  15
TORSDOF 22
ENDMDL
