MODEL 1
REMARK VINA RESULT:    -6.655      0.000      0.000
REMARK INTER + INTRA:          -8.351
REMARK INTER:                  -8.016
REMARK INTRA:                  -0.335
REMARK UNBOUND:                -0.335
REMARK SMILES O=c1c(O)c(-c2ccc(O)c(O)c2)oc2cc(O)cc(O)c12
REMARK SMILES IDX 5 1 3 2 2 3 1 4 22 5 20 6 19 7 17 8 16 9 15 10 14 11 6 12
REMARK SMILES IDX 7 13 8 14 9 15 13 16 11 17 10 18 12 20 4 22 21 24 18 26
REMARK H PARENT 10 19 12 21 4 23 21 25 18 27
REMARK Flexibility Score: inf
ROOT
ATOM      1  C   UNL     1      56.412  -2.636  20.408  1.00  0.00     0.180 A 
ATOM      2  C   UNL     1      55.943  -3.929  20.699  1.00  0.00     0.208 A 
ATOM      3  C   UNL     1      55.039  -4.103  21.759  1.00  0.00     0.238 A 
ATOM      4  O   UNL     1      54.581  -5.255  21.979  1.00  0.00    -0.285 OA
ATOM      5  C   UNL     1      54.629  -2.987  22.525  1.00  0.00     0.111 A 
ATOM      6  C   UNL     1      53.749  -3.053  23.648  1.00  0.00     0.134 A 
ATOM      7  C   UNL     1      53.308  -1.868  24.250  1.00  0.00     0.093 A 
ATOM      8  C   UNL     1      53.767  -0.622  23.813  1.00  0.00     0.123 A 
ATOM      9  C   UNL     1      54.672  -0.551  22.757  1.00  0.00     0.094 A 
ATOM     10  C   UNL     1      55.102  -1.714  22.112  1.00  0.00     0.146 A 
ATOM     11  O   UNL     1      55.958  -1.600  21.103  1.00  0.00    -0.452 OA
ENDROOT
BRANCH   1  12
ATOM     12  C   UNL     1      57.385  -2.376  19.322  1.00  0.00     0.025 A 
ATOM     13  C   UNL     1      58.771  -2.437  19.551  1.00  0.00     0.016 A 
ATOM     14  C   UNL     1      59.670  -2.164  18.518  1.00  0.00     0.051 A 
ATOM     15  C   UNL     1      59.202  -1.814  17.247  1.00  0.00     0.157 A 
ATOM     16  C   UNL     1      56.919  -2.004  18.050  1.00  0.00     0.062 A 
ATOM     17  C   UNL     1      57.820  -1.731  17.011  1.00  0.00     0.158 A 
BRANCH  15  18
ATOM     18  O   UNL     1      60.125  -1.550  16.234  1.00  0.00    -0.504 OA
ATOM     19  H   UNL     1      59.837  -1.347  15.284  1.00  0.00     0.293 HD
ENDBRANCH  15  18
BRANCH  17  20
ATOM     20  O   UNL     1      57.347  -1.376  15.749  1.00  0.00    -0.504 OA
ATOM     21  H   UNL     1      56.611  -1.900  15.291  1.00  0.00     0.293 HD
ENDBRANCH  17  20
ENDBRANCH   1  12
BRANCH   2  22
ATOM     22  O   UNL     1      56.344  -5.015  19.916  1.00  0.00    -0.502 OA
ATOM     23  H   UNL     1      56.244  -5.027  18.908  1.00  0.00     0.293 HD
ENDBRANCH   2  22
BRANCH   6  24
ATOM     24  O   UNL     1      53.304  -4.248  24.220  1.00  0.00    -0.507 OA
ATOM     25  H   UNL     1      53.798  -4.762  24.933  1.00  0.00     0.293 HD
ENDBRANCH   6  24
BRANCH   8  26
ATOM     26  O   UNL     1      53.335   0.550  24.428  1.00  0.00    -0.508 OA
ATOM     27  H   UNL     1      53.245   1.418  23.911  1.00  0.00     0.293 HD
ENDBRANCH   8  26
TORSDOF 6
ENDMDL
MODEL 2
REMARK VINA RESULT:    -6.584     15.088     16.559
REMARK INTER + INTRA:          -8.265
REMARK INTER:                  -7.937
REMARK INTRA:                  -0.328
REMARK UNBOUND:                -0.335
REMARK SMILES O=c1c(O)c(-c2ccc(O)c(O)c2)oc2cc(O)cc(O)c12
REMARK SMILES IDX 5 1 3 2 2 3 1 4 22 5 20 6 19 7 17 8 16 9 15 10 14 11 6 12
REMARK SMILES IDX 7 13 8 14 9 15 13 16 11 17 10 18 12 20 4 22 21 24 18 26
REMARK H PARENT 10 19 12 21 4 23 21 25 18 27
REMARK Flexibility Score: inf
ROOT
ATOM      1  C   UNL     1      44.122   7.784  15.709  1.00  0.00     0.180 A 
ATOM      2  C   UNL     1      42.815   8.174  15.368  1.00  0.00     0.208 A 
ATOM      3  C   UNL     1      41.845   8.263  16.380  1.00  0.00     0.238 A 
ATOM      4  O   UNL     1      40.692   8.666  16.077  1.00  0.00    -0.285 OA
ATOM      5  C   UNL     1      42.190   7.946  17.715  1.00  0.00     0.111 A 
ATOM      6  C   UNL     1      41.278   7.962  18.814  1.00  0.00     0.134 A 
ATOM      7  C   UNL     1      41.759   7.757  20.113  1.00  0.00     0.093 A 
ATOM      8  C   UNL     1      43.106   7.471  20.347  1.00  0.00     0.123 A 
ATOM      9  C   UNL     1      43.992   7.394  19.275  1.00  0.00     0.094 A 
ATOM     10  C   UNL     1      43.550   7.630  17.971  1.00  0.00     0.146 A 
ATOM     11  O   UNL     1      44.430   7.556  16.980  1.00  0.00    -0.452 OA
ENDROOT
BRANCH   1  12
ATOM     12  C   UNL     1      45.192   7.643  14.694  1.00  0.00     0.025 A 
ATOM     13  C   UNL     1      45.349   6.456  13.957  1.00  0.00     0.016 A 
ATOM     14  C   UNL     1      46.381   6.336  13.023  1.00  0.00     0.051 A 
ATOM     15  C   UNL     1      47.277   7.391  12.819  1.00  0.00     0.157 A 
ATOM     16  C   UNL     1      46.106   8.692  14.503  1.00  0.00     0.062 A 
ATOM     17  C   UNL     1      47.142   8.574  13.564  1.00  0.00     0.158 A 
BRANCH  15  18
ATOM     18  O   UNL     1      48.295   7.243  11.877  1.00  0.00    -0.504 OA
ATOM     19  H   UNL     1      48.346   7.820  11.045  1.00  0.00     0.293 HD
ENDBRANCH  15  18
BRANCH  17  20
ATOM     20  O   UNL     1      48.036   9.627  13.372  1.00  0.00    -0.504 OA
ATOM     21  H   UNL     1      47.783  10.445  12.830  1.00  0.00     0.293 HD
ENDBRANCH  17  20
ENDBRANCH   1  12
BRANCH   2  22
ATOM     22  O   UNL     1      42.502   8.504  14.047  1.00  0.00    -0.502 OA
ATOM     23  H   UNL     1      43.205   8.579  13.323  1.00  0.00     0.293 HD
ENDBRANCH   2  22
BRANCH   6  24
ATOM     24  O   UNL     1      39.899   8.148  18.680  1.00  0.00    -0.507 OA
ATOM     25  H   UNL     1      39.233   8.077  19.434  1.00  0.00     0.293 HD
ENDBRANCH   6  24
BRANCH   8  26
ATOM     26  O   UNL     1      43.572   7.253  21.641  1.00  0.00    -0.508 OA
ATOM     27  H   UNL     1      44.110   7.955  22.136  1.00  0.00     0.293 HD
ENDBRANCH   8  26
TORSDOF 6
ENDMDL
MODEL 3
REMARK VINA RESULT:    -6.183      1.930      7.205
REMARK INTER + INTRA:          -7.782
REMARK INTER:                  -7.450
REMARK INTRA:                  -0.332
REMARK UNBOUND:                -0.335
REMARK SMILES O=c1c(O)c(-c2ccc(O)c(O)c2)oc2cc(O)cc(O)c12
REMARK SMILES IDX 5 1 3 2 2 3 1 4 22 5 20 6 19 7 17 8 16 9 15 10 14 11 6 12
REMARK SMILES IDX 7 13 8 14 9 15 13 16 11 17 10 18 12 20 4 22 21 24 18 26
REMARK H PARENT 10 19 12 21 4 23 21 25 18 27
REMARK Flexibility Score: inf
ROOT
ATOM      1  C   UNL     1      56.424  -2.507  18.927  1.00  0.00     0.180 A 
ATOM      2  C   UNL     1      57.823  -2.504  18.796  1.00  0.00     0.208 A 
ATOM      3  C   UNL     1      58.389  -2.255  17.535  1.00  0.00     0.238 A 
ATOM      4  O   UNL     1      59.642  -2.199  17.436  1.00  0.00    -0.285 OA
ATOM      5  C   UNL     1      57.549  -2.029  16.419  1.00  0.00     0.111 A 
ATOM      6  C   UNL     1      58.013  -1.806  15.087  1.00  0.00     0.134 A 
ATOM      7  C   UNL     1      57.097  -1.464  14.085  1.00  0.00     0.093 A 
ATOM      8  C   UNL     1      55.727  -1.400  14.352  1.00  0.00     0.123 A 
ATOM      9  C   UNL     1      55.259  -1.674  15.634  1.00  0.00     0.094 A 
ATOM     10  C   UNL     1      56.152  -1.983  16.663  1.00  0.00     0.146 A 
ATOM     11  O   UNL     1      55.664  -2.227  17.874  1.00  0.00    -0.452 OA
ENDROOT
BRANCH   1  12
ATOM     12  C   UNL     1      55.753  -2.787  20.217  1.00  0.00     0.025 A 
ATOM     13  C   UNL     1      55.464  -4.102  20.623  1.00  0.00     0.016 A 
ATOM     14  C   UNL     1      54.809  -4.341  21.833  1.00  0.00     0.051 A 
ATOM     15  C   UNL     1      54.422  -3.274  22.650  1.00  0.00     0.157 A 
ATOM     16  C   UNL     1      55.344  -1.717  21.030  1.00  0.00     0.062 A 
ATOM     17  C   UNL     1      54.687  -1.954  22.247  1.00  0.00     0.158 A 
BRANCH  15  18
ATOM     18  O   UNL     1      53.771  -3.544  23.854  1.00  0.00    -0.504 OA
ATOM     19  H   UNL     1      54.264  -3.911  24.660  1.00  0.00     0.293 HD
ENDBRANCH  15  18
BRANCH  17  20
ATOM     20  O   UNL     1      54.297  -0.886  23.052  1.00  0.00    -0.504 OA
ATOM     21  H   UNL     1      53.373  -0.844  23.467  1.00  0.00     0.293 HD
ENDBRANCH  17  20
ENDBRANCH   1  12
BRANCH   2  22
ATOM     22  O   UNL     1      58.634  -2.709  19.916  1.00  0.00    -0.502 OA
ATOM     23  H   UNL     1      59.618  -2.471  19.925  1.00  0.00     0.293 HD
ENDBRANCH   2  22
BRANCH   6  24
ATOM     24  O   UNL     1      59.349  -1.935  14.695  1.00  0.00    -0.507 OA
ATOM     25  H   UNL     1      59.657  -2.112  13.751  1.00  0.00     0.293 HD
ENDBRANCH   6  24
BRANCH   8  26
ATOM     26  O   UNL     1      54.821  -1.074  13.345  1.00  0.00    -0.508 OA
ATOM     27  H   UNL     1      54.959  -0.266  12.749  1.00  0.00     0.293 HD
ENDBRANCH   8  26
TORSDOF 6
ENDMDL
MODEL 4
REMARK VINA RESULT:    -6.090     15.718     17.702
REMARK INTER + INTRA:          -7.671
REMARK INTER:                  -7.544
REMARK INTRA:                  -0.127
REMARK UNBOUND:                -0.335
REMARK SMILES O=c1c(O)c(-c2ccc(O)c(O)c2)oc2cc(O)cc(O)c12
REMARK SMILES IDX 5 1 3 2 2 3 1 4 22 5 20 6 19 7 17 8 16 9 15 10 14 11 6 12
REMARK SMILES IDX 7 13 8 14 9 15 13 16 11 17 10 18 12 20 4 22 21 24 18 26
REMARK H PARENT 10 19 12 21 4 23 21 25 18 27
REMARK Flexibility Score: inf
ROOT
ATOM      1  C   UNL     1      43.219   7.310  16.937  1.00  0.00     0.180 A 
ATOM      2  C   UNL     1      42.665   6.411  16.010  1.00  0.00     0.208 A 
ATOM      3  C   UNL     1      43.187   6.369  14.707  1.00  0.00     0.238 A 
ATOM      4  O   UNL     1      42.724   5.523  13.898  1.00  0.00    -0.285 OA
ATOM      5  C   UNL     1      44.244   7.237  14.343  1.00  0.00     0.111 A 
ATOM      6  C   UNL     1      44.822   7.309  13.039  1.00  0.00     0.134 A 
ATOM      7  C   UNL     1      45.949   8.113  12.828  1.00  0.00     0.093 A 
ATOM      8  C   UNL     1      46.479   8.897  13.856  1.00  0.00     0.123 A 
ATOM      9  C   UNL     1      45.885   8.879  15.115  1.00  0.00     0.094 A 
ATOM     10  C   UNL     1      44.782   8.060  15.367  1.00  0.00     0.146 A 
ATOM     11  O   UNL     1      44.252   8.066  16.585  1.00  0.00    -0.452 OA
ENDROOT
BRANCH   1  12
ATOM     12  C   UNL     1      42.707   7.430  18.322  1.00  0.00     0.025 A 
ATOM     13  C   UNL     1      41.365   7.762  18.580  1.00  0.00     0.016 A 
ATOM     14  C   UNL     1      40.909   7.894  19.893  1.00  0.00     0.051 A 
ATOM     15  C   UNL     1      41.786   7.709  20.968  1.00  0.00     0.157 A 
ATOM     16  C   UNL     1      43.588   7.265  19.403  1.00  0.00     0.062 A 
ATOM     17  C   UNL     1      43.133   7.396  20.723  1.00  0.00     0.158 A 
BRANCH  15  18
ATOM     18  O   UNL     1      41.301   7.844  22.269  1.00  0.00    -0.504 OA
ATOM     19  H   UNL     1      40.440   8.339  22.473  1.00  0.00     0.293 HD
ENDBRANCH  15  18
BRANCH  17  20
ATOM     20  O   UNL     1      44.013   7.217  21.789  1.00  0.00    -0.504 OA
ATOM     21  H   UNL     1      44.758   6.530  21.753  1.00  0.00     0.293 HD
ENDBRANCH  17  20
ENDBRANCH   1  12
BRANCH   2  22
ATOM     22  O   UNL     1      41.637   5.546  16.396  1.00  0.00    -0.502 OA
ATOM     23  H   UNL     1      41.297   4.804  15.798  1.00  0.00     0.293 HD
ENDBRANCH   2  22
BRANCH   6  24
ATOM     24  O   UNL     1      44.315   6.638  11.924  1.00  0.00    -0.507 OA
ATOM     25  H   UNL     1      43.335   6.558  11.697  1.00  0.00     0.293 HD
ENDBRANCH   6  24
BRANCH   8  26
ATOM     26  O   UNL     1      47.591   9.706  13.632  1.00  0.00    -0.508 OA
ATOM     27  H   UNL     1      47.658  10.637  14.027  1.00  0.00     0.293 HD
ENDBRANCH   8  26
TORSDOF 6
ENDMDL
MODEL 5
REMARK VINA RESULT:    -5.877     15.140     17.700
REMARK INTER + INTRA:          -7.414
REMARK INTER:                  -7.097
REMARK INTRA:                  -0.317
REMARK UNBOUND:                -0.335
REMARK SMILES O=c1c(O)c(-c2ccc(O)c(O)c2)oc2cc(O)cc(O)c12
REMARK SMILES IDX 5 1 3 2 2 3 1 4 22 5 20 6 19 7 17 8 16 9 15 10 14 11 6 12
REMARK SMILES IDX 7 13 8 14 9 15 13 16 11 17 10 18 12 20 4 22 21 24 18 26
REMARK H PARENT 10 19 12 21 4 23 21 25 18 27
REMARK Flexibility Score: inf
ROOT
ATOM      1  C   UNL     1      43.883   7.624  15.955  1.00  0.00     0.180 A 
ATOM      2  C   UNL     1      44.716   8.724  15.690  1.00  0.00     0.208 A 
ATOM      3  C   UNL     1      45.711   8.604  14.705  1.00  0.00     0.238 A 
ATOM      4  O   UNL     1      46.417   9.610  14.435  1.00  0.00    -0.285 OA
ATOM      5  C   UNL     1      45.869   7.382  14.010  1.00  0.00     0.111 A 
ATOM      6  C   UNL     1      46.870   7.135  13.022  1.00  0.00     0.134 A 
ATOM      7  C   UNL     1      46.850   5.931  12.306  1.00  0.00     0.093 A 
ATOM      8  C   UNL     1      45.908   4.939  12.588  1.00  0.00     0.123 A 
ATOM      9  C   UNL     1      44.965   5.147  13.592  1.00  0.00     0.094 A 
ATOM     10  C   UNL     1      44.936   6.351  14.299  1.00  0.00     0.146 A 
ATOM     11  O   UNL     1      44.013   6.512  15.241  1.00  0.00    -0.452 OA
ENDROOT
BRANCH   1  12
ATOM     12  C   UNL     1      42.829   7.666  16.995  1.00  0.00     0.025 A 
ATOM     13  C   UNL     1      41.504   8.017  16.681  1.00  0.00     0.016 A 
ATOM     14  C   UNL     1      40.532   8.074  17.683  1.00  0.00     0.051 A 
ATOM     15  C   UNL     1      40.869   7.794  19.011  1.00  0.00     0.157 A 
ATOM     16  C   UNL     1      43.168   7.406  18.333  1.00  0.00     0.062 A 
ATOM     17  C   UNL     1      42.193   7.461  19.340  1.00  0.00     0.158 A 
BRANCH  15  18
ATOM     18  O   UNL     1      39.876   7.856  19.989  1.00  0.00    -0.504 OA
ATOM     19  H   UNL     1      40.096   7.942  20.975  1.00  0.00     0.293 HD
ENDBRANCH  15  18
BRANCH  17  20
ATOM     20  O   UNL     1      42.537   7.188  20.663  1.00  0.00    -0.504 OA
ATOM     21  H   UNL     1      41.975   7.524  21.438  1.00  0.00     0.293 HD
ENDBRANCH  17  20
ENDBRANCH   1  12
BRANCH   2  22
ATOM     22  O   UNL     1      44.528   9.929  16.372  1.00  0.00    -0.502 OA
ATOM     23  H   UNL     1      45.299  10.527  16.643  1.00  0.00     0.293 HD
ENDBRANCH   2  22
BRANCH   6  24
ATOM     24  O   UNL     1      47.910   8.020  12.728  1.00  0.00    -0.507 OA
ATOM     25  H   UNL     1      47.810   9.022  12.660  1.00  0.00     0.293 HD
ENDBRANCH   6  24
BRANCH   8  26
ATOM     26  O   UNL     1      45.906   3.739  11.882  1.00  0.00    -0.508 OA
ATOM     27  H   UNL     1      46.769   3.304  11.574  1.00  0.00     0.293 HD
ENDBRANCH   8  26
TORSDOF 6
ENDMDL
MODEL 6
REMARK VINA RESULT:    -5.812      5.619      7.916
REMARK INTER + INTRA:          -7.336
REMARK INTER:                  -7.100
REMARK INTRA:                  -0.236
REMARK UNBOUND:                -0.335
REMARK SMILES O=c1c(O)c(-c2ccc(O)c(O)c2)oc2cc(O)cc(O)c12
REMARK SMILES IDX 5 1 3 2 2 3 1 4 22 5 20 6 19 7 17 8 16 9 15 10 14 11 6 12
REMARK SMILES IDX 7 13 8 14 9 15 13 16 11 17 10 18 12 20 4 22 21 24 18 26
REMARK H PARENT 10 19 12 21 4 23 21 25 18 27
REMARK Flexibility Score: inf
ROOT
ATOM      1  C   UNL     1      52.933  -4.667  17.753  1.00  0.00     0.180 A 
ATOM      2  C   UNL     1      53.768  -4.663  16.622  1.00  0.00     0.208 A 
ATOM      3  C   UNL     1      53.226  -5.015  15.375  1.00  0.00     0.238 A 
ATOM      4  O   UNL     1      53.964  -4.956  14.358  1.00  0.00    -0.285 OA
ATOM      5  C   UNL     1      51.862  -5.381  15.278  1.00  0.00     0.111 A 
ATOM      6  C   UNL     1      51.218  -5.795  14.072  1.00  0.00     0.134 A 
ATOM      7  C   UNL     1      49.835  -6.009  14.068  1.00  0.00     0.093 A 
ATOM      8  C   UNL     1      49.082  -5.888  15.240  1.00  0.00     0.123 A 
ATOM      9  C   UNL     1      49.712  -5.543  16.432  1.00  0.00     0.094 A 
ATOM     10  C   UNL     1      51.085  -5.288  16.462  1.00  0.00     0.146 A 
ATOM     11  O   UNL     1      51.644  -4.952  17.619  1.00  0.00    -0.452 OA
ENDROOT
BRANCH   1  12
ATOM     12  C   UNL     1      53.437  -4.333  19.105  1.00  0.00     0.025 A 
ATOM     13  C   UNL     1      53.579  -5.318  20.098  1.00  0.00     0.016 A 
ATOM     14  C   UNL     1      54.033  -4.975  21.374  1.00  0.00     0.051 A 
ATOM     15  C   UNL     1      54.339  -3.646  21.682  1.00  0.00     0.157 A 
ATOM     16  C   UNL     1      53.725  -2.995  19.425  1.00  0.00     0.062 A 
ATOM     17  C   UNL     1      54.182  -2.649  20.705  1.00  0.00     0.158 A 
BRANCH  15  18
ATOM     18  O   UNL     1      54.793  -3.335  22.964  1.00  0.00    -0.504 OA
ATOM     19  H   UNL     1      54.290  -2.700  23.573  1.00  0.00     0.293 HD
ENDBRANCH  15  18
BRANCH  17  20
ATOM     20  O   UNL     1      54.479  -1.321  21.008  1.00  0.00    -0.504 OA
ATOM     21  H   UNL     1      54.227  -0.565  20.382  1.00  0.00     0.293 HD
ENDBRANCH  17  20
ENDBRANCH   1  12
BRANCH   2  22
ATOM     22  O   UNL     1      55.106  -4.277  16.737  1.00  0.00    -0.502 OA
ATOM     23  H   UNL     1      55.679  -4.529  17.532  1.00  0.00     0.293 HD
ENDBRANCH   2  22
BRANCH   6  24
ATOM     24  O   UNL     1      51.891  -6.033  12.871  1.00  0.00    -0.507 OA
ATOM     25  H   UNL     1      52.321  -6.909  12.617  1.00  0.00     0.293 HD
ENDBRANCH   6  24
BRANCH   8  26
ATOM     26  O   UNL     1      47.708  -6.118  15.229  1.00  0.00    -0.508 OA
ATOM     27  H   UNL     1      47.313  -6.948  14.802  1.00  0.00     0.293 HD
ENDBRANCH   8  26
TORSDOF 6
ENDMDL
MODEL 7
REMARK VINA RESULT:    -5.686      6.421      8.165
REMARK INTER + INTRA:          -7.184
REMARK INTER:                  -6.917
REMARK INTRA:                  -0.267
REMARK UNBOUND:                -0.335
REMARK SMILES O=c1c(O)c(-c2ccc(O)c(O)c2)oc2cc(O)cc(O)c12
REMARK SMILES IDX 5 1 3 2 2 3 1 4 22 5 20 6 19 7 17 8 16 9 15 10 14 11 6 12
REMARK SMILES IDX 7 13 8 14 9 15 13 16 11 17 10 18 12 20 4 22 21 24 18 26
REMARK H PARENT 10 19 12 21 4 23 21 25 18 27
REMARK Flexibility Score: inf
ROOT
ATOM      1  C   UNL     1      51.562  -4.808  16.548  1.00  0.00     0.180 A 
ATOM      2  C   UNL     1      52.700  -4.625  15.743  1.00  0.00     0.208 A 
ATOM      3  C   UNL     1      53.968  -4.632  16.347  1.00  0.00     0.238 A 
ATOM      4  O   UNL     1      54.986  -4.523  15.614  1.00  0.00    -0.285 OA
ATOM      5  C   UNL     1      54.081  -4.804  17.747  1.00  0.00     0.111 A 
ATOM      6  C   UNL     1      55.313  -4.787  18.469  1.00  0.00     0.134 A 
ATOM      7  C   UNL     1      55.316  -5.098  19.834  1.00  0.00     0.093 A 
ATOM      8  C   UNL     1      54.126  -5.361  20.517  1.00  0.00     0.123 A 
ATOM      9  C   UNL     1      52.914  -5.322  19.834  1.00  0.00     0.094 A 
ATOM     10  C   UNL     1      52.881  -5.050  18.464  1.00  0.00     0.146 A 
ATOM     11  O   UNL     1      51.704  -5.032  17.849  1.00  0.00    -0.452 OA
ENDROOT
BRANCH   1  12
ATOM     12  C   UNL     1      50.190  -4.788  15.989  1.00  0.00     0.025 A 
ATOM     13  C   UNL     1      49.472  -5.977  15.769  1.00  0.00     0.016 A 
ATOM     14  C   UNL     1      48.189  -5.936  15.218  1.00  0.00     0.051 A 
ATOM     15  C   UNL     1      47.609  -4.712  14.867  1.00  0.00     0.157 A 
ATOM     16  C   UNL     1      49.613  -3.563  15.615  1.00  0.00     0.062 A 
ATOM     17  C   UNL     1      48.324  -3.519  15.063  1.00  0.00     0.158 A 
BRANCH  15  18
ATOM     18  O   UNL     1      46.325  -4.703  14.321  1.00  0.00    -0.504 OA
ATOM     19  H   UNL     1      45.498  -4.846  14.889  1.00  0.00     0.293 HD
ENDBRANCH  15  18
BRANCH  17  20
ATOM     20  O   UNL     1      47.755  -2.297  14.709  1.00  0.00    -0.504 OA
ATOM     21  H   UNL     1      47.684  -2.006  13.741  1.00  0.00     0.293 HD
ENDBRANCH  17  20
ENDBRANCH   1  12
BRANCH   2  22
ATOM     22  O   UNL     1      52.567  -4.479  14.360  1.00  0.00    -0.502 OA
ATOM     23  H   UNL     1      53.306  -4.101  13.779  1.00  0.00     0.293 HD
ENDBRANCH   2  22
BRANCH   6  24
ATOM     24  O   UNL     1      56.544  -4.447  17.902  1.00  0.00    -0.507 OA
ATOM     25  H   UNL     1      56.963  -4.917  17.113  1.00  0.00     0.293 HD
ENDBRANCH   6  24
BRANCH   8  26
ATOM     26  O   UNL     1      54.138  -5.654  21.879  1.00  0.00    -0.508 OA
ATOM     27  H   UNL     1      53.480  -6.309  22.286  1.00  0.00     0.293 HD
ENDBRANCH   8  26
TORSDOF 6
ENDMDL
MODEL 8
REMARK VINA RESULT:    -5.640      5.928      7.507
REMARK INTER + INTRA:          -7.128
REMARK INTER:                  -6.865
REMARK INTRA:                  -0.263
REMARK UNBOUND:                -0.335
REMARK SMILES O=c1c(O)c(-c2ccc(O)c(O)c2)oc2cc(O)cc(O)c12
REMARK SMILES IDX 5 1 3 2 2 3 1 4 22 5 20 6 19 7 17 8 16 9 15 10 14 11 6 12
REMARK SMILES IDX 7 13 8 14 9 15 13 16 11 17 10 18 12 20 4 22 21 24 18 26
REMARK H PARENT 10 19 12 21 4 23 21 25 18 27
REMARK Flexibility Score: inf
ROOT
ATOM      1  C   UNL     1      52.744  -4.676  17.187  1.00  0.00     0.180 A 
ATOM      2  C   UNL     1      51.636  -5.221  17.857  1.00  0.00     0.208 A 
ATOM      3  C   UNL     1      50.396  -5.266  17.199  1.00  0.00     0.238 A 
ATOM      4  O   UNL     1      49.421  -5.805  17.783  1.00  0.00    -0.285 OA
ATOM      5  C   UNL     1      50.277  -4.751  15.886  1.00  0.00     0.111 A 
ATOM      6  C   UNL     1      49.061  -4.708  15.139  1.00  0.00     0.134 A 
ATOM      7  C   UNL     1      49.088  -4.296  13.801  1.00  0.00     0.093 A 
ATOM      8  C   UNL     1      50.274  -3.864  13.202  1.00  0.00     0.123 A 
ATOM      9  C   UNL     1      51.454  -3.846  13.941  1.00  0.00     0.094 A 
ATOM     10  C   UNL     1      51.467  -4.285  15.267  1.00  0.00     0.146 A 
ATOM     11  O   UNL     1      52.616  -4.261  15.932  1.00  0.00    -0.452 OA
ENDROOT
BRANCH   1  12
ATOM     12  C   UNL     1      54.077  -4.571  17.824  1.00  0.00     0.025 A 
ATOM     13  C   UNL     1      54.897  -5.701  17.997  1.00  0.00     0.016 A 
ATOM     14  C   UNL     1      56.140  -5.582  18.623  1.00  0.00     0.051 A 
ATOM     15  C   UNL     1      56.578  -4.341  19.096  1.00  0.00     0.157 A 
ATOM     16  C   UNL     1      54.511  -3.331  18.320  1.00  0.00     0.062 A 
ATOM     17  C   UNL     1      55.760  -3.209  18.947  1.00  0.00     0.158 A 
BRANCH  15  18
ATOM     18  O   UNL     1      57.826  -4.254  19.715  1.00  0.00    -0.504 OA
ATOM     19  H   UNL     1      58.449  -3.470  19.560  1.00  0.00     0.293 HD
ENDBRANCH  15  18
BRANCH  17  20
ATOM     20  O   UNL     1      56.187  -1.971  19.423  1.00  0.00    -0.504 OA
ATOM     21  H   UNL     1      56.358  -1.192  18.798  1.00  0.00     0.293 HD
ENDBRANCH  17  20
ENDBRANCH   1  12
BRANCH   2  22
ATOM     22  O   UNL     1      51.780  -5.744  19.145  1.00  0.00    -0.502 OA
ATOM     23  H   UNL     1      51.072  -6.323  19.580  1.00  0.00     0.293 HD
ENDBRANCH   2  22
BRANCH   6  24
ATOM     24  O   UNL     1      47.809  -5.031  15.669  1.00  0.00    -0.507 OA
ATOM     25  H   UNL     1      47.656  -5.418  16.588  1.00  0.00     0.293 HD
ENDBRANCH   6  24
BRANCH   8  26
ATOM     26  O   UNL     1      50.288  -3.441  11.875  1.00  0.00    -0.508 OA
ATOM     27  H   UNL     1      50.700  -4.008  11.142  1.00  0.00     0.293 HD
ENDBRANCH   8  26
TORSDOF 6
ENDMDL
MODEL 9
REMARK VINA RESULT:    -5.438      5.439      7.092
REMARK INTER + INTRA:          -6.885
REMARK INTER:                  -6.777
REMARK INTRA:                  -0.108
REMARK UNBOUND:                -0.335
REMARK SMILES O=c1c(O)c(-c2ccc(O)c(O)c2)oc2cc(O)cc(O)c12
REMARK SMILES IDX 5 1 3 2 2 3 1 4 22 5 20 6 19 7 17 8 16 9 15 10 14 11 6 12
REMARK SMILES IDX 7 13 8 14 9 15 13 16 11 17 10 18 12 20 4 22 21 24 18 26
REMARK H PARENT 10 19 12 21 4 23 21 25 18 27
REMARK Flexibility Score: inf
ROOT
ATOM      1  C   UNL     1      52.612  -4.639  17.316  1.00  0.00     0.180 A 
ATOM      2  C   UNL     1      52.507  -5.025  18.663  1.00  0.00     0.208 A 
ATOM      3  C   UNL     1      53.511  -4.635  19.564  1.00  0.00     0.238 A 
ATOM      4  O   UNL     1      53.383  -4.937  20.779  1.00  0.00    -0.285 OA
ATOM      5  C   UNL     1      54.614  -3.878  19.104  1.00  0.00     0.111 A 
ATOM      6  C   UNL     1      55.710  -3.463  19.920  1.00  0.00     0.134 A 
ATOM      7  C   UNL     1      56.682  -2.607  19.388  1.00  0.00     0.093 A 
ATOM      8  C   UNL     1      56.633  -2.204  18.050  1.00  0.00     0.123 A 
ATOM      9  C   UNL     1      55.601  -2.652  17.231  1.00  0.00     0.094 A 
ATOM     10  C   UNL     1      54.597  -3.477  17.742  1.00  0.00     0.146 A 
ATOM     11  O   UNL     1      53.625  -3.874  16.928  1.00  0.00    -0.452 OA
ENDROOT
BRANCH   1  12
ATOM     12  C   UNL     1      51.607  -5.033  16.302  1.00  0.00     0.025 A 
ATOM     13  C   UNL     1      51.965  -5.785  15.170  1.00  0.00     0.016 A 
ATOM     14  C   UNL     1      51.005  -6.125  14.215  1.00  0.00     0.051 A 
ATOM     15  C   UNL     1      49.678  -5.710  14.367  1.00  0.00     0.157 A 
ATOM     16  C   UNL     1      50.278  -4.600  16.441  1.00  0.00     0.062 A 
ATOM     17  C   UNL     1      49.311  -4.941  15.484  1.00  0.00     0.158 A 
BRANCH  15  18
ATOM     18  O   UNL     1      48.741  -6.067  13.397  1.00  0.00    -0.504 OA
ATOM     19  H   UNL     1      48.446  -7.027  13.261  1.00  0.00     0.293 HD
ENDBRANCH  15  18
BRANCH  17  20
ATOM     20  O   UNL     1      47.992  -4.517  15.638  1.00  0.00    -0.504 OA
ATOM     21  H   UNL     1      47.465  -4.130  14.863  1.00  0.00     0.293 HD
ENDBRANCH  17  20
ENDBRANCH   1  12
BRANCH   2  22
ATOM     22  O   UNL     1      51.398  -5.754  19.101  1.00  0.00    -0.502 OA
ATOM     23  H   UNL     1      51.123  -5.794  20.075  1.00  0.00     0.293 HD
ENDBRANCH   2  22
BRANCH   6  24
ATOM     24  O   UNL     1      55.901  -3.881  21.240  1.00  0.00    -0.507 OA
ATOM     25  H   UNL     1      55.550  -3.398  22.053  1.00  0.00     0.293 HD
ENDBRANCH   6  24
BRANCH   8  26
ATOM     26  O   UNL     1      57.613  -1.364  17.525  1.00  0.00    -0.508 OA
ATOM     27  H   UNL     1      57.373  -0.565  16.950  1.00  0.00     0.293 HD
ENDBRANCH   8  26
TORSDOF 6
ENDMDL
