MODEL 1
REMARK VINA RESULT:    27.195      0.000      0.000
REMARK INTER + INTRA:          45.015
REMARK INTER:                  37.529
REMARK INTRA:                   7.486
REMARK UNBOUND:                 7.486
REMARK SMILES CC[C@@H](CC[C@@H](C)[C@@H]1CC[C@@H]2C3=CC[C@H]4C[C@@H](O)CC[C@@]4(C)[C@H]3CC[C@]21C)C(C)C
REMARK SMILES IDX 5 1 4 2 3 3 2 4 1 5 28 6 29 7 30 8 6 9 7 10 8 11 9 12 26 13
REMARK SMILES IDX 10 14 11 15 25 16 27 17 12 18 24 19 23 20 13 21 21 22 14 23
REMARK SMILES IDX 15 24 20 25 22 26 16 27 19 28 17 29 18 30
REMARK H PARENT 18 31
REMARK Flexibility Score: inf
ROOT
ATOM      1  C   UNL     1      18.472  11.721  40.503  1.00  0.00     0.004 C 
ENDROOT
BRANCH   1   2
ATOM      2  C   UNL     1      18.186  10.890  41.770  1.00  0.00     0.004 C 
BRANCH   2   3
ATOM      3  C   UNL     1      17.651  11.712  42.975  1.00  0.00    -0.009 C 
BRANCH   3   4
ATOM      4  C   UNL     1      16.450  12.606  42.549  1.00  0.00     0.000 C 
ATOM      5  C   UNL     1      16.574  14.056  43.023  1.00  0.00     0.004 C 
ENDBRANCH   3   4
BRANCH   3   6
ATOM      6  C   UNL     1      18.803  12.433  43.766  1.00  0.00    -0.014 C 
ATOM      7  C   UNL     1      18.921  13.916  43.375  1.00  0.00     0.007 C 
ATOM      8  C   UNL     1      20.183  11.756  43.667  1.00  0.00     0.007 C 
ENDBRANCH   3   6
ENDBRANCH   2   3
ENDBRANCH   1   2
BRANCH   1   9
ATOM      9  C   UNL     1      18.230  13.242  40.705  1.00  0.00    -0.011 C 
ATOM     10  C   UNL     1      19.539  14.030  40.472  1.00  0.00     0.008 C 
BRANCH   9  11
ATOM     11  C   UNL     1      17.018  13.724  39.826  1.00  0.00    -0.002 C 
ATOM     12  C   UNL     1      15.714  14.124  40.564  1.00  0.00     0.005 C 
ATOM     13  C   UNL     1      16.554  12.778  38.689  1.00  0.00    -0.023 C 
ATOM     14  C   UNL     1      14.563  13.860  39.575  1.00  0.00     0.009 C 
ATOM     15  C   UNL     1      15.257  13.482  38.265  1.00  0.00     0.021 C 
ATOM     16  C   UNL     1      17.530  12.701  37.473  1.00  0.00     0.008 C 
ATOM     17  C   UNL     1      16.283  11.335  39.218  1.00  0.00     0.012 C 
ATOM     18  C   UNL     1      14.540  12.661  37.219  1.00  0.00    -0.067 C 
ATOM     19  C   UNL     1      16.824  12.735  36.087  1.00  0.00     0.009 C 
ATOM     20  C   UNL     1      15.380  12.131  36.063  1.00  0.00     0.021 C 
ATOM     21  C   UNL     1      13.209  12.493  37.215  1.00  0.00    -0.027 C 
ATOM     22  C   UNL     1      14.614  12.334  34.703  1.00  0.00    -0.023 C 
ATOM     23  C   UNL     1      12.527  11.634  36.187  1.00  0.00     0.031 C 
ATOM     24  C   UNL     1      13.240  11.564  34.797  1.00  0.00     0.002 C 
ATOM     25  C   UNL     1      14.378  13.854  34.412  1.00  0.00     0.010 C 
ATOM     26  C   UNL     1      15.460  11.720  33.553  1.00  0.00     0.012 C 
ATOM     27  C   UNL     1      12.263  11.915  33.644  1.00  0.00     0.036 C 
ATOM     28  C   UNL     1      13.428  14.112  33.237  1.00  0.00     0.032 C 
ATOM     29  C   UNL     1      12.076  13.428  33.444  1.00  0.00     0.114 C 
BRANCH  29  30
ATOM     30  O   UNL     1      11.414  14.007  34.539  1.00  0.00    -0.393 OA
ATOM     31  H   UNL     1      11.629  14.976  34.523  1.00  0.00     0.210 HD
ENDBRANCH  29  30
ENDBRANCH   9  11
ENDBRANCH   1   9
TORSDOF 7
ENDMDL
MODEL 2
REMARK VINA RESULT:    27.237      1.183      2.010
REMARK INTER + INTRA:          45.073
REMARK INTER:                  41.868
REMARK INTRA:                   3.204
REMARK UNBOUND:                 7.486
REMARK SMILES CC[C@@H](CC[C@@H](C)[C@@H]1CC[C@@H]2C3=CC[C@H]4C[C@@H](O)CC[C@@]4(C)[C@H]3CC[C@]21C)C(C)C
REMARK SMILES IDX 5 1 4 2 3 3 2 4 1 5 28 6 29 7 30 8 6 9 7 10 8 11 9 12 26 13
REMARK SMILES IDX 10 14 11 15 25 16 27 17 12 18 24 19 23 20 13 21 21 22 14 23
REMARK SMILES IDX 15 24 20 25 22 26 16 27 19 28 17 29 18 30
REMARK H PARENT 18 31
REMARK Flexibility Score: inf
ROOT
ATOM      1  C   UNL     1      16.776  11.681  40.489  1.00  0.00     0.004 C 
ENDROOT
BRANCH   1   2
ATOM      2  C   UNL     1      17.992  11.656  41.436  1.00  0.00     0.004 C 
BRANCH   2   3
ATOM      3  C   UNL     1      18.578  13.055  41.774  1.00  0.00    -0.009 C 
BRANCH   3   4
ATOM      4  C   UNL     1      19.233  13.702  40.519  1.00  0.00     0.000 C 
ATOM      5  C   UNL     1      18.378  13.581  39.255  1.00  0.00     0.004 C 
ENDBRANCH   3   4
BRANCH   3   6
ATOM      6  C   UNL     1      19.454  13.038  43.079  1.00  0.00    -0.014 C 
ATOM      7  C   UNL     1      19.469  11.647  43.737  1.00  0.00     0.007 C 
ATOM      8  C   UNL     1      19.085  14.107  44.125  1.00  0.00     0.007 C 
ENDBRANCH   3   6
ENDBRANCH   2   3
ENDBRANCH   1   2
BRANCH   1   9
ATOM      9  C   UNL     1      15.671  12.674  40.943  1.00  0.00    -0.011 C 
ATOM     10  C   UNL     1      16.265  13.748  41.883  1.00  0.00     0.008 C 
BRANCH   9  11
ATOM     11  C   UNL     1      14.910  13.255  39.695  1.00  0.00    -0.002 C 
ATOM     12  C   UNL     1      13.437  13.693  39.895  1.00  0.00     0.005 C 
ATOM     13  C   UNL     1      14.893  12.381  38.414  1.00  0.00    -0.023 C 
ATOM     14  C   UNL     1      12.751  13.529  38.525  1.00  0.00     0.009 C 
ATOM     15  C   UNL     1      13.885  13.169  37.564  1.00  0.00     0.021 C 
ATOM     16  C   UNL     1      16.261  12.302  37.666  1.00  0.00     0.008 C 
ATOM     17  C   UNL     1      14.390  10.934  38.714  1.00  0.00     0.012 C 
ATOM     18  C   UNL     1      13.603  12.429  36.277  1.00  0.00    -0.067 C 
ATOM     19  C   UNL     1      16.149  12.429  36.119  1.00  0.00     0.009 C 
ATOM     20  C   UNL     1      14.808  11.903  35.506  1.00  0.00     0.021 C 
ATOM     21  C   UNL     1      12.373  12.332  35.751  1.00  0.00    -0.027 C 
ATOM     22  C   UNL     1      14.636  12.201  33.970  1.00  0.00    -0.023 C 
ATOM     23  C   UNL     1      12.114  11.552  34.492  1.00  0.00     0.031 C 
ATOM     24  C   UNL     1      13.308  11.501  33.482  1.00  0.00     0.002 C 
ATOM     25  C   UNL     1      14.581  13.742  33.699  1.00  0.00     0.010 C 
ATOM     26  C   UNL     1      15.841  11.590  33.201  1.00  0.00     0.012 C 
ATOM     27  C   UNL     1      12.866  11.949  32.064  1.00  0.00     0.036 C 
ATOM     28  C   UNL     1      14.170  14.096  32.265  1.00  0.00     0.032 C 
ATOM     29  C   UNL     1      12.821  13.477  31.895  1.00  0.00     0.114 C 
BRANCH  29  30
ATOM     30  O   UNL     1      11.807  14.045  32.682  1.00  0.00    -0.393 OA
ATOM     31  H   UNL     1      11.047  13.405  32.674  1.00  0.00     0.210 HD
ENDBRANCH  29  30
ENDBRANCH   9  11
ENDBRANCH   1   9
TORSDOF 7
ENDMDL
MODEL 3
REMARK VINA RESULT:    29.262      1.665      2.837
REMARK INTER + INTRA:          47.867
REMARK INTER:                  46.744
REMARK INTRA:                   1.123
REMARK UNBOUND:                 7.486
REMARK SMILES CC[C@@H](CC[C@@H](C)[C@@H]1CC[C@@H]2C3=CC[C@H]4C[C@@H](O)CC[C@@]4(C)[C@H]3CC[C@]21C)C(C)C
REMARK SMILES IDX 5 1 4 2 3 3 2 4 1 5 28 6 29 7 30 8 6 9 7 10 8 11 9 12 26 13
REMARK SMILES IDX 10 14 11 15 25 16 27 17 12 18 24 19 23 20 13 21 21 22 14 23
REMARK SMILES IDX 15 24 20 25 22 26 16 27 19 28 17 29 18 30
REMARK H PARENT 18 31
REMARK Flexibility Score: inf
ROOT
ATOM      1  C   UNL     1      18.745  11.826  40.502  1.00  0.00     0.004 C 
ENDROOT
BRANCH   1   2
ATOM      2  C   UNL     1      18.489  10.465  41.180  1.00  0.00     0.004 C 
BRANCH   2   3
ATOM      3  C   UNL     1      19.476   9.340  40.764  1.00  0.00    -0.009 C 
BRANCH   3   4
ATOM      4  C   UNL     1      20.075   9.618  39.355  1.00  0.00     0.000 C 
ATOM      5  C   UNL     1      20.840   8.427  38.773  1.00  0.00     0.004 C 
ENDBRANCH   3   4
BRANCH   3   6
ATOM      6  C   UNL     1      18.876   7.904  40.989  1.00  0.00    -0.014 C 
ATOM      7  C   UNL     1      19.978   6.840  41.126  1.00  0.00     0.007 C 
ATOM      8  C   UNL     1      17.846   7.457  39.934  1.00  0.00     0.007 C 
ENDBRANCH   3   6
ENDBRANCH   2   3
ENDBRANCH   1   2
BRANCH   1   9
ATOM      9  C   UNL     1      17.988  12.998  41.186  1.00  0.00    -0.011 C 
ATOM     10  C   UNL     1      18.984  14.087  41.644  1.00  0.00     0.008 C 
BRANCH   9  11
ATOM     11  C   UNL     1      16.836  13.524  40.252  1.00  0.00    -0.002 C 
ATOM     12  C   UNL     1      15.503  13.938  40.924  1.00  0.00     0.005 C 
ATOM     13  C   UNL     1      16.417  12.610  39.071  1.00  0.00    -0.023 C 
ATOM     14  C   UNL     1      14.403  13.719  39.867  1.00  0.00     0.009 C 
ATOM     15  C   UNL     1      15.161  13.351  38.590  1.00  0.00     0.021 C 
ATOM     16  C   UNL     1      17.457  12.535  37.909  1.00  0.00     0.008 C 
ATOM     17  C   UNL     1      16.086  11.164  39.554  1.00  0.00     0.012 C 
ATOM     18  C   UNL     1      14.486  12.567  37.490  1.00  0.00    -0.067 C 
ATOM     19  C   UNL     1      16.831  12.613  36.487  1.00  0.00     0.009 C 
ATOM     20  C   UNL     1      15.378  12.041  36.371  1.00  0.00     0.021 C 
ATOM     21  C   UNL     1      13.154  12.429  37.409  1.00  0.00    -0.027 C 
ATOM     22  C   UNL     1      14.693  12.288  34.976  1.00  0.00    -0.023 C 
ATOM     23  C   UNL     1      12.512  11.606  36.327  1.00  0.00     0.031 C 
ATOM     24  C   UNL     1      13.300  11.547  34.977  1.00  0.00     0.002 C 
ATOM     25  C   UNL     1      14.506  13.818  34.704  1.00  0.00     0.010 C 
ATOM     26  C   UNL     1      15.589  11.678  33.861  1.00  0.00     0.012 C 
ATOM     27  C   UNL     1      12.397  11.942  33.780  1.00  0.00     0.036 C 
ATOM     28  C   UNL     1      13.628  14.120  33.483  1.00  0.00     0.032 C 
ATOM     29  C   UNL     1      12.253  13.463  33.601  1.00  0.00     0.114 C 
BRANCH  29  30
ATOM     30  O   UNL     1      11.544  14.034  34.669  1.00  0.00    -0.393 OA
ATOM     31  H   UNL     1      10.665  13.574  34.708  1.00  0.00     0.210 HD
ENDBRANCH  29  30
ENDBRANCH   9  11
ENDBRANCH   1   9
TORSDOF 7
ENDMDL
MODEL 4
REMARK VINA RESULT:    30.166      1.805      2.654
REMARK INTER + INTRA:          49.115
REMARK INTER:                  46.556
REMARK INTRA:                   2.559
REMARK UNBOUND:                 7.486
REMARK SMILES CC[C@@H](CC[C@@H](C)[C@@H]1CC[C@@H]2C3=CC[C@H]4C[C@@H](O)CC[C@@]4(C)[C@H]3CC[C@]21C)C(C)C
REMARK SMILES IDX 5 1 4 2 3 3 2 4 1 5 28 6 29 7 30 8 6 9 7 10 8 11 9 12 26 13
REMARK SMILES IDX 10 14 11 15 25 16 27 17 12 18 24 19 23 20 13 21 21 22 14 23
REMARK SMILES IDX 15 24 20 25 22 26 16 27 19 28 17 29 18 30
REMARK H PARENT 18 31
REMARK Flexibility Score: inf
ROOT
ATOM      1  C   UNL     1      17.597  11.156  40.788  1.00  0.00     0.004 C 
ENDROOT
BRANCH   1   2
ATOM      2  C   UNL     1      16.686  10.123  41.481  1.00  0.00     0.004 C 
BRANCH   2   3
ATOM      3  C   UNL     1      16.343   8.880  40.615  1.00  0.00    -0.009 C 
BRANCH   3   4
ATOM      4  C   UNL     1      15.370   7.928  41.369  1.00  0.00     0.000 C 
ATOM      5  C   UNL     1      14.679   8.587  42.565  1.00  0.00     0.004 C 
ENDBRANCH   3   4
BRANCH   3   6
ATOM      6  C   UNL     1      17.625   8.209  39.998  1.00  0.00    -0.014 C 
ATOM      7  C   UNL     1      17.373   6.740  39.619  1.00  0.00     0.007 C 
ATOM      8  C   UNL     1      18.896   8.316  40.862  1.00  0.00     0.007 C 
ENDBRANCH   3   6
ENDBRANCH   2   3
ENDBRANCH   1   2
BRANCH   1   9
ATOM      9  C   UNL     1      17.249  12.623  41.161  1.00  0.00    -0.011 C 
ATOM     10  C   UNL     1      18.540  13.451  41.350  1.00  0.00     0.008 C 
BRANCH   9  11
ATOM     11  C   UNL     1      16.238  13.227  40.119  1.00  0.00    -0.002 C 
ATOM     12  C   UNL     1      14.859  13.698  40.649  1.00  0.00     0.005 C 
ATOM     13  C   UNL     1      15.908  12.360  38.876  1.00  0.00    -0.023 C 
ATOM     14  C   UNL     1      13.876  13.558  39.472  1.00  0.00     0.009 C 
ATOM     15  C   UNL     1      14.753  13.176  38.278  1.00  0.00     0.021 C 
ATOM     16  C   UNL     1      17.067  12.253  37.835  1.00  0.00     0.008 C 
ATOM     17  C   UNL     1      15.453  10.924  39.283  1.00  0.00     0.012 C 
ATOM     18  C   UNL     1      14.167  12.450  37.090  1.00  0.00    -0.067 C 
ATOM     19  C   UNL     1      16.609  12.391  36.355  1.00  0.00     0.009 C 
ATOM     20  C   UNL     1      15.151  11.899  36.064  1.00  0.00     0.021 C 
ATOM     21  C   UNL     1      12.847  12.383  36.858  1.00  0.00    -0.027 C 
ATOM     22  C   UNL     1      14.641  12.209  34.608  1.00  0.00    -0.023 C 
ATOM     23  C   UNL     1      12.290  11.617  35.691  1.00  0.00     0.031 C 
ATOM     24  C   UNL     1      13.220  11.543  34.436  1.00  0.00     0.002 C 
ATOM     25  C   UNL     1      14.563  13.752  34.355  1.00  0.00     0.010 C 
ATOM     26  C   UNL     1      15.624  11.574  33.585  1.00  0.00     0.012 C 
ATOM     27  C   UNL     1      12.478  12.009  33.156  1.00  0.00     0.036 C 
ATOM     28  C   UNL     1      13.843  14.123  33.053  1.00  0.00     0.032 C 
ATOM     29  C   UNL     1      12.432  13.537  33.000  1.00  0.00     0.114 C 
BRANCH  29  30
ATOM     30  O   UNL     1      11.637  14.125  33.998  1.00  0.00    -0.393 OA
ATOM     31  H   UNL     1      11.796  13.608  34.831  1.00  0.00     0.210 HD
ENDBRANCH  29  30
ENDBRANCH   9  11
ENDBRANCH   1   9
TORSDOF 7
ENDMDL
