MODEL 1
REMARK VINA RESULT:     5.074      0.000      0.000
REMARK INTER + INTRA:          10.369
REMARK INTER:                  11.600
REMARK INTRA:                  -1.231
REMARK UNBOUND:                -1.231
REMARK SMILES CCCCCCCCCCCCCCCCCCCCCCCC(=O)[O-]
REMARK SMILES IDX 13 1 14 2 15 3 16 4 17 5 18 6 19 7 20 8 21 9 22 10 23 11
REMARK SMILES IDX 24 12 25 13 26 14 12 15 11 16 10 17 9 18 8 19 7 20 6 21 5 22
REMARK SMILES IDX 4 23 3 24 2 25 1 26
REMARK H PARENT
REMARK Flexibility Score: inf
ROOT
ATOM      1  C   UNL     1       2.446 -27.002  -7.081  1.00  0.00     0.000 C 
ENDROOT
BRANCH   1   2
ATOM      2  C   UNL     1       2.414 -28.488  -6.671  1.00  0.00     0.000 C 
BRANCH   2   3
ATOM      3  C   UNL     1       2.623 -29.489  -7.825  1.00  0.00     0.000 C 
BRANCH   3   4
ATOM      4  C   UNL     1       2.419 -30.970  -7.446  1.00  0.00     0.000 C 
BRANCH   4   5
ATOM      5  C   UNL     1       2.790 -31.332  -5.994  1.00  0.00     0.000 C 
BRANCH   5   6
ATOM      6  C   UNL     1       1.642 -31.929  -5.158  1.00  0.00     0.000 C 
BRANCH   6   7
ATOM      7  C   UNL     1       0.265 -31.286  -5.403  1.00  0.00     0.000 C 
BRANCH   7   8
ATOM      8  C   UNL     1      -0.536 -31.024  -4.108  1.00  0.00     0.000 C 
BRANCH   8   9
ATOM      9  C   UNL     1      -1.933 -31.660  -4.147  1.00  0.00     0.000 C 
BRANCH   9  10
ATOM     10  C   UNL     1      -2.956 -30.704  -4.772  1.00  0.00     0.006 C 
BRANCH  10  11
ATOM     11  C   UNL     1      -4.157 -31.472  -5.331  1.00  0.00     0.053 C 
BRANCH  11  12
ATOM     12  C   UNL     1      -4.173 -31.407  -6.826  1.00  0.00     0.041 C 
ATOM     13  O   UNL     1      -3.329 -32.057  -7.498  1.00  0.00    -0.550 OA
ATOM     14  O   UNL     1      -5.094 -30.596  -7.477  1.00  0.00    -0.550 OA
ENDBRANCH  11  12
ENDBRANCH  10  11
ENDBRANCH   9  10
ENDBRANCH   8   9
ENDBRANCH   7   8
ENDBRANCH   6   7
ENDBRANCH   5   6
ENDBRANCH   4   5
ENDBRANCH   3   4
ENDBRANCH   2   3
ENDBRANCH   1   2
BRANCH   1  15
ATOM     15  C   UNL     1       3.452 -26.131  -6.307  1.00  0.00     0.000 C 
BRANCH  15  16
ATOM     16  C   UNL     1       2.768 -25.096  -5.397  1.00  0.00     0.000 C 
BRANCH  16  17
ATOM     17  C   UNL     1       3.758 -24.070  -4.822  1.00  0.00     0.000 C 
BRANCH  17  18
ATOM     18  C   UNL     1       3.090 -23.088  -3.844  1.00  0.00    -0.000 C 
BRANCH  18  19
ATOM     19  C   UNL     1       1.594 -23.385  -3.642  1.00  0.00    -0.000 C 
BRANCH  19  20
ATOM     20  C   UNL     1       0.853 -22.235  -2.940  1.00  0.00    -0.000 C 
BRANCH  20  21
ATOM     21  C   UNL     1      -0.676 -22.417  -2.939  1.00  0.00    -0.000 C 
BRANCH  21  22
ATOM     22  C   UNL     1      -1.424 -21.714  -4.087  1.00  0.00    -0.000 C 
BRANCH  22  23
ATOM     23  C   UNL     1      -1.664 -22.632  -5.298  1.00  0.00    -0.000 C 
BRANCH  23  24
ATOM     24  C   UNL     1      -2.344 -21.909  -6.474  1.00  0.00    -0.000 C 
BRANCH  24  25
ATOM     25  C   UNL     1      -3.861 -21.696  -6.322  1.00  0.00    -0.003 C 
ATOM     26  C   UNL     1      -4.259 -20.220  -6.280  1.00  0.00     0.004 C 
ENDBRANCH  24  25
ENDBRANCH  23  24
ENDBRANCH  22  23
ENDBRANCH  21  22
ENDBRANCH  20  21
ENDBRANCH  19  20
ENDBRANCH  18  19
ENDBRANCH  17  18
ENDBRANCH  16  17
ENDBRANCH  15  16
ENDBRANCH   1  15
TORSDOF 22
ENDMDL
MODEL 2
REMARK VINA RESULT:     5.207      2.795      8.694
REMARK INTER + INTRA:          10.674
REMARK INTER:                  11.578
REMARK INTRA:                  -0.904
REMARK UNBOUND:                -1.231
REMARK SMILES CCCCCCCCCCCCCCCCCCCCCCCC(=O)[O-]
REMARK SMILES IDX 13 1 14 2 15 3 16 4 17 5 18 6 19 7 20 8 21 9 22 10 23 11
REMARK SMILES IDX 24 12 25 13 26 14 12 15 11 16 10 17 9 18 8 19 7 20 6 21 5 22
REMARK SMILES IDX 4 23 3 24 2 25 1 26
REMARK H PARENT
REMARK Flexibility Score: inf
ROOT
ATOM      1  C   UNL     1       3.602 -26.370  -5.558  1.00  0.00     0.000 C 
ENDROOT
BRANCH   1   2
ATOM      2  C   UNL     1       4.115 -24.916  -5.532  1.00  0.00     0.000 C 
BRANCH   2   3
ATOM      3  C   UNL     1       3.064 -23.859  -5.134  1.00  0.00     0.000 C 
BRANCH   3   4
ATOM      4  C   UNL     1       3.358 -23.113  -3.818  1.00  0.00     0.000 C 
BRANCH   4   5
ATOM      5  C   UNL     1       2.264 -23.236  -2.737  1.00  0.00     0.000 C 
BRANCH   5   6
ATOM      6  C   UNL     1       1.476 -21.942  -2.459  1.00  0.00     0.000 C 
BRANCH   6   7
ATOM      7  C   UNL     1       0.020 -22.160  -2.005  1.00  0.00     0.000 C 
BRANCH   7   8
ATOM      8  C   UNL     1      -1.007 -21.317  -2.792  1.00  0.00     0.000 C 
BRANCH   8   9
ATOM      9  C   UNL     1      -1.634 -22.098  -3.956  1.00  0.00     0.000 C 
BRANCH   9  10
ATOM     10  C   UNL     1      -2.652 -21.235  -4.712  1.00  0.00     0.006 C 
BRANCH  10  11
ATOM     11  C   UNL     1      -2.952 -21.823  -6.095  1.00  0.00     0.053 C 
BRANCH  11  12
ATOM     12  C   UNL     1      -4.269 -21.326  -6.602  1.00  0.00     0.041 C 
ATOM     13  O   UNL     1      -5.042 -22.103  -7.224  1.00  0.00    -0.550 OA
ATOM     14  O   UNL     1      -4.625 -19.996  -6.425  1.00  0.00    -0.550 OA
ENDBRANCH  11  12
ENDBRANCH  10  11
ENDBRANCH   9  10
ENDBRANCH   8   9
ENDBRANCH   7   8
ENDBRANCH   6   7
ENDBRANCH   5   6
ENDBRANCH   4   5
ENDBRANCH   3   4
ENDBRANCH   2   3
ENDBRANCH   1   2
BRANCH   1  15
ATOM     15  C   UNL     1       2.722 -26.732  -6.769  1.00  0.00     0.000 C 
BRANCH  15  16
ATOM     16  C   UNL     1       2.845 -28.211  -7.174  1.00  0.00     0.000 C 
BRANCH  16  17
ATOM     17  C   UNL     1       1.675 -29.063  -6.655  1.00  0.00     0.000 C 
BRANCH  17  18
ATOM     18  C   UNL     1       1.952 -30.573  -6.761  1.00  0.00    -0.000 C 
BRANCH  18  19
ATOM     19  C   UNL     1       1.861 -31.284  -5.399  1.00  0.00    -0.000 C 
BRANCH  19  20
ATOM     20  C   UNL     1       0.557 -32.084  -5.237  1.00  0.00    -0.000 C 
BRANCH  20  21
ATOM     21  C   UNL     1      -0.627 -31.216  -4.772  1.00  0.00    -0.000 C 
BRANCH  21  22
ATOM     22  C   UNL     1      -1.966 -31.960  -4.610  1.00  0.00    -0.000 C 
BRANCH  22  23
ATOM     23  C   UNL     1      -3.186 -31.029  -4.711  1.00  0.00    -0.000 C 
BRANCH  23  24
ATOM     24  C   UNL     1      -4.391 -31.692  -5.403  1.00  0.00    -0.000 C 
BRANCH  24  25
ATOM     25  C   UNL     1      -4.736 -31.133  -6.794  1.00  0.00    -0.003 C 
ATOM     26  C   UNL     1      -3.694 -31.484  -7.857  1.00  0.00     0.004 C 
ENDBRANCH  24  25
ENDBRANCH  23  24
ENDBRANCH  22  23
ENDBRANCH  21  22
ENDBRANCH  20  21
ENDBRANCH  19  20
ENDBRANCH  18  19
ENDBRANCH  17  18
ENDBRANCH  16  17
ENDBRANCH  15  16
ENDBRANCH   1  15
TORSDOF 22
ENDMDL
MODEL 3
REMARK VINA RESULT:     5.709      3.017      8.939
REMARK INTER + INTRA:          11.820
REMARK INTER:                  12.949
REMARK INTRA:                  -1.130
REMARK UNBOUND:                -1.231
REMARK SMILES CCCCCCCCCCCCCCCCCCCCCCCC(=O)[O-]
REMARK SMILES IDX 13 1 14 2 15 3 16 4 17 5 18 6 19 7 20 8 21 9 22 10 23 11
REMARK SMILES IDX 24 12 25 13 26 14 12 15 11 16 10 17 9 18 8 19 7 20 6 21 5 22
REMARK SMILES IDX 4 23 3 24 2 25 1 26
REMARK H PARENT
REMARK Flexibility Score: inf
ROOT
ATOM      1  C   UNL     1       4.218 -24.223  -4.930  1.00  0.00     0.000 C 
ENDROOT
BRANCH   1   2
ATOM      2  C   UNL     1       2.848 -23.667  -4.495  1.00  0.00     0.000 C 
BRANCH   2   3
ATOM      3  C   UNL     1       2.875 -22.774  -3.237  1.00  0.00     0.000 C 
BRANCH   3   4
ATOM      4  C   UNL     1       1.654 -22.921  -2.308  1.00  0.00     0.000 C 
BRANCH   4   5
ATOM      5  C   UNL     1       1.017 -21.594  -1.849  1.00  0.00     0.000 C 
BRANCH   5   6
ATOM      6  C   UNL     1      -0.519 -21.614  -1.734  1.00  0.00     0.000 C 
BRANCH   6   7
ATOM      7  C   UNL     1      -1.267 -21.206  -3.017  1.00  0.00     0.000 C 
BRANCH   7   8
ATOM      8  C   UNL     1      -1.047 -22.177  -4.197  1.00  0.00     0.000 C 
BRANCH   8   9
ATOM      9  C   UNL     1      -2.369 -22.700  -4.779  1.00  0.00     0.000 C 
BRANCH   9  10
ATOM     10  C   UNL     1      -2.606 -22.147  -6.189  1.00  0.00     0.006 C 
BRANCH  10  11
ATOM     11  C   UNL     1      -2.989 -20.664  -6.140  1.00  0.00     0.053 C 
BRANCH  11  12
ATOM     12  C   UNL     1      -4.438 -20.485  -6.466  1.00  0.00     0.041 C 
ATOM     13  O   UNL     1      -5.051 -21.360  -7.135  1.00  0.00    -0.550 OA
ATOM     14  O   UNL     1      -5.103 -19.333  -6.066  1.00  0.00    -0.550 OA
ENDBRANCH  11  12
ENDBRANCH  10  11
ENDBRANCH   9  10
ENDBRANCH   8   9
ENDBRANCH   7   8
ENDBRANCH   6   7
ENDBRANCH   5   6
ENDBRANCH   4   5
ENDBRANCH   3   4
ENDBRANCH   2   3
ENDBRANCH   1   2
BRANCH   1  15
ATOM     15  C   UNL     1       4.165 -25.332  -5.997  1.00  0.00     0.000 C 
BRANCH  15  16
ATOM     16  C   UNL     1       3.046 -26.356  -5.737  1.00  0.00     0.000 C 
BRANCH  16  17
ATOM     17  C   UNL     1       2.374 -26.837  -7.034  1.00  0.00     0.000 C 
BRANCH  17  18
ATOM     18  C   UNL     1       2.716 -28.300  -7.369  1.00  0.00    -0.000 C 
BRANCH  18  19
ATOM     19  C   UNL     1       1.925 -29.301  -6.509  1.00  0.00    -0.000 C 
BRANCH  19  20
ATOM     20  C   UNL     1       2.387 -30.753  -6.717  1.00  0.00    -0.000 C 
BRANCH  20  21
ATOM     21  C   UNL     1       1.552 -31.770  -5.918  1.00  0.00    -0.000 C 
BRANCH  21  22
ATOM     22  C   UNL     1       1.204 -31.351  -4.478  1.00  0.00    -0.000 C 
BRANCH  22  23
ATOM     23  C   UNL     1      -0.311 -31.224  -4.240  1.00  0.00    -0.000 C 
BRANCH  23  24
ATOM     24  C   UNL     1      -1.150 -31.850  -5.369  1.00  0.00    -0.000 C 
BRANCH  24  25
ATOM     25  C   UNL     1      -2.642 -31.474  -5.361  1.00  0.00    -0.003 C 
ATOM     26  C   UNL     1      -3.359 -31.892  -4.077  1.00  0.00     0.004 C 
ENDBRANCH  24  25
ENDBRANCH  23  24
ENDBRANCH  22  23
ENDBRANCH  21  22
ENDBRANCH  20  21
ENDBRANCH  19  20
ENDBRANCH  18  19
ENDBRANCH  17  18
ENDBRANCH  16  17
ENDBRANCH  15  16
ENDBRANCH   1  15
TORSDOF 22
ENDMDL
MODEL 4
REMARK VINA RESULT:     6.024      1.035      2.362
REMARK INTER + INTRA:          12.542
REMARK INTER:                  13.728
REMARK INTRA:                  -1.187
REMARK UNBOUND:                -1.231
REMARK SMILES CCCCCCCCCCCCCCCCCCCCCCCC(=O)[O-]
REMARK SMILES IDX 13 1 14 2 15 3 16 4 17 5 18 6 19 7 20 8 21 9 22 10 23 11
REMARK SMILES IDX 24 12 25 13 26 14 12 15 11 16 10 17 9 18 8 19 7 20 6 21 5 22
REMARK SMILES IDX 4 23 3 24 2 25 1 26
REMARK H PARENT
REMARK Flexibility Score: inf
ROOT
ATOM      1  C   UNL     1       3.440 -25.456  -5.119  1.00  0.00     0.000 C 
ENDROOT
BRANCH   1   2
ATOM      2  C   UNL     1       3.313 -25.774  -6.622  1.00  0.00     0.000 C 
BRANCH   2   3
ATOM      3  C   UNL     1       2.329 -26.910  -6.969  1.00  0.00     0.000 C 
BRANCH   3   4
ATOM      4  C   UNL     1       2.784 -28.319  -6.537  1.00  0.00     0.000 C 
BRANCH   4   5
ATOM      5  C   UNL     1       1.814 -29.461  -6.904  1.00  0.00     0.000 C 
BRANCH   5   6
ATOM      6  C   UNL     1       2.461 -30.856  -7.007  1.00  0.00     0.000 C 
BRANCH   6   7
ATOM      7  C   UNL     1       1.764 -31.951  -6.178  1.00  0.00     0.000 C 
BRANCH   7   8
ATOM      8  C   UNL     1       1.757 -31.669  -4.660  1.00  0.00     0.000 C 
BRANCH   8   9
ATOM      9  C   UNL     1       0.427 -31.066  -4.184  1.00  0.00     0.000 C 
BRANCH   9  10
ATOM     10  C   UNL     1      -0.665 -31.235  -5.247  1.00  0.00     0.006 C 
BRANCH  10  11
ATOM     11  C   UNL     1      -1.803 -32.120  -4.729  1.00  0.00     0.053 C 
BRANCH  11  12
ATOM     12  C   UNL     1      -3.125 -31.611  -5.211  1.00  0.00     0.041 C 
ATOM     13  O   UNL     1      -4.019 -31.285  -4.385  1.00  0.00    -0.550 OA
ATOM     14  O   UNL     1      -3.387 -31.535  -6.573  1.00  0.00    -0.550 OA
ENDBRANCH  11  12
ENDBRANCH  10  11
ENDBRANCH   9  10
ENDBRANCH   8   9
ENDBRANCH   7   8
ENDBRANCH   6   7
ENDBRANCH   5   6
ENDBRANCH   4   5
ENDBRANCH   3   4
ENDBRANCH   2   3
ENDBRANCH   1   2
BRANCH   1  15
ATOM     15  C   UNL     1       3.422 -23.958  -4.763  1.00  0.00     0.000 C 
BRANCH  15  16
ATOM     16  C   UNL     1       2.083 -23.506  -4.153  1.00  0.00     0.000 C 
BRANCH  16  17
ATOM     17  C   UNL     1       2.266 -22.747  -2.829  1.00  0.00     0.000 C 
BRANCH  17  18
ATOM     18  C   UNL     1       0.932 -22.491  -2.107  1.00  0.00    -0.000 C 
BRANCH  18  19
ATOM     19  C   UNL     1       0.114 -21.364  -2.763  1.00  0.00    -0.000 C 
BRANCH  19  20
ATOM     20  C   UNL     1      -1.389 -21.683  -2.824  1.00  0.00    -0.000 C 
BRANCH  20  21
ATOM     21  C   UNL     1      -2.024 -21.334  -4.183  1.00  0.00    -0.000 C 
BRANCH  21  22
ATOM     22  C   UNL     1      -1.832 -22.388  -5.290  1.00  0.00    -0.000 C 
BRANCH  22  23
ATOM     23  C   UNL     1      -2.777 -22.180  -6.485  1.00  0.00    -0.000 C 
BRANCH  23  24
ATOM     24  C   UNL     1      -4.124 -21.551  -6.083  1.00  0.00    -0.000 C 
BRANCH  24  25
ATOM     25  C   UNL     1      -4.546 -20.324  -6.909  1.00  0.00    -0.003 C 
ATOM     26  C   UNL     1      -4.702 -19.058  -6.066  1.00  0.00     0.004 C 
ENDBRANCH  24  25
ENDBRANCH  23  24
ENDBRANCH  22  23
ENDBRANCH  21  22
ENDBRANCH  20  21
ENDBRANCH  19  20
ENDBRANCH  18  19
ENDBRANCH  17  18
ENDBRANCH  16  17
ENDBRANCH  15  16
ENDBRANCH   1  15
TORSDOF 22
ENDMDL
MODEL 5
REMARK VINA RESULT:     6.581      3.839      8.888
REMARK INTER + INTRA:          13.814
REMARK INTER:                  13.013
REMARK INTRA:                   0.801
REMARK UNBOUND:                -1.231
REMARK SMILES CCCCCCCCCCCCCCCCCCCCCCCC(=O)[O-]
REMARK SMILES IDX 13 1 14 2 15 3 16 4 17 5 18 6 19 7 20 8 21 9 22 10 23 11
REMARK SMILES IDX 24 12 25 13 26 14 12 15 11 16 10 17 9 18 8 19 7 20 6 21 5 22
REMARK SMILES IDX 4 23 3 24 2 25 1 26
REMARK H PARENT
REMARK Flexibility Score: inf
ROOT
ATOM      1  C   UNL     1       2.403 -27.806  -7.565  1.00  0.00     0.000 C 
ENDROOT
BRANCH   1   2
ATOM      2  C   UNL     1       2.127 -26.398  -7.001  1.00  0.00     0.000 C 
BRANCH   2   3
ATOM      3  C   UNL     1       1.272 -25.488  -7.907  1.00  0.00     0.000 C 
BRANCH   3   4
ATOM      4  C   UNL     1       0.693 -24.239  -7.213  1.00  0.00     0.000 C 
BRANCH   4   5
ATOM      5  C   UNL     1      -0.133 -23.308  -8.124  1.00  0.00     0.000 C 
BRANCH   5   6
ATOM      6  C   UNL     1      -1.234 -22.504  -7.406  1.00  0.00     0.000 C 
BRANCH   6   7
ATOM      7  C   UNL     1      -1.610 -23.032  -6.009  1.00  0.00     0.000 C 
BRANCH   7   8
ATOM      8  C   UNL     1      -2.247 -21.963  -5.094  1.00  0.00     0.000 C 
BRANCH   8   9
ATOM      9  C   UNL     1      -3.298 -21.117  -5.829  1.00  0.00     0.000 C 
BRANCH   9  10
ATOM     10  C   UNL     1      -4.297 -22.008  -6.576  1.00  0.00     0.006 C 
BRANCH  10  11
ATOM     11  C   UNL     1      -5.117 -21.192  -7.580  1.00  0.00     0.053 C 
BRANCH  11  12
ATOM     12  C   UNL     1      -5.106 -19.742  -7.213  1.00  0.00     0.041 C 
ATOM     13  O   UNL     1      -5.112 -18.860  -8.113  1.00  0.00    -0.550 OA
ATOM     14  O   UNL     1      -5.047 -19.363  -5.878  1.00  0.00    -0.550 OA
ENDBRANCH  11  12
ENDBRANCH  10  11
ENDBRANCH   9  10
ENDBRANCH   8   9
ENDBRANCH   7   8
ENDBRANCH   6   7
ENDBRANCH   5   6
ENDBRANCH   4   5
ENDBRANCH   3   4
ENDBRANCH   2   3
ENDBRANCH   1   2
BRANCH   1  15
ATOM     15  C   UNL     1       2.282 -28.954  -6.545  1.00  0.00     0.000 C 
BRANCH  15  16
ATOM     16  C   UNL     1       2.821 -30.290  -7.086  1.00  0.00     0.000 C 
BRANCH  16  17
ATOM     17  C   UNL     1       2.744 -31.421  -6.047  1.00  0.00     0.000 C 
BRANCH  17  18
ATOM     18  C   UNL     1       1.330 -32.016  -5.926  1.00  0.00    -0.000 C 
BRANCH  18  19
ATOM     19  C   UNL     1       0.303 -30.995  -5.408  1.00  0.00    -0.000 C 
BRANCH  19  20
ATOM     20  C   UNL     1      -0.136 -31.280  -3.962  1.00  0.00    -0.000 C 
BRANCH  20  21
ATOM     21  C   UNL     1      -1.640 -31.586  -3.840  1.00  0.00    -0.000 C 
BRANCH  21  22
ATOM     22  C   UNL     1      -2.381 -31.798  -5.173  1.00  0.00    -0.000 C 
BRANCH  22  23
ATOM     23  C   UNL     1      -3.895 -31.553  -5.064  1.00  0.00    -0.000 C 
BRANCH  23  24
ATOM     24  C   UNL     1      -4.361 -30.313  -5.850  1.00  0.00    -0.000 C 
BRANCH  24  25
ATOM     25  C   UNL     1      -4.159 -30.391  -7.374  1.00  0.00    -0.003 C 
ATOM     26  C   UNL     1      -4.018 -31.824  -7.888  1.00  0.00     0.004 C 
ENDBRANCH  24  25
ENDBRANCH  23  24
ENDBRANCH  22  23
ENDBRANCH  21  22
ENDBRANCH  20  21
ENDBRANCH  19  20
ENDBRANCH  18  19
ENDBRANCH  17  18
ENDBRANCH  16  17
ENDBRANCH  15  16
ENDBRANCH   1  15
TORSDOF 22
ENDMDL
MODEL 6
REMARK VINA RESULT:     6.860      3.336      8.588
REMARK INTER + INTRA:          14.452
REMARK INTER:                  15.881
REMARK INTRA:                  -1.429
REMARK UNBOUND:                -1.231
REMARK SMILES CCCCCCCCCCCCCCCCCCCCCCCC(=O)[O-]
REMARK SMILES IDX 13 1 14 2 15 3 16 4 17 5 18 6 19 7 20 8 21 9 22 10 23 11
REMARK SMILES IDX 24 12 25 13 26 14 12 15 11 16 10 17 9 18 8 19 7 20 6 21 5 22
REMARK SMILES IDX 4 23 3 24 2 25 1 26
REMARK H PARENT
REMARK Flexibility Score: inf
ROOT
ATOM      1  C   UNL     1       2.471 -29.779  -7.925  1.00  0.00     0.000 C 
ENDROOT
BRANCH   1   2
ATOM      2  C   UNL     1       1.706 -28.500  -7.528  1.00  0.00     0.000 C 
BRANCH   2   3
ATOM      3  C   UNL     1       2.467 -27.552  -6.578  1.00  0.00     0.000 C 
BRANCH   3   4
ATOM      4  C   UNL     1       2.377 -26.057  -6.942  1.00  0.00     0.000 C 
BRANCH   4   5
ATOM      5  C   UNL     1       0.961 -25.552  -7.290  1.00  0.00     0.000 C 
BRANCH   5   6
ATOM      6  C   UNL     1       0.722 -24.053  -7.025  1.00  0.00     0.000 C 
BRANCH   6   7
ATOM      7  C   UNL     1      -0.237 -23.368  -8.018  1.00  0.00     0.000 C 
BRANCH   7   8
ATOM      8  C   UNL     1      -1.438 -22.674  -7.340  1.00  0.00     0.000 C 
BRANCH   8   9
ATOM      9  C   UNL     1      -1.608 -23.099  -5.874  1.00  0.00     0.000 C 
BRANCH   9  10
ATOM     10  C   UNL     1      -2.650 -22.226  -5.165  1.00  0.00     0.006 C 
BRANCH  10  11
ATOM     11  C   UNL     1      -2.760 -20.851  -5.832  1.00  0.00     0.053 C 
BRANCH  11  12
ATOM     12  C   UNL     1      -4.158 -20.606  -6.304  1.00  0.00     0.041 C 
ATOM     13  O   UNL     1      -4.901 -19.794  -5.691  1.00  0.00    -0.550 OA
ATOM     14  O   UNL     1      -4.656 -21.305  -7.396  1.00  0.00    -0.550 OA
ENDBRANCH  11  12
ENDBRANCH  10  11
ENDBRANCH   9  10
ENDBRANCH   8   9
ENDBRANCH   7   8
ENDBRANCH   6   7
ENDBRANCH   5   6
ENDBRANCH   4   5
ENDBRANCH   3   4
ENDBRANCH   2   3
ENDBRANCH   1   2
BRANCH   1  15
ATOM     15  C   UNL     1       2.992 -30.622  -6.747  1.00  0.00     0.000 C 
BRANCH  15  16
ATOM     16  C   UNL     1       2.347 -32.018  -6.683  1.00  0.00     0.000 C 
BRANCH  16  17
ATOM     17  C   UNL     1       0.872 -31.967  -6.251  1.00  0.00     0.000 C 
BRANCH  17  18
ATOM     18  C   UNL     1       0.581 -30.810  -5.280  1.00  0.00    -0.000 C 
BRANCH  18  19
ATOM     19  C   UNL     1      -0.363 -31.224  -4.137  1.00  0.00    -0.000 C 
BRANCH  19  20
ATOM     20  C   UNL     1      -1.599 -31.990  -4.641  1.00  0.00    -0.000 C 
BRANCH  20  21
ATOM     21  C   UNL     1      -2.756 -31.998  -3.625  1.00  0.00    -0.000 C 
BRANCH  21  22
ATOM     22  C   UNL     1      -4.138 -31.631  -4.197  1.00  0.00    -0.000 C 
BRANCH  22  23
ATOM     23  C   UNL     1      -4.335 -32.115  -5.645  1.00  0.00    -0.000 C 
BRANCH  23  24
ATOM     24  C   UNL     1      -4.536 -30.958  -6.641  1.00  0.00    -0.000 C 
BRANCH  24  25
ATOM     25  C   UNL     1      -4.042 -31.234  -8.072  1.00  0.00    -0.003 C 
ATOM     26  C   UNL     1      -2.596 -31.727  -8.123  1.00  0.00     0.004 C 
ENDBRANCH  24  25
ENDBRANCH  23  24
ENDBRANCH  22  23
ENDBRANCH  21  22
ENDBRANCH  20  21
ENDBRANCH  19  20
ENDBRANCH  18  19
ENDBRANCH  17  18
ENDBRANCH  16  17
ENDBRANCH  15  16
ENDBRANCH   1  15
TORSDOF 22
ENDMDL
MODEL 7
REMARK VINA RESULT:     7.066      2.953      3.710
REMARK INTER + INTRA:          14.924
REMARK INTER:                  16.030
REMARK INTRA:                  -1.106
REMARK UNBOUND:                -1.231
REMARK SMILES CCCCCCCCCCCCCCCCCCCCCCCC(=O)[O-]
REMARK SMILES IDX 13 1 14 2 15 3 16 4 17 5 18 6 19 7 20 8 21 9 22 10 23 11
REMARK SMILES IDX 24 12 25 13 26 14 12 15 11 16 10 17 9 18 8 19 7 20 6 21 5 22
REMARK SMILES IDX 4 23 3 24 2 25 1 26
REMARK H PARENT
REMARK Flexibility Score: inf
ROOT
ATOM      1  C   UNL     1       3.353 -26.677  -5.842  1.00  0.00     0.000 C 
ENDROOT
BRANCH   1   2
ATOM      2  C   UNL     1       2.544 -26.968  -7.122  1.00  0.00     0.000 C 
BRANCH   2   3
ATOM      3  C   UNL     1       2.399 -28.462  -7.477  1.00  0.00     0.000 C 
BRANCH   3   4
ATOM      4  C   UNL     1       2.992 -29.438  -6.441  1.00  0.00     0.000 C 
BRANCH   4   5
ATOM      5  C   UNL     1       2.659 -30.925  -6.677  1.00  0.00     0.000 C 
BRANCH   5   6
ATOM      6  C   UNL     1       1.726 -31.559  -5.628  1.00  0.00     0.000 C 
BRANCH   6   7
ATOM      7  C   UNL     1       0.495 -30.707  -5.263  1.00  0.00     0.000 C 
BRANCH   7   8
ATOM      8  C   UNL     1      -0.580 -31.481  -4.470  1.00  0.00     0.000 C 
BRANCH   8   9
ATOM      9  C   UNL     1      -0.564 -31.135  -2.973  1.00  0.00     0.000 C 
BRANCH   9  10
ATOM     10  C   UNL     1       0.873 -31.005  -2.455  1.00  0.00     0.006 C 
BRANCH  10  11
ATOM     11  C   UNL     1       0.906 -30.997  -0.923  1.00  0.00     0.053 C 
BRANCH  11  12
ATOM     12  C   UNL     1       1.328 -29.656  -0.413  1.00  0.00     0.041 C 
ATOM     13  O   UNL     1       1.463 -28.688  -1.209  1.00  0.00    -0.550 OA
ATOM     14  O   UNL     1       1.612 -29.482   0.935  1.00  0.00    -0.550 OA
ENDBRANCH  11  12
ENDBRANCH  10  11
ENDBRANCH   9  10
ENDBRANCH   8   9
ENDBRANCH   7   8
ENDBRANCH   6   7
ENDBRANCH   5   6
ENDBRANCH   4   5
ENDBRANCH   3   4
ENDBRANCH   2   3
ENDBRANCH   1   2
BRANCH   1  15
ATOM     15  C   UNL     1       3.913 -25.247  -5.733  1.00  0.00     0.000 C 
BRANCH  15  16
ATOM     16  C   UNL     1       2.861 -24.230  -5.254  1.00  0.00     0.000 C 
BRANCH  16  17
ATOM     17  C   UNL     1       3.423 -23.248  -4.212  1.00  0.00     0.000 C 
BRANCH  17  18
ATOM     18  C   UNL     1       2.688 -23.335  -2.864  1.00  0.00    -0.000 C 
BRANCH  18  19
ATOM     19  C   UNL     1       1.687 -22.184  -2.663  1.00  0.00    -0.000 C 
BRANCH  19  20
ATOM     20  C   UNL     1       0.228 -22.632  -2.848  1.00  0.00    -0.000 C 
BRANCH  20  21
ATOM     21  C   UNL     1      -0.782 -21.484  -2.658  1.00  0.00    -0.000 C 
BRANCH  21  22
ATOM     22  C   UNL     1      -2.087 -21.614  -3.466  1.00  0.00    -0.000 C 
BRANCH  22  23
ATOM     23  C   UNL     1      -1.855 -21.600  -4.986  1.00  0.00    -0.000 C 
BRANCH  23  24
ATOM     24  C   UNL     1      -2.963 -22.328  -5.769  1.00  0.00    -0.000 C 
BRANCH  24  25
ATOM     25  C   UNL     1      -3.798 -21.436  -6.704  1.00  0.00    -0.003 C 
ATOM     26  C   UNL     1      -3.881 -19.984  -6.232  1.00  0.00     0.004 C 
ENDBRANCH  24  25
ENDBRANCH  23  24
ENDBRANCH  22  23
ENDBRANCH  21  22
ENDBRANCH  20  21
ENDBRANCH  19  20
ENDBRANCH  18  19
ENDBRANCH  17  18
ENDBRANCH  16  17
ENDBRANCH  15  16
ENDBRANCH   1  15
TORSDOF 22
ENDMDL
