MODEL 1
REMARK VINA RESULT:    -5.794      0.000      0.000
REMARK INTER + INTRA:          -7.017
REMARK INTER:                  -6.810
REMARK INTRA:                  -0.207
REMARK UNBOUND:                -0.207
REMARK SMILES O=c1c(O)c(-c2ccc(O)cc2)oc2cc(O)cc(O)c12
REMARK SMILES IDX 5 1 3 2 2 3 1 4 21 5 19 6 18 7 16 8 15 9 14 10 13 11 6 12
REMARK SMILES IDX 7 13 8 14 9 15 12 16 11 17 10 18 4 20 20 22 17 24
REMARK H PARENT 10 19 4 21 20 23 17 25
REMARK Flexibility Score: inf
ROOT
ATOM      1  C   UNL     1      75.567 -55.632 198.107  1.00  0.00     0.180 A 
ATOM      2  C   UNL     1      74.740 -55.587 196.970  1.00  0.00     0.208 A 
ATOM      3  C   UNL     1      75.281 -55.144 195.751  1.00  0.00     0.238 A 
ATOM      4  O   UNL     1      74.523 -55.054 194.751  1.00  0.00    -0.285 OA
ATOM      5  C   UNL     1      76.645 -54.770 195.681  1.00  0.00     0.111 A 
ATOM      6  C   UNL     1      77.308 -54.346 194.491  1.00  0.00     0.134 A 
ATOM      7  C   UNL     1      78.625 -53.875 194.564  1.00  0.00     0.093 A 
ATOM      8  C   UNL     1      79.323 -53.873 195.769  1.00  0.00     0.123 A 
ATOM      9  C   UNL     1      78.704 -54.341 196.929  1.00  0.00     0.094 A 
ATOM     10  C   UNL     1      77.379 -54.784 196.894  1.00  0.00     0.146 A 
ATOM     11  O   UNL     1      76.824 -55.212 198.023  1.00  0.00    -0.452 OA
ENDROOT
BRANCH   1  12
ATOM     12  C   UNL     1      75.076 -56.110 199.419  1.00  0.00     0.021 A 
ATOM     13  C   UNL     1      75.445 -57.389 199.871  1.00  0.00     0.016 A 
ATOM     14  C   UNL     1      74.975 -57.870 201.096  1.00  0.00     0.047 A 
ATOM     15  C   UNL     1      74.118 -57.084 201.878  1.00  0.00     0.115 A 
ATOM     16  C   UNL     1      74.199 -55.336 200.200  1.00  0.00     0.016 A 
ATOM     17  C   UNL     1      73.730 -55.820 201.425  1.00  0.00     0.047 A 
BRANCH  15  18
ATOM     18  O   UNL     1      73.642 -57.553 203.102  1.00  0.00    -0.508 OA
ATOM     19  H   UNL     1      74.219 -57.537 203.934  1.00  0.00     0.293 HD
ENDBRANCH  15  18
ENDBRANCH   1  12
BRANCH   2  20
ATOM     20  O   UNL     1      73.392 -55.939 197.067  1.00  0.00    -0.502 OA
ATOM     21  H   UNL     1      73.019 -56.785 196.653  1.00  0.00     0.293 HD
ENDBRANCH   2  20
BRANCH   6  22
ATOM     22  O   UNL     1      76.732 -54.393 193.217  1.00  0.00    -0.507 OA
ATOM     23  H   UNL     1      75.964 -54.993 192.956  1.00  0.00     0.293 HD
ENDBRANCH   6  22
BRANCH   8  24
ATOM     24  O   UNL     1      80.637 -53.412 195.803  1.00  0.00    -0.508 OA
ATOM     25  H   UNL     1      81.414 -54.037 195.986  1.00  0.00     0.293 HD
ENDBRANCH   8  24
TORSDOF 5
ENDMDL
MODEL 2
REMARK VINA RESULT:    -5.225      1.427      2.104
REMARK INTER + INTRA:          -6.348
REMARK INTER:                  -6.257
REMARK INTRA:                  -0.091
REMARK UNBOUND:                -0.207
REMARK SMILES O=c1c(O)c(-c2ccc(O)cc2)oc2cc(O)cc(O)c12
REMARK SMILES IDX 5 1 3 2 2 3 1 4 21 5 19 6 18 7 16 8 15 9 14 10 13 11 6 12
REMARK SMILES IDX 7 13 8 14 9 15 12 16 11 17 10 18 4 20 20 22 17 24
REMARK H PARENT 10 19 4 21 20 23 17 25
REMARK Flexibility Score: inf
ROOT
ATOM      1  C   UNL     1      74.268 -55.536 198.277  1.00  0.00     0.180 A 
ATOM      2  C   UNL     1      73.155 -55.025 197.587  1.00  0.00     0.208 A 
ATOM      3  C   UNL     1      73.334 -54.509 196.292  1.00  0.00     0.238 A 
ATOM      4  O   UNL     1      72.345 -54.003 195.701  1.00  0.00    -0.285 OA
ATOM      5  C   UNL     1      74.620 -54.527 195.699  1.00  0.00     0.111 A 
ATOM      6  C   UNL     1      74.909 -54.068 194.380  1.00  0.00     0.134 A 
ATOM      7  C   UNL     1      76.239 -54.011 193.944  1.00  0.00     0.093 A 
ATOM      8  C   UNL     1      77.281 -54.456 194.754  1.00  0.00     0.123 A 
ATOM      9  C   UNL     1      77.005 -54.963 196.025  1.00  0.00     0.094 A 
ATOM     10  C   UNL     1      75.691 -54.998 196.501  1.00  0.00     0.146 A 
ATOM     11  O   UNL     1      75.471 -55.478 197.720  1.00  0.00    -0.452 OA
ENDROOT
BRANCH   1  12
ATOM     12  C   UNL     1      74.153 -56.119 199.633  1.00  0.00     0.021 A 
ATOM     13  C   UNL     1      73.754 -55.303 200.705  1.00  0.00     0.016 A 
ATOM     14  C   UNL     1      73.660 -55.826 201.998  1.00  0.00     0.047 A 
ATOM     15  C   UNL     1      73.979 -57.169 202.238  1.00  0.00     0.115 A 
ATOM     16  C   UNL     1      74.491 -57.461 199.886  1.00  0.00     0.016 A 
ATOM     17  C   UNL     1      74.397 -57.982 201.180  1.00  0.00     0.047 A 
BRANCH  15  18
ATOM     18  O   UNL     1      73.890 -57.702 203.522  1.00  0.00    -0.508 OA
ATOM     19  H   UNL     1      73.481 -57.177 204.286  1.00  0.00     0.293 HD
ENDBRANCH  15  18
ENDBRANCH   1  12
BRANCH   2  20
ATOM     20  O   UNL     1      71.900 -54.997 198.199  1.00  0.00    -0.502 OA
ATOM     21  H   UNL     1      71.199 -54.303 197.972  1.00  0.00     0.293 HD
ENDBRANCH   2  20
BRANCH   6  22
ATOM     22  O   UNL     1      73.933 -53.685 193.455  1.00  0.00    -0.507 OA
ATOM     23  H   UNL     1      73.758 -52.735 193.163  1.00  0.00     0.293 HD
ENDBRANCH   6  22
BRANCH   8  24
ATOM     24  O   UNL     1      78.591 -54.400 194.283  1.00  0.00    -0.508 OA
ATOM     25  H   UNL     1      79.051 -55.217 193.895  1.00  0.00     0.293 HD
ENDBRANCH   8  24
TORSDOF 5
ENDMDL
MODEL 3
REMARK VINA RESULT:    -5.209      2.079      4.165
REMARK INTER + INTRA:          -6.329
REMARK INTER:                  -6.089
REMARK INTRA:                  -0.240
REMARK UNBOUND:                -0.207
REMARK SMILES O=c1c(O)c(-c2ccc(O)cc2)oc2cc(O)cc(O)c12
REMARK SMILES IDX 5 1 3 2 2 3 1 4 21 5 19 6 18 7 16 8 15 9 14 10 13 11 6 12
REMARK SMILES IDX 7 13 8 14 9 15 12 16 11 17 10 18 4 20 20 22 17 24
REMARK H PARENT 10 19 4 21 20 23 17 25
REMARK Flexibility Score: inf
ROOT
ATOM      1  C   UNL     1      74.168 -55.601 198.215  1.00  0.00     0.180 A 
ATOM      2  C   UNL     1      75.360 -55.117 197.648  1.00  0.00     0.208 A 
ATOM      3  C   UNL     1      75.331 -54.589 196.346  1.00  0.00     0.238 A 
ATOM      4  O   UNL     1      76.410 -54.208 195.823  1.00  0.00    -0.285 OA
ATOM      5  C   UNL     1      74.107 -54.536 195.636  1.00  0.00     0.111 A 
ATOM      6  C   UNL     1      73.952 -53.986 194.328  1.00  0.00     0.134 A 
ATOM      7  C   UNL     1      72.722 -54.104 193.670  1.00  0.00     0.093 A 
ATOM      8  C   UNL     1      71.625 -54.694 194.294  1.00  0.00     0.123 A 
ATOM      9  C   UNL     1      71.748 -55.183 195.595  1.00  0.00     0.094 A 
ATOM     10  C   UNL     1      72.973 -55.111 196.265  1.00  0.00     0.146 A 
ATOM     11  O   UNL     1      73.050 -55.598 197.498  1.00  0.00    -0.452 OA
ENDROOT
BRANCH   1  12
ATOM     12  C   UNL     1      74.116 -56.148 199.590  1.00  0.00     0.021 A 
ATOM     13  C   UNL     1      73.629 -55.345 200.635  1.00  0.00     0.016 A 
ATOM     14  C   UNL     1      73.592 -55.833 201.944  1.00  0.00     0.047 A 
ATOM     15  C   UNL     1      74.054 -57.125 202.227  1.00  0.00     0.115 A 
ATOM     16  C   UNL     1      74.596 -57.437 199.885  1.00  0.00     0.016 A 
ATOM     17  C   UNL     1      74.559 -57.922 201.195  1.00  0.00     0.047 A 
BRANCH  15  18
ATOM     18  O   UNL     1      74.022 -57.623 203.529  1.00  0.00    -0.508 OA
ATOM     19  H   UNL     1      74.858 -57.972 203.982  1.00  0.00     0.293 HD
ENDBRANCH  15  18
ENDBRANCH   1  12
BRANCH   2  20
ATOM     20  O   UNL     1      76.561 -55.199 198.357  1.00  0.00    -0.502 OA
ATOM     21  H   UNL     1      77.176 -54.405 198.481  1.00  0.00     0.293 HD
ENDBRANCH   2  20
BRANCH   6  22
ATOM     22  O   UNL     1      74.960 -53.294 193.649  1.00  0.00    -0.507 OA
ATOM     23  H   UNL     1      74.806 -52.493 193.054  1.00  0.00     0.293 HD
ENDBRANCH   6  22
BRANCH   8  24
ATOM     24  O   UNL     1      70.412 -54.781 193.615  1.00  0.00    -0.508 OA
ATOM     25  H   UNL     1      70.161 -55.606 193.081  1.00  0.00     0.293 HD
ENDBRANCH   8  24
TORSDOF 5
ENDMDL
MODEL 4
REMARK VINA RESULT:    -5.168      1.441      6.383
REMARK INTER + INTRA:          -6.281
REMARK INTER:                  -6.020
REMARK INTRA:                  -0.261
REMARK UNBOUND:                -0.207
REMARK SMILES O=c1c(O)c(-c2ccc(O)cc2)oc2cc(O)cc(O)c12
REMARK SMILES IDX 5 1 3 2 2 3 1 4 21 5 19 6 18 7 16 8 15 9 14 10 13 11 6 12
REMARK SMILES IDX 7 13 8 14 9 15 12 16 11 17 10 18 4 20 20 22 17 24
REMARK H PARENT 10 19 4 21 20 23 17 25
REMARK Flexibility Score: inf
ROOT
ATOM      1  C   UNL     1      76.291 -54.733 197.328  1.00  0.00     0.180 A 
ATOM      2  C   UNL     1      75.053 -54.355 196.779  1.00  0.00     0.208 A 
ATOM      3  C   UNL     1      73.872 -54.864 197.345  1.00  0.00     0.238 A 
ATOM      4  O   UNL     1      72.770 -54.566 196.815  1.00  0.00    -0.285 OA
ATOM      5  C   UNL     1      73.944 -55.730 198.463  1.00  0.00     0.111 A 
ATOM      6  C   UNL     1      72.812 -56.272 199.141  1.00  0.00     0.134 A 
ATOM      7  C   UNL     1      73.002 -57.221 200.153  1.00  0.00     0.093 A 
ATOM      8  C   UNL     1      74.281 -57.599 200.555  1.00  0.00     0.123 A 
ATOM      9  C   UNL     1      75.397 -57.031 199.939  1.00  0.00     0.094 A 
ATOM     10  C   UNL     1      75.239 -56.108 198.902  1.00  0.00     0.146 A 
ATOM     11  O   UNL     1      76.327 -55.598 198.335  1.00  0.00    -0.452 OA
ENDROOT
BRANCH   1  12
ATOM     12  C   UNL     1      77.575 -54.218 196.802  1.00  0.00     0.021 A 
ATOM     13  C   UNL     1      78.145 -54.816 195.666  1.00  0.00     0.016 A 
ATOM     14  C   UNL     1      79.369 -54.361 195.165  1.00  0.00     0.047 A 
ATOM     15  C   UNL     1      80.044 -53.313 195.803  1.00  0.00     0.115 A 
ATOM     16  C   UNL     1      78.269 -53.180 197.449  1.00  0.00     0.016 A 
ATOM     17  C   UNL     1      79.493 -52.728 196.946  1.00  0.00     0.047 A 
BRANCH  15  18
ATOM     18  O   UNL     1      81.265 -52.851 195.313  1.00  0.00    -0.508 OA
ATOM     19  H   UNL     1      82.082 -52.784 195.908  1.00  0.00     0.293 HD
ENDBRANCH  15  18
ENDBRANCH   1  12
BRANCH   2  20
ATOM     20  O   UNL     1      75.005 -53.518 195.662  1.00  0.00    -0.502 OA
ATOM     21  H   UNL     1      75.060 -53.870 194.714  1.00  0.00     0.293 HD
ENDBRANCH   2  20
BRANCH   6  22
ATOM     22  O   UNL     1      71.491 -55.895 198.880  1.00  0.00    -0.507 OA
ATOM     23  H   UNL     1      70.992 -55.170 199.374  1.00  0.00     0.293 HD
ENDBRANCH   6  22
BRANCH   8  24
ATOM     24  O   UNL     1      74.434 -58.534 201.576  1.00  0.00    -0.508 OA
ATOM     25  H   UNL     1      74.069 -59.476 201.491  1.00  0.00     0.293 HD
ENDBRANCH   8  24
TORSDOF 5
ENDMDL
MODEL 5
REMARK VINA RESULT:    -5.096      1.856      6.886
REMARK INTER + INTRA:          -6.197
REMARK INTER:                  -5.915
REMARK INTRA:                  -0.282
REMARK UNBOUND:                -0.207
REMARK SMILES O=c1c(O)c(-c2ccc(O)cc2)oc2cc(O)cc(O)c12
REMARK SMILES IDX 5 1 3 2 2 3 1 4 21 5 19 6 18 7 16 8 15 9 14 10 13 11 6 12
REMARK SMILES IDX 7 13 8 14 9 15 12 16 11 17 10 18 4 20 20 22 17 24
REMARK H PARENT 10 19 4 21 20 23 17 25
REMARK Flexibility Score: inf
ROOT
ATOM      1  C   UNL     1      75.747 -54.893 198.523  1.00  0.00     0.180 A 
ATOM      2  C   UNL     1      75.015 -53.761 198.924  1.00  0.00     0.208 A 
ATOM      3  C   UNL     1      74.026 -53.903 199.911  1.00  0.00     0.238 A 
ATOM      4  O   UNL     1      73.337 -52.898 200.226  1.00  0.00    -0.285 OA
ATOM      5  C   UNL     1      73.794 -55.172 200.498  1.00  0.00     0.111 A 
ATOM      6  C   UNL     1      72.846 -55.423 201.535  1.00  0.00     0.134 A 
ATOM      7  C   UNL     1      72.609 -56.740 201.948  1.00  0.00     0.093 A 
ATOM      8  C   UNL     1      73.328 -57.804 201.411  1.00  0.00     0.123 A 
ATOM      9  C   UNL     1      74.300 -57.564 200.438  1.00  0.00     0.094 A 
ATOM     10  C   UNL     1      74.534 -56.265 199.979  1.00  0.00     0.146 A 
ATOM     11  O   UNL     1      75.460 -56.080 199.045  1.00  0.00    -0.452 OA
ENDROOT
BRANCH   1  12
ATOM     12  C   UNL     1      76.821 -54.817 197.507  1.00  0.00     0.021 A 
ATOM     13  C   UNL     1      76.559 -55.235 196.192  1.00  0.00     0.016 A 
ATOM     14  C   UNL     1      77.564 -55.193 195.222  1.00  0.00     0.047 A 
ATOM     15  C   UNL     1      78.848 -54.746 195.558  1.00  0.00     0.115 A 
ATOM     16  C   UNL     1      78.118 -54.387 197.842  1.00  0.00     0.016 A 
ATOM     17  C   UNL     1      79.122 -54.347 196.870  1.00  0.00     0.047 A 
BRANCH  15  18
ATOM     18  O   UNL     1      79.859 -54.699 194.599  1.00  0.00    -0.508 OA
ATOM     19  H   UNL     1      80.824 -54.531 194.856  1.00  0.00     0.293 HD
ENDBRANCH  15  18
ENDBRANCH   1  12
BRANCH   2  20
ATOM     20  O   UNL     1      75.244 -52.524 198.316  1.00  0.00    -0.502 OA
ATOM     21  H   UNL     1      74.693 -51.702 198.530  1.00  0.00     0.293 HD
ENDBRANCH   2  20
BRANCH   6  22
ATOM     22  O   UNL     1      72.138 -54.421 202.204  1.00  0.00    -0.507 OA
ATOM     23  H   UNL     1      71.635 -53.672 201.752  1.00  0.00     0.293 HD
ENDBRANCH   6  22
BRANCH   8  24
ATOM     24  O   UNL     1      73.077 -59.100 201.857  1.00  0.00    -0.508 OA
ATOM     25  H   UNL     1      73.723 -59.585 202.469  1.00  0.00     0.293 HD
ENDBRANCH   8  24
TORSDOF 5
ENDMDL
MODEL 6
REMARK VINA RESULT:    -5.077      3.186      5.334
REMARK INTER + INTRA:          -6.174
REMARK INTER:                  -5.874
REMARK INTRA:                  -0.300
REMARK UNBOUND:                -0.207
REMARK SMILES O=c1c(O)c(-c2ccc(O)cc2)oc2cc(O)cc(O)c12
REMARK SMILES IDX 5 1 3 2 2 3 1 4 21 5 19 6 18 7 16 8 15 9 14 10 13 11 6 12
REMARK SMILES IDX 7 13 8 14 9 15 12 16 11 17 10 18 4 20 20 22 17 24
REMARK H PARENT 10 19 4 21 20 23 17 25
REMARK Flexibility Score: inf
ROOT
ATOM      1  C   UNL     1      73.633 -54.654 194.982  1.00  0.00     0.180 A 
ATOM      2  C   UNL     1      74.190 -55.129 196.182  1.00  0.00     0.208 A 
ATOM      3  C   UNL     1      75.579 -55.039 196.372  1.00  0.00     0.238 A 
ATOM      4  O   UNL     1      76.078 -55.516 197.424  1.00  0.00    -0.285 OA
ATOM      5  C   UNL     1      76.391 -54.461 195.365  1.00  0.00     0.111 A 
ATOM      6  C   UNL     1      77.803 -54.282 195.467  1.00  0.00     0.134 A 
ATOM      7  C   UNL     1      78.522 -53.819 194.359  1.00  0.00     0.093 A 
ATOM      8  C   UNL     1      77.875 -53.467 193.176  1.00  0.00     0.123 A 
ATOM      9  C   UNL     1      76.487 -53.581 193.085  1.00  0.00     0.094 A 
ATOM     10  C   UNL     1      75.746 -54.074 194.162  1.00  0.00     0.146 A 
ATOM     11  O   UNL     1      74.428 -54.178 194.031  1.00  0.00    -0.452 OA
ENDROOT
BRANCH   1  12
ATOM     12  C   UNL     1      72.176 -54.692 194.721  1.00  0.00     0.021 A 
ATOM     13  C   UNL     1      71.627 -55.779 194.021  1.00  0.00     0.016 A 
ATOM     14  C   UNL     1      70.258 -55.824 193.744  1.00  0.00     0.047 A 
ATOM     15  C   UNL     1      69.422 -54.776 194.151  1.00  0.00     0.115 A 
ATOM     16  C   UNL     1      71.334 -53.634 195.109  1.00  0.00     0.016 A 
ATOM     17  C   UNL     1      69.965 -53.682 194.830  1.00  0.00     0.047 A 
BRANCH  15  18
ATOM     18  O   UNL     1      68.056 -54.810 193.880  1.00  0.00    -0.508 OA
ATOM     19  H   UNL     1      67.665 -55.461 193.209  1.00  0.00     0.293 HD
ENDBRANCH  15  18
ENDBRANCH   1  12
BRANCH   2  20
ATOM     20  O   UNL     1      73.374 -55.716 197.152  1.00  0.00    -0.502 OA
ATOM     21  H   UNL     1      73.439 -55.479 198.135  1.00  0.00     0.293 HD
ENDBRANCH   2  20
BRANCH   6  22
ATOM     22  O   UNL     1      78.537 -54.517 196.633  1.00  0.00    -0.507 OA
ATOM     23  H   UNL     1      78.508 -53.937 197.458  1.00  0.00     0.293 HD
ENDBRANCH   6  22
BRANCH   8  24
ATOM     24  O   UNL     1      78.620 -52.994 192.098  1.00  0.00    -0.508 OA
ATOM     25  H   UNL     1      78.343 -52.164 191.586  1.00  0.00     0.293 HD
ENDBRANCH   8  24
TORSDOF 5
ENDMDL
MODEL 7
REMARK VINA RESULT:    -5.067      1.845      6.583
REMARK INTER + INTRA:          -6.163
REMARK INTER:                  -5.976
REMARK INTRA:                  -0.186
REMARK UNBOUND:                -0.207
REMARK SMILES O=c1c(O)c(-c2ccc(O)cc2)oc2cc(O)cc(O)c12
REMARK SMILES IDX 5 1 3 2 2 3 1 4 21 5 19 6 18 7 16 8 15 9 14 10 13 11 6 12
REMARK SMILES IDX 7 13 8 14 9 15 12 16 11 17 10 18 4 20 20 22 17 24
REMARK H PARENT 10 19 4 21 20 23 17 25
REMARK Flexibility Score: inf
ROOT
ATOM      1  C   UNL     1      75.009 -55.285 197.139  1.00  0.00     0.180 A 
ATOM      2  C   UNL     1      73.636 -55.045 197.323  1.00  0.00     0.208 A 
ATOM      3  C   UNL     1      73.005 -55.545 198.474  1.00  0.00     0.238 A 
ATOM      4  O   UNL     1      71.765 -55.374 198.607  1.00  0.00    -0.285 OA
ATOM      5  C   UNL     1      73.758 -56.263 199.435  1.00  0.00     0.111 A 
ATOM      6  C   UNL     1      73.231 -56.779 200.656  1.00  0.00     0.134 A 
ATOM      7  C   UNL     1      74.037 -57.586 201.469  1.00  0.00     0.093 A 
ATOM      8  C   UNL     1      75.366 -57.841 201.139  1.00  0.00     0.123 A 
ATOM      9  C   UNL     1      75.909 -57.293 199.977  1.00  0.00     0.094 A 
ATOM     10  C   UNL     1      75.120 -56.513 199.127  1.00  0.00     0.146 A 
ATOM     11  O   UNL     1      75.673 -56.018 198.025  1.00  0.00    -0.452 OA
ENDROOT
BRANCH   1  12
ATOM     12  C   UNL     1      75.748 -54.769 195.964  1.00  0.00     0.021 A 
ATOM     13  C   UNL     1      76.303 -55.676 195.045  1.00  0.00     0.016 A 
ATOM     14  C   UNL     1      77.024 -55.212 193.941  1.00  0.00     0.047 A 
ATOM     15  C   UNL     1      77.211 -53.836 193.750  1.00  0.00     0.115 A 
ATOM     16  C   UNL     1      75.957 -53.391 195.776  1.00  0.00     0.016 A 
ATOM     17  C   UNL     1      76.679 -52.930 194.672  1.00  0.00     0.047 A 
BRANCH  15  18
ATOM     18  O   UNL     1      77.928 -53.362 192.653  1.00  0.00    -0.508 OA
ATOM     19  H   UNL     1      77.668 -52.504 192.182  1.00  0.00     0.293 HD
ENDBRANCH  15  18
ENDBRANCH   1  12
BRANCH   2  20
ATOM     20  O   UNL     1      72.906 -54.354 196.353  1.00  0.00    -0.502 OA
ATOM     21  H   UNL     1      72.383 -54.825 195.626  1.00  0.00     0.293 HD
ENDBRANCH   2  20
BRANCH   6  22
ATOM     22  O   UNL     1      71.943 -56.509 201.126  1.00  0.00    -0.507 OA
ATOM     23  H   UNL     1      71.253 -55.962 200.632  1.00  0.00     0.293 HD
ENDBRANCH   6  22
BRANCH   8  24
ATOM     24  O   UNL     1      76.143 -58.636 201.979  1.00  0.00    -0.508 OA
ATOM     25  H   UNL     1      76.397 -59.584 201.727  1.00  0.00     0.293 HD
ENDBRANCH   8  24
TORSDOF 5
ENDMDL
MODEL 8
REMARK VINA RESULT:    -4.992      3.829      7.839
REMARK INTER + INTRA:          -6.074
REMARK INTER:                  -5.791
REMARK INTRA:                  -0.283
REMARK UNBOUND:                -0.207
REMARK SMILES O=c1c(O)c(-c2ccc(O)cc2)oc2cc(O)cc(O)c12
REMARK SMILES IDX 5 1 3 2 2 3 1 4 21 5 19 6 18 7 16 8 15 9 14 10 13 11 6 12
REMARK SMILES IDX 7 13 8 14 9 15 12 16 11 17 10 18 4 20 20 22 17 24
REMARK H PARENT 10 19 4 21 20 23 17 25
REMARK Flexibility Score: inf
ROOT
ATOM      1  C   UNL     1      72.347 -57.114 199.285  1.00  0.00     0.180 A 
ATOM      2  C   UNL     1      71.502 -57.570 198.259  1.00  0.00     0.208 A 
ATOM      3  C   UNL     1      70.699 -58.700 198.487  1.00  0.00     0.238 A 
ATOM      4  O   UNL     1      69.986 -59.136 197.546  1.00  0.00    -0.285 OA
ATOM      5  C   UNL     1      70.740 -59.349 199.746  1.00  0.00     0.111 A 
ATOM      6  C   UNL     1      69.941 -60.476 200.101  1.00  0.00     0.134 A 
ATOM      7  C   UNL     1      70.157 -61.117 201.328  1.00  0.00     0.093 A 
ATOM      8  C   UNL     1      71.096 -60.634 202.236  1.00  0.00     0.123 A 
ATOM      9  C   UNL     1      71.842 -59.497 201.924  1.00  0.00     0.094 A 
ATOM     10  C   UNL     1      71.674 -58.857 200.693  1.00  0.00     0.146 A 
ATOM     11  O   UNL     1      72.411 -57.783 200.431  1.00  0.00    -0.452 OA
ENDROOT
BRANCH   1  12
ATOM     12  C   UNL     1      73.203 -55.916 199.127  1.00  0.00     0.021 A 
ATOM     13  C   UNL     1      74.572 -56.077 198.856  1.00  0.00     0.016 A 
ATOM     14  C   UNL     1      75.403 -54.960 198.725  1.00  0.00     0.047 A 
ATOM     15  C   UNL     1      74.878 -53.670 198.878  1.00  0.00     0.115 A 
ATOM     16  C   UNL     1      72.688 -54.619 199.300  1.00  0.00     0.016 A 
ATOM     17  C   UNL     1      73.522 -53.505 199.169  1.00  0.00     0.047 A 
BRANCH  15  18
ATOM     18  O   UNL     1      75.697 -52.550 198.750  1.00  0.00    -0.508 OA
ATOM     19  H   UNL     1      76.271 -52.223 199.518  1.00  0.00     0.293 HD
ENDBRANCH  15  18
ENDBRANCH   1  12
BRANCH   2  20
ATOM     20  O   UNL     1      71.495 -56.929 197.017  1.00  0.00    -0.502 OA
ATOM     21  H   UNL     1      71.931 -56.028 196.867  1.00  0.00     0.293 HD
ENDBRANCH   2  20
BRANCH   6  22
ATOM     22  O   UNL     1      68.911 -60.985 199.305  1.00  0.00    -0.507 OA
ATOM     23  H   UNL     1      68.649 -61.959 199.257  1.00  0.00     0.293 HD
ENDBRANCH   6  22
BRANCH   8  24
ATOM     24  O   UNL     1      71.275 -61.287 203.454  1.00  0.00    -0.508 OA
ATOM     25  H   UNL     1      71.128 -62.286 203.546  1.00  0.00     0.293 HD
ENDBRANCH   8  24
TORSDOF 5
ENDMDL
MODEL 9
REMARK VINA RESULT:    -4.911      4.612      8.830
REMARK INTER + INTRA:          -5.980
REMARK INTER:                  -5.691
REMARK INTRA:                  -0.289
REMARK UNBOUND:                -0.207
REMARK SMILES O=c1c(O)c(-c2ccc(O)cc2)oc2cc(O)cc(O)c12
REMARK SMILES IDX 5 1 3 2 2 3 1 4 21 5 19 6 18 7 16 8 15 9 14 10 13 11 6 12
REMARK SMILES IDX 7 13 8 14 9 15 12 16 11 17 10 18 4 20 20 22 17 24
REMARK H PARENT 10 19 4 21 20 23 17 25
REMARK Flexibility Score: inf
ROOT
ATOM      1  C   UNL     1      71.807 -58.017 200.575  1.00  0.00     0.180 A 
ATOM      2  C   UNL     1      72.070 -58.877 201.656  1.00  0.00     0.208 A 
ATOM      3  C   UNL     1      71.381 -60.099 201.738  1.00  0.00     0.238 A 
ATOM      4  O   UNL     1      71.580 -60.840 202.736  1.00  0.00    -0.285 OA
ATOM      5  C   UNL     1      70.452 -60.452 200.729  1.00  0.00     0.111 A 
ATOM      6  C   UNL     1      69.728 -61.681 200.689  1.00  0.00     0.134 A 
ATOM      7  C   UNL     1      68.739 -61.868 199.716  1.00  0.00     0.093 A 
ATOM      8  C   UNL     1      68.492 -60.901 198.744  1.00  0.00     0.123 A 
ATOM      9  C   UNL     1      69.235 -59.720 198.737  1.00  0.00     0.094 A 
ATOM     10  C   UNL     1      70.205 -59.489 199.717  1.00  0.00     0.146 A 
ATOM     11  O   UNL     1      70.883 -58.347 199.681  1.00  0.00    -0.452 OA
ENDROOT
BRANCH   1  12
ATOM     12  C   UNL     1      72.512 -56.725 200.408  1.00  0.00     0.021 A 
ATOM     13  C   UNL     1      73.718 -56.684 199.689  1.00  0.00     0.016 A 
ATOM     14  C   UNL     1      74.412 -55.480 199.538  1.00  0.00     0.047 A 
ATOM     15  C   UNL     1      73.915 -54.304 200.115  1.00  0.00     0.115 A 
ATOM     16  C   UNL     1      72.030 -55.545 201.001  1.00  0.00     0.016 A 
ATOM     17  C   UNL     1      72.726 -54.342 200.849  1.00  0.00     0.047 A 
BRANCH  15  18
ATOM     18  O   UNL     1      74.597 -53.098 199.971  1.00  0.00    -0.508 OA
ATOM     19  H   UNL     1      74.732 -52.671 199.063  1.00  0.00     0.293 HD
ENDBRANCH  15  18
ENDBRANCH   1  12
BRANCH   2  20
ATOM     20  O   UNL     1      72.974 -58.499 202.652  1.00  0.00    -0.502 OA
ATOM     21  H   UNL     1      73.776 -59.065 202.902  1.00  0.00     0.293 HD
ENDBRANCH   2  20
BRANCH   6  22
ATOM     22  O   UNL     1      69.960 -62.751 201.558  1.00  0.00    -0.507 OA
ATOM     23  H   UNL     1      70.267 -62.659 202.515  1.00  0.00     0.293 HD
ENDBRANCH   6  22
BRANCH   8  24
ATOM     24  O   UNL     1      67.511 -61.128 197.781  1.00  0.00    -0.508 OA
ATOM     25  H   UNL     1      67.204 -60.393 197.155  1.00  0.00     0.293 HD
ENDBRANCH   8  24
TORSDOF 5
ENDMDL
