MODEL 1
REMARK VINA RESULT:    -5.510      0.000      0.000
REMARK INTER + INTRA:         -17.359
REMARK INTER:                 -14.529
REMARK INTRA:                  -2.829
REMARK UNBOUND:                -2.829
REMARK SMILES CCCCCCCCCCCCCCCCCCCCCCCCCCCCCC(=O)[O-]
REMARK SMILES IDX 16 1 17 2 18 3 19 4 20 5 21 6 22 7 23 8 24 9 25 10 26 11
REMARK SMILES IDX 27 12 28 13 29 14 30 15 31 16 32 17 15 18 14 19 13 20 12 21
REMARK SMILES IDX 11 22 10 23 9 24 8 25 7 26 6 27 5 28 4 29 3 30 2 31 1 32
REMARK H PARENT
REMARK Flexibility Score: inf
ROOT
ATOM      1  C   UNL     1      10.604  50.120  23.440  1.00  0.00     0.000 C 
ENDROOT
BRANCH   1   2
ATOM      2  C   UNL     1      10.527  49.084  24.579  1.00  0.00     0.000 C 
BRANCH   2   3
ATOM      3  C   UNL     1      10.932  47.654  24.185  1.00  0.00     0.000 C 
BRANCH   3   4
ATOM      4  C   UNL     1       9.906  46.601  24.637  1.00  0.00     0.000 C 
BRANCH   4   5
ATOM      5  C   UNL     1      10.485  45.176  24.638  1.00  0.00     0.000 C 
BRANCH   5   6
ATOM      6  C   UNL     1       9.970  44.328  25.811  1.00  0.00     0.000 C 
BRANCH   6   7
ATOM      7  C   UNL     1      10.181  45.057  27.148  1.00  0.00     0.000 C 
BRANCH   7   8
ATOM      8  C   UNL     1      11.418  44.557  27.911  1.00  0.00     0.000 C 
BRANCH   8   9
ATOM      9  C   UNL     1      11.180  44.474  29.430  1.00  0.00     0.000 C 
BRANCH   9  10
ATOM     10  C   UNL     1      12.483  44.567  30.247  1.00  0.00     0.000 C 
BRANCH  10  11
ATOM     11  C   UNL     1      13.156  45.952  30.258  1.00  0.00     0.000 C 
BRANCH  11  12
ATOM     12  C   UNL     1      12.176  47.094  30.575  1.00  0.00     0.000 C 
BRANCH  12  13
ATOM     13  C   UNL     1      12.335  48.294  29.621  1.00  0.00     0.006 C 
BRANCH  13  14
ATOM     14  C   UNL     1      13.363  48.076  28.498  1.00  0.00     0.053 C 
BRANCH  14  15
ATOM     15  C   UNL     1      14.574  48.942  28.670  1.00  0.00     0.041 C 
ATOM     16  O   UNL     1      15.701  48.541  28.276  1.00  0.00    -0.550 OA
ATOM     17  O   UNL     1      14.464  50.176  29.298  1.00  0.00    -0.550 OA
ENDBRANCH  14  15
ENDBRANCH  13  14
ENDBRANCH  12  13
ENDBRANCH  11  12
ENDBRANCH  10  11
ENDBRANCH   9  10
ENDBRANCH   8   9
ENDBRANCH   7   8
ENDBRANCH   6   7
ENDBRANCH   5   6
ENDBRANCH   4   5
ENDBRANCH   3   4
ENDBRANCH   2   3
ENDBRANCH   1   2
BRANCH   1  18
ATOM     18  C   UNL     1       9.940  51.472  23.778  1.00  0.00     0.000 C 
BRANCH  18  19
ATOM     19  C   UNL     1      10.102  52.502  22.646  1.00  0.00     0.000 C 
BRANCH  19  20
ATOM     20  C   UNL     1      10.675  53.839  23.146  1.00  0.00     0.000 C 
BRANCH  20  21
ATOM     21  C   UNL     1      10.584  53.980  24.675  1.00  0.00     0.000 C 
BRANCH  21  22
ATOM     22  C   UNL     1      10.022  55.346  25.104  1.00  0.00     0.000 C 
BRANCH  22  23
ATOM     23  C   UNL     1       8.686  55.223  25.854  1.00  0.00     0.000 C 
BRANCH  23  24
ATOM     24  C   UNL     1       8.117  53.794  25.839  1.00  0.00    -0.000 C 
BRANCH  24  25
ATOM     25  C   UNL     1       6.799  53.658  25.050  1.00  0.00    -0.000 C 
BRANCH  25  26
ATOM     26  C   UNL     1       7.010  53.764  23.531  1.00  0.00    -0.000 C 
BRANCH  26  27
ATOM     27  C   UNL     1       6.190  54.922  22.941  1.00  0.00    -0.000 C 
BRANCH  27  28
ATOM     28  C   UNL     1       7.067  56.037  22.342  1.00  0.00    -0.000 C 
BRANCH  28  29
ATOM     29  C   UNL     1       7.579  55.761  20.916  1.00  0.00    -0.000 C 
BRANCH  29  30
ATOM     30  C   UNL     1       7.669  54.259  20.594  1.00  0.00    -0.000 C 
BRANCH  30  31
ATOM     31  C   UNL     1       6.727  53.844  19.452  1.00  0.00    -0.003 C 
ATOM     32  C   UNL     1       6.750  54.825  18.280  1.00  0.00     0.004 C 
ENDBRANCH  30  31
ENDBRANCH  29  30
ENDBRANCH  28  29
ENDBRANCH  27  28
ENDBRANCH  26  27
ENDBRANCH  25  26
ENDBRANCH  24  25
ENDBRANCH  23  24
ENDBRANCH  22  23
ENDBRANCH  21  22
ENDBRANCH  20  21
ENDBRANCH  19  20
ENDBRANCH  18  19
ENDBRANCH   1  18
TORSDOF 28
ENDMDL
MODEL 2
REMARK VINA RESULT:    -5.450      2.304      3.614
REMARK INTER + INTRA:         -17.201
REMARK INTER:                 -13.663
REMARK INTRA:                  -3.538
REMARK UNBOUND:                -2.829
REMARK SMILES CCCCCCCCCCCCCCCCCCCCCCCCCCCCCC(=O)[O-]
REMARK SMILES IDX 16 1 17 2 18 3 19 4 20 5 21 6 22 7 23 8 24 9 25 10 26 11
REMARK SMILES IDX 27 12 28 13 29 14 30 15 31 16 32 17 15 18 14 19 13 20 12 21
REMARK SMILES IDX 11 22 10 23 9 24 8 25 7 26 6 27 5 28 4 29 3 30 2 31 1 32
REMARK H PARENT
REMARK Flexibility Score: inf
ROOT
ATOM      1  C   UNL     1      10.183  49.001  24.212  1.00  0.00     0.000 C 
ENDROOT
BRANCH   1   2
ATOM      2  C   UNL     1      10.822  48.399  25.479  1.00  0.00     0.000 C 
BRANCH   2   3
ATOM      3  C   UNL     1      12.029  47.480  25.224  1.00  0.00     0.000 C 
BRANCH   3   4
ATOM      4  C   UNL     1      13.103  47.594  26.319  1.00  0.00     0.000 C 
BRANCH   4   5
ATOM      5  C   UNL     1      12.531  48.092  27.657  1.00  0.00     0.000 C 
BRANCH   5   6
ATOM      6  C   UNL     1      13.617  48.632  28.601  1.00  0.00     0.000 C 
BRANCH   6   7
ATOM      7  C   UNL     1      13.769  47.728  29.834  1.00  0.00     0.000 C 
BRANCH   7   8
ATOM      8  C   UNL     1      14.853  46.652  29.656  1.00  0.00     0.000 C 
BRANCH   8   9
ATOM      9  C   UNL     1      14.431  45.288  30.230  1.00  0.00     0.000 C 
BRANCH   9  10
ATOM     10  C   UNL     1      12.977  45.274  30.736  1.00  0.00     0.000 C 
BRANCH  10  11
ATOM     11  C   UNL     1      12.014  44.365  29.950  1.00  0.00     0.000 C 
BRANCH  11  12
ATOM     12  C   UNL     1      12.068  44.603  28.431  1.00  0.00     0.000 C 
BRANCH  12  13
ATOM     13  C   UNL     1      10.678  44.870  27.823  1.00  0.00     0.006 C 
BRANCH  13  14
ATOM     14  C   UNL     1      10.498  44.330  26.394  1.00  0.00     0.053 C 
BRANCH  14  15
ATOM     15  C   UNL     1       9.209  44.785  25.780  1.00  0.00     0.041 C 
ATOM     16  O   UNL     1       9.214  45.405  24.684  1.00  0.00    -0.550 OA
ATOM     17  O   UNL     1       8.008  44.556  26.436  1.00  0.00    -0.550 OA
ENDBRANCH  14  15
ENDBRANCH  13  14
ENDBRANCH  12  13
ENDBRANCH  11  12
ENDBRANCH  10  11
ENDBRANCH   9  10
ENDBRANCH   8   9
ENDBRANCH   7   8
ENDBRANCH   6   7
ENDBRANCH   5   6
ENDBRANCH   4   5
ENDBRANCH   3   4
ENDBRANCH   2   3
ENDBRANCH   1   2
BRANCH   1  18
ATOM     18  C   UNL     1      10.844  50.315  23.743  1.00  0.00     0.000 C 
BRANCH  18  19
ATOM     19  C   UNL     1       9.856  51.494  23.730  1.00  0.00     0.000 C 
BRANCH  19  20
ATOM     20  C   UNL     1      10.221  52.556  22.680  1.00  0.00     0.000 C 
BRANCH  20  21
ATOM     21  C   UNL     1      10.385  53.957  23.295  1.00  0.00     0.000 C 
BRANCH  21  22
ATOM     22  C   UNL     1      10.168  53.957  24.817  1.00  0.00     0.000 C 
BRANCH  22  23
ATOM     23  C   UNL     1       8.956  54.805  25.238  1.00  0.00     0.000 C 
BRANCH  23  24
ATOM     24  C   UNL     1       7.631  54.024  25.191  1.00  0.00    -0.000 C 
BRANCH  24  25
ATOM     25  C   UNL     1       7.039  53.890  23.773  1.00  0.00    -0.000 C 
BRANCH  25  26
ATOM     26  C   UNL     1       5.766  54.731  23.586  1.00  0.00    -0.000 C 
BRANCH  26  27
ATOM     27  C   UNL     1       6.033  55.936  22.670  1.00  0.00    -0.000 C 
BRANCH  27  28
ATOM     28  C   UNL     1       7.483  55.993  22.156  1.00  0.00    -0.000 C 
BRANCH  28  29
ATOM     29  C   UNL     1       7.657  55.635  20.669  1.00  0.00    -0.000 C 
BRANCH  29  30
ATOM     30  C   UNL     1       7.704  54.116  20.422  1.00  0.00    -0.000 C 
BRANCH  30  31
ATOM     31  C   UNL     1       6.689  53.659  19.362  1.00  0.00    -0.003 C 
ATOM     32  C   UNL     1       6.568  54.642  18.196  1.00  0.00     0.004 C 
ENDBRANCH  30  31
ENDBRANCH  29  30
ENDBRANCH  28  29
ENDBRANCH  27  28
ENDBRANCH  26  27
ENDBRANCH  25  26
ENDBRANCH  24  25
ENDBRANCH  23  24
ENDBRANCH  22  23
ENDBRANCH  21  22
ENDBRANCH  20  21
ENDBRANCH  19  20
ENDBRANCH  18  19
ENDBRANCH   1  18
TORSDOF 28
ENDMDL
MODEL 3
REMARK VINA RESULT:    -5.269      5.891     12.986
REMARK INTER + INTRA:         -16.724
REMARK INTER:                 -14.053
REMARK INTRA:                  -2.670
REMARK UNBOUND:                -2.829
REMARK SMILES CCCCCCCCCCCCCCCCCCCCCCCCCCCCCC(=O)[O-]
REMARK SMILES IDX 16 1 17 2 18 3 19 4 20 5 21 6 22 7 23 8 24 9 25 10 26 11
REMARK SMILES IDX 27 12 28 13 29 14 30 15 31 16 32 17 15 18 14 19 13 20 12 21
REMARK SMILES IDX 11 22 10 23 9 24 8 25 7 26 6 27 5 28 4 29 3 30 2 31 1 32
REMARK H PARENT
REMARK Flexibility Score: inf
ROOT
ATOM      1  C   UNL     1       6.577  54.024  24.056  1.00  0.00     0.000 C 
ENDROOT
BRANCH   1   2
ATOM      2  C   UNL     1       6.978  53.262  22.777  1.00  0.00     0.000 C 
BRANCH   2   3
ATOM      3  C   UNL     1       6.181  53.641  21.518  1.00  0.00     0.000 C 
BRANCH   3   4
ATOM      4  C   UNL     1       7.027  54.413  20.490  1.00  0.00     0.000 C 
BRANCH   4   5
ATOM      5  C   UNL     1       8.093  55.302  21.153  1.00  0.00     0.000 C 
BRANCH   5   6
ATOM      6  C   UNL     1       7.669  56.777  21.231  1.00  0.00     0.000 C 
BRANCH   6   7
ATOM      7  C   UNL     1       6.681  57.002  22.387  1.00  0.00     0.000 C 
BRANCH   7   8
ATOM      8  C   UNL     1       5.258  57.321  21.901  1.00  0.00     0.000 C 
BRANCH   8   9
ATOM      9  C   UNL     1       4.438  58.099  22.945  1.00  0.00     0.000 C 
BRANCH   9  10
ATOM     10  C   UNL     1       3.367  59.006  22.313  1.00  0.00     0.000 C 
BRANCH  10  11
ATOM     11  C   UNL     1       2.610  58.398  21.117  1.00  0.00     0.000 C 
BRANCH  11  12
ATOM     12  C   UNL     1       1.310  59.152  20.783  1.00  0.00     0.000 C 
BRANCH  12  13
ATOM     13  C   UNL     1       1.524  60.272  19.747  1.00  0.00     0.006 C 
BRANCH  13  14
ATOM     14  C   UNL     1       0.588  60.193  18.529  1.00  0.00     0.053 C 
BRANCH  14  15
ATOM     15  C   UNL     1       0.958  59.068  17.610  1.00  0.00     0.041 C 
ATOM     16  O   UNL     1       2.115  59.007  17.116  1.00  0.00    -0.550 OA
ATOM     17  O   UNL     1       0.014  58.108  17.271  1.00  0.00    -0.550 OA
ENDBRANCH  14  15
ENDBRANCH  13  14
ENDBRANCH  12  13
ENDBRANCH  11  12
ENDBRANCH  10  11
ENDBRANCH   9  10
ENDBRANCH   8   9
ENDBRANCH   7   8
ENDBRANCH   6   7
ENDBRANCH   5   6
ENDBRANCH   4   5
ENDBRANCH   3   4
ENDBRANCH   2   3
ENDBRANCH   1   2
BRANCH   1  18
ATOM     18  C   UNL     1       7.647  53.988  25.168  1.00  0.00     0.000 C 
BRANCH  18  19
ATOM     19  C   UNL     1       8.889  54.822  24.810  1.00  0.00     0.000 C 
BRANCH  19  20
ATOM     20  C   UNL     1      10.166  53.969  24.726  1.00  0.00     0.000 C 
BRANCH  20  21
ATOM     21  C   UNL     1      10.638  53.761  23.276  1.00  0.00     0.000 C 
BRANCH  21  22
ATOM     22  C   UNL     1      10.273  52.369  22.735  1.00  0.00     0.000 C 
BRANCH  22  23
ATOM     23  C   UNL     1       9.865  51.393  23.850  1.00  0.00     0.000 C 
BRANCH  23  24
ATOM     24  C   UNL     1      10.567  50.029  23.741  1.00  0.00    -0.000 C 
BRANCH  24  25
ATOM     25  C   UNL     1      10.281  49.085  24.927  1.00  0.00    -0.000 C 
BRANCH  25  26
ATOM     26  C   UNL     1      11.017  47.742  24.800  1.00  0.00    -0.000 C 
BRANCH  26  27
ATOM     27  C   UNL     1      11.582  47.293  26.157  1.00  0.00    -0.000 C 
BRANCH  27  28
ATOM     28  C   UNL     1      12.999  46.700  26.052  1.00  0.00    -0.000 C 
BRANCH  28  29
ATOM     29  C   UNL     1      13.698  46.453  27.401  1.00  0.00    -0.000 C 
BRANCH  29  30
ATOM     30  C   UNL     1      14.026  47.756  28.152  1.00  0.00    -0.000 C 
BRANCH  30  31
ATOM     31  C   UNL     1      13.645  47.691  29.639  1.00  0.00    -0.003 C 
ATOM     32  C   UNL     1      12.263  48.282  29.923  1.00  0.00     0.004 C 
ENDBRANCH  30  31
ENDBRANCH  29  30
ENDBRANCH  28  29
ENDBRANCH  27  28
ENDBRANCH  26  27
ENDBRANCH  25  26
ENDBRANCH  24  25
ENDBRANCH  23  24
ENDBRANCH  22  23
ENDBRANCH  21  22
ENDBRANCH  20  21
ENDBRANCH  19  20
ENDBRANCH  18  19
ENDBRANCH   1  18
TORSDOF 28
ENDMDL
MODEL 4
REMARK VINA RESULT:    -5.259      5.326     12.471
REMARK INTER + INTRA:         -16.698
REMARK INTER:                 -13.642
REMARK INTRA:                  -3.056
REMARK UNBOUND:                -2.829
REMARK SMILES CCCCCCCCCCCCCCCCCCCCCCCCCCCCCC(=O)[O-]
REMARK SMILES IDX 16 1 17 2 18 3 19 4 20 5 21 6 22 7 23 8 24 9 25 10 26 11
REMARK SMILES IDX 27 12 28 13 29 14 30 15 31 16 32 17 15 18 14 19 13 20 12 21
REMARK SMILES IDX 11 22 10 23 9 24 8 25 7 26 6 27 5 28 4 29 3 30 2 31 1 32
REMARK H PARENT
REMARK Flexibility Score: inf
ROOT
ATOM      1  C   UNL     1      10.471  54.015  24.819  1.00  0.00     0.000 C 
ENDROOT
BRANCH   1   2
ATOM      2  C   UNL     1       9.238  54.784  25.333  1.00  0.00     0.000 C 
BRANCH   2   3
ATOM      3  C   UNL     1       7.945  53.956  25.419  1.00  0.00     0.000 C 
BRANCH   3   4
ATOM      4  C   UNL     1       6.891  54.391  24.387  1.00  0.00     0.000 C 
BRANCH   4   5
ATOM      5  C   UNL     1       6.898  53.507  23.129  1.00  0.00     0.000 C 
BRANCH   5   6
ATOM      6  C   UNL     1       7.098  54.316  21.837  1.00  0.00     0.000 C 
BRANCH   6   7
ATOM      7  C   UNL     1       7.562  55.747  22.154  1.00  0.00     0.000 C 
BRANCH   7   8
ATOM      8  C   UNL     1       6.611  56.819  21.595  1.00  0.00     0.000 C 
BRANCH   8   9
ATOM      9  C   UNL     1       5.560  57.270  22.624  1.00  0.00     0.000 C 
BRANCH   9  10
ATOM     10  C   UNL     1       4.156  57.438  22.014  1.00  0.00     0.000 C 
BRANCH  10  11
ATOM     11  C   UNL     1       3.658  58.891  21.895  1.00  0.00     0.000 C 
BRANCH  11  12
ATOM     12  C   UNL     1       2.585  59.071  20.807  1.00  0.00     0.000 C 
BRANCH  12  13
ATOM     13  C   UNL     1       1.162  59.168  21.390  1.00  0.00     0.006 C 
BRANCH  13  14
ATOM     14  C   UNL     1       0.872  60.482  22.134  1.00  0.00     0.053 C 
BRANCH  14  15
ATOM     15  C   UNL     1       0.442  60.243  23.549  1.00  0.00     0.041 C 
ATOM     16  O   UNL     1      -0.566  60.837  24.015  1.00  0.00    -0.550 OA
ATOM     17  O   UNL     1       1.177  59.391  24.364  1.00  0.00    -0.550 OA
ENDBRANCH  14  15
ENDBRANCH  13  14
ENDBRANCH  12  13
ENDBRANCH  11  12
ENDBRANCH  10  11
ENDBRANCH   9  10
ENDBRANCH   8   9
ENDBRANCH   7   8
ENDBRANCH   6   7
ENDBRANCH   5   6
ENDBRANCH   4   5
ENDBRANCH   3   4
ENDBRANCH   2   3
ENDBRANCH   1   2
BRANCH   1  18
ATOM     18  C   UNL     1      10.587  53.974  23.280  1.00  0.00     0.000 C 
BRANCH  18  19
ATOM     19  C   UNL     1      10.257  52.586  22.707  1.00  0.00     0.000 C 
BRANCH  19  20
ATOM     20  C   UNL     1      10.001  51.541  23.806  1.00  0.00     0.000 C 
BRANCH  20  21
ATOM     21  C   UNL     1      10.615  50.171  23.467  1.00  0.00     0.000 C 
BRANCH  21  22
ATOM     22  C   UNL     1      10.256  49.096  24.505  1.00  0.00     0.000 C 
BRANCH  22  23
ATOM     23  C   UNL     1      10.980  47.764  24.248  1.00  0.00     0.000 C 
BRANCH  23  24
ATOM     24  C   UNL     1      10.069  46.539  24.440  1.00  0.00    -0.000 C 
BRANCH  24  25
ATOM     25  C   UNL     1       9.867  46.140  25.916  1.00  0.00    -0.000 C 
BRANCH  25  26
ATOM     26  C   UNL     1      10.711  44.920  26.316  1.00  0.00    -0.000 C 
BRANCH  26  27
ATOM     27  C   UNL     1      11.829  45.319  27.292  1.00  0.00    -0.000 C 
BRANCH  27  28
ATOM     28  C   UNL     1      13.006  46.031  26.600  1.00  0.00    -0.000 C 
BRANCH  28  29
ATOM     29  C   UNL     1      13.312  47.442  27.132  1.00  0.00    -0.000 C 
BRANCH  29  30
ATOM     30  C   UNL     1      12.116  48.077  27.863  1.00  0.00    -0.000 C 
BRANCH  30  31
ATOM     31  C   UNL     1      12.364  48.235  29.372  1.00  0.00    -0.003 C 
ATOM     32  C   UNL     1      13.704  47.647  29.816  1.00  0.00     0.004 C 
ENDBRANCH  30  31
ENDBRANCH  29  30
ENDBRANCH  28  29
ENDBRANCH  27  28
ENDBRANCH  26  27
ENDBRANCH  25  26
ENDBRANCH  24  25
ENDBRANCH  23  24
ENDBRANCH  22  23
ENDBRANCH  21  22
ENDBRANCH  20  21
ENDBRANCH  19  20
ENDBRANCH  18  19
ENDBRANCH   1  18
TORSDOF 28
ENDMDL
MODEL 5
REMARK VINA RESULT:    -5.227      5.027      8.252
REMARK INTER + INTRA:         -16.612
REMARK INTER:                 -13.851
REMARK INTRA:                  -2.761
REMARK UNBOUND:                -2.829
REMARK SMILES CCCCCCCCCCCCCCCCCCCCCCCCCCCCCC(=O)[O-]
REMARK SMILES IDX 16 1 17 2 18 3 19 4 20 5 21 6 22 7 23 8 24 9 25 10 26 11
REMARK SMILES IDX 27 12 28 13 29 14 30 15 31 16 32 17 15 18 14 19 13 20 12 21
REMARK SMILES IDX 11 22 10 23 9 24 8 25 7 26 6 27 5 28 4 29 3 30 2 31 1 32
REMARK H PARENT
REMARK Flexibility Score: inf
ROOT
ATOM      1  C   UNL     1       7.811  55.155  21.829  1.00  0.00     0.000 C 
ENDROOT
BRANCH   1   2
ATOM      2  C   UNL     1       7.007  53.928  22.301  1.00  0.00     0.000 C 
BRANCH   2   3
ATOM      3  C   UNL     1       6.483  54.010  23.745  1.00  0.00     0.000 C 
BRANCH   3   4
ATOM      4  C   UNL     1       7.484  53.455  24.772  1.00  0.00     0.000 C 
BRANCH   4   5
ATOM      5  C   UNL     1       8.054  54.550  25.689  1.00  0.00     0.000 C 
BRANCH   5   6
ATOM      6  C   UNL     1       9.396  55.105  25.185  1.00  0.00     0.000 C 
BRANCH   6   7
ATOM      7  C   UNL     1      10.371  53.964  24.855  1.00  0.00     0.000 C 
BRANCH   7   8
ATOM      8  C   UNL     1      10.689  53.867  23.354  1.00  0.00     0.000 C 
BRANCH   8   9
ATOM      9  C   UNL     1      10.383  52.474  22.775  1.00  0.00     0.000 C 
BRANCH   9  10
ATOM     10  C   UNL     1      10.127  51.415  23.863  1.00  0.00     0.000 C 
BRANCH  10  11
ATOM     11  C   UNL     1      10.358  49.955  23.430  1.00  0.00     0.000 C 
BRANCH  11  12
ATOM     12  C   UNL     1      10.611  49.010  24.617  1.00  0.00     0.000 C 
BRANCH  12  13
ATOM     13  C   UNL     1      10.754  47.538  24.182  1.00  0.00     0.006 C 
BRANCH  13  14
ATOM     14  C   UNL     1      10.005  46.539  25.080  1.00  0.00     0.053 C 
BRANCH  14  15
ATOM     15  C   UNL     1      10.911  45.901  26.088  1.00  0.00     0.041 C 
ATOM     16  O   UNL     1      11.394  44.758  25.874  1.00  0.00    -0.550 OA
ATOM     17  O   UNL     1      11.194  46.555  27.280  1.00  0.00    -0.550 OA
ENDBRANCH  14  15
ENDBRANCH  13  14
ENDBRANCH  12  13
ENDBRANCH  11  12
ENDBRANCH  10  11
ENDBRANCH   9  10
ENDBRANCH   8   9
ENDBRANCH   7   8
ENDBRANCH   6   7
ENDBRANCH   5   6
ENDBRANCH   4   5
ENDBRANCH   3   4
ENDBRANCH   2   3
ENDBRANCH   1   2
BRANCH   1  18
ATOM     18  C   UNL     1       7.311  56.493  22.412  1.00  0.00     0.000 C 
BRANCH  18  19
ATOM     19  C   UNL     1       6.031  56.990  21.719  1.00  0.00     0.000 C 
BRANCH  19  20
ATOM     20  C   UNL     1       5.014  57.576  22.713  1.00  0.00     0.000 C 
BRANCH  20  21
ATOM     21  C   UNL     1       3.884  58.349  22.009  1.00  0.00     0.000 C 
BRANCH  21  22
ATOM     22  C   UNL     1       3.147  59.304  22.961  1.00  0.00     0.000 C 
BRANCH  22  23
ATOM     23  C   UNL     1       1.653  58.966  23.092  1.00  0.00     0.000 C 
BRANCH  23  24
ATOM     24  C   UNL     1       0.789  60.191  23.439  1.00  0.00    -0.000 C 
BRANCH  24  25
ATOM     25  C   UNL     1      -0.728  59.913  23.399  1.00  0.00    -0.000 C 
BRANCH  25  26
ATOM     26  C   UNL     1      -1.400  60.497  22.146  1.00  0.00    -0.000 C 
BRANCH  26  27
ATOM     27  C   UNL     1      -0.350  60.983  21.135  1.00  0.00    -0.000 C 
BRANCH  27  28
ATOM     28  C   UNL     1      -0.160  60.015  19.953  1.00  0.00    -0.000 C 
BRANCH  28  29
ATOM     29  C   UNL     1       1.294  59.852  19.477  1.00  0.00    -0.000 C 
BRANCH  29  30
ATOM     30  C   UNL     1       1.422  59.830  17.943  1.00  0.00    -0.000 C 
BRANCH  30  31
ATOM     31  C   UNL     1       0.242  60.523  17.243  1.00  0.00    -0.003 C 
ATOM     32  C   UNL     1       0.654  61.806  16.520  1.00  0.00     0.004 C 
ENDBRANCH  30  31
ENDBRANCH  29  30
ENDBRANCH  28  29
ENDBRANCH  27  28
ENDBRANCH  26  27
ENDBRANCH  25  26
ENDBRANCH  24  25
ENDBRANCH  23  24
ENDBRANCH  22  23
ENDBRANCH  21  22
ENDBRANCH  20  21
ENDBRANCH  19  20
ENDBRANCH  18  19
ENDBRANCH   1  18
TORSDOF 28
ENDMDL
MODEL 6
REMARK VINA RESULT:    -5.219      2.904      4.320
REMARK INTER + INTRA:         -16.590
REMARK INTER:                 -14.345
REMARK INTRA:                  -2.245
REMARK UNBOUND:                -2.829
REMARK SMILES CCCCCCCCCCCCCCCCCCCCCCCCCCCCCC(=O)[O-]
REMARK SMILES IDX 16 1 17 2 18 3 19 4 20 5 21 6 22 7 23 8 24 9 25 10 26 11
REMARK SMILES IDX 27 12 28 13 29 14 30 15 31 16 32 17 15 18 14 19 13 20 12 21
REMARK SMILES IDX 11 22 10 23 9 24 8 25 7 26 6 27 5 28 4 29 3 30 2 31 1 32
REMARK H PARENT
REMARK Flexibility Score: inf
ROOT
ATOM      1  C   UNL     1      10.334  52.368  22.863  1.00  0.00     0.000 C 
ENDROOT
BRANCH   1   2
ATOM      2  C   UNL     1      10.133  51.404  24.049  1.00  0.00     0.000 C 
BRANCH   2   3
ATOM      3  C   UNL     1      10.184  49.909  23.687  1.00  0.00     0.000 C 
BRANCH   3   4
ATOM      4  C   UNL     1      11.131  49.110  24.598  1.00  0.00     0.000 C 
BRANCH   4   5
ATOM      5  C   UNL     1      10.391  48.057  25.439  1.00  0.00     0.000 C 
BRANCH   5   6
ATOM      6  C   UNL     1       9.731  46.968  24.578  1.00  0.00     0.000 C 
BRANCH   6   7
ATOM      7  C   UNL     1      10.548  45.667  24.620  1.00  0.00     0.000 C 
BRANCH   7   8
ATOM      8  C   UNL     1       9.850  44.550  25.413  1.00  0.00     0.000 C 
BRANCH   8   9
ATOM      9  C   UNL     1      10.675  44.084  26.625  1.00  0.00     0.000 C 
BRANCH   9  10
ATOM     10  C   UNL     1      12.158  44.490  26.534  1.00  0.00     0.000 C 
BRANCH  10  11
ATOM     11  C   UNL     1      12.787  44.990  27.847  1.00  0.00     0.000 C 
BRANCH  11  12
ATOM     12  C   UNL     1      11.739  45.384  28.903  1.00  0.00     0.000 C 
BRANCH  12  13
ATOM     13  C   UNL     1      12.337  46.222  30.049  1.00  0.00     0.006 C 
BRANCH  13  14
ATOM     14  C   UNL     1      13.479  47.158  29.617  1.00  0.00     0.053 C 
BRANCH  14  15
ATOM     15  C   UNL     1      13.153  48.598  29.875  1.00  0.00     0.041 C 
ATOM     16  O   UNL     1      13.911  49.506  29.442  1.00  0.00    -0.550 OA
ATOM     17  O   UNL     1      12.033  48.933  30.622  1.00  0.00    -0.550 OA
ENDBRANCH  14  15
ENDBRANCH  13  14
ENDBRANCH  12  13
ENDBRANCH  11  12
ENDBRANCH  10  11
ENDBRANCH   9  10
ENDBRANCH   8   9
ENDBRANCH   7   8
ENDBRANCH   6   7
ENDBRANCH   5   6
ENDBRANCH   4   5
ENDBRANCH   3   4
ENDBRANCH   2   3
ENDBRANCH   1   2
BRANCH   1  18
ATOM     18  C   UNL     1      10.572  53.834  23.282  1.00  0.00     0.000 C 
BRANCH  18  19
ATOM     19  C   UNL     1      10.251  54.077  24.767  1.00  0.00     0.000 C 
BRANCH  19  20
ATOM     20  C   UNL     1       8.971  54.906  24.965  1.00  0.00     0.000 C 
BRANCH  20  21
ATOM     21  C   UNL     1       7.729  54.024  25.181  1.00  0.00     0.000 C 
BRANCH  21  22
ATOM     22  C   UNL     1       7.053  53.630  23.858  1.00  0.00     0.000 C 
BRANCH  22  23
ATOM     23  C   UNL     1       6.168  54.753  23.293  1.00  0.00     0.000 C 
BRANCH  23  24
ATOM     24  C   UNL     1       6.813  55.485  22.103  1.00  0.00    -0.000 C 
BRANCH  24  25
ATOM     25  C   UNL     1       6.417  56.972  21.999  1.00  0.00    -0.000 C 
BRANCH  25  26
ATOM     26  C   UNL     1       5.028  57.253  22.592  1.00  0.00    -0.000 C 
BRANCH  26  27
ATOM     27  C   UNL     1       4.263  58.278  21.740  1.00  0.00    -0.000 C 
BRANCH  27  28
ATOM     28  C   UNL     1       2.855  58.582  22.284  1.00  0.00    -0.000 C 
BRANCH  28  29
ATOM     29  C   UNL     1       2.543  60.077  22.474  1.00  0.00    -0.000 C 
BRANCH  29  30
ATOM     30  C   UNL     1       1.540  60.338  23.612  1.00  0.00    -0.000 C 
BRANCH  30  31
ATOM     31  C   UNL     1       0.536  59.188  23.789  1.00  0.00    -0.003 C 
ATOM     32  C   UNL     1       0.022  59.067  25.224  1.00  0.00     0.004 C 
ENDBRANCH  30  31
ENDBRANCH  29  30
ENDBRANCH  28  29
ENDBRANCH  27  28
ENDBRANCH  26  27
ENDBRANCH  25  26
ENDBRANCH  24  25
ENDBRANCH  23  24
ENDBRANCH  22  23
ENDBRANCH  21  22
ENDBRANCH  20  21
ENDBRANCH  19  20
ENDBRANCH  18  19
ENDBRANCH   1  18
TORSDOF 28
ENDMDL
MODEL 7
REMARK VINA RESULT:    -5.205      8.000     15.000
REMARK INTER + INTRA:         -16.554
REMARK INTER:                 -13.066
REMARK INTRA:                  -3.488
REMARK UNBOUND:                -2.829
REMARK SMILES CCCCCCCCCCCCCCCCCCCCCCCCCCCCCC(=O)[O-]
REMARK SMILES IDX 16 1 17 2 18 3 19 4 20 5 21 6 22 7 23 8 24 9 25 10 26 11
REMARK SMILES IDX 27 12 28 13 29 14 30 15 31 16 32 17 15 18 14 19 13 20 12 21
REMARK SMILES IDX 11 22 10 23 9 24 8 25 7 26 6 27 5 28 4 29 3 30 2 31 1 32
REMARK H PARENT
REMARK Flexibility Score: inf
ROOT
ATOM      1  C   UNL     1       2.771  59.429  23.035  1.00  0.00     0.000 C 
ENDROOT
BRANCH   1   2
ATOM      2  C   UNL     1       1.243  59.632  23.038  1.00  0.00     0.000 C 
BRANCH   2   3
ATOM      3  C   UNL     1       0.417  58.352  23.250  1.00  0.00     0.000 C 
BRANCH   3   4
ATOM      4  C   UNL     1      -0.710  58.536  24.280  1.00  0.00     0.000 C 
BRANCH   4   5
ATOM      5  C   UNL     1      -1.775  59.543  23.814  1.00  0.00     0.000 C 
BRANCH   5   6
ATOM      6  C   UNL     1      -1.943  60.721  24.788  1.00  0.00     0.000 C 
BRANCH   6   7
ATOM      7  C   UNL     1      -1.360  62.011  24.191  1.00  0.00     0.000 C 
BRANCH   7   8
ATOM      8  C   UNL     1      -2.007  62.393  22.850  1.00  0.00     0.000 C 
BRANCH   8   9
ATOM      9  C   UNL     1      -1.019  62.310  21.673  1.00  0.00     0.000 C 
BRANCH   9  10
ATOM     10  C   UNL     1      -1.706  62.452  20.302  1.00  0.00     0.000 C 
BRANCH  10  11
ATOM     11  C   UNL     1      -1.513  61.264  19.341  1.00  0.00     0.000 C 
BRANCH  11  12
ATOM     12  C   UNL     1      -0.785  60.076  19.994  1.00  0.00     0.000 C 
BRANCH  12  13
ATOM     13  C   UNL     1       0.616  59.838  19.397  1.00  0.00     0.006 C 
BRANCH  13  14
ATOM     14  C   UNL     1       0.750  60.245  17.920  1.00  0.00     0.053 C 
BRANCH  14  15
ATOM     15  C   UNL     1       1.305  59.134  17.081  1.00  0.00     0.041 C 
ATOM     16  O   UNL     1       2.417  59.269  16.506  1.00  0.00    -0.550 OA
ATOM     17  O   UNL     1       0.576  57.965  16.905  1.00  0.00    -0.550 OA
ENDBRANCH  14  15
ENDBRANCH  13  14
ENDBRANCH  12  13
ENDBRANCH  11  12
ENDBRANCH  10  11
ENDBRANCH   9  10
ENDBRANCH   8   9
ENDBRANCH   7   8
ENDBRANCH   6   7
ENDBRANCH   5   6
ENDBRANCH   4   5
ENDBRANCH   3   4
ENDBRANCH   2   3
ENDBRANCH   1   2
BRANCH   1  18
ATOM     18  C   UNL     1       3.286  58.573  21.859  1.00  0.00     0.000 C 
BRANCH  18  19
ATOM     19  C   UNL     1       4.265  57.478  22.317  1.00  0.00     0.000 C 
BRANCH  19  20
ATOM     20  C   UNL     1       5.699  57.727  21.822  1.00  0.00     0.000 C 
BRANCH  20  21
ATOM     21  C   UNL     1       6.691  56.673  22.345  1.00  0.00     0.000 C 
BRANCH  21  22
ATOM     22  C   UNL     1       7.736  56.277  21.290  1.00  0.00     0.000 C 
BRANCH  22  23
ATOM     23  C   UNL     1       7.556  54.832  20.797  1.00  0.00     0.000 C 
BRANCH  23  24
ATOM     24  C   UNL     1       6.427  54.085  21.527  1.00  0.00    -0.000 C 
BRANCH  24  25
ATOM     25  C   UNL     1       6.912  53.242  22.724  1.00  0.00    -0.000 C 
BRANCH  25  26
ATOM     26  C   UNL     1       6.527  53.865  24.075  1.00  0.00    -0.000 C 
BRANCH  26  27
ATOM     27  C   UNL     1       7.443  53.354  25.198  1.00  0.00    -0.000 C 
BRANCH  27  28
ATOM     28  C   UNL     1       8.484  54.395  25.648  1.00  0.00    -0.000 C 
BRANCH  28  29
ATOM     29  C   UNL     1       9.320  55.008  24.509  1.00  0.00    -0.000 C 
BRANCH  29  30
ATOM     30  C   UNL     1      10.621  54.232  24.240  1.00  0.00    -0.000 C 
BRANCH  30  31
ATOM     31  C   UNL     1      10.544  53.377  22.965  1.00  0.00    -0.003 C 
ATOM     32  C   UNL     1      10.229  51.908  23.256  1.00  0.00     0.004 C 
ENDBRANCH  30  31
ENDBRANCH  29  30
ENDBRANCH  28  29
ENDBRANCH  27  28
ENDBRANCH  26  27
ENDBRANCH  25  26
ENDBRANCH  24  25
ENDBRANCH  23  24
ENDBRANCH  22  23
ENDBRANCH  21  22
ENDBRANCH  20  21
ENDBRANCH  19  20
ENDBRANCH  18  19
ENDBRANCH   1  18
TORSDOF 28
ENDMDL
MODEL 8
REMARK VINA RESULT:    -5.108      6.004     13.276
REMARK INTER + INTRA:         -16.298
REMARK INTER:                 -14.034
REMARK INTRA:                  -2.264
REMARK UNBOUND:                -2.829
REMARK SMILES CCCCCCCCCCCCCCCCCCCCCCCCCCCCCC(=O)[O-]
REMARK SMILES IDX 16 1 17 2 18 3 19 4 20 5 21 6 22 7 23 8 24 9 25 10 26 11
REMARK SMILES IDX 27 12 28 13 29 14 30 15 31 16 32 17 15 18 14 19 13 20 12 21
REMARK SMILES IDX 11 22 10 23 9 24 8 25 7 26 6 27 5 28 4 29 3 30 2 31 1 32
REMARK H PARENT
REMARK Flexibility Score: inf
ROOT
ATOM      1  C   UNL     1      10.249  53.996  24.837  1.00  0.00     0.000 C 
ENDROOT
BRANCH   1   2
ATOM      2  C   UNL     1       8.948  54.777  25.107  1.00  0.00     0.000 C 
BRANCH   2   3
ATOM      3  C   UNL     1       7.658  53.944  25.012  1.00  0.00     0.000 C 
BRANCH   3   4
ATOM      4  C   UNL     1       6.703  54.451  23.919  1.00  0.00     0.000 C 
BRANCH   4   5
ATOM      5  C   UNL     1       7.450  55.003  22.693  1.00  0.00     0.000 C 
BRANCH   5   6
ATOM      6  C   UNL     1       6.501  55.593  21.637  1.00  0.00     0.000 C 
BRANCH   6   7
ATOM      7  C   UNL     1       6.260  57.089  21.894  1.00  0.00     0.000 C 
BRANCH   7   8
ATOM      8  C   UNL     1       4.908  57.367  22.571  1.00  0.00     0.000 C 
BRANCH   8   9
ATOM      9  C   UNL     1       4.105  58.468  21.856  1.00  0.00     0.000 C 
BRANCH   9  10
ATOM     10  C   UNL     1       3.051  59.128  22.765  1.00  0.00     0.000 C 
BRANCH  10  11
ATOM     11  C   UNL     1       1.723  59.494  22.076  1.00  0.00     0.000 C 
BRANCH  11  12
ATOM     12  C   UNL     1       1.897  60.520  20.943  1.00  0.00     0.000 C 
BRANCH  12  13
ATOM     13  C   UNL     1       1.016  60.205  19.718  1.00  0.00     0.006 C 
BRANCH  13  14
ATOM     14  C   UNL     1       1.587  59.118  18.792  1.00  0.00     0.053 C 
BRANCH  14  15
ATOM     15  C   UNL     1       0.576  58.645  17.792  1.00  0.00     0.041 C 
ATOM     16  O   UNL     1       0.950  58.065  16.738  1.00  0.00    -0.550 OA
ATOM     17  O   UNL     1      -0.775  58.876  18.007  1.00  0.00    -0.550 OA
ENDBRANCH  14  15
ENDBRANCH  13  14
ENDBRANCH  12  13
ENDBRANCH  11  12
ENDBRANCH  10  11
ENDBRANCH   9  10
ENDBRANCH   8   9
ENDBRANCH   7   8
ENDBRANCH   6   7
ENDBRANCH   5   6
ENDBRANCH   4   5
ENDBRANCH   3   4
ENDBRANCH   2   3
ENDBRANCH   1   2
BRANCH   1  18
ATOM     18  C   UNL     1      10.643  53.933  23.346  1.00  0.00     0.000 C 
BRANCH  18  19
ATOM     19  C   UNL     1      10.259  52.592  22.696  1.00  0.00     0.000 C 
BRANCH  19  20
ATOM     20  C   UNL     1       9.904  51.516  23.735  1.00  0.00     0.000 C 
BRANCH  20  21
ATOM     21  C   UNL     1      10.638  50.188  23.478  1.00  0.00     0.000 C 
BRANCH  21  22
ATOM     22  C   UNL     1      10.267  49.106  24.505  1.00  0.00     0.000 C 
BRANCH  22  23
ATOM     23  C   UNL     1      10.682  47.697  24.052  1.00  0.00     0.000 C 
BRANCH  23  24
ATOM     24  C   UNL     1       9.973  46.580  24.837  1.00  0.00    -0.000 C 
BRANCH  24  25
ATOM     25  C   UNL     1      10.589  45.182  24.622  1.00  0.00    -0.000 C 
BRANCH  25  26
ATOM     26  C   UNL     1      10.609  44.345  25.911  1.00  0.00    -0.000 C 
BRANCH  26  27
ATOM     27  C   UNL     1      10.699  45.247  27.152  1.00  0.00    -0.000 C 
BRANCH  27  28
ATOM     28  C   UNL     1      12.031  45.099  27.909  1.00  0.00    -0.000 C 
BRANCH  28  29
ATOM     29  C   UNL     1      13.253  45.701  27.192  1.00  0.00    -0.000 C 
BRANCH  29  30
ATOM     30  C   UNL     1      13.031  47.160  26.756  1.00  0.00    -0.000 C 
BRANCH  30  31
ATOM     31  C   UNL     1      13.501  48.170  27.815  1.00  0.00    -0.003 C 
ATOM     32  C   UNL     1      14.754  47.707  28.559  1.00  0.00     0.004 C 
ENDBRANCH  30  31
ENDBRANCH  29  30
ENDBRANCH  28  29
ENDBRANCH  27  28
ENDBRANCH  26  27
ENDBRANCH  25  26
ENDBRANCH  24  25
ENDBRANCH  23  24
ENDBRANCH  22  23
ENDBRANCH  21  22
ENDBRANCH  20  21
ENDBRANCH  19  20
ENDBRANCH  18  19
ENDBRANCH   1  18
TORSDOF 28
ENDMDL
MODEL 9
REMARK VINA RESULT:    -5.104      6.846     12.153
REMARK INTER + INTRA:         -16.289
REMARK INTER:                 -13.956
REMARK INTRA:                  -2.332
REMARK UNBOUND:                -2.829
REMARK SMILES CCCCCCCCCCCCCCCCCCCCCCCCCCCCCC(=O)[O-]
REMARK SMILES IDX 16 1 17 2 18 3 19 4 20 5 21 6 22 7 23 8 24 9 25 10 26 11
REMARK SMILES IDX 27 12 28 13 29 14 30 15 31 16 32 17 15 18 14 19 13 20 12 21
REMARK SMILES IDX 11 22 10 23 9 24 8 25 7 26 6 27 5 28 4 29 3 30 2 31 1 32
REMARK H PARENT
REMARK Flexibility Score: inf
ROOT
ATOM      1  C   UNL     1       2.832  59.861  21.358  1.00  0.00     0.000 C 
ENDROOT
BRANCH   1   2
ATOM      2  C   UNL     1       1.945  60.748  22.254  1.00  0.00     0.000 C 
BRANCH   2   3
ATOM      3  C   UNL     1       1.698  60.199  23.670  1.00  0.00     0.000 C 
BRANCH   3   4
ATOM      4  C   UNL     1       0.236  60.358  24.121  1.00  0.00     0.000 C 
BRANCH   4   5
ATOM      5  C   UNL     1      -0.202  59.256  25.100  1.00  0.00     0.000 C 
BRANCH   5   6
ATOM      6  C   UNL     1      -0.594  57.952  24.388  1.00  0.00     0.000 C 
BRANCH   6   7
ATOM      7  C   UNL     1      -0.973  56.865  25.406  1.00  0.00     0.000 C 
BRANCH   7   8
ATOM      8  C   UNL     1      -0.538  57.214  26.839  1.00  0.00     0.000 C 
BRANCH   8   9
ATOM      9  C   UNL     1      -1.026  56.181  27.871  1.00  0.00     0.000 C 
BRANCH   9  10
ATOM     10  C   UNL     1       0.128  55.510  28.640  1.00  0.00     0.000 C 
BRANCH  10  11
ATOM     11  C   UNL     1       0.126  53.971  28.620  1.00  0.00     0.000 C 
BRANCH  11  12
ATOM     12  C   UNL     1      -0.245  53.388  27.245  1.00  0.00     0.000 C 
BRANCH  12  13
ATOM     13  C   UNL     1       0.299  51.960  27.040  1.00  0.00     0.006 C 
BRANCH  13  14
ATOM     14  C   UNL     1       0.466  51.553  25.567  1.00  0.00     0.053 C 
BRANCH  14  15
ATOM     15  C   UNL     1      -0.154  50.219  25.280  1.00  0.00     0.041 C 
ATOM     16  O   UNL     1      -1.279  49.925  25.764  1.00  0.00    -0.550 OA
ATOM     17  O   UNL     1       0.527  49.288  24.507  1.00  0.00    -0.550 OA
ENDBRANCH  14  15
ENDBRANCH  13  14
ENDBRANCH  12  13
ENDBRANCH  11  12
ENDBRANCH  10  11
ENDBRANCH   9  10
ENDBRANCH   8   9
ENDBRANCH   7   8
ENDBRANCH   6   7
ENDBRANCH   5   6
ENDBRANCH   4   5
ENDBRANCH   3   4
ENDBRANCH   2   3
ENDBRANCH   1   2
BRANCH   1  18
ATOM     18  C   UNL     1       2.377  58.388  21.288  1.00  0.00     0.000 C 
BRANCH  18  19
ATOM     19  C   UNL     1       3.181  57.482  22.236  1.00  0.00     0.000 C 
BRANCH  19  20
ATOM     20  C   UNL     1       4.677  57.840  22.263  1.00  0.00     0.000 C 
BRANCH  20  21
ATOM     21  C   UNL     1       5.564  56.628  22.599  1.00  0.00     0.000 C 
BRANCH  21  22
ATOM     22  C   UNL     1       7.054  56.997  22.675  1.00  0.00     0.000 C 
BRANCH  22  23
ATOM     23  C   UNL     1       7.834  56.555  21.426  1.00  0.00     0.000 C 
BRANCH  23  24
ATOM     24  C   UNL     1       7.080  55.510  20.586  1.00  0.00    -0.000 C 
BRANCH  24  25
ATOM     25  C   UNL     1       7.554  54.061  20.823  1.00  0.00    -0.000 C 
BRANCH  25  26
ATOM     26  C   UNL     1       6.746  53.350  21.919  1.00  0.00    -0.000 C 
BRANCH  26  27
ATOM     27  C   UNL     1       7.464  53.433  23.275  1.00  0.00    -0.000 C 
BRANCH  27  28
ATOM     28  C   UNL     1       8.829  52.720  23.277  1.00  0.00    -0.000 C 
BRANCH  28  29
ATOM     29  C   UNL     1      10.048  53.656  23.201  1.00  0.00    -0.000 C 
BRANCH  29  30
ATOM     30  C   UNL     1      10.619  54.008  24.586  1.00  0.00    -0.000 C 
BRANCH  30  31
ATOM     31  C   UNL     1       9.879  55.181  25.249  1.00  0.00    -0.003 C 
ATOM     32  C   UNL     1       8.943  54.732  26.372  1.00  0.00     0.004 C 
ENDBRANCH  30  31
ENDBRANCH  29  30
ENDBRANCH  28  29
ENDBRANCH  27  28
ENDBRANCH  26  27
ENDBRANCH  25  26
ENDBRANCH  24  25
ENDBRANCH  23  24
ENDBRANCH  22  23
ENDBRANCH  21  22
ENDBRANCH  20  21
ENDBRANCH  19  20
ENDBRANCH  18  19
ENDBRANCH   1  18
TORSDOF 28
ENDMDL
