MODEL 1
REMARK VINA RESULT:    -6.254      0.000      0.000
REMARK INTER + INTRA:          -7.615
REMARK INTER:                  -7.351
REMARK INTRA:                  -0.264
REMARK UNBOUND:                -0.264
REMARK SMILES O=c1cc(-c2ccc(O)c(O)c2)oc2cc(O)cc(O)c12
REMARK SMILES IDX 4 1 3 2 2 3 1 4 21 5 19 6 18 7 16 8 15 9 14 10 13 11 5 12
REMARK SMILES IDX 6 13 7 14 8 15 12 16 10 17 9 18 11 20 20 22 17 24
REMARK H PARENT 9 19 11 21 20 23 17 25
REMARK Flexibility Score: inf
ROOT
ATOM      1  C   UNL     1      81.501  25.171  45.075  1.00  0.00     0.138 A 
ATOM      2  C   UNL     1      80.417  25.689  44.355  1.00  0.00     0.100 A 
ATOM      3  C   UNL     1      80.153  25.216  43.069  1.00  0.00     0.197 A 
ATOM      4  O   UNL     1      79.136  25.656  42.472  1.00  0.00    -0.289 OA
ATOM      5  C   UNL     1      80.999  24.241  42.491  1.00  0.00     0.107 A 
ATOM      6  C   UNL     1      80.851  23.715  41.173  1.00  0.00     0.134 A 
ATOM      7  C   UNL     1      81.679  22.667  40.750  1.00  0.00     0.093 A 
ATOM      8  C   UNL     1      82.688  22.169  41.573  1.00  0.00     0.123 A 
ATOM      9  C   UNL     1      82.877  22.713  42.844  1.00  0.00     0.094 A 
ATOM     10  C   UNL     1      82.044  23.735  43.308  1.00  0.00     0.146 A 
ATOM     11  O   UNL     1      82.248  24.216  44.530  1.00  0.00    -0.456 OA
ENDROOT
BRANCH   1  12
ATOM     12  C   UNL     1      81.829  25.639  46.445  1.00  0.00     0.021 A 
ATOM     13  C   UNL     1      82.954  26.458  46.647  1.00  0.00     0.016 A 
ATOM     14  C   UNL     1      83.280  26.917  47.926  1.00  0.00     0.051 A 
ATOM     15  C   UNL     1      82.482  26.574  49.023  1.00  0.00     0.157 A 
ATOM     16  C   UNL     1      81.023  25.308  47.553  1.00  0.00     0.062 A 
ATOM     17  C   UNL     1      81.350  25.771  48.836  1.00  0.00     0.158 A 
BRANCH  15  18
ATOM     18  O   UNL     1      82.804  27.029  50.300  1.00  0.00    -0.504 OA
ATOM     19  H   UNL     1      82.692  26.440  51.117  1.00  0.00     0.293 HD
ENDBRANCH  15  18
BRANCH  17  20
ATOM     20  O   UNL     1      80.551  25.441  49.930  1.00  0.00    -0.504 OA
ATOM     21  H   UNL     1      79.547  25.339  49.842  1.00  0.00     0.293 HD
ENDBRANCH  17  20
ENDBRANCH   1  12
BRANCH   6  22
ATOM     22  O   UNL     1      79.930  24.198  40.237  1.00  0.00    -0.507 OA
ATOM     23  H   UNL     1      79.338  23.619  39.660  1.00  0.00     0.293 HD
ENDBRANCH   6  22
BRANCH   8  24
ATOM     24  O   UNL     1      83.503  21.138  41.114  1.00  0.00    -0.508 OA
ATOM     25  H   UNL     1      84.496  21.115  41.320  1.00  0.00     0.293 HD
ENDBRANCH   8  24
TORSDOF 5
ENDMDL
MODEL 2
REMARK VINA RESULT:    -6.050      8.259     10.913
REMARK INTER + INTRA:          -7.374
REMARK INTER:                  -7.111
REMARK INTRA:                  -0.263
REMARK UNBOUND:                -0.264
REMARK SMILES O=c1cc(-c2ccc(O)c(O)c2)oc2cc(O)cc(O)c12
REMARK SMILES IDX 4 1 3 2 2 3 1 4 21 5 19 6 18 7 16 8 15 9 14 10 13 11 5 12
REMARK SMILES IDX 6 13 7 14 8 15 12 16 10 17 9 18 11 20 20 22 17 24
REMARK H PARENT 9 19 11 21 20 23 17 25
REMARK Flexibility Score: inf
ROOT
ATOM      1  C   UNL     1      76.105  17.755  44.429  1.00  0.00     0.138 A 
ATOM      2  C   UNL     1      75.463  18.485  45.439  1.00  0.00     0.100 A 
ATOM      3  C   UNL     1      76.128  18.736  46.640  1.00  0.00     0.197 A 
ATOM      4  O   UNL     1      75.549  19.447  47.502  1.00  0.00    -0.289 OA
ATOM      5  C   UNL     1      77.432  18.225  46.841  1.00  0.00     0.107 A 
ATOM      6  C   UNL     1      78.190  18.383  48.039  1.00  0.00     0.134 A 
ATOM      7  C   UNL     1      79.517  17.934  48.081  1.00  0.00     0.093 A 
ATOM      8  C   UNL     1      80.091  17.280  46.992  1.00  0.00     0.123 A 
ATOM      9  C   UNL     1      79.340  17.071  45.834  1.00  0.00     0.094 A 
ATOM     10  C   UNL     1      78.026  17.539  45.749  1.00  0.00     0.146 A 
ATOM     11  O   UNL     1      77.350  17.334  44.623  1.00  0.00    -0.456 OA
ENDROOT
BRANCH   1  12
ATOM     12  C   UNL     1      75.444  17.459  43.134  1.00  0.00     0.021 A 
ATOM     13  C   UNL     1      74.753  16.245  42.972  1.00  0.00     0.016 A 
ATOM     14  C   UNL     1      74.116  15.945  41.764  1.00  0.00     0.051 A 
ATOM     15  C   UNL     1      74.151  16.857  40.702  1.00  0.00     0.157 A 
ATOM     16  C   UNL     1      75.463  18.377  42.065  1.00  0.00     0.062 A 
ATOM     17  C   UNL     1      74.822  18.076  40.854  1.00  0.00     0.158 A 
BRANCH  15  18
ATOM     18  O   UNL     1      73.518  16.561  39.497  1.00  0.00    -0.504 OA
ATOM     19  H   UNL     1      73.623  17.156  38.683  1.00  0.00     0.293 HD
ENDBRANCH  15  18
BRANCH  17  20
ATOM     20  O   UNL     1      74.845  18.986  39.799  1.00  0.00    -0.504 OA
ATOM     21  H   UNL     1      74.732  19.981  39.953  1.00  0.00     0.293 HD
ENDBRANCH  17  20
ENDBRANCH   1  12
BRANCH   6  22
ATOM     22  O   UNL     1      77.686  18.946  49.215  1.00  0.00    -0.507 OA
ATOM     23  H   UNL     1      76.931  18.559  49.762  1.00  0.00     0.293 HD
ENDBRANCH   6  22
BRANCH   8  24
ATOM     24  O   UNL     1      81.407  16.833  47.075  1.00  0.00    -0.508 OA
ATOM     25  H   UNL     1      81.778  16.152  46.421  1.00  0.00     0.293 HD
ENDBRANCH   8  24
TORSDOF 5
ENDMDL
MODEL 3
REMARK VINA RESULT:    -5.771      8.223     11.313
REMARK INTER + INTRA:          -7.047
REMARK INTER:                  -6.777
REMARK INTRA:                  -0.270
REMARK UNBOUND:                -0.264
REMARK SMILES O=c1cc(-c2ccc(O)c(O)c2)oc2cc(O)cc(O)c12
REMARK SMILES IDX 4 1 3 2 2 3 1 4 21 5 19 6 18 7 16 8 15 9 14 10 13 11 5 12
REMARK SMILES IDX 6 13 7 14 8 15 12 16 10 17 9 18 11 20 20 22 17 24
REMARK H PARENT 9 19 11 21 20 23 17 25
REMARK Flexibility Score: inf
ROOT
ATOM      1  C   UNL     1      76.265  17.612  44.382  1.00  0.00     0.138 A 
ATOM      2  C   UNL     1      77.469  16.970  44.702  1.00  0.00     0.100 A 
ATOM      3  C   UNL     1      78.094  17.241  45.920  1.00  0.00     0.197 A 
ATOM      4  O   UNL     1      79.140  16.602  46.206  1.00  0.00    -0.289 OA
ATOM      5  C   UNL     1      77.524  18.184  46.808  1.00  0.00     0.107 A 
ATOM      6  C   UNL     1      78.094  18.570  48.058  1.00  0.00     0.134 A 
ATOM      7  C   UNL     1      77.381  19.427  48.906  1.00  0.00     0.093 A 
ATOM      8  C   UNL     1      76.150  19.958  48.525  1.00  0.00     0.123 A 
ATOM      9  C   UNL     1      75.609  19.631  47.281  1.00  0.00     0.094 A 
ATOM     10  C   UNL     1      76.280  18.751  46.427  1.00  0.00     0.146 A 
ATOM     11  O   UNL     1      75.723  18.453  45.257  1.00  0.00    -0.456 OA
ENDROOT
BRANCH   1  12
ATOM     12  C   UNL     1      75.559  17.363  43.101  1.00  0.00     0.021 A 
ATOM     13  C   UNL     1      74.854  16.160  42.921  1.00  0.00     0.016 A 
ATOM     14  C   UNL     1      74.176  15.904  41.726  1.00  0.00     0.051 A 
ATOM     15  C   UNL     1      74.182  16.851  40.695  1.00  0.00     0.157 A 
ATOM     16  C   UNL     1      75.550  18.316  42.062  1.00  0.00     0.062 A 
ATOM     17  C   UNL     1      74.867  18.059  40.865  1.00  0.00     0.158 A 
BRANCH  15  18
ATOM     18  O   UNL     1      73.507  16.599  39.502  1.00  0.00    -0.504 OA
ATOM     19  H   UNL     1      72.498  16.671  39.438  1.00  0.00     0.293 HD
ENDBRANCH  15  18
BRANCH  17  20
ATOM     20  O   UNL     1      74.862  19.004  39.839  1.00  0.00    -0.504 OA
ATOM     21  H   UNL     1      74.623  18.753  38.887  1.00  0.00     0.293 HD
ENDBRANCH  17  20
ENDBRANCH   1  12
BRANCH   6  22
ATOM     22  O   UNL     1      79.357  18.164  48.500  1.00  0.00    -0.507 OA
ATOM     23  H   UNL     1      79.873  18.600  49.250  1.00  0.00     0.293 HD
ENDBRANCH   6  22
BRANCH   8  24
ATOM     24  O   UNL     1      75.477  20.820  49.388  1.00  0.00    -0.508 OA
ATOM     25  H   UNL     1      75.116  21.712  49.070  1.00  0.00     0.293 HD
ENDBRANCH   8  24
TORSDOF 5
ENDMDL
MODEL 4
REMARK VINA RESULT:    -5.739      1.218      2.747
REMARK INTER + INTRA:          -7.009
REMARK INTER:                  -6.732
REMARK INTRA:                  -0.276
REMARK UNBOUND:                -0.264
REMARK SMILES O=c1cc(-c2ccc(O)c(O)c2)oc2cc(O)cc(O)c12
REMARK SMILES IDX 4 1 3 2 2 3 1 4 21 5 19 6 18 7 16 8 15 9 14 10 13 11 5 12
REMARK SMILES IDX 6 13 7 14 8 15 12 16 10 17 9 18 11 20 20 22 17 24
REMARK H PARENT 9 19 11 21 20 23 17 25
REMARK Flexibility Score: inf
ROOT
ATOM      1  C   UNL     1      81.761  25.084  45.095  1.00  0.00     0.138 A 
ATOM      2  C   UNL     1      82.699  24.306  44.403  1.00  0.00     0.100 A 
ATOM      3  C   UNL     1      82.408  23.857  43.115  1.00  0.00     0.197 A 
ATOM      4  O   UNL     1      83.295  23.213  42.495  1.00  0.00    -0.289 OA
ATOM      5  C   UNL     1      81.157  24.164  42.529  1.00  0.00     0.107 A 
ATOM      6  C   UNL     1      80.735  23.725  41.238  1.00  0.00     0.134 A 
ATOM      7  C   UNL     1      79.521  24.188  40.715  1.00  0.00     0.093 A 
ATOM      8  C   UNL     1      78.687  25.023  41.458  1.00  0.00     0.123 A 
ATOM      9  C   UNL     1      79.065  25.414  42.743  1.00  0.00     0.094 A 
ATOM     10  C   UNL     1      80.286  24.997  43.280  1.00  0.00     0.146 A 
ATOM     11  O   UNL     1      80.616  25.404  44.501  1.00  0.00    -0.456 OA
ENDROOT
BRANCH   1  12
ATOM     12  C   UNL     1      82.018  25.587  46.468  1.00  0.00     0.021 A 
ATOM     13  C   UNL     1      83.106  26.447  46.698  1.00  0.00     0.016 A 
ATOM     14  C   UNL     1      83.365  26.940  47.980  1.00  0.00     0.051 A 
ATOM     15  C   UNL     1      82.535  26.588  49.051  1.00  0.00     0.157 A 
ATOM     16  C   UNL     1      81.180  25.248  47.549  1.00  0.00     0.062 A 
ATOM     17  C   UNL     1      81.440  25.744  48.835  1.00  0.00     0.158 A 
BRANCH  15  18
ATOM     18  O   UNL     1      82.791  27.076  50.331  1.00  0.00    -0.504 OA
ATOM     19  H   UNL     1      82.046  27.211  51.006  1.00  0.00     0.293 HD
ENDBRANCH  15  18
BRANCH  17  20
ATOM     20  O   UNL     1      80.610  25.405  49.903  1.00  0.00    -0.504 OA
ATOM     21  H   UNL     1      79.688  25.812  50.009  1.00  0.00     0.293 HD
ENDBRANCH  17  20
ENDBRANCH   1  12
BRANCH   6  22
ATOM     22  O   UNL     1      81.452  22.823  40.446  1.00  0.00    -0.507 OA
ATOM     23  H   UNL     1      82.107  23.085  39.724  1.00  0.00     0.293 HD
ENDBRANCH   6  22
BRANCH   8  24
ATOM     24  O   UNL     1      77.480  25.451  40.911  1.00  0.00    -0.508 OA
ATOM     25  H   UNL     1      76.590  25.193  41.325  1.00  0.00     0.293 HD
ENDBRANCH   8  24
TORSDOF 5
ENDMDL
MODEL 5
REMARK VINA RESULT:    -5.596      8.011      9.070
REMARK INTER + INTRA:          -6.841
REMARK INTER:                  -6.576
REMARK INTRA:                  -0.264
REMARK UNBOUND:                -0.264
REMARK SMILES O=c1cc(-c2ccc(O)c(O)c2)oc2cc(O)cc(O)c12
REMARK SMILES IDX 4 1 3 2 2 3 1 4 21 5 19 6 18 7 16 8 15 9 14 10 13 11 5 12
REMARK SMILES IDX 6 13 7 14 8 15 12 16 10 17 9 18 11 20 20 22 17 24
REMARK H PARENT 9 19 11 21 20 23 17 25
REMARK Flexibility Score: inf
ROOT
ATOM      1  C   UNL     1      75.884  18.155  44.705  1.00  0.00     0.138 A 
ATOM      2  C   UNL     1      75.530  16.986  44.019  1.00  0.00     0.100 A 
ATOM      3  C   UNL     1      75.141  17.061  42.681  1.00  0.00     0.197 A 
ATOM      4  O   UNL     1      74.890  15.988  42.074  1.00  0.00    -0.289 OA
ATOM      5  C   UNL     1      75.077  18.319  42.037  1.00  0.00     0.107 A 
ATOM      6  C   UNL     1      74.655  18.522  40.689  1.00  0.00     0.134 A 
ATOM      7  C   UNL     1      74.744  19.800  40.122  1.00  0.00     0.093 A 
ATOM      8  C   UNL     1      75.180  20.892  40.871  1.00  0.00     0.123 A 
ATOM      9  C   UNL     1      75.543  20.715  42.207  1.00  0.00     0.094 A 
ATOM     10  C   UNL     1      75.499  19.446  42.791  1.00  0.00     0.146 A 
ATOM     11  O   UNL     1      75.867  19.318  44.062  1.00  0.00    -0.456 OA
ENDROOT
BRANCH   1  12
ATOM     12  C   UNL     1      76.303  18.133  46.129  1.00  0.00     0.021 A 
ATOM     13  C   UNL     1      75.327  18.194  47.139  1.00  0.00     0.016 A 
ATOM     14  C   UNL     1      75.696  18.168  48.487  1.00  0.00     0.051 A 
ATOM     15  C   UNL     1      77.045  18.071  48.847  1.00  0.00     0.157 A 
ATOM     16  C   UNL     1      77.659  18.023  46.500  1.00  0.00     0.062 A 
ATOM     17  C   UNL     1      78.027  17.995  47.853  1.00  0.00     0.158 A 
BRANCH  15  18
ATOM     18  O   UNL     1      77.417  18.045  50.190  1.00  0.00    -0.504 OA
ATOM     19  H   UNL     1      78.389  17.984  50.470  1.00  0.00     0.293 HD
ENDBRANCH  15  18
BRANCH  17  20
ATOM     20  O   UNL     1      79.369  17.887  48.216  1.00  0.00    -0.504 OA
ATOM     21  H   UNL     1      79.657  17.366  49.036  1.00  0.00     0.293 HD
ENDBRANCH  17  20
ENDBRANCH   1  12
BRANCH   6  22
ATOM     22  O   UNL     1      74.123  17.516  39.877  1.00  0.00    -0.507 OA
ATOM     23  H   UNL     1      73.138  17.361  39.722  1.00  0.00     0.293 HD
ENDBRANCH   6  22
BRANCH   8  24
ATOM     24  O   UNL     1      75.240  22.151  40.279  1.00  0.00    -0.508 OA
ATOM     25  H   UNL     1      74.971  22.295  39.312  1.00  0.00     0.293 HD
ENDBRANCH   8  24
TORSDOF 5
ENDMDL
MODEL 6
REMARK VINA RESULT:    -5.544      2.342      3.825
REMARK INTER + INTRA:          -6.780
REMARK INTER:                  -6.487
REMARK INTRA:                  -0.293
REMARK UNBOUND:                -0.264
REMARK SMILES O=c1cc(-c2ccc(O)c(O)c2)oc2cc(O)cc(O)c12
REMARK SMILES IDX 4 1 3 2 2 3 1 4 21 5 19 6 18 7 16 8 15 9 14 10 13 11 5 12
REMARK SMILES IDX 6 13 7 14 8 15 12 16 10 17 9 18 11 20 20 22 17 24
REMARK H PARENT 9 19 11 21 20 23 17 25
REMARK Flexibility Score: inf
ROOT
ATOM      1  C   UNL     1      80.529  25.419  46.824  1.00  0.00     0.138 A 
ATOM      2  C   UNL     1      81.836  25.923  46.869  1.00  0.00     0.100 A 
ATOM      3  C   UNL     1      82.729  25.621  45.840  1.00  0.00     0.197 A 
ATOM      4  O   UNL     1      83.875  26.139  45.876  1.00  0.00    -0.289 OA
ATOM      5  C   UNL     1      82.318  24.782  44.777  1.00  0.00     0.107 A 
ATOM      6  C   UNL     1      83.154  24.373  43.695  1.00  0.00     0.134 A 
ATOM      7  C   UNL     1      82.605  23.635  42.638  1.00  0.00     0.093 A 
ATOM      8  C   UNL     1      81.268  23.242  42.653  1.00  0.00     0.123 A 
ATOM      9  C   UNL     1      80.454  23.589  43.732  1.00  0.00     0.094 A 
ATOM     10  C   UNL     1      80.964  24.355  44.785  1.00  0.00     0.146 A 
ATOM     11  O   UNL     1      80.153  24.678  45.787  1.00  0.00    -0.456 OA
ENDROOT
BRANCH   1  12
ATOM     12  C   UNL     1      79.540  25.707  47.892  1.00  0.00     0.021 A 
ATOM     13  C   UNL     1      78.394  24.901  48.011  1.00  0.00     0.016 A 
ATOM     14  C   UNL     1      77.451  25.148  49.012  1.00  0.00     0.051 A 
ATOM     15  C   UNL     1      77.641  26.199  49.917  1.00  0.00     0.157 A 
ATOM     16  C   UNL     1      79.730  26.756  48.815  1.00  0.00     0.062 A 
ATOM     17  C   UNL     1      78.784  27.002  49.820  1.00  0.00     0.158 A 
BRANCH  15  18
ATOM     18  O   UNL     1      76.703  26.449  50.916  1.00  0.00    -0.504 OA
ATOM     19  H   UNL     1      75.936  27.096  50.773  1.00  0.00     0.293 HD
ENDBRANCH  15  18
BRANCH  17  20
ATOM     20  O   UNL     1      78.975  28.041  50.730  1.00  0.00    -0.504 OA
ATOM     21  H   UNL     1      79.798  28.085  51.319  1.00  0.00     0.293 HD
ENDBRANCH  17  20
ENDBRANCH   1  12
BRANCH   6  22
ATOM     22  O   UNL     1      84.525  24.640  43.622  1.00  0.00    -0.507 OA
ATOM     23  H   UNL     1      85.237  23.950  43.435  1.00  0.00     0.293 HD
ENDBRANCH   6  22
BRANCH   8  24
ATOM     24  O   UNL     1      80.760  22.496  41.592  1.00  0.00    -0.508 OA
ATOM     25  H   UNL     1      79.787  22.566  41.313  1.00  0.00     0.293 HD
ENDBRANCH   8  24
TORSDOF 5
ENDMDL
MODEL 7
REMARK VINA RESULT:    -5.544      7.726     10.658
REMARK INTER + INTRA:          -6.780
REMARK INTER:                  -6.486
REMARK INTRA:                  -0.293
REMARK UNBOUND:                -0.264
REMARK SMILES O=c1cc(-c2ccc(O)c(O)c2)oc2cc(O)cc(O)c12
REMARK SMILES IDX 4 1 3 2 2 3 1 4 21 5 19 6 18 7 16 8 15 9 14 10 13 11 5 12
REMARK SMILES IDX 6 13 7 14 8 15 12 16 10 17 9 18 11 20 20 22 17 24
REMARK H PARENT 9 19 11 21 20 23 17 25
REMARK Flexibility Score: inf
ROOT
ATOM      1  C   UNL     1      75.821  19.071  44.398  1.00  0.00     0.138 A 
ATOM      2  C   UNL     1      76.066  20.449  44.470  1.00  0.00     0.100 A 
ATOM      3  C   UNL     1      76.562  21.002  45.651  1.00  0.00     0.197 A 
ATOM      4  O   UNL     1      76.831  22.232  45.664  1.00  0.00    -0.289 OA
ATOM      5  C   UNL     1      76.784  20.173  46.776  1.00  0.00     0.107 A 
ATOM      6  C   UNL     1      77.249  20.633  48.045  1.00  0.00     0.134 A 
ATOM      7  C   UNL     1      77.543  19.704  49.050  1.00  0.00     0.093 A 
ATOM      8  C   UNL     1      77.333  18.340  48.855  1.00  0.00     0.123 A 
ATOM      9  C   UNL     1      76.826  17.884  47.637  1.00  0.00     0.094 A 
ATOM     10  C   UNL     1      76.556  18.783  46.602  1.00  0.00     0.146 A 
ATOM     11  O   UNL     1      76.090  18.307  45.452  1.00  0.00    -0.456 OA
ENDROOT
BRANCH   1  12
ATOM     12  C   UNL     1      75.292  18.431  43.168  1.00  0.00     0.021 A 
ATOM     13  C   UNL     1      74.730  17.144  43.244  1.00  0.00     0.016 A 
ATOM     14  C   UNL     1      74.219  16.523  42.102  1.00  0.00     0.051 A 
ATOM     15  C   UNL     1      74.253  17.180  40.866  1.00  0.00     0.157 A 
ATOM     16  C   UNL     1      75.311  19.091  41.923  1.00  0.00     0.062 A 
ATOM     17  C   UNL     1      74.796  18.467  40.777  1.00  0.00     0.158 A 
BRANCH  15  18
ATOM     18  O   UNL     1      73.745  16.563  39.724  1.00  0.00    -0.504 OA
ATOM     19  H   UNL     1      74.355  16.225  38.989  1.00  0.00     0.293 HD
ENDBRANCH  15  18
BRANCH  17  20
ATOM     20  O   UNL     1      74.818  19.122  39.547  1.00  0.00    -0.504 OA
ATOM     21  H   UNL     1      75.192  18.679  38.716  1.00  0.00     0.293 HD
ENDBRANCH  17  20
ENDBRANCH   1  12
BRANCH   6  22
ATOM     22  O   UNL     1      77.414  21.982  48.375  1.00  0.00    -0.507 OA
ATOM     23  H   UNL     1      78.097  22.336  49.028  1.00  0.00     0.293 HD
ENDBRANCH   6  22
BRANCH   8  24
ATOM     24  O   UNL     1      77.621  17.446  49.883  1.00  0.00    -0.508 OA
ATOM     25  H   UNL     1      76.932  17.209  50.589  1.00  0.00     0.293 HD
ENDBRANCH   8  24
TORSDOF 5
ENDMDL
MODEL 8
REMARK VINA RESULT:    -5.543      2.529      3.659
REMARK INTER + INTRA:          -6.778
REMARK INTER:                  -6.484
REMARK INTRA:                  -0.294
REMARK UNBOUND:                -0.264
REMARK SMILES O=c1cc(-c2ccc(O)c(O)c2)oc2cc(O)cc(O)c12
REMARK SMILES IDX 4 1 3 2 2 3 1 4 21 5 19 6 18 7 16 8 15 9 14 10 13 11 5 12
REMARK SMILES IDX 6 13 7 14 8 15 12 16 10 17 9 18 11 20 20 22 17 24
REMARK H PARENT 9 19 11 21 20 23 17 25
REMARK Flexibility Score: inf
ROOT
ATOM      1  C   UNL     1      79.704  24.905  46.845  1.00  0.00     0.138 A 
ATOM      2  C   UNL     1      78.993  24.133  45.916  1.00  0.00     0.100 A 
ATOM      3  C   UNL     1      79.569  23.835  44.681  1.00  0.00     0.197 A 
ATOM      4  O   UNL     1      78.932  23.088  43.893  1.00  0.00    -0.289 OA
ATOM      5  C   UNL     1      80.852  24.339  44.364  1.00  0.00     0.107 A 
ATOM      6  C   UNL     1      81.521  24.134  43.120  1.00  0.00     0.134 A 
ATOM      7  C   UNL     1      82.839  24.583  42.962  1.00  0.00     0.093 A 
ATOM      8  C   UNL     1      83.489  25.281  43.979  1.00  0.00     0.123 A 
ATOM      9  C   UNL     1      82.825  25.536  45.179  1.00  0.00     0.094 A 
ATOM     10  C   UNL     1      81.522  25.070  45.380  1.00  0.00     0.146 A 
ATOM     11  O   UNL     1      80.930  25.320  46.543  1.00  0.00    -0.456 OA
ENDROOT
BRANCH   1  12
ATOM     12  C   UNL     1      79.139  25.253  48.173  1.00  0.00     0.021 A 
ATOM     13  C   UNL     1      78.459  24.271  48.915  1.00  0.00     0.016 A 
ATOM     14  C   UNL     1      77.924  24.572  50.170  1.00  0.00     0.051 A 
ATOM     15  C   UNL     1      78.067  25.856  50.709  1.00  0.00     0.157 A 
ATOM     16  C   UNL     1      79.290  26.540  48.727  1.00  0.00     0.062 A 
ATOM     17  C   UNL     1      78.754  26.840  49.988  1.00  0.00     0.158 A 
BRANCH  15  18
ATOM     18  O   UNL     1      77.534  26.160  51.960  1.00  0.00    -0.504 OA
ATOM     19  H   UNL     1      77.080  27.048  52.141  1.00  0.00     0.293 HD
ENDBRANCH  15  18
BRANCH  17  20
ATOM     20  O   UNL     1      78.904  28.115  50.533  1.00  0.00    -0.504 OA
ATOM     21  H   UNL     1      78.196  28.830  50.413  1.00  0.00     0.293 HD
ENDBRANCH  17  20
ENDBRANCH   1  12
BRANCH   6  22
ATOM     22  O   UNL     1      80.934  23.522  42.008  1.00  0.00    -0.507 OA
ATOM     23  H   UNL     1      81.351  23.472  41.090  1.00  0.00     0.293 HD
ENDBRANCH   6  22
BRANCH   8  24
ATOM     24  O   UNL     1      84.793  25.727  43.780  1.00  0.00    -0.508 OA
ATOM     25  H   UNL     1      85.417  25.904  44.560  1.00  0.00     0.293 HD
ENDBRANCH   8  24
TORSDOF 5
ENDMDL
MODEL 9
REMARK VINA RESULT:    -5.505      1.730      7.286
REMARK INTER + INTRA:          -6.734
REMARK INTER:                  -6.469
REMARK INTRA:                  -0.265
REMARK UNBOUND:                -0.264
REMARK SMILES O=c1cc(-c2ccc(O)c(O)c2)oc2cc(O)cc(O)c12
REMARK SMILES IDX 4 1 3 2 2 3 1 4 21 5 19 6 18 7 16 8 15 9 14 10 13 11 5 12
REMARK SMILES IDX 6 13 7 14 8 15 12 16 10 17 9 18 11 20 20 22 17 24
REMARK H PARENT 9 19 11 21 20 23 17 25
REMARK Flexibility Score: inf
ROOT
ATOM      1  C   UNL     1      80.596  25.136  44.986  1.00  0.00     0.138 A 
ATOM      2  C   UNL     1      81.735  25.800  45.460  1.00  0.00     0.100 A 
ATOM      3  C   UNL     1      81.916  25.967  46.834  1.00  0.00     0.197 A 
ATOM      4  O   UNL     1      82.979  26.511  47.231  1.00  0.00    -0.289 OA
ATOM      5  C   UNL     1      80.934  25.493  47.735  1.00  0.00     0.107 A 
ATOM      6  C   UNL     1      80.993  25.643  49.153  1.00  0.00     0.134 A 
ATOM      7  C   UNL     1      80.019  25.030  49.953  1.00  0.00     0.093 A 
ATOM      8  C   UNL     1      78.959  24.326  49.385  1.00  0.00     0.123 A 
ATOM      9  C   UNL     1      78.861  24.220  47.997  1.00  0.00     0.094 A 
ATOM     10  C   UNL     1      79.836  24.790  47.173  1.00  0.00     0.146 A 
ATOM     11  O   UNL     1      79.715  24.653  45.857  1.00  0.00    -0.456 OA
ENDROOT
BRANCH   1  12
ATOM     12  C   UNL     1      80.352  24.932  43.537  1.00  0.00     0.021 A 
ATOM     13  C   UNL     1      79.297  25.618  42.909  1.00  0.00     0.016 A 
ATOM     14  C   UNL     1      79.051  25.448  41.544  1.00  0.00     0.051 A 
ATOM     15  C   UNL     1      79.861  24.599  40.781  1.00  0.00     0.157 A 
ATOM     16  C   UNL     1      81.171  24.089  42.759  1.00  0.00     0.062 A 
ATOM     17  C   UNL     1      80.925  23.921  41.389  1.00  0.00     0.158 A 
BRANCH  15  18
ATOM     18  O   UNL     1      79.619  24.427  39.420  1.00  0.00    -0.504 OA
ATOM     19  H   UNL     1      80.047  25.029  38.725  1.00  0.00     0.293 HD
ENDBRANCH  15  18
BRANCH  17  20
ATOM     20  O   UNL     1      81.736  23.085  40.624  1.00  0.00    -0.504 OA
ATOM     21  H   UNL     1      82.726  23.268  40.506  1.00  0.00     0.293 HD
ENDBRANCH  17  20
ENDBRANCH   1  12
BRANCH   6  22
ATOM     22  O   UNL     1      81.963  26.397  49.820  1.00  0.00    -0.507 OA
ATOM     23  H   UNL     1      82.604  26.032  50.508  1.00  0.00     0.293 HD
ENDBRANCH   6  22
BRANCH   8  24
ATOM     24  O   UNL     1      78.000  23.744  50.211  1.00  0.00    -0.508 OA
ATOM     25  H   UNL     1      77.085  24.162  50.338  1.00  0.00     0.293 HD
ENDBRANCH   8  24
TORSDOF 5
ENDMDL
