MODEL 1
REMARK VINA RESULT:    -4.097      0.000      0.000
REMARK INTER + INTRA:         -11.991
REMARK INTER:                  -8.888
REMARK INTRA:                  -3.104
REMARK UNBOUND:                -3.104
REMARK SMILES CCCCCCCCCCCCCCCCCCCCCC(=O)[O-]
REMARK SMILES IDX 12 1 11 2 10 3 9 4 8 5 7 6 6 7 5 8 4 9 3 10 2 11 1 12 13 13
REMARK SMILES IDX 14 14 15 15 16 16 17 17 18 18 19 19 20 20 21 21 22 22 23 23
REMARK SMILES IDX 24 24
REMARK H PARENT
REMARK Flexibility Score: inf
ROOT
ATOM      1  C   UNL     1       7.738   5.731  -4.514  1.00  0.00     0.000 C 
ENDROOT
BRANCH   1   2
ATOM      2  C   UNL     1       9.232   5.552  -4.185  1.00  0.00     0.000 C 
BRANCH   2   3
ATOM      3  C   UNL     1      10.044   6.843  -4.380  1.00  0.00     0.000 C 
BRANCH   3   4
ATOM      4  C   UNL     1       9.163   8.037  -4.788  1.00  0.00    -0.000 C 
BRANCH   4   5
ATOM      5  C   UNL     1       9.591   8.670  -6.125  1.00  0.00    -0.000 C 
BRANCH   5   6
ATOM      6  C   UNL     1       8.472   9.398  -6.895  1.00  0.00    -0.000 C 
BRANCH   6   7
ATOM      7  C   UNL     1       8.192   8.782  -8.275  1.00  0.00    -0.000 C 
BRANCH   7   8
ATOM      8  C   UNL     1       8.560   7.291  -8.297  1.00  0.00    -0.000 C 
BRANCH   8   9
ATOM      9  C   UNL     1       7.360   6.380  -7.990  1.00  0.00    -0.000 C 
BRANCH   9  10
ATOM     10  C   UNL     1       7.766   4.905  -7.827  1.00  0.00    -0.000 C 
BRANCH  10  11
ATOM     11  C   UNL     1       9.291   4.711  -7.824  1.00  0.00    -0.003 C 
ATOM     12  C   UNL     1       9.705   3.245  -7.693  1.00  0.00     0.004 C 
ENDBRANCH  10  11
ENDBRANCH   9  10
ENDBRANCH   8   9
ENDBRANCH   7   8
ENDBRANCH   6   7
ENDBRANCH   5   6
ENDBRANCH   4   5
ENDBRANCH   3   4
ENDBRANCH   2   3
ENDBRANCH   1   2
BRANCH   1  13
ATOM     13  C   UNL     1       6.822   5.342  -3.341  1.00  0.00     0.000 C 
BRANCH  13  14
ATOM     14  C   UNL     1       7.605   4.762  -2.150  1.00  0.00     0.000 C 
BRANCH  14  15
ATOM     15  C   UNL     1       7.503   5.640  -0.891  1.00  0.00     0.000 C 
BRANCH  15  16
ATOM     16  C   UNL     1       8.883   6.064  -0.354  1.00  0.00     0.000 C 
BRANCH  16  17
ATOM     17  C   UNL     1       9.020   7.591  -0.225  1.00  0.00     0.000 C 
BRANCH  17  18
ATOM     18  C   UNL     1       8.262   8.348  -1.329  1.00  0.00     0.000 C 
BRANCH  18  19
ATOM     19  C   UNL     1       8.089   9.846  -1.019  1.00  0.00     0.000 C 
BRANCH  19  20
ATOM     20  C   UNL     1       6.637  10.366  -1.077  1.00  0.00     0.006 C 
BRANCH  20  21
ATOM     21  C   UNL     1       5.667   9.466  -1.860  1.00  0.00     0.053 C 
BRANCH  21  22
ATOM     22  C   UNL     1       4.281  10.034  -1.897  1.00  0.00     0.041 C 
ATOM     23  O   UNL     1       3.830  10.533  -2.961  1.00  0.00    -0.550 OA
ATOM     24  O   UNL     1       3.500  10.039  -0.749  1.00  0.00    -0.550 OA
ENDBRANCH  21  22
ENDBRANCH  20  21
ENDBRANCH  19  20
ENDBRANCH  18  19
ENDBRANCH  17  18
ENDBRANCH  16  17
ENDBRANCH  15  16
ENDBRANCH  14  15
ENDBRANCH  13  14
ENDBRANCH   1  13
TORSDOF 20
ENDMDL
MODEL 2
REMARK VINA RESULT:    -4.059      0.902      1.852
REMARK INTER + INTRA:         -11.909
REMARK INTER:                  -8.664
REMARK INTRA:                  -3.244
REMARK UNBOUND:                -3.104
REMARK SMILES CCCCCCCCCCCCCCCCCCCCCC(=O)[O-]
REMARK SMILES IDX 12 1 11 2 10 3 9 4 8 5 7 6 6 7 5 8 4 9 3 10 2 11 1 12 13 13
REMARK SMILES IDX 14 14 15 15 16 16 17 17 18 18 19 19 20 20 21 21 22 22 23 23
REMARK SMILES IDX 24 24
REMARK H PARENT
REMARK Flexibility Score: inf
ROOT
ATOM      1  C   UNL     1       7.740   4.749  -2.210  1.00  0.00     0.000 C 
ENDROOT
BRANCH   1   2
ATOM      2  C   UNL     1       7.039   5.764  -3.133  1.00  0.00     0.000 C 
BRANCH   2   3
ATOM      3  C   UNL     1       7.665   5.827  -4.535  1.00  0.00     0.000 C 
BRANCH   3   4
ATOM      4  C   UNL     1       9.199   5.948  -4.490  1.00  0.00    -0.000 C 
BRANCH   4   5
ATOM      5  C   UNL     1       9.711   7.304  -5.008  1.00  0.00    -0.000 C 
BRANCH   5   6
ATOM      6  C   UNL     1       8.617   8.303  -5.429  1.00  0.00    -0.000 C 
BRANCH   6   7
ATOM      7  C   UNL     1       8.546   8.513  -6.950  1.00  0.00    -0.000 C 
BRANCH   7   8
ATOM      8  C   UNL     1       9.555   7.612  -7.678  1.00  0.00    -0.000 C 
BRANCH   8   9
ATOM      9  C   UNL     1       8.896   6.731  -8.752  1.00  0.00    -0.000 C 
BRANCH   9  10
ATOM     10  C   UNL     1       7.788   5.831  -8.179  1.00  0.00    -0.000 C 
BRANCH  10  11
ATOM     11  C   UNL     1       8.298   4.427  -7.817  1.00  0.00    -0.003 C 
ATOM     12  C   UNL     1       9.468   3.975  -8.691  1.00  0.00     0.004 C 
ENDBRANCH  10  11
ENDBRANCH   9  10
ENDBRANCH   8   9
ENDBRANCH   7   8
ENDBRANCH   6   7
ENDBRANCH   5   6
ENDBRANCH   4   5
ENDBRANCH   3   4
ENDBRANCH   2   3
ENDBRANCH   1   2
BRANCH   1  13
ATOM     13  C   UNL     1       7.553   5.076  -0.718  1.00  0.00     0.000 C 
BRANCH  13  14
ATOM     14  C   UNL     1       8.884   5.074   0.056  1.00  0.00     0.000 C 
BRANCH  14  15
ATOM     15  C   UNL     1       9.356   6.492   0.420  1.00  0.00     0.000 C 
BRANCH  15  16
ATOM     16  C   UNL     1      10.230   7.123  -0.679  1.00  0.00     0.000 C 
BRANCH  16  17
ATOM     17  C   UNL     1       9.827   8.575  -0.990  1.00  0.00     0.000 C 
BRANCH  17  18
ATOM     18  C   UNL     1       8.315   8.815  -0.834  1.00  0.00     0.000 C 
BRANCH  18  19
ATOM     19  C   UNL     1       7.642   9.272  -2.141  1.00  0.00     0.000 C 
BRANCH  19  20
ATOM     20  C   UNL     1       6.100   9.222  -2.139  1.00  0.00     0.006 C 
BRANCH  20  21
ATOM     21  C   UNL     1       5.414  10.597  -2.118  1.00  0.00     0.053 C 
BRANCH  21  22
ATOM     22  C   UNL     1       3.961  10.495  -1.773  1.00  0.00     0.041 C 
ATOM     23  O   UNL     1       3.608  10.092  -0.634  1.00  0.00    -0.550 OA
ATOM     24  O   UNL     1       2.995  10.814  -2.719  1.00  0.00    -0.550 OA
ENDBRANCH  21  22
ENDBRANCH  20  21
ENDBRANCH  19  20
ENDBRANCH  18  19
ENDBRANCH  17  18
ENDBRANCH  16  17
ENDBRANCH  15  16
ENDBRANCH  14  15
ENDBRANCH  13  14
ENDBRANCH   1  13
TORSDOF 20
ENDMDL
MODEL 3
REMARK VINA RESULT:    -4.019      3.738      7.700
REMARK INTER + INTRA:         -11.823
REMARK INTER:                  -9.405
REMARK INTRA:                  -2.418
REMARK UNBOUND:                -3.104
REMARK SMILES CCCCCCCCCCCCCCCCCCCCCC(=O)[O-]
REMARK SMILES IDX 12 1 11 2 10 3 9 4 8 5 7 6 6 7 5 8 4 9 3 10 2 11 1 12 13 13
REMARK SMILES IDX 14 14 15 15 16 16 17 17 18 18 19 19 20 20 21 21 22 22 23 23
REMARK SMILES IDX 24 24
REMARK H PARENT
REMARK Flexibility Score: inf
ROOT
ATOM      1  C   UNL     1       9.248   5.876   1.491  1.00  0.00     0.000 C 
ENDROOT
BRANCH   1   2
ATOM      2  C   UNL     1       9.945   7.111   2.093  1.00  0.00     0.000 C 
BRANCH   2   3
ATOM      3  C   UNL     1       9.231   7.647   3.345  1.00  0.00     0.000 C 
BRANCH   3   4
ATOM      4  C   UNL     1       9.193   9.185   3.387  1.00  0.00    -0.000 C 
BRANCH   4   5
ATOM      5  C   UNL     1       9.374   9.829   2.000  1.00  0.00    -0.000 C 
BRANCH   5   6
ATOM      6  C   UNL     1       8.341  10.914   1.639  1.00  0.00    -0.000 C 
BRANCH   6   7
ATOM      7  C   UNL     1       7.689  10.691   0.265  1.00  0.00    -0.000 C 
BRANCH   7   8
ATOM      8  C   UNL     1       8.125   9.349  -0.340  1.00  0.00    -0.000 C 
BRANCH   8   9
ATOM      9  C   UNL     1       7.602   9.146  -1.773  1.00  0.00    -0.000 C 
BRANCH   9  10
ATOM     10  C   UNL     1       6.174   8.574  -1.803  1.00  0.00    -0.000 C 
BRANCH  10  11
ATOM     11  C   UNL     1       5.132   9.617  -2.238  1.00  0.00    -0.003 C 
ATOM     12  C   UNL     1       4.279  10.128  -1.075  1.00  0.00     0.004 C 
ENDBRANCH  10  11
ENDBRANCH   9  10
ENDBRANCH   8   9
ENDBRANCH   7   8
ENDBRANCH   6   7
ENDBRANCH   5   6
ENDBRANCH   4   5
ENDBRANCH   3   4
ENDBRANCH   2   3
ENDBRANCH   1   2
BRANCH   1  13
ATOM     13  C   UNL     1       9.183   5.921  -0.045  1.00  0.00     0.000 C 
BRANCH  13  14
ATOM     14  C   UNL     1       8.076   5.016  -0.615  1.00  0.00     0.000 C 
BRANCH  14  15
ATOM     15  C   UNL     1       8.260   4.730  -2.115  1.00  0.00     0.000 C 
BRANCH  15  16
ATOM     16  C   UNL     1       7.009   5.083  -2.940  1.00  0.00     0.000 C 
BRANCH  16  17
ATOM     17  C   UNL     1       7.351   5.842  -4.233  1.00  0.00     0.000 C 
BRANCH  17  18
ATOM     18  C   UNL     1       8.867   5.918  -4.490  1.00  0.00     0.000 C 
BRANCH  18  19
ATOM     19  C   UNL     1       9.303   5.144  -5.747  1.00  0.00     0.000 C 
BRANCH  19  20
ATOM     20  C   UNL     1       8.186   4.886  -6.780  1.00  0.00     0.006 C 
BRANCH  20  21
ATOM     21  C   UNL     1       8.560   5.239  -8.228  1.00  0.00     0.053 C 
BRANCH  21  22
ATOM     22  C   UNL     1       9.478   4.223  -8.835  1.00  0.00     0.041 C 
ATOM     23  O   UNL     1       9.253   2.995  -8.678  1.00  0.00    -0.550 OA
ATOM     24  O   UNL     1      10.599   4.633  -9.545  1.00  0.00    -0.550 OA
ENDBRANCH  21  22
ENDBRANCH  20  21
ENDBRANCH  19  20
ENDBRANCH  18  19
ENDBRANCH  17  18
ENDBRANCH  16  17
ENDBRANCH  15  16
ENDBRANCH  14  15
ENDBRANCH  13  14
ENDBRANCH   1  13
TORSDOF 20
ENDMDL
MODEL 4
REMARK VINA RESULT:    -3.984      3.560      5.063
REMARK INTER + INTRA:         -11.745
REMARK INTER:                  -8.109
REMARK INTRA:                  -3.636
REMARK UNBOUND:                -3.104
REMARK SMILES CCCCCCCCCCCCCCCCCCCCCC(=O)[O-]
REMARK SMILES IDX 12 1 11 2 10 3 9 4 8 5 7 6 6 7 5 8 4 9 3 10 2 11 1 12 13 13
REMARK SMILES IDX 14 14 15 15 16 16 17 17 18 18 19 19 20 20 21 21 22 22 23 23
REMARK SMILES IDX 24 24
REMARK H PARENT
REMARK Flexibility Score: inf
ROOT
ATOM      1  C   UNL     1       7.126   4.826  -2.724  1.00  0.00     0.000 C 
ENDROOT
BRANCH   1   2
ATOM      2  C   UNL     1       6.850   6.324  -2.955  1.00  0.00     0.000 C 
BRANCH   2   3
ATOM      3  C   UNL     1       7.165   7.186  -1.721  1.00  0.00     0.000 C 
BRANCH   3   4
ATOM      4  C   UNL     1       7.496   8.643  -2.089  1.00  0.00    -0.000 C 
BRANCH   4   5
ATOM      5  C   UNL     1       8.754   8.771  -2.967  1.00  0.00    -0.000 C 
BRANCH   5   6
ATOM      6  C   UNL     1      10.007   8.056  -2.427  1.00  0.00    -0.000 C 
BRANCH   6   7
ATOM      7  C   UNL     1      10.876   7.442  -3.536  1.00  0.00    -0.000 C 
BRANCH   7   8
ATOM      8  C   UNL     1      10.018   7.030  -4.742  1.00  0.00    -0.000 C 
BRANCH   8   9
ATOM      9  C   UNL     1       9.941   5.505  -4.922  1.00  0.00    -0.000 C 
BRANCH   9  10
ATOM     10  C   UNL     1       9.154   5.098  -6.180  1.00  0.00    -0.000 C 
BRANCH  10  11
ATOM     11  C   UNL     1       7.813   5.840  -6.301  1.00  0.00    -0.003 C 
ATOM     12  C   UNL     1       7.569   6.405  -7.701  1.00  0.00     0.004 C 
ENDBRANCH  10  11
ENDBRANCH   9  10
ENDBRANCH   8   9
ENDBRANCH   7   8
ENDBRANCH   6   7
ENDBRANCH   5   6
ENDBRANCH   4   5
ENDBRANCH   3   4
ENDBRANCH   2   3
ENDBRANCH   1   2
BRANCH   1  13
ATOM     13  C   UNL     1       7.720   4.539  -1.335  1.00  0.00     0.000 C 
BRANCH  13  14
ATOM     14  C   UNL     1       9.187   4.076  -1.406  1.00  0.00     0.000 C 
BRANCH  14  15
ATOM     15  C   UNL     1      10.130   4.974  -0.588  1.00  0.00     0.000 C 
BRANCH  15  16
ATOM     16  C   UNL     1       9.463   5.524   0.686  1.00  0.00     0.000 C 
BRANCH  16  17
ATOM     17  C   UNL     1      10.121   6.823   1.182  1.00  0.00     0.000 C 
BRANCH  17  18
ATOM     18  C   UNL     1       9.140   8.008   1.211  1.00  0.00     0.000 C 
BRANCH  18  19
ATOM     19  C   UNL     1       9.049   8.679   2.595  1.00  0.00     0.000 C 
BRANCH  19  20
ATOM     20  C   UNL     1      10.066   8.170   3.638  1.00  0.00     0.006 C 
BRANCH  20  21
ATOM     21  C   UNL     1       9.442   7.427   4.830  1.00  0.00     0.053 C 
BRANCH  21  22
ATOM     22  C   UNL     1       9.691   5.951   4.763  1.00  0.00     0.041 C 
ATOM     23  O   UNL     1       8.876   5.199   4.168  1.00  0.00    -0.550 OA
ATOM     24  O   UNL     1      10.805   5.404   5.386  1.00  0.00    -0.550 OA
ENDBRANCH  21  22
ENDBRANCH  20  21
ENDBRANCH  19  20
ENDBRANCH  18  19
ENDBRANCH  17  18
ENDBRANCH  16  17
ENDBRANCH  15  16
ENDBRANCH  14  15
ENDBRANCH  13  14
ENDBRANCH   1  13
TORSDOF 20
ENDMDL
MODEL 5
REMARK VINA RESULT:    -3.969      3.557      7.949
REMARK INTER + INTRA:         -11.714
REMARK INTER:                  -8.519
REMARK INTRA:                  -3.195
REMARK UNBOUND:                -3.104
REMARK SMILES CCCCCCCCCCCCCCCCCCCCCC(=O)[O-]
REMARK SMILES IDX 12 1 11 2 10 3 9 4 8 5 7 6 6 7 5 8 4 9 3 10 2 11 1 12 13 13
REMARK SMILES IDX 14 14 15 15 16 16 17 17 18 18 19 19 20 20 21 21 22 22 23 23
REMARK SMILES IDX 24 24
REMARK H PARENT
REMARK Flexibility Score: inf
ROOT
ATOM      1  C   UNL     1       7.270   5.244  -2.440  1.00  0.00     0.000 C 
ENDROOT
BRANCH   1   2
ATOM      2  C   UNL     1       7.756   4.393  -1.250  1.00  0.00     0.000 C 
BRANCH   2   3
ATOM      3  C   UNL     1       9.259   4.076  -1.319  1.00  0.00     0.000 C 
BRANCH   3   4
ATOM      4  C   UNL     1      10.091   4.962  -0.373  1.00  0.00    -0.000 C 
BRANCH   4   5
ATOM      5  C   UNL     1       9.230   5.721   0.652  1.00  0.00    -0.000 C 
BRANCH   5   6
ATOM      6  C   UNL     1       9.949   6.858   1.401  1.00  0.00    -0.000 C 
BRANCH   6   7
ATOM      7  C   UNL     1       9.079   8.115   1.566  1.00  0.00    -0.000 C 
BRANCH   7   8
ATOM      8  C   UNL     1       9.088   8.604   3.022  1.00  0.00    -0.000 C 
BRANCH   8   9
ATOM      9  C   UNL     1      10.035   7.786   3.916  1.00  0.00    -0.000 C 
BRANCH   9  10
ATOM     10  C   UNL     1       9.490   7.605   5.343  1.00  0.00    -0.000 C 
BRANCH  10  11
ATOM     11  C   UNL     1       9.310   6.126   5.722  1.00  0.00    -0.003 C 
ATOM     12  C   UNL     1       9.288   5.199   4.506  1.00  0.00     0.004 C 
ENDBRANCH  10  11
ENDBRANCH   9  10
ENDBRANCH   8   9
ENDBRANCH   7   8
ENDBRANCH   6   7
ENDBRANCH   5   6
ENDBRANCH   4   5
ENDBRANCH   3   4
ENDBRANCH   2   3
ENDBRANCH   1   2
BRANCH   1  13
ATOM     13  C   UNL     1       7.006   6.709  -2.052  1.00  0.00     0.000 C 
BRANCH  13  14
ATOM     14  C   UNL     1       7.833   7.698  -2.894  1.00  0.00     0.000 C 
BRANCH  14  15
ATOM     15  C   UNL     1       8.834   8.502  -2.046  1.00  0.00     0.000 C 
BRANCH  15  16
ATOM     16  C   UNL     1      10.297   8.129  -2.347  1.00  0.00     0.000 C 
BRANCH  16  17
ATOM     17  C   UNL     1      10.415   7.016  -3.402  1.00  0.00     0.000 C 
BRANCH  17  18
ATOM     18  C   UNL     1      10.692   7.566  -4.813  1.00  0.00     0.000 C 
BRANCH  18  19
ATOM     19  C   UNL     1      10.234   6.612  -5.930  1.00  0.00     0.000 C 
BRANCH  19  20
ATOM     20  C   UNL     1       9.089   5.651  -5.545  1.00  0.00     0.006 C 
BRANCH  20  21
ATOM     21  C   UNL     1       7.733   5.980  -6.191  1.00  0.00     0.053 C 
BRANCH  21  22
ATOM     22  C   UNL     1       7.675   5.547  -7.624  1.00  0.00     0.041 C 
ATOM     23  O   UNL     1       7.264   6.343  -8.508  1.00  0.00    -0.550 OA
ATOM     24  O   UNL     1       8.044   4.256  -7.977  1.00  0.00    -0.550 OA
ENDBRANCH  21  22
ENDBRANCH  20  21
ENDBRANCH  19  20
ENDBRANCH  18  19
ENDBRANCH  17  18
ENDBRANCH  16  17
ENDBRANCH  15  16
ENDBRANCH  14  15
ENDBRANCH  13  14
ENDBRANCH   1  13
TORSDOF 20
ENDMDL
MODEL 6
REMARK VINA RESULT:    -3.963      3.105      7.678
REMARK INTER + INTRA:         -11.700
REMARK INTER:                  -8.439
REMARK INTRA:                  -3.261
REMARK UNBOUND:                -3.104
REMARK SMILES CCCCCCCCCCCCCCCCCCCCCC(=O)[O-]
REMARK SMILES IDX 12 1 11 2 10 3 9 4 8 5 7 6 6 7 5 8 4 9 3 10 2 11 1 12 13 13
REMARK SMILES IDX 14 14 15 15 16 16 17 17 18 18 19 19 20 20 21 21 22 22 23 23
REMARK SMILES IDX 24 24
REMARK H PARENT
REMARK Flexibility Score: inf
ROOT
ATOM      1  C   UNL     1       6.879   7.202  -1.862  1.00  0.00     0.000 C 
ENDROOT
BRANCH   1   2
ATOM      2  C   UNL     1       7.062   6.294  -3.094  1.00  0.00     0.000 C 
BRANCH   2   3
ATOM      3  C   UNL     1       7.172   4.805  -2.726  1.00  0.00     0.000 C 
BRANCH   3   4
ATOM      4  C   UNL     1       7.680   4.590  -1.289  1.00  0.00    -0.000 C 
BRANCH   4   5
ATOM      5  C   UNL     1       9.188   4.287  -1.223  1.00  0.00    -0.000 C 
BRANCH   5   6
ATOM      6  C   UNL     1       9.961   5.037  -0.122  1.00  0.00    -0.000 C 
BRANCH   6   7
ATOM      7  C   UNL     1       9.066   5.958   0.722  1.00  0.00    -0.000 C 
BRANCH   7   8
ATOM      8  C   UNL     1       9.372   5.803   2.219  1.00  0.00    -0.000 C 
BRANCH   8   9
ATOM      9  C   UNL     1       9.529   7.155   2.936  1.00  0.00    -0.000 C 
BRANCH   9  10
ATOM     10  C   UNL     1       9.574   8.340   1.956  1.00  0.00    -0.000 C 
BRANCH  10  11
ATOM     11  C   UNL     1       8.947   9.614   2.543  1.00  0.00    -0.003 C 
ATOM     12  C   UNL     1       8.966   9.638   4.072  1.00  0.00     0.004 C 
ENDBRANCH  10  11
ENDBRANCH   9  10
ENDBRANCH   8   9
ENDBRANCH   7   8
ENDBRANCH   6   7
ENDBRANCH   5   6
ENDBRANCH   4   5
ENDBRANCH   3   4
ENDBRANCH   2   3
ENDBRANCH   1   2
BRANCH   1  13
ATOM     13  C   UNL     1       7.259   8.665  -2.142  1.00  0.00     0.000 C 
BRANCH  13  14
ATOM     14  C   UNL     1       8.548   9.088  -1.412  1.00  0.00     0.000 C 
BRANCH  14  15
ATOM     15  C   UNL     1       9.761   9.168  -2.355  1.00  0.00     0.000 C 
BRANCH  15  16
ATOM     16  C   UNL     1      10.521   7.832  -2.452  1.00  0.00     0.000 C 
BRANCH  16  17
ATOM     17  C   UNL     1      10.547   7.272  -3.884  1.00  0.00     0.000 C 
BRANCH  17  18
ATOM     18  C   UNL     1      10.808   5.756  -3.920  1.00  0.00     0.000 C 
BRANCH  18  19
ATOM     19  C   UNL     1      10.409   5.110  -5.260  1.00  0.00     0.000 C 
BRANCH  19  20
ATOM     20  C   UNL     1       9.073   5.602  -5.854  1.00  0.00     0.006 C 
BRANCH  20  21
ATOM     21  C   UNL     1       8.568   4.787  -7.055  1.00  0.00     0.053 C 
BRANCH  21  22
ATOM     22  C   UNL     1       8.016   5.665  -8.137  1.00  0.00     0.041 C 
ATOM     23  O   UNL     1       6.873   6.177  -8.015  1.00  0.00    -0.550 OA
ATOM     24  O   UNL     1       8.752   5.891  -9.293  1.00  0.00    -0.550 OA
ENDBRANCH  21  22
ENDBRANCH  20  21
ENDBRANCH  19  20
ENDBRANCH  18  19
ENDBRANCH  17  18
ENDBRANCH  16  17
ENDBRANCH  15  16
ENDBRANCH  14  15
ENDBRANCH  13  14
ENDBRANCH   1  13
TORSDOF 20
ENDMDL
MODEL 7
REMARK VINA RESULT:    -3.924      2.092      3.907
REMARK INTER + INTRA:         -11.616
REMARK INTER:                  -9.134
REMARK INTRA:                  -2.482
REMARK UNBOUND:                -3.104
REMARK SMILES CCCCCCCCCCCCCCCCCCCCCC(=O)[O-]
REMARK SMILES IDX 12 1 11 2 10 3 9 4 8 5 7 6 6 7 5 8 4 9 3 10 2 11 1 12 13 13
REMARK SMILES IDX 14 14 15 15 16 16 17 17 18 18 19 19 20 20 21 21 22 22 23 23
REMARK SMILES IDX 24 24
REMARK H PARENT
REMARK Flexibility Score: inf
ROOT
ATOM      1  C   UNL     1       9.852   5.150  -0.046  1.00  0.00     0.000 C 
ENDROOT
BRANCH   1   2
ATOM      2  C   UNL     1       8.312   5.110  -0.086  1.00  0.00     0.000 C 
BRANCH   2   3
ATOM      3  C   UNL     1       7.765   4.519  -1.395  1.00  0.00     0.000 C 
BRANCH   3   4
ATOM      4  C   UNL     1       8.308   5.242  -2.640  1.00  0.00    -0.000 C 
BRANCH   4   5
ATOM      5  C   UNL     1       7.330   5.212  -3.828  1.00  0.00    -0.000 C 
BRANCH   5   6
ATOM      6  C   UNL     1       7.783   5.998  -5.073  1.00  0.00    -0.000 C 
BRANCH   6   7
ATOM      7  C   UNL     1       9.114   5.493  -5.653  1.00  0.00    -0.000 C 
BRANCH   7   8
ATOM      8  C   UNL     1       8.875   4.572  -6.859  1.00  0.00    -0.000 C 
BRANCH   8   9
ATOM      9  C   UNL     1       7.782   5.102  -7.802  1.00  0.00    -0.000 C 
BRANCH   9  10
ATOM     10  C   UNL     1       8.331   6.087  -8.848  1.00  0.00    -0.000 C 
BRANCH  10  11
ATOM     11  C   UNL     1       7.791   7.513  -8.655  1.00  0.00    -0.003 C 
ATOM     12  C   UNL     1       7.529   8.235  -9.977  1.00  0.00     0.004 C 
ENDBRANCH  10  11
ENDBRANCH   9  10
ENDBRANCH   8   9
ENDBRANCH   7   8
ENDBRANCH   6   7
ENDBRANCH   5   6
ENDBRANCH   4   5
ENDBRANCH   3   4
ENDBRANCH   2   3
ENDBRANCH   1   2
BRANCH   1  13
ATOM     13  C   UNL     1      10.399   5.553   1.334  1.00  0.00     0.000 C 
BRANCH  13  14
ATOM     14  C   UNL     1       9.283   5.956   2.315  1.00  0.00     0.000 C 
BRANCH  14  15
ATOM     15  C   UNL     1       9.833   6.508   3.641  1.00  0.00     0.000 C 
BRANCH  15  16
ATOM     16  C   UNL     1       9.591   8.021   3.796  1.00  0.00     0.000 C 
BRANCH  16  17
ATOM     17  C   UNL     1       9.020   8.660   2.519  1.00  0.00     0.000 C 
BRANCH  17  18
ATOM     18  C   UNL     1      10.094   9.391   1.694  1.00  0.00     0.000 C 
BRANCH  18  19
ATOM     19  C   UNL     1       9.758   9.454   0.192  1.00  0.00     0.000 C 
BRANCH  19  20
ATOM     20  C   UNL     1       8.484   8.690  -0.228  1.00  0.00     0.006 C 
BRANCH  20  21
ATOM     21  C   UNL     1       8.215   8.679  -1.741  1.00  0.00     0.053 C 
BRANCH  21  22
ATOM     22  C   UNL     1       6.757   8.823  -2.053  1.00  0.00     0.041 C 
ATOM     23  O   UNL     1       6.284   9.948  -2.358  1.00  0.00    -0.550 OA
ATOM     24  O   UNL     1       5.916   7.720  -1.975  1.00  0.00    -0.550 OA
ENDBRANCH  21  22
ENDBRANCH  20  21
ENDBRANCH  19  20
ENDBRANCH  18  19
ENDBRANCH  17  18
ENDBRANCH  16  17
ENDBRANCH  15  16
ENDBRANCH  14  15
ENDBRANCH  13  14
ENDBRANCH   1  13
TORSDOF 20
ENDMDL
MODEL 8
REMARK VINA RESULT:    -3.899      1.071      2.706
REMARK INTER + INTRA:         -11.561
REMARK INTER:                  -8.594
REMARK INTRA:                  -2.967
REMARK UNBOUND:                -3.104
REMARK SMILES CCCCCCCCCCCCCCCCCCCCCC(=O)[O-]
REMARK SMILES IDX 12 1 11 2 10 3 9 4 8 5 7 6 6 7 5 8 4 9 3 10 2 11 1 12 13 13
REMARK SMILES IDX 14 14 15 15 16 16 17 17 18 18 19 19 20 20 21 21 22 22 23 23
REMARK SMILES IDX 24 24
REMARK H PARENT
REMARK Flexibility Score: inf
ROOT
ATOM      1  C   UNL     1       7.383   5.662  -3.139  1.00  0.00     0.000 C 
ENDROOT
BRANCH   1   2
ATOM      2  C   UNL     1       7.360   5.692  -4.680  1.00  0.00     0.000 C 
BRANCH   2   3
ATOM      3  C   UNL     1       8.711   5.307  -5.304  1.00  0.00     0.000 C 
BRANCH   3   4
ATOM      4  C   UNL     1       8.648   5.228  -6.840  1.00  0.00    -0.000 C 
BRANCH   4   5
ATOM      5  C   UNL     1       7.450   5.993  -7.433  1.00  0.00    -0.000 C 
BRANCH   5   6
ATOM      6  C   UNL     1       7.813   7.183  -8.341  1.00  0.00    -0.000 C 
BRANCH   6   7
ATOM      7  C   UNL     1       9.322   7.474  -8.377  1.00  0.00    -0.000 C 
BRANCH   7   8
ATOM      8  C   UNL     1       9.635   8.839  -7.746  1.00  0.00    -0.000 C 
BRANCH   8   9
ATOM      9  C   UNL     1       8.382   9.536  -7.189  1.00  0.00    -0.000 C 
BRANCH   9  10
ATOM     10  C   UNL     1       8.595  10.083  -5.767  1.00  0.00    -0.000 C 
BRANCH  10  11
ATOM     11  C   UNL     1       8.596   8.973  -4.704  1.00  0.00    -0.003 C 
ATOM     12  C   UNL     1       9.988   8.690  -4.139  1.00  0.00     0.004 C 
ENDBRANCH  10  11
ENDBRANCH   9  10
ENDBRANCH   8   9
ENDBRANCH   7   8
ENDBRANCH   6   7
ENDBRANCH   5   6
ENDBRANCH   4   5
ENDBRANCH   3   4
ENDBRANCH   2   3
ENDBRANCH   1   2
BRANCH   1  13
ATOM     13  C   UNL     1       8.673   5.040  -2.578  1.00  0.00     0.000 C 
BRANCH  13  14
ATOM     14  C   UNL     1       8.456   4.372  -1.208  1.00  0.00     0.000 C 
BRANCH  14  15
ATOM     15  C   UNL     1       8.712   5.332  -0.034  1.00  0.00     0.000 C 
BRANCH  15  16
ATOM     16  C   UNL     1       9.463   6.605  -0.467  1.00  0.00     0.000 C 
BRANCH  16  17
ATOM     17  C   UNL     1       8.863   7.881   0.146  1.00  0.00     0.000 C 
BRANCH  17  18
ATOM     18  C   UNL     1       8.235   8.806  -0.911  1.00  0.00     0.000 C 
BRANCH  18  19
ATOM     19  C   UNL     1       7.902  10.206  -0.363  1.00  0.00     0.000 C 
BRANCH  19  20
ATOM     20  C   UNL     1       6.533  10.771  -0.796  1.00  0.00     0.006 C 
BRANCH  20  21
ATOM     21  C   UNL     1       5.849   9.993  -1.931  1.00  0.00     0.053 C 
BRANCH  21  22
ATOM     22  C   UNL     1       4.367  10.214  -1.950  1.00  0.00     0.041 C 
ATOM     23  O   UNL     1       3.799  10.605  -3.002  1.00  0.00    -0.550 OA
ATOM     24  O   UNL     1       3.619  10.017  -0.796  1.00  0.00    -0.550 OA
ENDBRANCH  21  22
ENDBRANCH  20  21
ENDBRANCH  19  20
ENDBRANCH  18  19
ENDBRANCH  17  18
ENDBRANCH  16  17
ENDBRANCH  15  16
ENDBRANCH  14  15
ENDBRANCH  13  14
ENDBRANCH   1  13
TORSDOF 20
ENDMDL
MODEL 9
REMARK VINA RESULT:    -3.832      3.256      4.604
REMARK INTER + INTRA:         -11.416
REMARK INTER:                  -8.331
REMARK INTRA:                  -3.086
REMARK UNBOUND:                -3.104
REMARK SMILES CCCCCCCCCCCCCCCCCCCCCC(=O)[O-]
REMARK SMILES IDX 12 1 11 2 10 3 9 4 8 5 7 6 6 7 5 8 4 9 3 10 2 11 1 12 13 13
REMARK SMILES IDX 14 14 15 15 16 16 17 17 18 18 19 19 20 20 21 21 22 22 23 23
REMARK SMILES IDX 24 24
REMARK H PARENT
REMARK Flexibility Score: inf
ROOT
ATOM      1  C   UNL     1       7.579   4.585  -1.667  1.00  0.00     0.000 C 
ENDROOT
BRANCH   1   2
ATOM      2  C   UNL     1       8.996   4.014  -1.463  1.00  0.00     0.000 C 
BRANCH   2   3
ATOM      3  C   UNL     1       9.953   5.015  -0.796  1.00  0.00     0.000 C 
BRANCH   3   4
ATOM      4  C   UNL     1      11.093   5.453  -1.733  1.00  0.00    -0.000 C 
BRANCH   4   5
ATOM      5  C   UNL     1      10.717   6.658  -2.615  1.00  0.00    -0.000 C 
BRANCH   5   6
ATOM      6  C   UNL     1      10.729   6.391  -4.132  1.00  0.00    -0.000 C 
BRANCH   6   7
ATOM      7  C   UNL     1      10.076   7.518  -4.948  1.00  0.00    -0.000 C 
BRANCH   7   8
ATOM      8  C   UNL     1       9.713   7.037  -6.360  1.00  0.00    -0.000 C 
BRANCH   8   9
ATOM      9  C   UNL     1       8.265   7.380  -6.749  1.00  0.00    -0.000 C 
BRANCH   9  10
ATOM     10  C   UNL     1       7.503   6.169  -7.316  1.00  0.00    -0.000 C 
BRANCH  10  11
ATOM     11  C   UNL     1       8.133   4.831  -6.900  1.00  0.00    -0.003 C 
ATOM     12  C   UNL     1       8.781   4.088  -8.069  1.00  0.00     0.004 C 
ENDBRANCH  10  11
ENDBRANCH   9  10
ENDBRANCH   8   9
ENDBRANCH   7   8
ENDBRANCH   6   7
ENDBRANCH   5   6
ENDBRANCH   4   5
ENDBRANCH   3   4
ENDBRANCH   2   3
ENDBRANCH   1   2
BRANCH   1  13
ATOM     13  C   UNL     1       7.335   5.067  -3.107  1.00  0.00     0.000 C 
BRANCH  13  14
ATOM     14  C   UNL     1       6.953   6.557  -3.173  1.00  0.00     0.000 C 
BRANCH  14  15
ATOM     15  C   UNL     1       7.126   7.271  -1.822  1.00  0.00     0.000 C 
BRANCH  15  16
ATOM     16  C   UNL     1       7.196   8.802  -1.968  1.00  0.00     0.000 C 
BRANCH  16  17
ATOM     17  C   UNL     1       8.261   9.433  -1.056  1.00  0.00     0.000 C 
BRANCH  17  18
ATOM     18  C   UNL     1       8.864   8.422  -0.064  1.00  0.00     0.000 C 
BRANCH  18  19
ATOM     19  C   UNL     1       8.903   8.950   1.382  1.00  0.00     0.000 C 
BRANCH  19  20
ATOM     20  C   UNL     1       9.299   7.910   2.450  1.00  0.00     0.006 C 
BRANCH  20  21
ATOM     21  C   UNL     1       9.536   8.491   3.853  1.00  0.00     0.053 C 
BRANCH  21  22
ATOM     22  C   UNL     1       9.417   7.448   4.921  1.00  0.00     0.041 C 
ATOM     23  O   UNL     1       9.387   6.228   4.613  1.00  0.00    -0.550 OA
ATOM     24  O   UNL     1       9.307   7.825   6.253  1.00  0.00    -0.550 OA
ENDBRANCH  21  22
ENDBRANCH  20  21
ENDBRANCH  19  20
ENDBRANCH  18  19
ENDBRANCH  17  18
ENDBRANCH  16  17
ENDBRANCH  15  16
ENDBRANCH  14  15
ENDBRANCH  13  14
ENDBRANCH   1  13
TORSDOF 20
ENDMDL
