MODEL 1
REMARK VINA RESULT:    -5.978      0.000      0.000
REMARK INTER + INTRA:         -21.490
REMARK INTER:                 -15.763
REMARK INTRA:                  -5.727
REMARK UNBOUND:                -5.727
REMARK SMILES CCCCCCCCCCCCCCCCCCCCCCCCCCCCCC(=O)[O-]
REMARK SMILES IDX 16 1 17 2 18 3 19 4 20 5 21 6 22 7 23 8 24 9 25 10 26 11
REMARK SMILES IDX 27 12 28 13 29 14 30 15 31 16 32 17 15 18 14 19 13 20 12 21
REMARK SMILES IDX 11 22 10 23 9 24 8 25 7 26 6 27 5 28 4 29 3 30 2 31 1 32
REMARK H PARENT
REMARK Flexibility Score: inf
ROOT
ATOM      1  C   UNL     1      12.873   8.410 -15.265  1.00  0.00     0.000 C 
ENDROOT
BRANCH   1   2
ATOM      2  C   UNL     1      12.234   8.201 -16.650  1.00  0.00     0.000 C 
BRANCH   2   3
ATOM      3  C   UNL     1      11.126   9.224 -16.958  1.00  0.00     0.000 C 
BRANCH   3   4
ATOM      4  C   UNL     1      10.216   8.869 -18.148  1.00  0.00     0.000 C 
BRANCH   4   5
ATOM      5  C   UNL     1       8.783   8.508 -17.721  1.00  0.00     0.000 C 
BRANCH   5   6
ATOM      6  C   UNL     1       8.675   8.143 -16.232  1.00  0.00     0.000 C 
BRANCH   6   7
ATOM      7  C   UNL     1       7.586   8.896 -15.443  1.00  0.00     0.000 C 
BRANCH   7   8
ATOM      8  C   UNL     1       7.275   8.287 -14.057  1.00  0.00     0.000 C 
BRANCH   8   9
ATOM      9  C   UNL     1       7.858   9.118 -12.900  1.00  0.00     0.000 C 
BRANCH   9  10
ATOM     10  C   UNL     1       8.237  10.547 -13.350  1.00  0.00     0.000 C 
BRANCH  10  11
ATOM     11  C   UNL     1       9.687  10.928 -13.008  1.00  0.00     0.000 C 
BRANCH  11  12
ATOM     12  C   UNL     1      10.601   9.705 -12.843  1.00  0.00     0.000 C 
BRANCH  12  13
ATOM     13  C   UNL     1      11.635   9.942 -11.732  1.00  0.00     0.006 C 
BRANCH  13  14
ATOM     14  C   UNL     1      12.874  10.694 -12.239  1.00  0.00     0.053 C 
BRANCH  14  15
ATOM     15  C   UNL     1      13.550  11.469 -11.148  1.00  0.00     0.041 C 
ATOM     16  O   UNL     1      14.689  11.127 -10.736  1.00  0.00    -0.550 OA
ATOM     17  O   UNL     1      12.912  12.562 -10.575  1.00  0.00    -0.550 OA
ENDBRANCH  14  15
ENDBRANCH  13  14
ENDBRANCH  12  13
ENDBRANCH  11  12
ENDBRANCH  10  11
ENDBRANCH   9  10
ENDBRANCH   8   9
ENDBRANCH   7   8
ENDBRANCH   6   7
ENDBRANCH   5   6
ENDBRANCH   4   5
ENDBRANCH   3   4
ENDBRANCH   2   3
ENDBRANCH   1   2
BRANCH   1  18
ATOM     18  C   UNL     1      14.399   8.212 -15.275  1.00  0.00     0.000 C 
BRANCH  18  19
ATOM     19  C   UNL     1      15.115   8.553 -13.951  1.00  0.00     0.000 C 
BRANCH  19  20
ATOM     20  C   UNL     1      14.681   7.714 -12.732  1.00  0.00     0.000 C 
BRANCH  20  21
ATOM     21  C   UNL     1      15.528   7.918 -11.464  1.00  0.00     0.000 C 
BRANCH  21  22
ATOM     22  C   UNL     1      14.892   7.284 -10.213  1.00  0.00     0.000 C 
BRANCH  22  23
ATOM     23  C   UNL     1      13.540   6.617 -10.511  1.00  0.00     0.000 C 
BRANCH  23  24
ATOM     24  C   UNL     1      12.876   6.028  -9.257  1.00  0.00    -0.000 C 
BRANCH  24  25
ATOM     25  C   UNL     1      11.351   6.204  -9.312  1.00  0.00    -0.000 C 
BRANCH  25  26
ATOM     26  C   UNL     1      10.828   6.472 -10.735  1.00  0.00    -0.000 C 
BRANCH  26  27
ATOM     27  C   UNL     1       9.540   5.717 -11.110  1.00  0.00    -0.000 C 
BRANCH  27  28
ATOM     28  C   UNL     1       9.208   5.808 -12.610  1.00  0.00    -0.000 C 
BRANCH  28  29
ATOM     29  C   UNL     1      10.410   6.267 -13.451  1.00  0.00    -0.000 C 
BRANCH  29  30
ATOM     30  C   UNL     1      10.541   5.484 -14.770  1.00  0.00    -0.000 C 
BRANCH  30  31
ATOM     31  C   UNL     1      11.844   4.672 -14.845  1.00  0.00    -0.003 C 
ATOM     32  C   UNL     1      12.746   4.887 -13.631  1.00  0.00     0.004 C 
ENDBRANCH  30  31
ENDBRANCH  29  30
ENDBRANCH  28  29
ENDBRANCH  27  28
ENDBRANCH  26  27
ENDBRANCH  25  26
ENDBRANCH  24  25
ENDBRANCH  23  24
ENDBRANCH  22  23
ENDBRANCH  21  22
ENDBRANCH  20  21
ENDBRANCH  19  20
ENDBRANCH  18  19
ENDBRANCH   1  18
TORSDOF 28
ENDMDL
MODEL 2
REMARK VINA RESULT:    -5.936      0.936      3.117
REMARK INTER + INTRA:         -21.379
REMARK INTER:                 -16.092
REMARK INTRA:                  -5.287
REMARK UNBOUND:                -5.727
REMARK SMILES CCCCCCCCCCCCCCCCCCCCCCCCCCCCCC(=O)[O-]
REMARK SMILES IDX 16 1 17 2 18 3 19 4 20 5 21 6 22 7 23 8 24 9 25 10 26 11
REMARK SMILES IDX 27 12 28 13 29 14 30 15 31 16 32 17 15 18 14 19 13 20 12 21
REMARK SMILES IDX 11 22 10 23 9 24 8 25 7 26 6 27 5 28 4 29 3 30 2 31 1 32
REMARK H PARENT
REMARK Flexibility Score: inf
ROOT
ATOM      1  C   UNL     1      12.491   8.453 -16.924  1.00  0.00     0.000 C 
ENDROOT
BRANCH   1   2
ATOM      2  C   UNL     1      11.329   9.399 -17.270  1.00  0.00     0.000 C 
BRANCH   2   3
ATOM      3  C   UNL     1      10.462   8.883 -18.433  1.00  0.00     0.000 C 
BRANCH   3   4
ATOM      4  C   UNL     1       9.111   8.270 -18.025  1.00  0.00     0.000 C 
BRANCH   4   5
ATOM      5  C   UNL     1       8.676   8.669 -16.604  1.00  0.00     0.000 C 
BRANCH   5   6
ATOM      6  C   UNL     1       8.460   7.458 -15.681  1.00  0.00     0.000 C 
BRANCH   6   7
ATOM      7  C   UNL     1       7.224   7.536 -14.764  1.00  0.00     0.000 C 
BRANCH   7   8
ATOM      8  C   UNL     1       7.540   7.355 -13.262  1.00  0.00     0.000 C 
BRANCH   8   9
ATOM      9  C   UNL     1       7.529   8.687 -12.490  1.00  0.00     0.000 C 
BRANCH   9  10
ATOM     10  C   UNL     1       7.475   9.904 -13.439  1.00  0.00     0.000 C 
BRANCH  10  11
ATOM     11  C   UNL     1       8.758  10.751 -13.417  1.00  0.00     0.000 C 
BRANCH  11  12
ATOM     12  C   UNL     1      10.025   9.908 -13.208  1.00  0.00     0.000 C 
BRANCH  12  13
ATOM     13  C   UNL     1      10.923  10.529 -12.127  1.00  0.00     0.006 C 
BRANCH  13  14
ATOM     14  C   UNL     1      12.411  10.240 -12.369  1.00  0.00     0.053 C 
BRANCH  14  15
ATOM     15  C   UNL     1      13.297  11.047 -11.468  1.00  0.00     0.041 C 
ATOM     16  O   UNL     1      12.857  12.084 -10.906  1.00  0.00    -0.550 OA
ATOM     17  O   UNL     1      14.615  10.660 -11.261  1.00  0.00    -0.550 OA
ENDBRANCH  14  15
ENDBRANCH  13  14
ENDBRANCH  12  13
ENDBRANCH  11  12
ENDBRANCH  10  11
ENDBRANCH   9  10
ENDBRANCH   8   9
ENDBRANCH   7   8
ENDBRANCH   6   7
ENDBRANCH   5   6
ENDBRANCH   4   5
ENDBRANCH   3   4
ENDBRANCH   2   3
ENDBRANCH   1   2
BRANCH   1  18
ATOM     18  C   UNL     1      12.218   7.605 -15.667  1.00  0.00     0.000 C 
BRANCH  18  19
ATOM     19  C   UNL     1      11.953   6.108 -15.929  1.00  0.00     0.000 C 
BRANCH  19  20
ATOM     20  C   UNL     1      12.267   5.167 -14.747  1.00  0.00     0.000 C 
BRANCH  20  21
ATOM     21  C   UNL     1      11.074   4.337 -14.239  1.00  0.00     0.000 C 
BRANCH  21  22
ATOM     22  C   UNL     1      10.601   4.767 -12.839  1.00  0.00     0.000 C 
BRANCH  22  23
ATOM     23  C   UNL     1      10.813   6.267 -12.578  1.00  0.00     0.000 C 
BRANCH  23  24
ATOM     24  C   UNL     1      10.154   6.746 -11.276  1.00  0.00    -0.000 C 
BRANCH  24  25
ATOM     25  C   UNL     1      10.557   5.847 -10.097  1.00  0.00    -0.000 C 
BRANCH  25  26
ATOM     26  C   UNL     1      11.619   6.488  -9.188  1.00  0.00    -0.000 C 
BRANCH  26  27
ATOM     27  C   UNL     1      12.915   5.673  -9.022  1.00  0.00    -0.000 C 
BRANCH  27  28
ATOM     28  C   UNL     1      14.157   6.407  -9.559  1.00  0.00    -0.000 C 
BRANCH  28  29
ATOM     29  C   UNL     1      13.828   7.327 -10.746  1.00  0.00    -0.000 C 
BRANCH  29  30
ATOM     30  C   UNL     1      14.308   6.750 -12.091  1.00  0.00    -0.000 C 
BRANCH  30  31
ATOM     31  C   UNL     1      15.511   7.516 -12.664  1.00  0.00    -0.003 C 
ATOM     32  C   UNL     1      15.154   8.335 -13.903  1.00  0.00     0.004 C 
ENDBRANCH  30  31
ENDBRANCH  29  30
ENDBRANCH  28  29
ENDBRANCH  27  28
ENDBRANCH  26  27
ENDBRANCH  25  26
ENDBRANCH  24  25
ENDBRANCH  23  24
ENDBRANCH  22  23
ENDBRANCH  21  22
ENDBRANCH  20  21
ENDBRANCH  19  20
ENDBRANCH  18  19
ENDBRANCH   1  18
TORSDOF 28
ENDMDL
MODEL 3
REMARK VINA RESULT:    -5.830      1.298      5.588
REMARK INTER + INTRA:         -21.100
REMARK INTER:                 -15.575
REMARK INTRA:                  -5.525
REMARK UNBOUND:                -5.727
REMARK SMILES CCCCCCCCCCCCCCCCCCCCCCCCCCCCCC(=O)[O-]
REMARK SMILES IDX 16 1 17 2 18 3 19 4 20 5 21 6 22 7 23 8 24 9 25 10 26 11
REMARK SMILES IDX 27 12 28 13 29 14 30 15 31 16 32 17 15 18 14 19 13 20 12 21
REMARK SMILES IDX 11 22 10 23 9 24 8 25 7 26 6 27 5 28 4 29 3 30 2 31 1 32
REMARK H PARENT
REMARK Flexibility Score: inf
ROOT
ATOM      1  C   UNL     1      13.310   8.310 -16.435  1.00  0.00     0.000 C 
ENDROOT
BRANCH   1   2
ATOM      2  C   UNL     1      13.735   8.143 -14.966  1.00  0.00     0.000 C 
BRANCH   2   3
ATOM      3  C   UNL     1      12.699   7.372 -14.127  1.00  0.00     0.000 C 
BRANCH   3   4
ATOM      4  C   UNL     1      12.857   5.841 -14.133  1.00  0.00     0.000 C 
BRANCH   4   5
ATOM      5  C   UNL     1      11.725   5.124 -14.889  1.00  0.00     0.000 C 
BRANCH   5   6
ATOM      6  C   UNL     1      11.030   4.044 -14.044  1.00  0.00     0.000 C 
BRANCH   6   7
ATOM      7  C   UNL     1      10.905   4.358 -12.540  1.00  0.00     0.000 C 
BRANCH   7   8
ATOM      8  C   UNL     1       9.685   5.234 -12.178  1.00  0.00     0.000 C 
BRANCH   8   9
ATOM      9  C   UNL     1       9.801   5.859 -10.776  1.00  0.00     0.000 C 
BRANCH   9  10
ATOM     10  C   UNL     1      11.106   6.669 -10.611  1.00  0.00     0.000 C 
BRANCH  10  11
ATOM     11  C   UNL     1      12.004   6.151  -9.475  1.00  0.00     0.000 C 
BRANCH  11  12
ATOM     12  C   UNL     1      13.499   6.222  -9.818  1.00  0.00     0.000 C 
BRANCH  12  13
ATOM     13  C   UNL     1      13.776   7.347 -10.827  1.00  0.00     0.006 C 
BRANCH  13  14
ATOM     14  C   UNL     1      15.277   7.549 -11.078  1.00  0.00     0.053 C 
BRANCH  14  15
ATOM     15  C   UNL     1      15.945   8.278  -9.951  1.00  0.00     0.041 C 
ATOM     16  O   UNL     1      16.639   7.649  -9.109  1.00  0.00    -0.550 OA
ATOM     17  O   UNL     1      15.787   9.652  -9.821  1.00  0.00    -0.550 OA
ENDBRANCH  14  15
ENDBRANCH  13  14
ENDBRANCH  12  13
ENDBRANCH  11  12
ENDBRANCH  10  11
ENDBRANCH   9  10
ENDBRANCH   8   9
ENDBRANCH   7   8
ENDBRANCH   6   7
ENDBRANCH   5   6
ENDBRANCH   4   5
ENDBRANCH   3   4
ENDBRANCH   2   3
ENDBRANCH   1   2
BRANCH   1  18
ATOM     18  C   UNL     1      11.799   8.104 -16.648  1.00  0.00     0.000 C 
BRANCH  18  19
ATOM     19  C   UNL     1      11.096   9.201 -17.475  1.00  0.00     0.000 C 
BRANCH  19  20
ATOM     20  C   UNL     1       9.693   8.833 -18.000  1.00  0.00     0.000 C 
BRANCH  20  21
ATOM     21  C   UNL     1       8.772   8.146 -16.976  1.00  0.00     0.000 C 
BRANCH  21  22
ATOM     22  C   UNL     1       7.419   8.863 -16.814  1.00  0.00     0.000 C 
BRANCH  22  23
ATOM     23  C   UNL     1       6.727   8.526 -15.484  1.00  0.00     0.000 C 
BRANCH  23  24
ATOM     24  C   UNL     1       7.329   7.292 -14.794  1.00  0.00    -0.000 C 
BRANCH  24  25
ATOM     25  C   UNL     1       7.315   7.459 -13.267  1.00  0.00    -0.000 C 
BRANCH  25  26
ATOM     26  C   UNL     1       8.160   8.651 -12.785  1.00  0.00    -0.000 C 
BRANCH  26  27
ATOM     27  C   UNL     1       9.620   8.657 -13.273  1.00  0.00    -0.000 C 
BRANCH  27  28
ATOM     28  C   UNL     1      10.040  10.003 -13.889  1.00  0.00    -0.000 C 
BRANCH  28  29
ATOM     29  C   UNL     1      10.628  10.969 -12.846  1.00  0.00    -0.000 C 
BRANCH  29  30
ATOM     30  C   UNL     1      11.512  10.251 -11.810  1.00  0.00    -0.000 C 
BRANCH  30  31
ATOM     31  C   UNL     1      12.867  10.948 -11.610  1.00  0.00    -0.003 C 
ATOM     32  C   UNL     1      13.908  10.526 -12.646  1.00  0.00     0.004 C 
ENDBRANCH  30  31
ENDBRANCH  29  30
ENDBRANCH  28  29
ENDBRANCH  27  28
ENDBRANCH  26  27
ENDBRANCH  25  26
ENDBRANCH  24  25
ENDBRANCH  23  24
ENDBRANCH  22  23
ENDBRANCH  21  22
ENDBRANCH  20  21
ENDBRANCH  19  20
ENDBRANCH  18  19
ENDBRANCH   1  18
TORSDOF 28
ENDMDL
MODEL 4
REMARK VINA RESULT:    -5.829      0.922      5.985
REMARK INTER + INTRA:         -21.098
REMARK INTER:                 -15.601
REMARK INTRA:                  -5.497
REMARK UNBOUND:                -5.727
REMARK SMILES CCCCCCCCCCCCCCCCCCCCCCCCCCCCCC(=O)[O-]
REMARK SMILES IDX 16 1 17 2 18 3 19 4 20 5 21 6 22 7 23 8 24 9 25 10 26 11
REMARK SMILES IDX 27 12 28 13 29 14 30 15 31 16 32 17 15 18 14 19 13 20 12 21
REMARK SMILES IDX 11 22 10 23 9 24 8 25 7 26 6 27 5 28 4 29 3 30 2 31 1 32
REMARK H PARENT
REMARK Flexibility Score: inf
ROOT
ATOM      1  C   UNL     1      12.214   5.361 -15.223  1.00  0.00     0.000 C 
ENDROOT
BRANCH   1   2
ATOM      2  C   UNL     1      12.123   5.005 -13.729  1.00  0.00     0.000 C 
BRANCH   2   3
ATOM      3  C   UNL     1      11.129   5.895 -12.961  1.00  0.00     0.000 C 
BRANCH   3   4
ATOM      4  C   UNL     1       9.915   5.162 -12.364  1.00  0.00     0.000 C 
BRANCH   4   5
ATOM      5  C   UNL     1       9.525   5.684 -10.970  1.00  0.00     0.000 C 
BRANCH   5   6
ATOM      6  C   UNL     1      10.652   6.478 -10.290  1.00  0.00     0.000 C 
BRANCH   6   7
ATOM      7  C   UNL     1      11.346   5.767  -9.112  1.00  0.00     0.000 C 
BRANCH   7   8
ATOM      8  C   UNL     1      12.864   6.038  -9.017  1.00  0.00     0.000 C 
BRANCH   8   9
ATOM      9  C   UNL     1      13.559   6.005 -10.391  1.00  0.00     0.000 C 
BRANCH   9  10
ATOM     10  C   UNL     1      14.416   7.267 -10.635  1.00  0.00     0.000 C 
BRANCH  10  11
ATOM     11  C   UNL     1      14.915   7.393 -12.083  1.00  0.00     0.000 C 
BRANCH  11  12
ATOM     12  C   UNL     1      14.080   8.374 -12.918  1.00  0.00     0.000 C 
BRANCH  12  13
ATOM     13  C   UNL     1      12.993   9.037 -12.058  1.00  0.00     0.006 C 
BRANCH  13  14
ATOM     14  C   UNL     1      12.921  10.555 -12.276  1.00  0.00     0.053 C 
BRANCH  14  15
ATOM     15  C   UNL     1      13.625  11.315 -11.192  1.00  0.00     0.041 C 
ATOM     16  O   UNL     1      13.113  12.361 -10.713  1.00  0.00    -0.550 OA
ATOM     17  O   UNL     1      14.857  10.876 -10.723  1.00  0.00    -0.550 OA
ENDBRANCH  14  15
ENDBRANCH  13  14
ENDBRANCH  12  13
ENDBRANCH  11  12
ENDBRANCH  10  11
ENDBRANCH   9  10
ENDBRANCH   8   9
ENDBRANCH   7   8
ENDBRANCH   6   7
ENDBRANCH   5   6
ENDBRANCH   4   5
ENDBRANCH   3   4
ENDBRANCH   2   3
ENDBRANCH   1   2
BRANCH   1  18
ATOM     18  C   UNL     1      11.382   6.602 -15.594  1.00  0.00     0.000 C 
BRANCH  18  19
ATOM     19  C   UNL     1      12.168   7.929 -15.647  1.00  0.00     0.000 C 
BRANCH  19  20
ATOM     20  C   UNL     1      12.230   8.604 -17.032  1.00  0.00     0.000 C 
BRANCH  20  21
ATOM     21  C   UNL     1      10.984   9.421 -17.416  1.00  0.00     0.000 C 
BRANCH  21  22
ATOM     22  C   UNL     1      10.149   8.752 -18.524  1.00  0.00     0.000 C 
BRANCH  22  23
ATOM     23  C   UNL     1       8.688   8.522 -18.105  1.00  0.00     0.000 C 
BRANCH  23  24
ATOM     24  C   UNL     1       8.469   8.682 -16.593  1.00  0.00    -0.000 C 
BRANCH  24  25
ATOM     25  C   UNL     1       7.011   9.058 -16.289  1.00  0.00    -0.000 C 
BRANCH  25  26
ATOM     26  C   UNL     1       6.343   8.108 -15.279  1.00  0.00    -0.000 C 
BRANCH  26  27
ATOM     27  C   UNL     1       7.296   7.119 -14.583  1.00  0.00    -0.000 C 
BRANCH  27  28
ATOM     28  C   UNL     1       7.227   7.200 -13.048  1.00  0.00    -0.000 C 
BRANCH  28  29
ATOM     29  C   UNL     1       7.632   8.584 -12.514  1.00  0.00    -0.000 C 
BRANCH  29  30
ATOM     30  C   UNL     1       9.072   8.967 -12.901  1.00  0.00    -0.000 C 
BRANCH  30  31
ATOM     31  C   UNL     1       9.292  10.488 -12.918  1.00  0.00    -0.003 C 
ATOM     32  C   UNL     1       8.079  11.255 -13.443  1.00  0.00     0.004 C 
ENDBRANCH  30  31
ENDBRANCH  29  30
ENDBRANCH  28  29
ENDBRANCH  27  28
ENDBRANCH  26  27
ENDBRANCH  25  26
ENDBRANCH  24  25
ENDBRANCH  23  24
ENDBRANCH  22  23
ENDBRANCH  21  22
ENDBRANCH  20  21
ENDBRANCH  19  20
ENDBRANCH  18  19
ENDBRANCH   1  18
TORSDOF 28
ENDMDL
MODEL 5
REMARK VINA RESULT:    -5.810      2.169      5.469
REMARK INTER + INTRA:         -21.048
REMARK INTER:                 -16.012
REMARK INTRA:                  -5.036
REMARK UNBOUND:                -5.727
REMARK SMILES CCCCCCCCCCCCCCCCCCCCCCCCCCCCCC(=O)[O-]
REMARK SMILES IDX 16 1 17 2 18 3 19 4 20 5 21 6 22 7 23 8 24 9 25 10 26 11
REMARK SMILES IDX 27 12 28 13 29 14 30 15 31 16 32 17 15 18 14 19 13 20 12 21
REMARK SMILES IDX 11 22 10 23 9 24 8 25 7 26 6 27 5 28 4 29 3 30 2 31 1 32
REMARK H PARENT
REMARK Flexibility Score: inf
ROOT
ATOM      1  C   UNL     1      11.772   5.971 -12.324  1.00  0.00     0.000 C 
ENDROOT
BRANCH   1   2
ATOM      2  C   UNL     1      12.235   4.869 -13.292  1.00  0.00     0.000 C 
BRANCH   2   3
ATOM      3  C   UNL     1      11.088   4.305 -14.150  1.00  0.00     0.000 C 
BRANCH   3   4
ATOM      4  C   UNL     1      10.733   5.131 -15.399  1.00  0.00     0.000 C 
BRANCH   4   5
ATOM      5  C   UNL     1      11.954   5.830 -16.023  1.00  0.00     0.000 C 
BRANCH   5   6
ATOM      6  C   UNL     1      12.070   7.308 -15.617  1.00  0.00     0.000 C 
BRANCH   6   7
ATOM      7  C   UNL     1      12.829   8.210 -16.609  1.00  0.00     0.000 C 
BRANCH   7   8
ATOM      8  C   UNL     1      11.915   9.007 -17.566  1.00  0.00     0.000 C 
BRANCH   8   9
ATOM      9  C   UNL     1      10.462   9.091 -17.063  1.00  0.00     0.000 C 
BRANCH   9  10
ATOM     10  C   UNL     1       9.451   8.643 -18.141  1.00  0.00     0.000 C 
BRANCH  10  11
ATOM     11  C   UNL     1       8.000   8.601 -17.635  1.00  0.00     0.000 C 
BRANCH  11  12
ATOM     12  C   UNL     1       7.887   8.857 -16.125  1.00  0.00     0.000 C 
BRANCH  12  13
ATOM     13  C   UNL     1       7.658   7.543 -15.363  1.00  0.00     0.006 C 
BRANCH  13  14
ATOM     14  C   UNL     1       8.455   7.482 -14.053  1.00  0.00     0.053 C 
BRANCH  14  15
ATOM     15  C   UNL     1       7.597   7.762 -12.856  1.00  0.00     0.041 C 
ATOM     16  O   UNL     1       7.477   8.937 -12.419  1.00  0.00    -0.550 OA
ATOM     17  O   UNL     1       6.941   6.719 -12.212  1.00  0.00    -0.550 OA
ENDBRANCH  14  15
ENDBRANCH  13  14
ENDBRANCH  12  13
ENDBRANCH  11  12
ENDBRANCH  10  11
ENDBRANCH   9  10
ENDBRANCH   8   9
ENDBRANCH   7   8
ENDBRANCH   6   7
ENDBRANCH   5   6
ENDBRANCH   4   5
ENDBRANCH   3   4
ENDBRANCH   2   3
ENDBRANCH   1   2
BRANCH   1  18
ATOM     18  C   UNL     1      10.376   5.700 -11.733  1.00  0.00     0.000 C 
BRANCH  18  19
ATOM     19  C   UNL     1      10.233   5.987 -10.224  1.00  0.00     0.000 C 
BRANCH  19  20
ATOM     20  C   UNL     1      11.468   6.623  -9.554  1.00  0.00     0.000 C 
BRANCH  20  21
ATOM     21  C   UNL     1      12.424   5.629  -8.871  1.00  0.00     0.000 C 
BRANCH  21  22
ATOM     22  C   UNL     1      13.906   6.000  -9.061  1.00  0.00     0.000 C 
BRANCH  22  23
ATOM     23  C   UNL     1      14.124   6.989 -10.217  1.00  0.00     0.000 C 
BRANCH  23  24
ATOM     24  C   UNL     1      15.447   7.762 -10.100  1.00  0.00    -0.000 C 
BRANCH  24  25
ATOM     25  C   UNL     1      16.159   7.836 -11.459  1.00  0.00    -0.000 C 
BRANCH  25  26
ATOM     26  C   UNL     1      15.255   7.427 -12.635  1.00  0.00    -0.000 C 
BRANCH  26  27
ATOM     27  C   UNL     1      15.259   8.397 -13.830  1.00  0.00    -0.000 C 
BRANCH  27  28
ATOM     28  C   UNL     1      14.357   9.624 -13.609  1.00  0.00    -0.000 C 
BRANCH  28  29
ATOM     29  C   UNL     1      12.995   9.250 -13.002  1.00  0.00    -0.000 C 
BRANCH  29  30
ATOM     30  C   UNL     1      12.669  10.065 -11.736  1.00  0.00    -0.000 C 
BRANCH  30  31
ATOM     31  C   UNL     1      11.379  10.887 -11.881  1.00  0.00    -0.003 C 
ATOM     32  C   UNL     1      10.558  10.489 -13.106  1.00  0.00     0.004 C 
ENDBRANCH  30  31
ENDBRANCH  29  30
ENDBRANCH  28  29
ENDBRANCH  27  28
ENDBRANCH  26  27
ENDBRANCH  25  26
ENDBRANCH  24  25
ENDBRANCH  23  24
ENDBRANCH  22  23
ENDBRANCH  21  22
ENDBRANCH  20  21
ENDBRANCH  19  20
ENDBRANCH  18  19
ENDBRANCH   1  18
TORSDOF 28
ENDMDL
MODEL 6
REMARK VINA RESULT:    -5.760      1.828      4.209
REMARK INTER + INTRA:         -20.914
REMARK INTER:                 -15.171
REMARK INTRA:                  -5.743
REMARK UNBOUND:                -5.727
REMARK SMILES CCCCCCCCCCCCCCCCCCCCCCCCCCCCCC(=O)[O-]
REMARK SMILES IDX 16 1 17 2 18 3 19 4 20 5 21 6 22 7 23 8 24 9 25 10 26 11
REMARK SMILES IDX 27 12 28 13 29 14 30 15 31 16 32 17 15 18 14 19 13 20 12 21
REMARK SMILES IDX 11 22 10 23 9 24 8 25 7 26 6 27 5 28 4 29 3 30 2 31 1 32
REMARK H PARENT
REMARK Flexibility Score: inf
ROOT
ATOM      1  C   UNL     1      11.809   5.980 -15.725  1.00  0.00     0.000 C 
ENDROOT
BRANCH   1   2
ATOM      2  C   UNL     1      13.048   6.733 -16.242  1.00  0.00     0.000 C 
BRANCH   2   3
ATOM      3  C   UNL     1      12.859   8.261 -16.250  1.00  0.00     0.000 C 
BRANCH   3   4
ATOM      4  C   UNL     1      11.398   8.743 -16.281  1.00  0.00     0.000 C 
BRANCH   4   5
ATOM      5  C   UNL     1      10.982   9.310 -17.650  1.00  0.00     0.000 C 
BRANCH   5   6
ATOM      6  C   UNL     1       9.731   8.629 -18.226  1.00  0.00     0.000 C 
BRANCH   6   7
ATOM      7  C   UNL     1       8.767   8.024 -17.186  1.00  0.00     0.000 C 
BRANCH   7   8
ATOM      8  C   UNL     1       7.598   8.955 -16.792  1.00  0.00     0.000 C 
BRANCH   8   9
ATOM      9  C   UNL     1       6.729   8.369 -15.664  1.00  0.00     0.000 C 
BRANCH   9  10
ATOM     10  C   UNL     1       7.496   7.318 -14.832  1.00  0.00     0.000 C 
BRANCH  10  11
ATOM     11  C   UNL     1       7.949   7.840 -13.459  1.00  0.00     0.000 C 
BRANCH  11  12
ATOM     12  C   UNL     1       9.340   8.491 -13.499  1.00  0.00     0.000 C 
BRANCH  12  13
ATOM     13  C   UNL     1       9.412   9.687 -12.538  1.00  0.00     0.006 C 
BRANCH  13  14
ATOM     14  C   UNL     1       9.552  11.024 -13.280  1.00  0.00     0.053 C 
BRANCH  14  15
ATOM     15  C   UNL     1       8.265  11.793 -13.305  1.00  0.00     0.041 C 
ATOM     16  O   UNL     1       8.236  12.995 -12.931  1.00  0.00    -0.550 OA
ATOM     17  O   UNL     1       7.094  11.176 -13.727  1.00  0.00    -0.550 OA
ENDBRANCH  14  15
ENDBRANCH  13  14
ENDBRANCH  12  13
ENDBRANCH  11  12
ENDBRANCH  10  11
ENDBRANCH   9  10
ENDBRANCH   8   9
ENDBRANCH   7   8
ENDBRANCH   6   7
ENDBRANCH   5   6
ENDBRANCH   4   5
ENDBRANCH   3   4
ENDBRANCH   2   3
ENDBRANCH   1   2
BRANCH   1  18
ATOM     18  C   UNL     1      12.138   4.563 -15.220  1.00  0.00     0.000 C 
BRANCH  18  19
ATOM     19  C   UNL     1      11.779   4.290 -13.745  1.00  0.00     0.000 C 
BRANCH  19  20
ATOM     20  C   UNL     1      11.041   5.436 -13.024  1.00  0.00     0.000 C 
BRANCH  20  21
ATOM     21  C   UNL     1       9.717   5.037 -12.347  1.00  0.00     0.000 C 
BRANCH  21  22
ATOM     22  C   UNL     1       9.496   5.751 -11.001  1.00  0.00     0.000 C 
BRANCH  22  23
ATOM     23  C   UNL     1      10.744   6.511 -10.524  1.00  0.00     0.000 C 
BRANCH  23  24
ATOM     24  C   UNL     1      11.179   6.113  -9.105  1.00  0.00    -0.000 C 
BRANCH  24  25
ATOM     25  C   UNL     1      12.702   5.925  -9.033  1.00  0.00    -0.000 C 
BRANCH  25  26
ATOM     26  C   UNL     1      13.406   6.200 -10.374  1.00  0.00    -0.000 C 
BRANCH  26  27
ATOM     27  C   UNL     1      14.440   7.340 -10.346  1.00  0.00    -0.000 C 
BRANCH  27  28
ATOM     28  C   UNL     1      15.132   7.554 -11.704  1.00  0.00    -0.000 C 
BRANCH  28  29
ATOM     29  C   UNL     1      14.134   7.591 -12.873  1.00  0.00    -0.000 C 
BRANCH  29  30
ATOM     30  C   UNL     1      12.969   8.567 -12.624  1.00  0.00    -0.000 C 
BRANCH  30  31
ATOM     31  C   UNL     1      13.360  10.029 -12.891  1.00  0.00    -0.003 C 
ATOM     32  C   UNL     1      13.019  10.954 -11.723  1.00  0.00     0.004 C 
ENDBRANCH  30  31
ENDBRANCH  29  30
ENDBRANCH  28  29
ENDBRANCH  27  28
ENDBRANCH  26  27
ENDBRANCH  25  26
ENDBRANCH  24  25
ENDBRANCH  23  24
ENDBRANCH  22  23
ENDBRANCH  21  22
ENDBRANCH  20  21
ENDBRANCH  19  20
ENDBRANCH  18  19
ENDBRANCH   1  18
TORSDOF 28
ENDMDL
MODEL 7
REMARK VINA RESULT:    -5.736      1.402      4.763
REMARK INTER + INTRA:         -20.853
REMARK INTER:                 -15.481
REMARK INTRA:                  -5.372
REMARK UNBOUND:                -5.727
REMARK SMILES CCCCCCCCCCCCCCCCCCCCCCCCCCCCCC(=O)[O-]
REMARK SMILES IDX 16 1 17 2 18 3 19 4 20 5 21 6 22 7 23 8 24 9 25 10 26 11
REMARK SMILES IDX 27 12 28 13 29 14 30 15 31 16 32 17 15 18 14 19 13 20 12 21
REMARK SMILES IDX 11 22 10 23 9 24 8 25 7 26 6 27 5 28 4 29 3 30 2 31 1 32
REMARK H PARENT
REMARK Flexibility Score: inf
ROOT
ATOM      1  C   UNL     1      10.727   8.525 -16.360  1.00  0.00     0.000 C 
ENDROOT
BRANCH   1   2
ATOM      2  C   UNL     1       9.880   7.345 -16.868  1.00  0.00     0.000 C 
BRANCH   2   3
ATOM      3  C   UNL     1       9.814   6.180 -15.864  1.00  0.00     0.000 C 
BRANCH   3   4
ATOM      4  C   UNL     1      11.066   5.286 -15.811  1.00  0.00     0.000 C 
BRANCH   4   5
ATOM      5  C   UNL     1      11.035   4.279 -14.648  1.00  0.00     0.000 C 
BRANCH   5   6
ATOM      6  C   UNL     1      11.986   4.658 -13.501  1.00  0.00     0.000 C 
BRANCH   6   7
ATOM      7  C   UNL     1      11.474   5.761 -12.554  1.00  0.00     0.000 C 
BRANCH   7   8
ATOM      8  C   UNL     1      10.073   5.486 -11.964  1.00  0.00     0.000 C 
BRANCH   8   9
ATOM      9  C   UNL     1       9.936   5.977 -10.511  1.00  0.00     0.000 C 
BRANCH   9  10
ATOM     10  C   UNL     1      11.202   6.719 -10.030  1.00  0.00     0.000 C 
BRANCH  10  11
ATOM     11  C   UNL     1      12.052   5.898  -9.047  1.00  0.00     0.000 C 
BRANCH  11  12
ATOM     12  C   UNL     1      13.558   6.001  -9.331  1.00  0.00     0.000 C 
BRANCH  12  13
ATOM     13  C   UNL     1      13.844   7.087 -10.378  1.00  0.00     0.006 C 
BRANCH  13  14
ATOM     14  C   UNL     1      15.341   7.216 -10.692  1.00  0.00     0.053 C 
BRANCH  14  15
ATOM     15  C   UNL     1      16.065   8.036  -9.666  1.00  0.00     0.041 C 
ATOM     16  O   UNL     1      16.774   7.476  -8.789  1.00  0.00    -0.550 OA
ATOM     17  O   UNL     1      15.942   9.420  -9.670  1.00  0.00    -0.550 OA
ENDBRANCH  14  15
ENDBRANCH  13  14
ENDBRANCH  12  13
ENDBRANCH  11  12
ENDBRANCH  10  11
ENDBRANCH   9  10
ENDBRANCH   8   9
ENDBRANCH   7   8
ENDBRANCH   6   7
ENDBRANCH   5   6
ENDBRANCH   4   5
ENDBRANCH   3   4
ENDBRANCH   2   3
ENDBRANCH   1   2
BRANCH   1  18
ATOM     18  C   UNL     1      12.059   8.675 -17.118  1.00  0.00     0.000 C 
BRANCH  18  19
ATOM     19  C   UNL     1      13.314   8.236 -16.335  1.00  0.00     0.000 C 
BRANCH  19  20
ATOM     20  C   UNL     1      13.079   7.900 -14.848  1.00  0.00     0.000 C 
BRANCH  20  21
ATOM     21  C   UNL     1      14.221   8.306 -13.899  1.00  0.00     0.000 C 
BRANCH  21  22
ATOM     22  C   UNL     1      14.351   9.832 -13.740  1.00  0.00     0.000 C 
BRANCH  22  23
ATOM     23  C   UNL     1      13.944  10.316 -12.339  1.00  0.00     0.000 C 
BRANCH  23  24
ATOM     24  C   UNL     1      12.591   9.750 -11.881  1.00  0.00    -0.000 C 
BRANCH  24  25
ATOM     25  C   UNL     1      11.511  10.842 -11.884  1.00  0.00    -0.000 C 
BRANCH  25  26
ATOM     26  C   UNL     1      10.350  10.537 -12.847  1.00  0.00    -0.000 C 
BRANCH  26  27
ATOM     27  C   UNL     1      10.123   9.043 -13.143  1.00  0.00    -0.000 C 
BRANCH  27  28
ATOM     28  C   UNL     1       8.632   8.670 -13.226  1.00  0.00    -0.000 C 
BRANCH  28  29
ATOM     29  C   UNL     1       7.710   9.879 -12.999  1.00  0.00    -0.000 C 
BRANCH  29  30
ATOM     30  C   UNL     1       6.869  10.220 -14.243  1.00  0.00    -0.000 C 
BRANCH  30  31
ATOM     31  C   UNL     1       7.232   9.350 -15.456  1.00  0.00    -0.003 C 
ATOM     32  C   UNL     1       6.015   8.984 -16.306  1.00  0.00     0.004 C 
ENDBRANCH  30  31
ENDBRANCH  29  30
ENDBRANCH  28  29
ENDBRANCH  27  28
ENDBRANCH  26  27
ENDBRANCH  25  26
ENDBRANCH  24  25
ENDBRANCH  23  24
ENDBRANCH  22  23
ENDBRANCH  21  22
ENDBRANCH  20  21
ENDBRANCH  19  20
ENDBRANCH  18  19
ENDBRANCH   1  18
TORSDOF 28
ENDMDL
MODEL 8
REMARK VINA RESULT:    -5.694      1.073      4.513
REMARK INTER + INTRA:         -20.741
REMARK INTER:                 -15.258
REMARK INTRA:                  -5.482
REMARK UNBOUND:                -5.727
REMARK SMILES CCCCCCCCCCCCCCCCCCCCCCCCCCCCCC(=O)[O-]
REMARK SMILES IDX 16 1 17 2 18 3 19 4 20 5 21 6 22 7 23 8 24 9 25 10 26 11
REMARK SMILES IDX 27 12 28 13 29 14 30 15 31 16 32 17 15 18 14 19 13 20 12 21
REMARK SMILES IDX 11 22 10 23 9 24 8 25 7 26 6 27 5 28 4 29 3 30 2 31 1 32
REMARK H PARENT
REMARK Flexibility Score: inf
ROOT
ATOM      1  C   UNL     1      12.050   6.004  -9.045  1.00  0.00     0.000 C 
ENDROOT
BRANCH   1   2
ATOM      2  C   UNL     1      11.068   6.655 -10.034  1.00  0.00     0.000 C 
BRANCH   2   3
ATOM      3  C   UNL     1       9.874   5.745 -10.378  1.00  0.00     0.000 C 
BRANCH   3   4
ATOM      4  C   UNL     1       9.333   5.884 -11.813  1.00  0.00     0.000 C 
BRANCH   4   5
ATOM      5  C   UNL     1       8.680   7.251 -12.078  1.00  0.00     0.000 C 
BRANCH   5   6
ATOM      6  C   UNL     1       7.225   7.136 -12.561  1.00  0.00     0.000 C 
BRANCH   6   7
ATOM      7  C   UNL     1       7.047   6.771 -14.047  1.00  0.00     0.000 C 
BRANCH   7   8
ATOM      8  C   UNL     1       6.646   7.961 -14.947  1.00  0.00     0.000 C 
BRANCH   8   9
ATOM      9  C   UNL     1       7.670   9.110 -14.900  1.00  0.00     0.000 C 
BRANCH   9  10
ATOM     10  C   UNL     1       7.208  10.258 -13.975  1.00  0.00     0.000 C 
BRANCH  10  11
ATOM     11  C   UNL     1       8.358  10.906 -13.188  1.00  0.00     0.000 C 
BRANCH  11  12
ATOM     12  C   UNL     1       9.678  10.132 -13.315  1.00  0.00     0.000 C 
BRANCH  12  13
ATOM     13  C   UNL     1      10.841  10.929 -12.706  1.00  0.00     0.006 C 
BRANCH  13  14
ATOM     14  C   UNL     1      11.989  10.023 -12.240  1.00  0.00     0.053 C 
BRANCH  14  15
ATOM     15  C   UNL     1      13.115  10.805 -11.631  1.00  0.00     0.041 C 
ATOM     16  O   UNL     1      12.884  11.883 -11.023  1.00  0.00    -0.550 OA
ATOM     17  O   UNL     1      14.421  10.348 -11.750  1.00  0.00    -0.550 OA
ENDBRANCH  14  15
ENDBRANCH  13  14
ENDBRANCH  12  13
ENDBRANCH  11  12
ENDBRANCH  10  11
ENDBRANCH   9  10
ENDBRANCH   8   9
ENDBRANCH   7   8
ENDBRANCH   6   7
ENDBRANCH   5   6
ENDBRANCH   4   5
ENDBRANCH   3   4
ENDBRANCH   2   3
ENDBRANCH   1   2
BRANCH   1  18
ATOM     18  C   UNL     1      13.491   5.946  -9.584  1.00  0.00     0.000 C 
BRANCH  18  19
ATOM     19  C   UNL     1      13.909   7.136 -10.473  1.00  0.00     0.000 C 
BRANCH  19  20
ATOM     20  C   UNL     1      14.303   6.771 -11.919  1.00  0.00     0.000 C 
BRANCH  20  21
ATOM     21  C   UNL     1      13.588   5.539 -12.500  1.00  0.00     0.000 C 
BRANCH  21  22
ATOM     22  C   UNL     1      12.490   5.908 -13.513  1.00  0.00     0.000 C 
BRANCH  22  23
ATOM     23  C   UNL     1      12.093   4.726 -14.412  1.00  0.00     0.000 C 
BRANCH  23  24
ATOM     24  C   UNL     1      10.681   4.872 -15.000  1.00  0.00    -0.000 C 
BRANCH  24  25
ATOM     25  C   UNL     1      10.323   6.352 -15.202  1.00  0.00    -0.000 C 
BRANCH  25  26
ATOM     26  C   UNL     1       9.727   6.642 -16.590  1.00  0.00    -0.000 C 
BRANCH  26  27
ATOM     27  C   UNL     1       9.930   8.081 -17.101  1.00  0.00    -0.000 C 
BRANCH  27  28
ATOM     28  C   UNL     1      11.095   8.804 -16.403  1.00  0.00    -0.000 C 
BRANCH  28  29
ATOM     29  C   UNL     1      12.414   8.682 -17.183  1.00  0.00    -0.000 C 
BRANCH  29  30
ATOM     30  C   UNL     1      13.517   7.981 -16.369  1.00  0.00    -0.000 C 
BRANCH  30  31
ATOM     31  C   UNL     1      13.801   8.685 -15.032  1.00  0.00    -0.003 C 
ATOM     32  C   UNL     1      15.292   8.760 -14.708  1.00  0.00     0.004 C 
ENDBRANCH  30  31
ENDBRANCH  29  30
ENDBRANCH  28  29
ENDBRANCH  27  28
ENDBRANCH  26  27
ENDBRANCH  25  26
ENDBRANCH  24  25
ENDBRANCH  23  24
ENDBRANCH  22  23
ENDBRANCH  21  22
ENDBRANCH  20  21
ENDBRANCH  19  20
ENDBRANCH  18  19
ENDBRANCH   1  18
TORSDOF 28
ENDMDL
MODEL 9
REMARK VINA RESULT:    -5.610      2.472      5.343
REMARK INTER + INTRA:         -20.521
REMARK INTER:                 -15.023
REMARK INTRA:                  -5.497
REMARK UNBOUND:                -5.727
REMARK SMILES CCCCCCCCCCCCCCCCCCCCCCCCCCCCCC(=O)[O-]
REMARK SMILES IDX 16 1 17 2 18 3 19 4 20 5 21 6 22 7 23 8 24 9 25 10 26 11
REMARK SMILES IDX 27 12 28 13 29 14 30 15 31 16 32 17 15 18 14 19 13 20 12 21
REMARK SMILES IDX 11 22 10 23 9 24 8 25 7 26 6 27 5 28 4 29 3 30 2 31 1 32
REMARK H PARENT
REMARK Flexibility Score: inf
ROOT
ATOM      1  C   UNL     1      10.049   9.021 -17.259  1.00  0.00     0.000 C 
ENDROOT
BRANCH   1   2
ATOM      2  C   UNL     1      11.274   9.007 -16.328  1.00  0.00     0.000 C 
BRANCH   2   3
ATOM      3  C   UNL     1      12.564   8.567 -17.044  1.00  0.00     0.000 C 
BRANCH   3   4
ATOM      4  C   UNL     1      13.609   7.874 -16.150  1.00  0.00     0.000 C 
BRANCH   4   5
ATOM      5  C   UNL     1      13.491   8.273 -14.669  1.00  0.00     0.000 C 
BRANCH   5   6
ATOM      6  C   UNL     1      14.747   8.983 -14.138  1.00  0.00     0.000 C 
BRANCH   6   7
ATOM      7  C   UNL     1      14.491  10.094 -13.101  1.00  0.00     0.000 C 
BRANCH   7   8
ATOM      8  C   UNL     1      13.008  10.505 -12.968  1.00  0.00     0.000 C 
BRANCH   8   9
ATOM      9  C   UNL     1      12.396  10.087 -11.618  1.00  0.00     0.000 C 
BRANCH   9  10
ATOM     10  C   UNL     1      10.984   9.484 -11.786  1.00  0.00     0.000 C 
BRANCH  10  11
ATOM     11  C   UNL     1      10.377   9.734 -13.176  1.00  0.00     0.000 C 
BRANCH  11  12
ATOM     12  C   UNL     1       9.509  10.999 -13.229  1.00  0.00     0.000 C 
BRANCH  12  13
ATOM     13  C   UNL     1       8.016  10.639 -13.228  1.00  0.00     0.006 C 
BRANCH  13  14
ATOM     14  C   UNL     1       7.649   9.668 -14.358  1.00  0.00     0.053 C 
BRANCH  14  15
ATOM     15  C   UNL     1       6.492  10.161 -15.174  1.00  0.00     0.041 C 
ATOM     16  O   UNL     1       6.150   9.555 -16.224  1.00  0.00    -0.550 OA
ATOM     17  O   UNL     1       5.801  11.301 -14.782  1.00  0.00    -0.550 OA
ENDBRANCH  14  15
ENDBRANCH  13  14
ENDBRANCH  12  13
ENDBRANCH  11  12
ENDBRANCH  10  11
ENDBRANCH   9  10
ENDBRANCH   8   9
ENDBRANCH   7   8
ENDBRANCH   6   7
ENDBRANCH   5   6
ENDBRANCH   4   5
ENDBRANCH   3   4
ENDBRANCH   2   3
ENDBRANCH   1   2
BRANCH   1  18
ATOM     18  C   UNL     1       9.153   7.781 -17.085  1.00  0.00     0.000 C 
BRANCH  18  19
ATOM     19  C   UNL     1       9.350   7.006 -15.765  1.00  0.00     0.000 C 
BRANCH  19  20
ATOM     20  C   UNL     1       9.893   5.571 -15.919  1.00  0.00     0.000 C 
BRANCH  20  21
ATOM     21  C   UNL     1      11.366   5.383 -15.515  1.00  0.00     0.000 C 
BRANCH  21  22
ATOM     22  C   UNL     1      11.558   4.287 -14.451  1.00  0.00     0.000 C 
BRANCH  22  23
ATOM     23  C   UNL     1      11.987   4.854 -13.088  1.00  0.00     0.000 C 
BRANCH  23  24
ATOM     24  C   UNL     1      11.125   6.044 -12.640  1.00  0.00    -0.000 C 
BRANCH  24  25
ATOM     25  C   UNL     1       9.924   5.568 -11.809  1.00  0.00    -0.000 C 
BRANCH  25  26
ATOM     26  C   UNL     1      10.034   5.948 -10.322  1.00  0.00    -0.000 C 
BRANCH  26  27
ATOM     27  C   UNL     1      11.320   6.699  -9.932  1.00  0.00    -0.000 C 
BRANCH  27  28
ATOM     28  C   UNL     1      12.296   5.833  -9.117  1.00  0.00    -0.000 C 
BRANCH  28  29
ATOM     29  C   UNL     1      13.757   6.024  -9.553  1.00  0.00    -0.000 C 
BRANCH  29  30
ATOM     30  C   UNL     1      13.919   7.138 -10.604  1.00  0.00    -0.000 C 
BRANCH  30  31
ATOM     31  C   UNL     1      15.386   7.546 -10.809  1.00  0.00    -0.003 C 
ATOM     32  C   UNL     1      15.810   8.702  -9.904  1.00  0.00     0.004 C 
ENDBRANCH  30  31
ENDBRANCH  29  30
ENDBRANCH  28  29
ENDBRANCH  27  28
ENDBRANCH  26  27
ENDBRANCH  25  26
ENDBRANCH  24  25
ENDBRANCH  23  24
ENDBRANCH  22  23
ENDBRANCH  21  22
ENDBRANCH  20  21
ENDBRANCH  19  20
ENDBRANCH  18  19
ENDBRANCH   1  18
TORSDOF 28
ENDMDL
