MODEL 1
REMARK VINA RESULT:    -2.075      0.000      0.000
REMARK INTER + INTRA:          -5.612
REMARK INTER:                  -3.531
REMARK INTRA:                  -2.081
REMARK UNBOUND:                -2.081
REMARK SMILES CCCCCCCCCCCCCC(=O)[O-]
REMARK SMILES IDX 8 1 9 2 10 3 11 4 12 5 13 6 14 7 15 8 16 9 7 10 6 11 5 12
REMARK SMILES IDX 4 13 3 14 2 15 1 16
REMARK H PARENT
REMARK Flexibility Score: inf
ROOT
ATOM      1  C   UNL     1     174.275 206.735 198.973  1.00  0.00     0.000 C 
ENDROOT
BRANCH   1   2
ATOM      2  C   UNL     1     175.111 206.634 197.689  1.00  0.00     0.000 C 
BRANCH   2   3
ATOM      3  C   UNL     1     176.050 205.422 197.739  1.00  0.00     0.000 C 
BRANCH   3   4
ATOM      4  C   UNL     1     177.232 205.681 198.686  1.00  0.00     0.000 C 
BRANCH   4   5
ATOM      5  C   UNL     1     178.082 206.887 198.258  1.00  0.00     0.006 C 
BRANCH   5   6
ATOM      6  C   UNL     1     178.848 207.516 199.428  1.00  0.00     0.053 C 
BRANCH   6   7
ATOM      7  C   UNL     1     180.293 207.133 199.371  1.00  0.00     0.041 C 
ATOM      8  O   UNL     1     180.770 206.612 198.329  1.00  0.00    -0.550 OA
ATOM      9  O   UNL     1     181.124 207.395 200.453  1.00  0.00    -0.550 OA
ENDBRANCH   6   7
ENDBRANCH   5   6
ENDBRANCH   4   5
ENDBRANCH   3   4
ENDBRANCH   2   3
ENDBRANCH   1   2
BRANCH   1  10
ATOM     10  C   UNL     1     174.495 208.060 199.720  1.00  0.00     0.000 C 
BRANCH  10  11
ATOM     11  C   UNL     1     174.678 207.865 201.232  1.00  0.00    -0.000 C 
BRANCH  11  12
ATOM     12  C   UNL     1     176.160 207.934 201.619  1.00  0.00    -0.000 C 
BRANCH  12  13
ATOM     13  C   UNL     1     176.626 206.618 202.262  1.00  0.00    -0.000 C 
BRANCH  13  14
ATOM     14  C   UNL     1     175.496 205.570 202.331  1.00  0.00    -0.000 C 
BRANCH  14  15
ATOM     15  C   UNL     1     175.910 204.184 201.809  1.00  0.00    -0.003 C 
ATOM     16  C   UNL     1     174.894 203.581 200.841  1.00  0.00     0.004 C 
ENDBRANCH  14  15
ENDBRANCH  13  14
ENDBRANCH  12  13
ENDBRANCH  11  12
ENDBRANCH  10  11
ENDBRANCH   1  10
TORSDOF 12
ENDMDL
MODEL 2
REMARK VINA RESULT:    -2.030      1.836      3.426
REMARK INTER + INTRA:          -5.535
REMARK INTER:                  -3.863
REMARK INTRA:                  -1.672
REMARK UNBOUND:                -2.081
REMARK SMILES CCCCCCCCCCCCCC(=O)[O-]
REMARK SMILES IDX 8 1 9 2 10 3 11 4 12 5 13 6 14 7 15 8 16 9 7 10 6 11 5 12
REMARK SMILES IDX 4 13 3 14 2 15 1 16
REMARK H PARENT
REMARK Flexibility Score: inf
ROOT
ATOM      1  C   UNL     1     176.782 205.240 201.809  1.00  0.00     0.000 C 
ENDROOT
BRANCH   1   2
ATOM      2  C   UNL     1     178.207 204.673 201.898  1.00  0.00     0.000 C 
BRANCH   2   3
ATOM      3  C   UNL     1     179.041 205.091 200.682  1.00  0.00     0.000 C 
BRANCH   3   4
ATOM      4  C   UNL     1     180.058 206.179 201.059  1.00  0.00     0.000 C 
BRANCH   4   5
ATOM      5  C   UNL     1     180.248 207.224 199.948  1.00  0.00     0.006 C 
BRANCH   5   6
ATOM      6  C   UNL     1     179.070 207.264 198.966  1.00  0.00     0.053 C 
BRANCH   6   7
ATOM      7  C   UNL     1     179.549 207.034 197.568  1.00  0.00     0.041 C 
ATOM      8  O   UNL     1     180.695 206.557 197.360  1.00  0.00    -0.550 OA
ATOM      9  O   UNL     1     178.710 207.303 196.494  1.00  0.00    -0.550 OA
ENDBRANCH   6   7
ENDBRANCH   5   6
ENDBRANCH   4   5
ENDBRANCH   3   4
ENDBRANCH   2   3
ENDBRANCH   1   2
BRANCH   1  10
ATOM     10  C   UNL     1     176.625 206.571 202.562  1.00  0.00     0.000 C 
BRANCH  10  11
ATOM     11  C   UNL     1     176.407 207.763 201.618  1.00  0.00    -0.000 C 
BRANCH  11  12
ATOM     12  C   UNL     1     175.718 207.319 200.323  1.00  0.00    -0.000 C 
BRANCH  12  13
ATOM     13  C   UNL     1     174.433 208.125 200.075  1.00  0.00    -0.000 C 
BRANCH  13  14
ATOM     14  C   UNL     1     173.163 207.269 200.258  1.00  0.00    -0.000 C 
BRANCH  14  15
ATOM     15  C   UNL     1     172.715 207.135 201.723  1.00  0.00    -0.003 C 
ATOM     16  C   UNL     1     172.944 205.738 202.294  1.00  0.00     0.004 C 
ENDBRANCH  14  15
ENDBRANCH  13  14
ENDBRANCH  12  13
ENDBRANCH  11  12
ENDBRANCH  10  11
ENDBRANCH   1  10
TORSDOF 12
ENDMDL
MODEL 3
REMARK VINA RESULT:    -1.922      2.522      4.063
REMARK INTER + INTRA:          -5.351
REMARK INTER:                  -3.379
REMARK INTRA:                  -1.972
REMARK UNBOUND:                -2.081
REMARK SMILES CCCCCCCCCCCCCC(=O)[O-]
REMARK SMILES IDX 8 1 9 2 10 3 11 4 12 5 13 6 14 7 15 8 16 9 7 10 6 11 5 12
REMARK SMILES IDX 4 13 3 14 2 15 1 16
REMARK H PARENT
REMARK Flexibility Score: inf
ROOT
ATOM      1  C   UNL     1     178.189 205.703 200.243  1.00  0.00     0.000 C 
ENDROOT
BRANCH   1   2
ATOM      2  C   UNL     1     179.253 206.692 199.743  1.00  0.00     0.000 C 
BRANCH   2   3
ATOM      3  C   UNL     1     178.813 207.356 198.432  1.00  0.00     0.000 C 
BRANCH   3   4
ATOM      4  C   UNL     1     177.456 206.808 197.966  1.00  0.00     0.000 C 
BRANCH   4   5
ATOM      5  C   UNL     1     176.672 207.816 197.111  1.00  0.00     0.006 C 
BRANCH   5   6
ATOM      6  C   UNL     1     175.882 207.144 195.981  1.00  0.00     0.053 C 
BRANCH   6   7
ATOM      7  C   UNL     1     176.595 207.308 194.676  1.00  0.00     0.041 C 
ATOM      8  O   UNL     1     175.974 207.723 193.663  1.00  0.00    -0.550 OA
ATOM      9  O   UNL     1     177.957 207.050 194.592  1.00  0.00    -0.550 OA
ENDBRANCH   6   7
ENDBRANCH   5   6
ENDBRANCH   4   5
ENDBRANCH   3   4
ENDBRANCH   2   3
ENDBRANCH   1   2
BRANCH   1  10
ATOM     10  C   UNL     1     177.902 205.851 201.745  1.00  0.00     0.000 C 
BRANCH  10  11
ATOM     11  C   UNL     1     176.498 206.406 202.029  1.00  0.00    -0.000 C 
BRANCH  11  12
ATOM     12  C   UNL     1     176.409 207.891 201.657  1.00  0.00    -0.000 C 
BRANCH  12  13
ATOM     13  C   UNL     1     175.359 208.125 200.559  1.00  0.00    -0.000 C 
BRANCH  13  14
ATOM     14  C   UNL     1     174.210 207.098 200.622  1.00  0.00    -0.000 C 
BRANCH  14  15
ATOM     15  C   UNL     1     173.960 206.371 199.290  1.00  0.00    -0.003 C 
ATOM     16  C   UNL     1     174.535 204.956 199.262  1.00  0.00     0.004 C 
ENDBRANCH  14  15
ENDBRANCH  13  14
ENDBRANCH  12  13
ENDBRANCH  11  12
ENDBRANCH  10  11
ENDBRANCH   1  10
TORSDOF 12
ENDMDL
MODEL 4
REMARK VINA RESULT:    -1.914      3.356      4.569
REMARK INTER + INTRA:          -5.337
REMARK INTER:                  -3.480
REMARK INTRA:                  -1.857
REMARK UNBOUND:                -2.081
REMARK SMILES CCCCCCCCCCCCCC(=O)[O-]
REMARK SMILES IDX 8 1 9 2 10 3 11 4 12 5 13 6 14 7 15 8 16 9 7 10 6 11 5 12
REMARK SMILES IDX 4 13 3 14 2 15 1 16
REMARK H PARENT
REMARK Flexibility Score: inf
ROOT
ATOM      1  C   UNL     1     173.890 206.658 199.424  1.00  0.00     0.000 C 
ENDROOT
BRANCH   1   2
ATOM      2  C   UNL     1     174.592 205.620 198.535  1.00  0.00     0.000 C 
BRANCH   2   3
ATOM      3  C   UNL     1     175.850 206.211 197.888  1.00  0.00     0.000 C 
BRANCH   3   4
ATOM      4  C   UNL     1     175.652 207.699 197.559  1.00  0.00     0.000 C 
BRANCH   4   5
ATOM      5  C   UNL     1     176.224 208.084 196.186  1.00  0.00     0.006 C 
BRANCH   5   6
ATOM      6  C   UNL     1     176.095 206.957 195.154  1.00  0.00     0.053 C 
BRANCH   6   7
ATOM      7  C   UNL     1     175.121 207.338 194.085  1.00  0.00     0.041 C 
ATOM      8  O   UNL     1     174.172 208.124 194.342  1.00  0.00    -0.550 OA
ATOM      9  O   UNL     1     175.290 206.863 192.790  1.00  0.00    -0.550 OA
ENDBRANCH   6   7
ENDBRANCH   5   6
ENDBRANCH   4   5
ENDBRANCH   3   4
ENDBRANCH   2   3
ENDBRANCH   1   2
BRANCH   1  10
ATOM     10  C   UNL     1     174.423 206.659 200.866  1.00  0.00     0.000 C 
BRANCH  10  11
ATOM     11  C   UNL     1     174.983 208.025 201.289  1.00  0.00    -0.000 C 
BRANCH  11  12
ATOM     12  C   UNL     1     176.516 208.023 201.258  1.00  0.00    -0.000 C 
BRANCH  12  13
ATOM     13  C   UNL     1     177.071 206.599 201.421  1.00  0.00    -0.000 C 
BRANCH  13  14
ATOM     14  C   UNL     1     178.404 206.403 200.670  1.00  0.00    -0.000 C 
BRANCH  14  15
ATOM     15  C   UNL     1     178.721 207.530 199.673  1.00  0.00    -0.003 C 
ATOM     16  C   UNL     1     179.399 207.029 198.399  1.00  0.00     0.004 C 
ENDBRANCH  14  15
ENDBRANCH  13  14
ENDBRANCH  12  13
ENDBRANCH  11  12
ENDBRANCH  10  11
ENDBRANCH   1  10
TORSDOF 12
ENDMDL
MODEL 5
REMARK VINA RESULT:    -1.869      2.341      4.052
REMARK INTER + INTRA:          -5.262
REMARK INTER:                  -3.488
REMARK INTRA:                  -1.773
REMARK UNBOUND:                -2.081
REMARK SMILES CCCCCCCCCCCCCC(=O)[O-]
REMARK SMILES IDX 8 1 9 2 10 3 11 4 12 5 13 6 14 7 15 8 16 9 7 10 6 11 5 12
REMARK SMILES IDX 4 13 3 14 2 15 1 16
REMARK H PARENT
REMARK Flexibility Score: inf
ROOT
ATOM      1  C   UNL     1     176.249 207.869 201.725  1.00  0.00     0.000 C 
ENDROOT
BRANCH   1   2
ATOM      2  C   UNL     1     177.009 208.117 200.414  1.00  0.00     0.000 C 
BRANCH   2   3
ATOM      3  C   UNL     1     176.214 207.596 199.211  1.00  0.00     0.000 C 
BRANCH   3   4
ATOM      4  C   UNL     1     177.064 206.637 198.363  1.00  0.00     0.000 C 
BRANCH   4   5
ATOM      5  C   UNL     1     177.900 207.368 197.301  1.00  0.00     0.006 C 
BRANCH   5   6
ATOM      6  C   UNL     1     179.100 206.541 196.822  1.00  0.00     0.053 C 
BRANCH   6   7
ATOM      7  C   UNL     1     179.005 206.288 195.351  1.00  0.00     0.041 C 
ATOM      8  O   UNL     1     177.883 206.273 194.781  1.00  0.00    -0.550 OA
ATOM      9  O   UNL     1     180.161 206.116 194.600  1.00  0.00    -0.550 OA
ENDBRANCH   6   7
ENDBRANCH   5   6
ENDBRANCH   4   5
ENDBRANCH   3   4
ENDBRANCH   2   3
ENDBRANCH   1   2
BRANCH   1  10
ATOM     10  C   UNL     1     175.936 206.382 201.956  1.00  0.00     0.000 C 
BRANCH  10  11
ATOM     11  C   UNL     1     177.178 205.570 202.351  1.00  0.00    -0.000 C 
BRANCH  11  12
ATOM     12  C   UNL     1     177.500 204.509 201.292  1.00  0.00    -0.000 C 
BRANCH  12  13
ATOM     13  C   UNL     1     178.962 204.614 200.831  1.00  0.00    -0.000 C 
BRANCH  13  14
ATOM     14  C   UNL     1     179.802 205.522 201.754  1.00  0.00    -0.000 C 
BRANCH  14  15
ATOM     15  C   UNL     1     180.977 206.209 201.039  1.00  0.00    -0.003 C 
ATOM     16  C   UNL     1     180.533 207.325 200.095  1.00  0.00     0.004 C 
ENDBRANCH  14  15
ENDBRANCH  13  14
ENDBRANCH  12  13
ENDBRANCH  11  12
ENDBRANCH  10  11
ENDBRANCH   1  10
TORSDOF 12
ENDMDL
MODEL 6
REMARK VINA RESULT:    -1.867      2.728      4.944
REMARK INTER + INTRA:          -5.257
REMARK INTER:                  -3.659
REMARK INTRA:                  -1.598
REMARK UNBOUND:                -2.081
REMARK SMILES CCCCCCCCCCCCCC(=O)[O-]
REMARK SMILES IDX 8 1 9 2 10 3 11 4 12 5 13 6 14 7 15 8 16 9 7 10 6 11 5 12
REMARK SMILES IDX 4 13 3 14 2 15 1 16
REMARK H PARENT
REMARK Flexibility Score: inf
ROOT
ATOM      1  C   UNL     1     175.167 206.802 198.698  1.00  0.00     0.000 C 
ENDROOT
BRANCH   1   2
ATOM      2  C   UNL     1     174.962 208.125 199.451  1.00  0.00     0.000 C 
BRANCH   2   3
ATOM      3  C   UNL     1     174.928 207.894 200.967  1.00  0.00     0.000 C 
BRANCH   3   4
ATOM      4  C   UNL     1     176.348 207.866 201.552  1.00  0.00     0.000 C 
BRANCH   4   5
ATOM      5  C   UNL     1     176.596 206.642 202.447  1.00  0.00     0.006 C 
BRANCH   5   6
ATOM      6  C   UNL     1     176.610 205.326 201.659  1.00  0.00     0.053 C 
BRANCH   6   7
ATOM      7  C   UNL     1     175.745 204.306 202.331  1.00  0.00     0.041 C 
ATOM      8  O   UNL     1     174.637 204.642 202.824  1.00  0.00    -0.550 OA
ATOM      9  O   UNL     1     176.142 202.976 202.368  1.00  0.00    -0.550 OA
ENDBRANCH   6   7
ENDBRANCH   5   6
ENDBRANCH   4   5
ENDBRANCH   3   4
ENDBRANCH   2   3
ENDBRANCH   1   2
BRANCH   1  10
ATOM     10  C   UNL     1     175.564 207.013 197.228  1.00  0.00     0.000 C 
BRANCH  10  11
ATOM     11  C   UNL     1     176.893 207.768 197.076  1.00  0.00    -0.000 C 
BRANCH  11  12
ATOM     12  C   UNL     1     178.036 206.804 196.737  1.00  0.00    -0.000 C 
BRANCH  12  13
ATOM     13  C   UNL     1     179.243 207.032 197.661  1.00  0.00    -0.000 C 
BRANCH  13  14
ATOM     14  C   UNL     1     178.819 207.470 199.078  1.00  0.00    -0.000 C 
BRANCH  14  15
ATOM     15  C   UNL     1     179.866 207.157 200.159  1.00  0.00    -0.003 C 
ATOM     16  C   UNL     1     180.099 205.659 200.351  1.00  0.00     0.004 C 
ENDBRANCH  14  15
ENDBRANCH  13  14
ENDBRANCH  12  13
ENDBRANCH  11  12
ENDBRANCH  10  11
ENDBRANCH   1  10
TORSDOF 12
ENDMDL
MODEL 7
REMARK VINA RESULT:    -1.847      3.059      4.962
REMARK INTER + INTRA:          -5.223
REMARK INTER:                  -3.279
REMARK INTRA:                  -1.944
REMARK UNBOUND:                -2.081
REMARK SMILES CCCCCCCCCCCCCC(=O)[O-]
REMARK SMILES IDX 8 1 9 2 10 3 11 4 12 5 13 6 14 7 15 8 16 9 7 10 6 11 5 12
REMARK SMILES IDX 4 13 3 14 2 15 1 16
REMARK H PARENT
REMARK Flexibility Score: inf
ROOT
ATOM      1  C   UNL     1     177.150 204.481 201.851  1.00  0.00     0.000 C 
ENDROOT
BRANCH   1   2
ATOM      2  C   UNL     1     175.812 203.995 201.274  1.00  0.00     0.000 C 
BRANCH   2   3
ATOM      3  C   UNL     1     175.992 203.454 199.851  1.00  0.00     0.000 C 
BRANCH   3   4
ATOM      4  C   UNL     1     176.005 204.597 198.825  1.00  0.00     0.000 C 
BRANCH   4   5
ATOM      5  C   UNL     1     174.623 204.852 198.204  1.00  0.00     0.006 C 
BRANCH   5   6
ATOM      6  C   UNL     1     174.255 206.341 198.173  1.00  0.00     0.053 C 
BRANCH   6   7
ATOM      7  C   UNL     1     173.306 206.667 199.284  1.00  0.00     0.041 C 
ATOM      8  O   UNL     1     173.287 207.822 199.783  1.00  0.00    -0.550 OA
ATOM      9  O   UNL     1     172.409 205.707 199.734  1.00  0.00    -0.550 OA
ENDBRANCH   6   7
ENDBRANCH   5   6
ENDBRANCH   4   5
ENDBRANCH   3   4
ENDBRANCH   2   3
ENDBRANCH   1   2
BRANCH   1  10
ATOM     10  C   UNL     1     177.043 205.865 202.511  1.00  0.00     0.000 C 
BRANCH  10  11
ATOM     11  C   UNL     1     175.918 206.722 201.911  1.00  0.00    -0.000 C 
BRANCH  11  12
ATOM     12  C   UNL     1     176.455 208.074 201.429  1.00  0.00    -0.000 C 
BRANCH  12  13
ATOM     13  C   UNL     1     176.964 207.984 199.981  1.00  0.00    -0.000 C 
BRANCH  13  14
ATOM     14  C   UNL     1     178.495 207.810 199.911  1.00  0.00    -0.000 C 
BRANCH  14  15
ATOM     15  C   UNL     1     178.977 207.108 198.630  1.00  0.00    -0.003 C 
ATOM     16  C   UNL     1     178.030 207.304 197.448  1.00  0.00     0.004 C 
ENDBRANCH  14  15
ENDBRANCH  13  14
ENDBRANCH  12  13
ENDBRANCH  11  12
ENDBRANCH  10  11
ENDBRANCH   1  10
TORSDOF 12
ENDMDL
MODEL 8
REMARK VINA RESULT:    -1.836      1.407      3.813
REMARK INTER + INTRA:          -5.205
REMARK INTER:                  -3.618
REMARK INTRA:                  -1.586
REMARK UNBOUND:                -2.081
REMARK SMILES CCCCCCCCCCCCCC(=O)[O-]
REMARK SMILES IDX 8 1 9 2 10 3 11 4 12 5 13 6 14 7 15 8 16 9 7 10 6 11 5 12
REMARK SMILES IDX 4 13 3 14 2 15 1 16
REMARK H PARENT
REMARK Flexibility Score: inf
ROOT
ATOM      1  C   UNL     1     174.812 205.348 200.931  1.00  0.00     0.000 C 
ENDROOT
BRANCH   1   2
ATOM      2  C   UNL     1     175.135 206.118 202.221  1.00  0.00     0.000 C 
BRANCH   2   3
ATOM      3  C   UNL     1     176.487 206.834 202.109  1.00  0.00     0.000 C 
BRANCH   3   4
ATOM      4  C   UNL     1     176.377 208.079 201.216  1.00  0.00     0.000 C 
BRANCH   4   5
ATOM      5  C   UNL     1     177.458 208.122 200.125  1.00  0.00     0.006 C 
BRANCH   5   6
ATOM      6  C   UNL     1     178.270 206.823 200.045  1.00  0.00     0.053 C 
BRANCH   6   7
ATOM      7  C   UNL     1     179.644 207.098 199.520  1.00  0.00     0.041 C 
ATOM      8  O   UNL     1     179.820 207.331 198.296  1.00  0.00    -0.550 OA
ATOM      9  O   UNL     1     180.724 207.145 200.393  1.00  0.00    -0.550 OA
ENDBRANCH   6   7
ENDBRANCH   5   6
ENDBRANCH   4   5
ENDBRANCH   3   4
ENDBRANCH   2   3
ENDBRANCH   1   2
BRANCH   1  10
ATOM     10  C   UNL     1     173.317 205.390 200.576  1.00  0.00     0.000 C 
BRANCH  10  11
ATOM     11  C   UNL     1     172.757 206.819 200.537  1.00  0.00    -0.000 C 
BRANCH  11  12
ATOM     12  C   UNL     1     173.345 207.607 199.360  1.00  0.00    -0.000 C 
BRANCH  12  13
ATOM     13  C   UNL     1     173.376 206.753 198.083  1.00  0.00    -0.000 C 
BRANCH  13  14
ATOM     14  C   UNL     1     174.779 206.710 197.443  1.00  0.00    -0.000 C 
BRANCH  14  15
ATOM     15  C   UNL     1     175.409 208.100 197.248  1.00  0.00    -0.003 C 
ATOM     16  C   UNL     1     176.475 208.125 196.155  1.00  0.00     0.004 C 
ENDBRANCH  14  15
ENDBRANCH  13  14
ENDBRANCH  12  13
ENDBRANCH  11  12
ENDBRANCH  10  11
ENDBRANCH   1  10
TORSDOF 12
ENDMDL
MODEL 9
REMARK VINA RESULT:    -1.800      3.687      5.837
REMARK INTER + INTRA:          -5.143
REMARK INTER:                  -3.584
REMARK INTRA:                  -1.559
REMARK UNBOUND:                -2.081
REMARK SMILES CCCCCCCCCCCCCC(=O)[O-]
REMARK SMILES IDX 8 1 9 2 10 3 11 4 12 5 13 6 14 7 15 8 16 9 7 10 6 11 5 12
REMARK SMILES IDX 4 13 3 14 2 15 1 16
REMARK H PARENT
REMARK Flexibility Score: inf
ROOT
ATOM      1  C   UNL     1     176.285 206.272 201.770  1.00  0.00     0.000 C 
ENDROOT
BRANCH   1   2
ATOM      2  C   UNL     1     176.232 207.789 201.531  1.00  0.00     0.000 C 
BRANCH   2   3
ATOM      3  C   UNL     1     175.338 208.125 200.332  1.00  0.00     0.000 C 
BRANCH   3   4
ATOM      4  C   UNL     1     174.825 206.846 199.652  1.00  0.00     0.000 C 
BRANCH   4   5
ATOM      5  C   UNL     1     173.925 207.139 198.441  1.00  0.00     0.006 C 
BRANCH   5   6
ATOM      6  C   UNL     1     172.789 208.116 198.771  1.00  0.00     0.053 C 
BRANCH   6   7
ATOM      7  C   UNL     1     171.763 207.451 199.634  1.00  0.00     0.041 C 
ATOM      8  O   UNL     1     170.935 206.648 199.129  1.00  0.00    -0.550 OA
ATOM      9  O   UNL     1     171.754 207.681 201.004  1.00  0.00    -0.550 OA
ENDBRANCH   6   7
ENDBRANCH   5   6
ENDBRANCH   4   5
ENDBRANCH   3   4
ENDBRANCH   2   3
ENDBRANCH   1   2
BRANCH   1  10
ATOM     10  C   UNL     1     177.706 205.769 202.069  1.00  0.00     0.000 C 
BRANCH  10  11
ATOM     11  C   UNL     1     178.477 205.380 200.799  1.00  0.00    -0.000 C 
BRANCH  11  12
ATOM     12  C   UNL     1     179.636 206.350 200.542  1.00  0.00    -0.000 C 
BRANCH  12  13
ATOM     13  C   UNL     1     179.284 207.351 199.431  1.00  0.00    -0.000 C 
BRANCH  13  14
ATOM     14  C   UNL     1     178.233 206.790 198.451  1.00  0.00    -0.000 C 
BRANCH  14  15
ATOM     15  C   UNL     1     178.523 207.125 196.978  1.00  0.00    -0.003 C 
ATOM     16  C   UNL     1     177.302 207.663 196.235  1.00  0.00     0.004 C 
ENDBRANCH  14  15
ENDBRANCH  13  14
ENDBRANCH  12  13
ENDBRANCH  11  12
ENDBRANCH  10  11
ENDBRANCH   1  10
TORSDOF 12
ENDMDL
