MODEL 1
REMARK VINA RESULT:    -5.276      0.000      0.000
REMARK INTER + INTRA:          -9.823
REMARK INTER:                  -8.977
REMARK INTRA:                  -0.846
REMARK UNBOUND:                -0.846
REMARK SMILES CCCCCCCCCCCCCC(=O)[O-]
REMARK SMILES IDX 8 1 9 2 10 3 11 4 12 5 13 6 14 7 15 8 16 9 7 10 6 11 5 12
REMARK SMILES IDX 4 13 3 14 2 15 1 16
REMARK H PARENT
REMARK Flexibility Score: inf
ROOT
ATOM      1  C   UNL     1     -11.616 -66.520 -32.129  1.00  0.00     0.000 C 
ENDROOT
BRANCH   1   2
ATOM      2  C   UNL     1     -12.401 -66.472 -33.448  1.00  0.00     0.000 C 
BRANCH   2   3
ATOM      3  C   UNL     1     -11.731 -67.340 -34.521  1.00  0.00     0.000 C 
BRANCH   3   4
ATOM      4  C   UNL     1     -12.570 -67.372 -35.807  1.00  0.00     0.000 C 
BRANCH   4   5
ATOM      5  C   UNL     1     -13.962 -67.992 -35.597  1.00  0.00     0.006 C 
BRANCH   5   6
ATOM      6  C   UNL     1     -15.117 -67.174 -36.199  1.00  0.00     0.053 C 
BRANCH   6   7
ATOM      7  C   UNL     1     -15.836 -66.370 -35.160  1.00  0.00     0.041 C 
ATOM      8  O   UNL     1     -16.439 -65.312 -35.481  1.00  0.00    -0.550 OA
ATOM      9  O   UNL     1     -15.813 -66.773 -33.830  1.00  0.00    -0.550 OA
ENDBRANCH   6   7
ENDBRANCH   5   6
ENDBRANCH   4   5
ENDBRANCH   3   4
ENDBRANCH   2   3
ENDBRANCH   1   2
BRANCH   1  10
ATOM     10  C   UNL     1     -10.219 -67.148 -32.283  1.00  0.00     0.000 C 
BRANCH  10  11
ATOM     11  C   UNL     1      -9.038 -66.177 -32.092  1.00  0.00    -0.000 C 
BRANCH  11  12
ATOM     12  C   UNL     1      -9.029 -65.035 -33.121  1.00  0.00    -0.000 C 
BRANCH  12  13
ATOM     13  C   UNL     1      -7.612 -64.521 -33.432  1.00  0.00    -0.000 C 
BRANCH  13  14
ATOM     14  C   UNL     1      -7.431 -63.880 -34.824  1.00  0.00    -0.000 C 
BRANCH  14  15
ATOM     15  C   UNL     1      -8.739 -63.551 -35.563  1.00  0.00    -0.003 C 
ATOM     16  C   UNL     1      -8.521 -63.210 -37.036  1.00  0.00     0.004 C 
ENDBRANCH  14  15
ENDBRANCH  13  14
ENDBRANCH  12  13
ENDBRANCH  11  12
ENDBRANCH  10  11
ENDBRANCH   1  10
TORSDOF 12
ENDMDL
MODEL 2
REMARK VINA RESULT:    -5.238      6.328      8.554
REMARK INTER + INTRA:          -9.758
REMARK INTER:                  -9.037
REMARK INTRA:                  -0.721
REMARK UNBOUND:                -0.846
REMARK SMILES CCCCCCCCCCCCCC(=O)[O-]
REMARK SMILES IDX 8 1 9 2 10 3 11 4 12 5 13 6 14 7 15 8 16 9 7 10 6 11 5 12
REMARK SMILES IDX 4 13 3 14 2 15 1 16
REMARK H PARENT
REMARK Flexibility Score: inf
ROOT
ATOM      1  C   UNL     1     -10.315 -69.562 -26.833  1.00  0.00     0.000 C 
ENDROOT
BRANCH   1   2
ATOM      2  C   UNL     1     -10.533 -68.212 -26.136  1.00  0.00     0.000 C 
BRANCH   2   3
ATOM      3  C   UNL     1      -9.204 -67.623 -25.647  1.00  0.00     0.000 C 
BRANCH   3   4
ATOM      4  C   UNL     1      -9.442 -66.468 -24.663  1.00  0.00     0.000 C 
BRANCH   4   5
ATOM      5  C   UNL     1     -10.883 -65.930 -24.710  1.00  0.00     0.006 C 
BRANCH   5   6
ATOM      6  C   UNL     1     -11.665 -66.102 -23.398  1.00  0.00     0.053 C 
BRANCH   6   7
ATOM      7  C   UNL     1     -13.034 -66.665 -23.632  1.00  0.00     0.041 C 
ATOM      8  O   UNL     1     -13.640 -67.265 -22.705  1.00  0.00    -0.550 OA
ATOM      9  O   UNL     1     -13.626 -66.555 -24.884  1.00  0.00    -0.550 OA
ENDBRANCH   6   7
ENDBRANCH   5   6
ENDBRANCH   4   5
ENDBRANCH   3   4
ENDBRANCH   2   3
ENDBRANCH   1   2
BRANCH   1  10
ATOM     10  C   UNL     1      -9.484 -69.448 -28.123  1.00  0.00     0.000 C 
BRANCH  10  11
ATOM     11  C   UNL     1     -10.064 -68.506 -29.196  1.00  0.00    -0.000 C 
BRANCH  11  12
ATOM     12  C   UNL     1      -8.993 -67.630 -29.867  1.00  0.00    -0.000 C 
BRANCH  12  13
ATOM     13  C   UNL     1      -9.267 -67.392 -31.363  1.00  0.00    -0.000 C 
BRANCH  13  14
ATOM     14  C   UNL     1     -10.744 -67.137 -31.733  1.00  0.00    -0.000 C 
BRANCH  14  15
ATOM     15  C   UNL     1     -10.972 -66.570 -33.144  1.00  0.00    -0.003 C 
ATOM     16  C   UNL     1     -10.175 -65.293 -33.409  1.00  0.00     0.004 C 
ENDBRANCH  14  15
ENDBRANCH  13  14
ENDBRANCH  12  13
ENDBRANCH  11  12
ENDBRANCH  10  11
ENDBRANCH   1  10
TORSDOF 12
ENDMDL
MODEL 3
REMARK VINA RESULT:    -5.103      4.133      7.494
REMARK INTER + INTRA:          -9.528
REMARK INTER:                  -8.842
REMARK INTRA:                  -0.686
REMARK UNBOUND:                -0.846
REMARK SMILES CCCCCCCCCCCCCC(=O)[O-]
REMARK SMILES IDX 8 1 9 2 10 3 11 4 12 5 13 6 14 7 15 8 16 9 7 10 6 11 5 12
REMARK SMILES IDX 4 13 3 14 2 15 1 16
REMARK H PARENT
REMARK Flexibility Score: inf
ROOT
ATOM      1  C   UNL     1     -11.781 -66.536 -33.643  1.00  0.00     0.000 C 
ENDROOT
BRANCH   1   2
ATOM      2  C   UNL     1     -10.467 -65.781 -33.399  1.00  0.00     0.000 C 
BRANCH   2   3
ATOM      3  C   UNL     1      -9.680 -66.404 -32.239  1.00  0.00     0.000 C 
BRANCH   3   4
ATOM      4  C   UNL     1     -10.565 -67.352 -31.419  1.00  0.00     0.000 C 
BRANCH   4   5
ATOM      5  C   UNL     1      -9.802 -68.043 -30.275  1.00  0.00     0.006 C 
BRANCH   5   6
ATOM      6  C   UNL     1      -8.504 -67.331 -29.859  1.00  0.00     0.053 C 
BRANCH   6   7
ATOM      7  C   UNL     1      -8.380 -67.217 -28.370  1.00  0.00     0.041 C 
ATOM      8  O   UNL     1      -7.388 -66.634 -27.859  1.00  0.00    -0.550 OA
ATOM      9  O   UNL     1      -9.344 -67.786 -27.547  1.00  0.00    -0.550 OA
ENDBRANCH   6   7
ENDBRANCH   5   6
ENDBRANCH   4   5
ENDBRANCH   3   4
ENDBRANCH   2   3
ENDBRANCH   1   2
BRANCH   1  10
ATOM     10  C   UNL     1     -11.792 -67.314 -34.970  1.00  0.00     0.000 C 
BRANCH  10  11
ATOM     11  C   UNL     1     -13.190 -67.666 -35.513  1.00  0.00    -0.000 C 
BRANCH  11  12
ATOM     12  C   UNL     1     -14.328 -67.118 -34.638  1.00  0.00    -0.000 C 
BRANCH  12  13
ATOM     13  C   UNL     1     -15.709 -67.668 -35.038  1.00  0.00    -0.000 C 
BRANCH  13  14
ATOM     14  C   UNL     1     -16.762 -66.603 -35.412  1.00  0.00    -0.000 C 
BRANCH  14  15
ATOM     15  C   UNL     1     -17.279 -66.679 -36.859  1.00  0.00    -0.003 C 
ATOM     16  C   UNL     1     -16.230 -66.261 -37.888  1.00  0.00     0.004 C 
ENDBRANCH  14  15
ENDBRANCH  13  14
ENDBRANCH  12  13
ENDBRANCH  11  12
ENDBRANCH  10  11
ENDBRANCH   1  10
TORSDOF 12
ENDMDL
MODEL 4
REMARK VINA RESULT:    -5.091      3.953      7.306
REMARK INTER + INTRA:          -9.509
REMARK INTER:                  -8.932
REMARK INTRA:                  -0.577
REMARK UNBOUND:                -0.846
REMARK SMILES CCCCCCCCCCCCCC(=O)[O-]
REMARK SMILES IDX 8 1 9 2 10 3 11 4 12 5 13 6 14 7 15 8 16 9 7 10 6 11 5 12
REMARK SMILES IDX 4 13 3 14 2 15 1 16
REMARK H PARENT
REMARK Flexibility Score: inf
ROOT
ATOM      1  C   UNL     1     -12.053 -66.499 -33.135  1.00  0.00     0.000 C 
ENDROOT
BRANCH   1   2
ATOM      2  C   UNL     1     -10.715 -66.883 -32.486  1.00  0.00     0.000 C 
BRANCH   2   3
ATOM      3  C   UNL     1      -9.663 -65.788 -32.701  1.00  0.00     0.000 C 
BRANCH   3   4
ATOM      4  C   UNL     1      -9.868 -65.084 -34.051  1.00  0.00     0.000 C 
BRANCH   4   5
ATOM      5  C   UNL     1      -8.681 -64.187 -34.443  1.00  0.00     0.006 C 
BRANCH   5   6
ATOM      6  C   UNL     1      -7.458 -64.315 -33.520  1.00  0.00     0.053 C 
BRANCH   6   7
ATOM      7  C   UNL     1      -6.208 -64.622 -34.286  1.00  0.00     0.041 C 
ATOM      8  O   UNL     1      -5.312 -65.344 -33.775  1.00  0.00    -0.550 OA
ATOM      9  O   UNL     1      -6.018 -64.082 -35.552  1.00  0.00    -0.550 OA
ENDBRANCH   6   7
ENDBRANCH   5   6
ENDBRANCH   4   5
ENDBRANCH   3   4
ENDBRANCH   2   3
ENDBRANCH   1   2
BRANCH   1  10
ATOM     10  C   UNL     1     -13.067 -65.925 -32.131  1.00  0.00     0.000 C 
BRANCH  10  11
ATOM     11  C   UNL     1     -14.510 -65.798 -32.655  1.00  0.00    -0.000 C 
BRANCH  11  12
ATOM     12  C   UNL     1     -14.749 -66.594 -33.949  1.00  0.00    -0.000 C 
BRANCH  12  13
ATOM     13  C   UNL     1     -16.217 -66.556 -34.412  1.00  0.00    -0.000 C 
BRANCH  13  14
ATOM     14  C   UNL     1     -16.463 -65.867 -35.772  1.00  0.00    -0.000 C 
BRANCH  14  15
ATOM     15  C   UNL     1     -16.118 -66.719 -37.004  1.00  0.00    -0.003 C 
ATOM     16  C   UNL     1     -16.207 -65.936 -38.313  1.00  0.00     0.004 C 
ENDBRANCH  14  15
ENDBRANCH  13  14
ENDBRANCH  12  13
ENDBRANCH  11  12
ENDBRANCH  10  11
ENDBRANCH   1  10
TORSDOF 12
ENDMDL
MODEL 5
REMARK VINA RESULT:    -5.086      6.416      8.499
REMARK INTER + INTRA:          -9.499
REMARK INTER:                  -8.910
REMARK INTRA:                  -0.590
REMARK UNBOUND:                -0.846
REMARK SMILES CCCCCCCCCCCCCC(=O)[O-]
REMARK SMILES IDX 8 1 9 2 10 3 11 4 12 5 13 6 14 7 15 8 16 9 7 10 6 11 5 12
REMARK SMILES IDX 4 13 3 14 2 15 1 16
REMARK H PARENT
REMARK Flexibility Score: inf
ROOT
ATOM      1  C   UNL     1     -10.041 -68.483 -25.736  1.00  0.00     0.000 C 
ENDROOT
BRANCH   1   2
ATOM      2  C   UNL     1     -11.216 -67.617 -25.259  1.00  0.00     0.000 C 
BRANCH   2   3
ATOM      3  C   UNL     1     -10.718 -66.307 -24.636  1.00  0.00     0.000 C 
BRANCH   3   4
ATOM      4  C   UNL     1     -11.342 -66.082 -23.251  1.00  0.00     0.000 C 
BRANCH   4   5
ATOM      5  C   UNL     1     -12.524 -65.097 -23.282  1.00  0.00     0.006 C 
BRANCH   5   6
ATOM      6  C   UNL     1     -13.877 -65.743 -23.624  1.00  0.00     0.053 C 
BRANCH   6   7
ATOM      7  C   UNL     1     -14.362 -65.340 -24.984  1.00  0.00     0.041 C 
ATOM      8  O   UNL     1     -13.777 -64.423 -25.619  1.00  0.00    -0.550 OA
ATOM      9  O   UNL     1     -15.479 -65.954 -25.534  1.00  0.00    -0.550 OA
ENDBRANCH   6   7
ENDBRANCH   5   6
ENDBRANCH   4   5
ENDBRANCH   3   4
ENDBRANCH   2   3
ENDBRANCH   1   2
BRANCH   1  10
ATOM     10  C   UNL     1     -10.176 -68.926 -27.204  1.00  0.00     0.000 C 
BRANCH  10  11
ATOM     11  C   UNL     1      -9.089 -68.389 -28.154  1.00  0.00    -0.000 C 
BRANCH  11  12
ATOM     12  C   UNL     1      -9.605 -68.155 -29.584  1.00  0.00    -0.000 C 
BRANCH  12  13
ATOM     13  C   UNL     1      -8.614 -67.361 -30.455  1.00  0.00    -0.000 C 
BRANCH  13  14
ATOM     14  C   UNL     1      -9.203 -66.766 -31.751  1.00  0.00    -0.000 C 
BRANCH  14  15
ATOM     15  C   UNL     1     -10.662 -67.159 -32.043  1.00  0.00    -0.003 C 
ATOM     16  C   UNL     1     -11.342 -66.222 -33.041  1.00  0.00     0.004 C 
ENDBRANCH  14  15
ENDBRANCH  13  14
ENDBRANCH  12  13
ENDBRANCH  11  12
ENDBRANCH  10  11
ENDBRANCH   1  10
TORSDOF 12
ENDMDL
MODEL 6
REMARK VINA RESULT:    -5.079      6.395      8.546
REMARK INTER + INTRA:          -9.488
REMARK INTER:                  -9.000
REMARK INTRA:                  -0.488
REMARK UNBOUND:                -0.846
REMARK SMILES CCCCCCCCCCCCCC(=O)[O-]
REMARK SMILES IDX 8 1 9 2 10 3 11 4 12 5 13 6 14 7 15 8 16 9 7 10 6 11 5 12
REMARK SMILES IDX 4 13 3 14 2 15 1 16
REMARK H PARENT
REMARK Flexibility Score: inf
ROOT
ATOM      1  C   UNL     1      -9.946 -68.848 -28.572  1.00  0.00     0.000 C 
ENDROOT
BRANCH   1   2
ATOM      2  C   UNL     1      -9.523 -69.496 -27.246  1.00  0.00     0.000 C 
BRANCH   2   3
ATOM      3  C   UNL     1     -10.585 -69.277 -26.162  1.00  0.00     0.000 C 
BRANCH   3   4
ATOM      4  C   UNL     1     -10.325 -67.975 -25.390  1.00  0.00     0.000 C 
BRANCH   4   5
ATOM      5  C   UNL     1     -11.621 -67.245 -24.995  1.00  0.00     0.006 C 
BRANCH   5   6
ATOM      6  C   UNL     1     -11.470 -66.290 -23.800  1.00  0.00     0.053 C 
BRANCH   6   7
ATOM      7  C   UNL     1     -12.489 -66.561 -22.735  1.00  0.00     0.041 C 
ATOM      8  O   UNL     1     -12.288 -66.177 -21.552  1.00  0.00    -0.550 OA
ATOM      9  O   UNL     1     -13.645 -67.267 -23.042  1.00  0.00    -0.550 OA
ENDBRANCH   6   7
ENDBRANCH   5   6
ENDBRANCH   4   5
ENDBRANCH   3   4
ENDBRANCH   2   3
ENDBRANCH   1   2
BRANCH   1  10
ATOM     10  C   UNL     1      -9.049 -67.665 -28.978  1.00  0.00     0.000 C 
BRANCH  10  11
ATOM     11  C   UNL     1      -8.404 -67.779 -30.372  1.00  0.00    -0.000 C 
BRANCH  11  12
ATOM     12  C   UNL     1      -9.035 -66.829 -31.404  1.00  0.00    -0.000 C 
BRANCH  12  13
ATOM     13  C   UNL     1     -10.426 -67.295 -31.873  1.00  0.00    -0.000 C 
BRANCH  13  14
ATOM     14  C   UNL     1     -11.213 -66.274 -32.722  1.00  0.00    -0.000 C 
BRANCH  14  15
ATOM     15  C   UNL     1     -11.071 -66.446 -34.243  1.00  0.00    -0.003 C 
ATOM     16  C   UNL     1     -12.142 -67.356 -34.843  1.00  0.00     0.004 C 
ENDBRANCH  14  15
ENDBRANCH  13  14
ENDBRANCH  12  13
ENDBRANCH  11  12
ENDBRANCH  10  11
ENDBRANCH   1  10
TORSDOF 12
ENDMDL
MODEL 7
REMARK VINA RESULT:    -5.058      6.664      8.904
REMARK INTER + INTRA:          -9.452
REMARK INTER:                  -8.513
REMARK INTRA:                  -0.940
REMARK UNBOUND:                -0.846
REMARK SMILES CCCCCCCCCCCCCC(=O)[O-]
REMARK SMILES IDX 8 1 9 2 10 3 11 4 12 5 13 6 14 7 15 8 16 9 7 10 6 11 5 12
REMARK SMILES IDX 4 13 3 14 2 15 1 16
REMARK H PARENT
REMARK Flexibility Score: inf
ROOT
ATOM      1  C   UNL     1      -9.194 -67.724 -25.517  1.00  0.00     0.000 C 
ENDROOT
BRANCH   1   2
ATOM      2  C   UNL     1      -9.616 -66.562 -24.606  1.00  0.00     0.000 C 
BRANCH   2   3
ATOM      3  C   UNL     1     -11.106 -66.240 -24.777  1.00  0.00     0.000 C 
BRANCH   3   4
ATOM      4  C   UNL     1     -11.695 -65.650 -23.488  1.00  0.00     0.000 C 
BRANCH   4   5
ATOM      5  C   UNL     1     -13.203 -65.918 -23.343  1.00  0.00     0.006 C 
BRANCH   5   6
ATOM      6  C   UNL     1     -13.871 -66.483 -24.608  1.00  0.00     0.053 C 
BRANCH   6   7
ATOM      7  C   UNL     1     -14.722 -65.460 -25.296  1.00  0.00     0.041 C 
ATOM      8  O   UNL     1     -14.229 -64.355 -25.644  1.00  0.00    -0.550 OA
ATOM      9  O   UNL     1     -16.068 -65.716 -25.525  1.00  0.00    -0.550 OA
ENDBRANCH   6   7
ENDBRANCH   5   6
ENDBRANCH   4   5
ENDBRANCH   3   4
ENDBRANCH   2   3
ENDBRANCH   1   2
BRANCH   1  10
ATOM     10  C   UNL     1     -10.339 -68.711 -25.804  1.00  0.00     0.000 C 
BRANCH  10  11
ATOM     11  C   UNL     1     -10.004 -69.828 -26.811  1.00  0.00    -0.000 C 
BRANCH  11  12
ATOM     12  C   UNL     1      -9.279 -69.308 -28.063  1.00  0.00    -0.000 C 
BRANCH  12  13
ATOM     13  C   UNL     1     -10.245 -68.918 -29.197  1.00  0.00    -0.000 C 
BRANCH  13  14
ATOM     14  C   UNL     1      -9.717 -67.851 -30.178  1.00  0.00    -0.000 C 
BRANCH  14  15
ATOM     15  C   UNL     1      -8.422 -67.147 -29.738  1.00  0.00    -0.003 C 
ATOM     16  C   UNL     1      -7.494 -66.821 -30.908  1.00  0.00     0.004 C 
ENDBRANCH  14  15
ENDBRANCH  13  14
ENDBRANCH  12  13
ENDBRANCH  11  12
ENDBRANCH  10  11
ENDBRANCH   1  10
TORSDOF 12
ENDMDL
MODEL 8
REMARK VINA RESULT:    -5.012      5.841      8.351
REMARK INTER + INTRA:          -9.374
REMARK INTER:                  -8.710
REMARK INTRA:                  -0.664
REMARK UNBOUND:                -0.846
REMARK SMILES CCCCCCCCCCCCCC(=O)[O-]
REMARK SMILES IDX 8 1 9 2 10 3 11 4 12 5 13 6 14 7 15 8 16 9 7 10 6 11 5 12
REMARK SMILES IDX 4 13 3 14 2 15 1 16
REMARK H PARENT
REMARK Flexibility Score: inf
ROOT
ATOM      1  C   UNL     1      -9.768 -67.938 -26.959  1.00  0.00     0.000 C 
ENDROOT
BRANCH   1   2
ATOM      2  C   UNL     1      -9.994 -69.060 -27.983  1.00  0.00     0.000 C 
BRANCH   2   3
ATOM      3  C   UNL     1     -10.271 -68.486 -29.378  1.00  0.00     0.000 C 
BRANCH   3   4
ATOM      4  C   UNL     1      -9.019 -67.811 -29.956  1.00  0.00     0.000 C 
BRANCH   4   5
ATOM      5  C   UNL     1      -9.263 -67.182 -31.339  1.00  0.00     0.006 C 
BRANCH   5   6
ATOM      6  C   UNL     1     -10.728 -67.229 -31.806  1.00  0.00     0.053 C 
BRANCH   6   7
ATOM      7  C   UNL     1     -10.938 -66.451 -33.069  1.00  0.00     0.041 C 
ATOM      8  O   UNL     1     -11.778 -66.842 -33.922  1.00  0.00    -0.550 OA
ATOM      9  O   UNL     1     -10.182 -65.313 -33.318  1.00  0.00    -0.550 OA
ENDBRANCH   6   7
ENDBRANCH   5   6
ENDBRANCH   4   5
ENDBRANCH   3   4
ENDBRANCH   2   3
ENDBRANCH   1   2
BRANCH   1  10
ATOM     10  C   UNL     1     -10.775 -67.971 -25.797  1.00  0.00     0.000 C 
BRANCH  10  11
ATOM     11  C   UNL     1     -10.467 -67.009 -24.634  1.00  0.00    -0.000 C 
BRANCH  11  12
ATOM     12  C   UNL     1     -11.090 -65.617 -24.826  1.00  0.00    -0.000 C 
BRANCH  12  13
ATOM     13  C   UNL     1     -12.155 -65.286 -23.764  1.00  0.00    -0.000 C 
BRANCH  13  14
ATOM     14  C   UNL     1     -13.183 -66.404 -23.489  1.00  0.00    -0.000 C 
BRANCH  14  15
ATOM     15  C   UNL     1     -14.132 -66.717 -24.658  1.00  0.00    -0.003 C 
ATOM     16  C   UNL     1     -14.699 -65.461 -25.317  1.00  0.00     0.004 C 
ENDBRANCH  14  15
ENDBRANCH  13  14
ENDBRANCH  12  13
ENDBRANCH  11  12
ENDBRANCH  10  11
ENDBRANCH   1  10
TORSDOF 12
ENDMDL
MODEL 9
REMARK VINA RESULT:    -4.965      6.096      8.564
REMARK INTER + INTRA:          -9.293
REMARK INTER:                  -8.268
REMARK INTRA:                  -1.025
REMARK UNBOUND:                -0.846
REMARK SMILES CCCCCCCCCCCCCC(=O)[O-]
REMARK SMILES IDX 8 1 9 2 10 3 11 4 12 5 13 6 14 7 15 8 16 9 7 10 6 11 5 12
REMARK SMILES IDX 4 13 3 14 2 15 1 16
REMARK H PARENT
REMARK Flexibility Score: inf
ROOT
ATOM      1  C   UNL     1     -10.215 -69.650 -26.811  1.00  0.00     0.000 C 
ENDROOT
BRANCH   1   2
ATOM      2  C   UNL     1      -9.794 -68.585 -25.788  1.00  0.00     0.000 C 
BRANCH   2   3
ATOM      3  C   UNL     1     -10.973 -67.675 -25.422  1.00  0.00     0.000 C 
BRANCH   3   4
ATOM      4  C   UNL     1     -10.500 -66.238 -25.160  1.00  0.00     0.000 C 
BRANCH   4   5
ATOM      5  C   UNL     1      -8.968 -66.115 -25.095  1.00  0.00     0.006 C 
BRANCH   5   6
ATOM      6  C   UNL     1      -8.365 -65.156 -26.135  1.00  0.00     0.053 C 
BRANCH   6   7
ATOM      7  C   UNL     1      -7.260 -65.799 -26.916  1.00  0.00     0.041 C 
ATOM      8  O   UNL     1      -6.872 -65.290 -28.001  1.00  0.00    -0.550 OA
ATOM      9  O   UNL     1      -6.683 -66.978 -26.462  1.00  0.00    -0.550 OA
ENDBRANCH   6   7
ENDBRANCH   5   6
ENDBRANCH   4   5
ENDBRANCH   3   4
ENDBRANCH   2   3
ENDBRANCH   1   2
BRANCH   1  10
ATOM     10  C   UNL     1      -9.522 -69.483 -28.175  1.00  0.00     0.000 C 
BRANCH  10  11
ATOM     11  C   UNL     1     -10.096 -68.369 -29.071  1.00  0.00    -0.000 C 
BRANCH  11  12
ATOM     12  C   UNL     1      -9.006 -67.556 -29.788  1.00  0.00    -0.000 C 
BRANCH  12  13
ATOM     13  C   UNL     1      -9.278 -67.388 -31.294  1.00  0.00    -0.000 C 
BRANCH  13  14
ATOM     14  C   UNL     1     -10.759 -67.189 -31.680  1.00  0.00    -0.000 C 
BRANCH  14  15
ATOM     15  C   UNL     1     -10.997 -66.706 -33.121  1.00  0.00    -0.003 C 
ATOM     16  C   UNL     1     -10.225 -65.430 -33.456  1.00  0.00     0.004 C 
ENDBRANCH  14  15
ENDBRANCH  13  14
ENDBRANCH  12  13
ENDBRANCH  11  12
ENDBRANCH  10  11
ENDBRANCH   1  10
TORSDOF 12
ENDMDL
