MODEL 1
REMARK VINA RESULT:    -4.744      0.000      0.000
REMARK INTER + INTRA:          -8.750
REMARK INTER:                  -6.547
REMARK INTRA:                  -2.203
REMARK UNBOUND:                -2.203
REMARK SMILES CC[C@@H](CC[C@@H](C)[C@H]1CC[C@@H]2[C@H]3CC=C4C[C@@H](O)CC[C@@]4(C)[C@H]3CC[C@@]21C)C(C)C
REMARK SMILES IDX 5 1 4 2 3 3 2 4 1 5 28 6 29 7 30 8 6 9 7 10 8 11 9 12 26 13
REMARK SMILES IDX 10 14 11 15 25 16 27 17 12 18 24 19 23 20 13 21 21 22 14 23
REMARK SMILES IDX 15 24 20 25 22 26 16 27 19 28 17 29 18 30
REMARK H PARENT 18 31
REMARK Flexibility Score: inf
ROOT
ATOM      1  C   UNL     1       8.211  -1.473   0.164  1.00  0.00     0.004 C 
ENDROOT
BRANCH   1   2
ATOM      2  C   UNL     1       7.055  -2.408  -0.253  1.00  0.00     0.004 C 
BRANCH   2   3
ATOM      3  C   UNL     1       6.775  -2.504  -1.782  1.00  0.00    -0.009 C 
BRANCH   3   4
ATOM      4  C   UNL     1       7.940  -1.901  -2.620  1.00  0.00     0.000 C 
ATOM      5  C   UNL     1       8.854  -2.961  -3.242  1.00  0.00     0.004 C 
ENDBRANCH   3   4
BRANCH   3   6
ATOM      6  C   UNL     1       5.352  -2.036  -2.247  1.00  0.00    -0.014 C 
ATOM      7  C   UNL     1       4.166  -2.586  -1.438  1.00  0.00     0.007 C 
ATOM      8  C   UNL     1       5.124  -2.287  -3.747  1.00  0.00     0.007 C 
ENDBRANCH   3   6
ENDBRANCH   2   3
ENDBRANCH   1   2
BRANCH   1   9
ATOM      9  C   UNL     1       7.816  -0.438   1.251  1.00  0.00    -0.011 C 
ATOM     10  C   UNL     1       8.631  -0.677   2.537  1.00  0.00     0.008 C 
BRANCH   9  11
ATOM     11  C   UNL     1       7.720   1.073   0.791  1.00  0.00    -0.002 C 
ATOM     12  C   UNL     1       9.061   1.518   0.169  1.00  0.00     0.005 C 
ATOM     13  C   UNL     1       6.642   1.540  -0.255  1.00  0.00    -0.026 C 
ATOM     14  C   UNL     1       8.844   1.653  -1.337  1.00  0.00     0.005 C 
ATOM     15  C   UNL     1       7.360   1.358  -1.615  1.00  0.00    -0.001 C 
ATOM     16  C   UNL     1       6.345   3.052  -0.001  1.00  0.00     0.007 C 
ATOM     17  C   UNL     1       5.306   0.766  -0.166  1.00  0.00     0.012 C 
ATOM     18  C   UNL     1       6.808   2.188  -2.816  1.00  0.00     0.000 C 
ATOM     19  C   UNL     1       5.660   3.764  -1.171  1.00  0.00     0.005 C 
ATOM     20  C   UNL     1       6.503   3.676  -2.467  1.00  0.00     0.003 C 
ATOM     21  C   UNL     1       5.637   1.459  -3.539  1.00  0.00     0.031 C 
ATOM     22  C   UNL     1       5.860   4.419  -3.700  1.00  0.00    -0.008 C 
ATOM     23  C   UNL     1       4.519   2.341  -4.039  1.00  0.00    -0.027 C 
ATOM     24  C   UNL     1       4.604   3.681  -4.137  1.00  0.00    -0.065 C 
ATOM     25  C   UNL     1       5.484   5.892  -3.344  1.00  0.00     0.014 C 
ATOM     26  C   UNL     1       6.874   4.441  -4.880  1.00  0.00     0.016 C 
ATOM     27  C   UNL     1       3.380   4.467  -4.557  1.00  0.00     0.063 C 
ATOM     28  C   UNL     1       4.762   6.643  -4.481  1.00  0.00     0.033 C 
ATOM     29  C   UNL     1       3.773   5.764  -5.289  1.00  0.00     0.118 C 
BRANCH  29  30
ATOM     30  O   UNL     1       2.621   6.511  -5.584  1.00  0.00    -0.393 OA
ATOM     31  H   UNL     1       2.892   7.218  -6.228  1.00  0.00     0.210 HD
ENDBRANCH  29  30
ENDBRANCH   9  11
ENDBRANCH   1   9
TORSDOF 7
ENDMDL
MODEL 2
REMARK VINA RESULT:    -4.657      5.748      9.346
REMARK INTER + INTRA:          -8.629
REMARK INTER:                  -6.135
REMARK INTRA:                  -2.494
REMARK UNBOUND:                -2.203
REMARK SMILES CC[C@@H](CC[C@@H](C)[C@H]1CC[C@@H]2[C@H]3CC=C4C[C@@H](O)CC[C@@]4(C)[C@H]3CC[C@@]21C)C(C)C
REMARK SMILES IDX 5 1 4 2 3 3 2 4 1 5 28 6 29 7 30 8 6 9 7 10 8 11 9 12 26 13
REMARK SMILES IDX 10 14 11 15 25 16 27 17 12 18 24 19 23 20 13 21 21 22 14 23
REMARK SMILES IDX 15 24 20 25 22 26 16 27 19 28 17 29 18 30
REMARK H PARENT 18 31
REMARK Flexibility Score: inf
ROOT
ATOM      1  C   UNL     1       5.562  -5.198  -2.080  1.00  0.00     0.004 C 
ENDROOT
BRANCH   1   2
ATOM      2  C   UNL     1       4.896  -4.338  -0.984  1.00  0.00     0.004 C 
BRANCH   2   3
ATOM      3  C   UNL     1       3.785  -3.360  -1.466  1.00  0.00    -0.009 C 
BRANCH   3   4
ATOM      4  C   UNL     1       4.162  -1.876  -1.185  1.00  0.00     0.000 C 
ATOM      5  C   UNL     1       5.621  -1.688  -0.762  1.00  0.00     0.004 C 
ENDBRANCH   3   4
BRANCH   3   6
ATOM      6  C   UNL     1       2.319  -3.731  -1.049  1.00  0.00    -0.014 C 
ATOM      7  C   UNL     1       1.510  -2.612  -0.372  1.00  0.00     0.007 C 
ATOM      8  C   UNL     1       2.269  -5.006  -0.190  1.00  0.00     0.007 C 
ENDBRANCH   3   6
ENDBRANCH   2   3
ENDBRANCH   1   2
BRANCH   1   9
ATOM      9  C   UNL     1       5.477  -4.578  -3.500  1.00  0.00    -0.011 C 
ATOM     10  C   UNL     1       6.887  -4.228  -4.014  1.00  0.00     0.008 C 
BRANCH   9  11
ATOM     11  C   UNL     1       4.548  -5.320  -4.544  1.00  0.00    -0.002 C 
ATOM     12  C   UNL     1       4.038  -6.646  -3.942  1.00  0.00     0.005 C 
ATOM     13  C   UNL     1       3.251  -4.636  -5.112  1.00  0.00    -0.026 C 
ATOM     14  C   UNL     1       2.553  -6.465  -3.630  1.00  0.00     0.005 C 
ATOM     15  C   UNL     1       2.152  -5.058  -4.105  1.00  0.00    -0.001 C 
ATOM     16  C   UNL     1       2.957  -5.248  -6.518  1.00  0.00     0.007 C 
ATOM     17  C   UNL     1       3.369  -3.101  -5.271  1.00  0.00     0.012 C 
ATOM     18  C   UNL     1       0.678  -5.005  -4.612  1.00  0.00     0.000 C 
ATOM     19  C   UNL     1       1.527  -5.019  -7.017  1.00  0.00     0.005 C 
ATOM     20  C   UNL     1       0.479  -5.602  -6.038  1.00  0.00     0.003 C 
ATOM     21  C   UNL     1       0.050  -3.591  -4.430  1.00  0.00     0.031 C 
ATOM     22  C   UNL     1      -1.013  -5.422  -6.516  1.00  0.00    -0.008 C 
ATOM     23  C   UNL     1      -0.877  -3.133  -5.530  1.00  0.00    -0.027 C 
ATOM     24  C   UNL     1      -1.384  -3.948  -6.474  1.00  0.00    -0.065 C 
ATOM     25  C   UNL     1      -1.212  -5.953  -7.971  1.00  0.00     0.014 C 
ATOM     26  C   UNL     1      -1.961  -6.213  -5.570  1.00  0.00     0.016 C 
ATOM     27  C   UNL     1      -2.222  -3.353  -7.586  1.00  0.00     0.063 C 
ATOM     28  C   UNL     1      -2.628  -5.717  -8.532  1.00  0.00     0.033 C 
ATOM     29  C   UNL     1      -3.259  -4.367  -8.107  1.00  0.00     0.118 C 
BRANCH  29  30
ATOM     30  O   UNL     1      -3.956  -3.816  -9.194  1.00  0.00    -0.393 OA
ATOM     31  H   UNL     1      -4.034  -4.531  -9.880  1.00  0.00     0.210 HD
ENDBRANCH  29  30
ENDBRANCH   9  11
ENDBRANCH   1   9
TORSDOF 7
ENDMDL
MODEL 3
REMARK VINA RESULT:    -4.572      3.112      7.513
REMARK INTER + INTRA:          -8.512
REMARK INTER:                  -5.851
REMARK INTRA:                  -2.660
REMARK UNBOUND:                -2.203
REMARK SMILES CC[C@@H](CC[C@@H](C)[C@H]1CC[C@@H]2[C@H]3CC=C4C[C@@H](O)CC[C@@]4(C)[C@H]3CC[C@@]21C)C(C)C
REMARK SMILES IDX 5 1 4 2 3 3 2 4 1 5 28 6 29 7 30 8 6 9 7 10 8 11 9 12 26 13
REMARK SMILES IDX 10 14 11 15 25 16 27 17 12 18 24 19 23 20 13 21 21 22 14 23
REMARK SMILES IDX 15 24 20 25 22 26 16 27 19 28 17 29 18 30
REMARK H PARENT 18 31
REMARK Flexibility Score: inf
ROOT
ATOM      1  C   UNL     1       8.563   3.383  -3.822  1.00  0.00     0.004 C 
ENDROOT
BRANCH   1   2
ATOM      2  C   UNL     1       7.864   4.202  -2.716  1.00  0.00     0.004 C 
BRANCH   2   3
ATOM      3  C   UNL     1       6.543   3.600  -2.154  1.00  0.00    -0.009 C 
BRANCH   3   4
ATOM      4  C   UNL     1       5.291   4.347  -2.700  1.00  0.00     0.000 C 
ATOM      5  C   UNL     1       5.628   5.659  -3.412  1.00  0.00     0.004 C 
ENDBRANCH   3   4
BRANCH   3   6
ATOM      6  C   UNL     1       6.508   3.355  -0.605  1.00  0.00    -0.014 C 
ATOM      7  C   UNL     1       7.663   2.517  -0.031  1.00  0.00     0.007 C 
ATOM      8  C   UNL     1       5.160   2.774  -0.143  1.00  0.00     0.007 C 
ENDBRANCH   3   6
ENDBRANCH   2   3
ENDBRANCH   1   2
BRANCH   1   9
ATOM      9  C   UNL     1       7.581   2.623  -4.753  1.00  0.00    -0.011 C 
ATOM     10  C   UNL     1       7.588   3.249  -6.161  1.00  0.00     0.008 C 
BRANCH   9  11
ATOM     11  C   UNL     1       7.653   1.042  -4.722  1.00  0.00    -0.002 C 
ATOM     12  C   UNL     1       8.946   0.591  -4.009  1.00  0.00     0.005 C 
ATOM     13  C   UNL     1       6.523   0.188  -4.040  1.00  0.00    -0.026 C 
ATOM     14  C   UNL     1       8.541   0.018  -2.651  1.00  0.00     0.005 C 
ATOM     15  C   UNL     1       7.006   0.060  -2.574  1.00  0.00    -0.001 C 
ATOM     16  C   UNL     1       6.500  -1.216  -4.724  1.00  0.00     0.007 C 
ATOM     17  C   UNL     1       5.110   0.806  -4.162  1.00  0.00     0.012 C 
ATOM     18  C   UNL     1       6.424  -1.127  -1.745  1.00  0.00     0.000 C 
ATOM     19  C   UNL     1       5.773  -2.296  -3.917  1.00  0.00     0.005 C 
ATOM     20  C   UNL     1       6.402  -2.483  -2.515  1.00  0.00     0.003 C 
ATOM     21  C   UNL     1       5.065  -0.762  -1.078  1.00  0.00     0.031 C 
ATOM     22  C   UNL     1       5.713  -3.606  -1.648  1.00  0.00    -0.008 C 
ATOM     23  C   UNL     1       4.036  -1.864  -1.028  1.00  0.00    -0.027 C 
ATOM     24  C   UNL     1       4.310  -3.161  -1.266  1.00  0.00    -0.065 C 
ATOM     25  C   UNL     1       5.621  -4.952  -2.432  1.00  0.00     0.014 C 
ATOM     26  C   UNL     1       6.542  -3.846  -0.353  1.00  0.00     0.016 C 
ATOM     27  C   UNL     1       3.173  -4.161  -1.286  1.00  0.00     0.063 C 
ATOM     28  C   UNL     1       4.869  -6.065  -1.674  1.00  0.00     0.033 C 
ATOM     29  C   UNL     1       3.654  -5.560  -0.855  1.00  0.00     0.118 C 
BRANCH  29  30
ATOM     30  O   UNL     1       2.600  -6.480  -0.971  1.00  0.00    -0.393 OA
ATOM     31  H   UNL     1       2.939  -7.243  -1.511  1.00  0.00     0.210 HD
ENDBRANCH  29  30
ENDBRANCH   9  11
ENDBRANCH   1   9
TORSDOF 7
ENDMDL
MODEL 4
REMARK VINA RESULT:    -4.518      1.870      4.467
REMARK INTER + INTRA:          -8.437
REMARK INTER:                  -5.759
REMARK INTRA:                  -2.679
REMARK UNBOUND:                -2.203
REMARK SMILES CC[C@@H](CC[C@@H](C)[C@H]1CC[C@@H]2[C@H]3CC=C4C[C@@H](O)CC[C@@]4(C)[C@H]3CC[C@@]21C)C(C)C
REMARK SMILES IDX 5 1 4 2 3 3 2 4 1 5 28 6 29 7 30 8 6 9 7 10 8 11 9 12 26 13
REMARK SMILES IDX 10 14 11 15 25 16 27 17 12 18 24 19 23 20 13 21 21 22 14 23
REMARK SMILES IDX 15 24 20 25 22 26 16 27 19 28 17 29 18 30
REMARK H PARENT 18 31
REMARK Flexibility Score: inf
ROOT
ATOM      1  C   UNL     1       8.345  -0.485  -2.456  1.00  0.00     0.004 C 
ENDROOT
BRANCH   1   2
ATOM      2  C   UNL     1       8.304  -0.034  -0.979  1.00  0.00     0.004 C 
BRANCH   2   3
ATOM      3  C   UNL     1       7.691   1.371  -0.713  1.00  0.00    -0.009 C 
BRANCH   3   4
ATOM      4  C   UNL     1       8.742   2.357  -0.124  1.00  0.00     0.000 C 
ATOM      5  C   UNL     1       9.236   3.395  -1.136  1.00  0.00     0.004 C 
ENDBRANCH   3   4
BRANCH   3   6
ATOM      6  C   UNL     1       6.317   1.385   0.045  1.00  0.00    -0.014 C 
ATOM      7  C   UNL     1       5.356   0.231  -0.287  1.00  0.00     0.007 C 
ATOM      8  C   UNL     1       5.589   2.732  -0.105  1.00  0.00     0.007 C 
ENDBRANCH   3   6
ENDBRANCH   2   3
ENDBRANCH   1   2
BRANCH   1   9
ATOM      9  C   UNL     1       8.701   0.655  -3.448  1.00  0.00    -0.011 C 
ATOM     10  C   UNL     1      10.122   0.449  -4.008  1.00  0.00     0.008 C 
BRANCH   9  11
ATOM     11  C   UNL     1       7.604   1.027  -4.525  1.00  0.00    -0.002 C 
ATOM     12  C   UNL     1       6.321   0.208  -4.270  1.00  0.00     0.005 C 
ATOM     13  C   UNL     1       7.088   2.503  -4.687  1.00  0.00    -0.026 C 
ATOM     14  C   UNL     1       5.268   1.168  -3.719  1.00  0.00     0.005 C 
ATOM     15  C   UNL     1       5.891   2.574  -3.706  1.00  0.00    -0.001 C 
ATOM     16  C   UNL     1       6.591   2.683  -6.156  1.00  0.00     0.007 C 
ATOM     17  C   UNL     1       8.165   3.578  -4.409  1.00  0.00     0.012 C 
ATOM     18  C   UNL     1       4.834   3.691  -3.969  1.00  0.00     0.000 C 
ATOM     19  C   UNL     1       5.678   3.895  -6.368  1.00  0.00     0.005 C 
ATOM     20  C   UNL     1       4.421   3.829  -5.466  1.00  0.00     0.003 C 
ATOM     21  C   UNL     1       5.232   5.040  -3.301  1.00  0.00     0.031 C 
ATOM     22  C   UNL     1       3.428   5.038  -5.663  1.00  0.00    -0.008 C 
ATOM     23  C   UNL     1       4.901   6.288  -4.083  1.00  0.00    -0.027 C 
ATOM     24  C   UNL     1       4.074   6.313  -5.145  1.00  0.00    -0.065 C 
ATOM     25  C   UNL     1       3.060   5.232  -7.168  1.00  0.00     0.014 C 
ATOM     26  C   UNL     1       2.118   4.770  -4.867  1.00  0.00     0.016 C 
ATOM     27  C   UNL     1       3.899   7.608  -5.911  1.00  0.00     0.063 C 
ATOM     28  C   UNL     1       2.167   6.460  -7.438  1.00  0.00     0.033 C 
ATOM     29  C   UNL     1       2.503   7.690  -6.556  1.00  0.00     0.118 C 
BRANCH  29  30
ATOM     30  O   UNL     1       2.407   8.857  -7.331  1.00  0.00    -0.393 OA
ATOM     31  H   UNL     1       1.967   8.602  -8.185  1.00  0.00     0.210 HD
ENDBRANCH  29  30
ENDBRANCH   9  11
ENDBRANCH   1   9
TORSDOF 7
ENDMDL
MODEL 5
REMARK VINA RESULT:    -4.406      2.954      7.273
REMARK INTER + INTRA:          -8.282
REMARK INTER:                  -5.500
REMARK INTRA:                  -2.782
REMARK UNBOUND:                -2.203
REMARK SMILES CC[C@@H](CC[C@@H](C)[C@H]1CC[C@@H]2[C@H]3CC=C4C[C@@H](O)CC[C@@]4(C)[C@H]3CC[C@@]21C)C(C)C
REMARK SMILES IDX 5 1 4 2 3 3 2 4 1 5 28 6 29 7 30 8 6 9 7 10 8 11 9 12 26 13
REMARK SMILES IDX 10 14 11 15 25 16 27 17 12 18 24 19 23 20 13 21 21 22 14 23
REMARK SMILES IDX 15 24 20 25 22 26 16 27 19 28 17 29 18 30
REMARK H PARENT 18 31
REMARK Flexibility Score: inf
ROOT
ATOM      1  C   UNL     1       4.776   6.109  -6.964  1.00  0.00     0.004 C 
ENDROOT
BRANCH   1   2
ATOM      2  C   UNL     1       3.728   5.151  -7.570  1.00  0.00     0.004 C 
BRANCH   2   3
ATOM      3  C   UNL     1       3.949   3.635  -7.294  1.00  0.00    -0.009 C 
BRANCH   3   4
ATOM      4  C   UNL     1       4.331   2.862  -8.590  1.00  0.00     0.000 C 
ATOM      5  C   UNL     1       5.758   2.309  -8.569  1.00  0.00     0.004 C 
ENDBRANCH   3   4
BRANCH   3   6
ATOM      6  C   UNL     1       2.839   2.927  -6.439  1.00  0.00    -0.014 C 
ATOM      7  C   UNL     1       2.146   3.802  -5.381  1.00  0.00     0.007 C 
ATOM      8  C   UNL     1       3.350   1.629  -5.792  1.00  0.00     0.007 C 
ENDBRANCH   3   6
ENDBRANCH   2   3
ENDBRANCH   1   2
BRANCH   1   9
ATOM      9  C   UNL     1       6.147   5.437  -6.681  1.00  0.00    -0.011 C 
ATOM     10  C   UNL     1       7.195   5.912  -7.706  1.00  0.00     0.008 C 
BRANCH   9  11
ATOM     11  C   UNL     1       6.637   5.429  -5.176  1.00  0.00    -0.002 C 
ATOM     12  C   UNL     1       5.593   6.132  -4.282  1.00  0.00     0.005 C 
ATOM     13  C   UNL     1       6.938   4.082  -4.424  1.00  0.00    -0.026 C 
ATOM     14  C   UNL     1       4.902   5.051  -3.452  1.00  0.00     0.005 C 
ATOM     15  C   UNL     1       5.573   3.710  -3.794  1.00  0.00    -0.001 C 
ATOM     16  C   UNL     1       7.986   4.377  -3.305  1.00  0.00     0.007 C 
ATOM     17  C   UNL     1       7.509   2.969  -5.335  1.00  0.00     0.012 C 
ATOM     18  C   UNL     1       5.606   2.738  -2.573  1.00  0.00     0.000 C 
ATOM     19  C   UNL     1       8.069   3.298  -2.220  1.00  0.00     0.005 C 
ATOM     20  C   UNL     1       6.705   3.082  -1.522  1.00  0.00     0.003 C 
ATOM     21  C   UNL     1       5.606   1.245  -3.016  1.00  0.00     0.031 C 
ATOM     22  C   UNL     1       6.737   2.002  -0.374  1.00  0.00    -0.008 C 
ATOM     23  C   UNL     1       6.451   0.310  -2.187  1.00  0.00    -0.027 C 
ATOM     24  C   UNL     1       6.959   0.625  -0.980  1.00  0.00    -0.065 C 
ATOM     25  C   UNL     1       7.878   2.294   0.650  1.00  0.00     0.014 C 
ATOM     26  C   UNL     1       5.380   2.010   0.387  1.00  0.00     0.016 C 
ATOM     27  C   UNL     1       7.877  -0.361  -0.288  1.00  0.00     0.063 C 
ATOM     28  C   UNL     1       8.025   1.218   1.745  1.00  0.00     0.033 C 
ATOM     29  C   UNL     1       7.784  -0.229   1.244  1.00  0.00     0.118 C 
BRANCH  29  30
ATOM     30  O   UNL     1       8.711  -1.091   1.851  1.00  0.00    -0.393 OA
ATOM     31  H   UNL     1       8.208  -1.895   2.148  1.00  0.00     0.210 HD
ENDBRANCH  29  30
ENDBRANCH   9  11
ENDBRANCH   1   9
TORSDOF 7
ENDMDL
MODEL 6
REMARK VINA RESULT:    -4.292      7.309     11.684
REMARK INTER + INTRA:          -8.125
REMARK INTER:                  -5.716
REMARK INTRA:                  -2.409
REMARK UNBOUND:                -2.203
REMARK SMILES CC[C@@H](CC[C@@H](C)[C@H]1CC[C@@H]2[C@H]3CC=C4C[C@@H](O)CC[C@@]4(C)[C@H]3CC[C@@]21C)C(C)C
REMARK SMILES IDX 5 1 4 2 3 3 2 4 1 5 28 6 29 7 30 8 6 9 7 10 8 11 9 12 26 13
REMARK SMILES IDX 10 14 11 15 25 16 27 17 12 18 24 19 23 20 13 21 21 22 14 23
REMARK SMILES IDX 15 24 20 25 22 26 16 27 19 28 17 29 18 30
REMARK H PARENT 18 31
REMARK Flexibility Score: inf
ROOT
ATOM      1  C   UNL     1      -2.612  -5.034  -8.806  1.00  0.00     0.004 C 
ENDROOT
BRANCH   1   2
ATOM      2  C   UNL     1      -3.270  -4.062  -7.803  1.00  0.00     0.004 C 
BRANCH   2   3
ATOM      3  C   UNL     1      -2.685  -2.620  -7.768  1.00  0.00    -0.009 C 
BRANCH   3   4
ATOM      4  C   UNL     1      -1.417  -2.491  -8.662  1.00  0.00     0.000 C 
ATOM      5  C   UNL     1      -0.250  -1.789  -7.964  1.00  0.00     0.004 C 
ENDBRANCH   3   4
BRANCH   3   6
ATOM      6  C   UNL     1      -2.522  -1.983  -6.343  1.00  0.00    -0.014 C 
ATOM      7  C   UNL     1      -2.958  -2.863  -5.160  1.00  0.00     0.007 C 
ATOM      8  C   UNL     1      -3.197  -0.604  -6.248  1.00  0.00     0.007 C 
ENDBRANCH   3   6
ENDBRANCH   2   3
ENDBRANCH   1   2
BRANCH   1   9
ATOM      9  C   UNL     1      -2.525  -6.497  -8.294  1.00  0.00    -0.011 C 
ATOM     10  C   UNL     1      -3.138  -7.462  -9.328  1.00  0.00     0.008 C 
BRANCH   9  11
ATOM     11  C   UNL     1      -1.136  -6.957  -7.690  1.00  0.00    -0.002 C 
ATOM     12  C   UNL     1       0.003  -6.610  -8.673  1.00  0.00     0.005 C 
ATOM     13  C   UNL     1      -0.626  -6.408  -6.308  1.00  0.00    -0.026 C 
ATOM     14  C   UNL     1       0.787  -5.446  -8.070  1.00  0.00     0.005 C 
ATOM     15  C   UNL     1       0.167  -5.136  -6.697  1.00  0.00    -0.001 C 
ATOM     16  C   UNL     1       0.334  -7.473  -5.689  1.00  0.00     0.007 C 
ATOM     17  C   UNL     1      -1.756  -6.129  -5.288  1.00  0.00     0.012 C 
ATOM     18  C   UNL     1       1.228  -4.629  -5.672  1.00  0.00     0.000 C 
ATOM     19  C   UNL     1       1.239  -6.933  -4.577  1.00  0.00     0.005 C 
ATOM     20  C   UNL     1       2.118  -5.760  -5.074  1.00  0.00     0.003 C 
ATOM     21  C   UNL     1       0.600  -3.692  -4.598  1.00  0.00     0.031 C 
ATOM     22  C   UNL     1       3.095  -5.183  -3.979  1.00  0.00    -0.008 C 
ATOM     23  C   UNL     1       1.149  -3.828  -3.199  1.00  0.00    -0.027 C 
ATOM     24  C   UNL     1       2.286  -4.484  -2.898  1.00  0.00    -0.065 C 
ATOM     25  C   UNL     1       3.945  -6.315  -3.321  1.00  0.00     0.014 C 
ATOM     26  C   UNL     1       4.064  -4.157  -4.633  1.00  0.00     0.016 C 
ATOM     27  C   UNL     1       2.682  -4.639  -1.444  1.00  0.00     0.063 C 
ATOM     28  C   UNL     1       4.851  -5.828  -2.172  1.00  0.00     0.033 C 
ATOM     29  C   UNL     1       4.212  -4.726  -1.289  1.00  0.00     0.118 C 
BRANCH  29  30
ATOM     30  O   UNL     1       4.540  -4.960   0.056  1.00  0.00    -0.393 OA
ATOM     31  H   UNL     1       3.699  -5.219   0.518  1.00  0.00     0.210 HD
ENDBRANCH  29  30
ENDBRANCH   9  11
ENDBRANCH   1   9
TORSDOF 7
ENDMDL
MODEL 7
REMARK VINA RESULT:    -4.229      8.974     11.690
REMARK INTER + INTRA:          -8.038
REMARK INTER:                  -5.343
REMARK INTRA:                  -2.695
REMARK UNBOUND:                -2.203
REMARK SMILES CC[C@@H](CC[C@@H](C)[C@H]1CC[C@@H]2[C@H]3CC=C4C[C@@H](O)CC[C@@]4(C)[C@H]3CC[C@@]21C)C(C)C
REMARK SMILES IDX 5 1 4 2 3 3 2 4 1 5 28 6 29 7 30 8 6 9 7 10 8 11 9 12 26 13
REMARK SMILES IDX 10 14 11 15 25 16 27 17 12 18 24 19 23 20 13 21 21 22 14 23
REMARK SMILES IDX 15 24 20 25 22 26 16 27 19 28 17 29 18 30
REMARK H PARENT 18 31
REMARK Flexibility Score: inf
ROOT
ATOM      1  C   UNL     1      -2.699   3.614  -6.610  1.00  0.00     0.004 C 
ENDROOT
BRANCH   1   2
ATOM      2  C   UNL     1      -3.864   4.489  -7.123  1.00  0.00     0.004 C 
BRANCH   2   3
ATOM      3  C   UNL     1      -4.847   5.017  -6.038  1.00  0.00    -0.009 C 
BRANCH   3   4
ATOM      4  C   UNL     1      -6.266   4.397  -6.195  1.00  0.00     0.000 C 
ATOM      5  C   UNL     1      -6.591   3.345  -5.130  1.00  0.00     0.004 C 
ENDBRANCH   3   4
BRANCH   3   6
ATOM      6  C   UNL     1      -4.857   6.571  -5.822  1.00  0.00    -0.014 C 
ATOM      7  C   UNL     1      -6.190   7.281  -6.115  1.00  0.00     0.007 C 
ATOM      8  C   UNL     1      -3.715   7.267  -6.583  1.00  0.00     0.007 C 
ENDBRANCH   3   6
ENDBRANCH   2   3
ENDBRANCH   1   2
BRANCH   1   9
ATOM      9  C   UNL     1      -2.940   3.016  -5.198  1.00  0.00    -0.011 C 
ATOM     10  C   UNL     1      -3.094   1.485  -5.288  1.00  0.00     0.008 C 
BRANCH   9  11
ATOM     11  C   UNL     1      -1.993   3.528  -4.039  1.00  0.00    -0.002 C 
ATOM     12  C   UNL     1      -0.811   4.319  -4.639  1.00  0.00     0.005 C 
ATOM     13  C   UNL     1      -2.535   4.461  -2.895  1.00  0.00    -0.026 C 
ATOM     14  C   UNL     1      -1.038   5.795  -4.313  1.00  0.00     0.005 C 
ATOM     15  C   UNL     1      -2.315   5.886  -3.461  1.00  0.00    -0.001 C 
ATOM     16  C   UNL     1      -1.647   4.240  -1.630  1.00  0.00     0.007 C 
ATOM     17  C   UNL     1      -4.006   4.184  -2.504  1.00  0.00     0.012 C 
ATOM     18  C   UNL     1      -2.250   7.050  -2.424  1.00  0.00     0.000 C 
ATOM     19  C   UNL     1      -1.756   5.354  -0.583  1.00  0.00     0.005 C 
ATOM     20  C   UNL     1      -1.374   6.733  -1.174  1.00  0.00     0.003 C 
ATOM     21  C   UNL     1      -3.665   7.599  -2.075  1.00  0.00     0.031 C 
ATOM     22  C   UNL     1      -1.438   7.915  -0.132  1.00  0.00    -0.008 C 
ATOM     23  C   UNL     1      -3.881   8.005  -0.638  1.00  0.00    -0.027 C 
ATOM     24  C   UNL     1      -2.887   8.170   0.255  1.00  0.00    -0.065 C 
ATOM     25  C   UNL     1      -0.621   7.583   1.156  1.00  0.00     0.014 C 
ATOM     26  C   UNL     1      -0.846   9.204  -0.771  1.00  0.00     0.016 C 
ATOM     27  C   UNL     1      -3.236   8.480   1.695  1.00  0.00     0.063 C 
ATOM     28  C   UNL     1      -0.725   8.660   2.255  1.00  0.00     0.033 C 
ATOM     29  C   UNL     1      -2.127   9.309   2.372  1.00  0.00     0.118 C 
BRANCH  29  30
ATOM     30  O   UNL     1      -2.439   9.501   3.727  1.00  0.00    -0.393 OA
ATOM     31  H   UNL     1      -2.631   8.604   4.110  1.00  0.00     0.210 HD
ENDBRANCH  29  30
ENDBRANCH   9  11
ENDBRANCH   1   9
TORSDOF 7
ENDMDL
MODEL 8
REMARK VINA RESULT:    -4.196      7.950     12.336
REMARK INTER + INTRA:          -7.993
REMARK INTER:                  -5.436
REMARK INTRA:                  -2.557
REMARK UNBOUND:                -2.203
REMARK SMILES CC[C@@H](CC[C@@H](C)[C@H]1CC[C@@H]2[C@H]3CC=C4C[C@@H](O)CC[C@@]4(C)[C@H]3CC[C@@]21C)C(C)C
REMARK SMILES IDX 5 1 4 2 3 3 2 4 1 5 28 6 29 7 30 8 6 9 7 10 8 11 9 12 26 13
REMARK SMILES IDX 10 14 11 15 25 16 27 17 12 18 24 19 23 20 13 21 21 22 14 23
REMARK SMILES IDX 15 24 20 25 22 26 16 27 19 28 17 29 18 30
REMARK H PARENT 18 31
REMARK Flexibility Score: inf
ROOT
ATOM      1  C   UNL     1      -3.724  -1.659  -8.772  1.00  0.00     0.004 C 
ENDROOT
BRANCH   1   2
ATOM      2  C   UNL     1      -3.091  -0.309  -8.372  1.00  0.00     0.004 C 
BRANCH   2   3
ATOM      3  C   UNL     1      -2.291  -0.300  -7.036  1.00  0.00    -0.009 C 
BRANCH   3   4
ATOM      4  C   UNL     1      -2.960   0.616  -5.970  1.00  0.00     0.000 C 
ATOM      5  C   UNL     1      -4.329   1.150  -6.400  1.00  0.00     0.004 C 
ENDBRANCH   3   4
BRANCH   3   6
ATOM      6  C   UNL     1      -0.742  -0.091  -7.168  1.00  0.00    -0.014 C 
ATOM      7  C   UNL     1      -0.218   1.304  -6.786  1.00  0.00     0.007 C 
ATOM      8  C   UNL     1      -0.223  -0.481  -8.562  1.00  0.00     0.007 C 
ENDBRANCH   3   6
ENDBRANCH   2   3
ENDBRANCH   1   2
BRANCH   1   9
ATOM      9  C   UNL     1      -4.138  -2.538  -7.561  1.00  0.00    -0.011 C 
ATOM     10  C   UNL     1      -5.674  -2.606  -7.453  1.00  0.00     0.008 C 
BRANCH   9  11
ATOM     11  C   UNL     1      -3.394  -3.926  -7.404  1.00  0.00    -0.002 C 
ATOM     12  C   UNL     1      -2.656  -4.276  -8.714  1.00  0.00     0.005 C 
ATOM     13  C   UNL     1      -2.311  -4.147  -6.286  1.00  0.00    -0.026 C 
ATOM     14  C   UNL     1      -1.160  -4.106  -8.455  1.00  0.00     0.005 C 
ATOM     15  C   UNL     1      -0.991  -3.721  -6.976  1.00  0.00    -0.001 C 
ATOM     16  C   UNL     1      -2.272  -5.671  -5.946  1.00  0.00     0.007 C 
ATOM     17  C   UNL     1      -2.590  -3.369  -4.978  1.00  0.00     0.012 C 
ATOM     18  C   UNL     1       0.332  -4.282  -6.367  1.00  0.00     0.000 C 
ATOM     19  C   UNL     1      -1.006  -6.119  -5.208  1.00  0.00     0.005 C 
ATOM     20  C   UNL     1       0.272  -5.801  -6.021  1.00  0.00     0.003 C 
ATOM     21  C   UNL     1       0.861  -3.394  -5.203  1.00  0.00     0.031 C 
ATOM     22  C   UNL     1       1.607  -6.268  -5.324  1.00  0.00    -0.008 C 
ATOM     23  C   UNL     1       1.490  -4.128  -4.045  1.00  0.00    -0.027 C 
ATOM     24  C   UNL     1       1.851  -5.425  -4.083  1.00  0.00    -0.065 C 
ATOM     25  C   UNL     1       1.535  -7.772  -4.909  1.00  0.00     0.014 C 
ATOM     26  C   UNL     1       2.799  -6.086  -6.307  1.00  0.00     0.016 C 
ATOM     27  C   UNL     1       2.380  -6.078  -2.823  1.00  0.00     0.063 C 
ATOM     28  C   UNL     1       2.774  -8.264  -4.134  1.00  0.00     0.033 C 
ATOM     29  C   UNL     1       3.364  -7.216  -3.155  1.00  0.00     0.118 C 
BRANCH  29  30
ATOM     30  O   UNL     1       3.764  -7.858  -1.972  1.00  0.00    -0.393 OA
ATOM     31  H   UNL     1       3.936  -8.809  -2.203  1.00  0.00     0.210 HD
ENDBRANCH  29  30
ENDBRANCH   9  11
ENDBRANCH   1   9
TORSDOF 7
ENDMDL
MODEL 9
REMARK VINA RESULT:    -4.192      9.206     11.797
REMARK INTER + INTRA:          -7.988
REMARK INTER:                  -5.276
REMARK INTRA:                  -2.712
REMARK UNBOUND:                -2.203
REMARK SMILES CC[C@@H](CC[C@@H](C)[C@H]1CC[C@@H]2[C@H]3CC=C4C[C@@H](O)CC[C@@]4(C)[C@H]3CC[C@@]21C)C(C)C
REMARK SMILES IDX 5 1 4 2 3 3 2 4 1 5 28 6 29 7 30 8 6 9 7 10 8 11 9 12 26 13
REMARK SMILES IDX 10 14 11 15 25 16 27 17 12 18 24 19 23 20 13 21 21 22 14 23
REMARK SMILES IDX 15 24 20 25 22 26 16 27 19 28 17 29 18 30
REMARK H PARENT 18 31
REMARK Flexibility Score: inf
ROOT
ATOM      1  C   UNL     1       1.916  -5.382  -6.543  1.00  0.00     0.004 C 
ENDROOT
BRANCH   1   2
ATOM      2  C   UNL     1       1.805  -6.496  -7.606  1.00  0.00     0.004 C 
BRANCH   2   3
ATOM      3  C   UNL     1       0.422  -7.203  -7.710  1.00  0.00    -0.009 C 
BRANCH   3   4
ATOM      4  C   UNL     1       0.485  -8.671  -7.195  1.00  0.00     0.000 C 
ATOM      5  C   UNL     1      -0.271  -8.887  -5.881  1.00  0.00     0.004 C 
ENDBRANCH   3   4
BRANCH   3   6
ATOM      6  C   UNL     1      -0.325  -7.046  -9.081  1.00  0.00    -0.014 C 
ATOM      7  C   UNL     1      -0.136  -5.698  -9.798  1.00  0.00     0.007 C 
ATOM      8  C   UNL     1      -1.824  -7.370  -8.962  1.00  0.00     0.007 C 
ENDBRANCH   3   6
ENDBRANCH   2   3
ENDBRANCH   1   2
BRANCH   1   9
ATOM      9  C   UNL     1       0.858  -5.489  -5.412  1.00  0.00    -0.011 C 
ATOM     10  C   UNL     1       1.509  -6.021  -4.121  1.00  0.00     0.008 C 
BRANCH   9  11
ATOM     11  C   UNL     1      -0.100  -4.245  -5.216  1.00  0.00    -0.002 C 
ATOM     12  C   UNL     1       0.556  -2.980  -5.808  1.00  0.00     0.005 C 
ATOM     13  C   UNL     1      -1.555  -4.234  -5.811  1.00  0.00    -0.026 C 
ATOM     14  C   UNL     1      -0.205  -2.625  -7.085  1.00  0.00     0.005 C 
ATOM     15  C   UNL     1      -1.359  -3.632  -7.225  1.00  0.00    -0.001 C 
ATOM     16  C   UNL     1      -2.428  -3.279  -4.936  1.00  0.00     0.007 C 
ATOM     17  C   UNL     1      -2.235  -5.623  -5.832  1.00  0.00     0.012 C 
ATOM     18  C   UNL     1      -2.616  -2.999  -7.898  1.00  0.00     0.000 C 
ATOM     19  C   UNL     1      -3.727  -2.822  -5.608  1.00  0.00     0.005 C 
ATOM     20  C   UNL     1      -3.452  -2.091  -6.945  1.00  0.00     0.003 C 
ATOM     21  C   UNL     1      -3.466  -4.058  -8.661  1.00  0.00     0.031 C 
ATOM     22  C   UNL     1      -4.753  -1.570  -7.668  1.00  0.00    -0.008 C 
ATOM     23  C   UNL     1      -4.962  -3.879  -8.592  1.00  0.00    -0.027 C 
ATOM     24  C   UNL     1      -5.567  -2.755  -8.163  1.00  0.00    -0.065 C 
ATOM     25  C   UNL     1      -5.635  -0.716  -6.705  1.00  0.00     0.014 C 
ATOM     26  C   UNL     1      -4.353  -0.684  -8.884  1.00  0.00     0.016 C 
ATOM     27  C   UNL     1      -7.076  -2.731  -8.043  1.00  0.00     0.063 C 
ATOM     28  C   UNL     1      -6.971  -0.257  -7.325  1.00  0.00     0.033 C 
ATOM     29  C   UNL     1      -7.630  -1.309  -8.253  1.00  0.00     0.118 C 
BRANCH  29  30
ATOM     30  O   UNL     1      -9.019  -1.306  -8.046  1.00  0.00    -0.393 OA
ATOM     31  H   UNL     1      -9.202  -1.933  -7.297  1.00  0.00     0.210 HD
ENDBRANCH  29  30
ENDBRANCH   9  11
ENDBRANCH   1   9
TORSDOF 7
ENDMDL
