MODEL 1
REMARK VINA RESULT:    -4.953      0.000      0.000
REMARK INTER + INTRA:         -16.053
REMARK INTER:                 -13.061
REMARK INTRA:                  -2.992
REMARK UNBOUND:                -2.992
REMARK SMILES CCCCCCCCCCCCCCCCCCCCCCCCCCCCCC(=O)[O-]
REMARK SMILES IDX 16 1 17 2 18 3 19 4 20 5 21 6 22 7 23 8 24 9 25 10 26 11
REMARK SMILES IDX 27 12 28 13 29 14 30 15 31 16 32 17 15 18 14 19 13 20 12 21
REMARK SMILES IDX 11 22 10 23 9 24 8 25 7 26 6 27 5 28 4 29 3 30 2 31 1 32
REMARK H PARENT
REMARK Flexibility Score: inf
ROOT
ATOM      1  C   UNL     1      24.179  -1.445  36.447  1.00  0.00     0.000 C 
ENDROOT
BRANCH   1   2
ATOM      2  C   UNL     1      25.518  -1.149  37.143  1.00  0.00     0.000 C 
BRANCH   2   3
ATOM      3  C   UNL     1      25.648   0.327  37.556  1.00  0.00     0.000 C 
BRANCH   3   4
ATOM      4  C   UNL     1      26.593   0.540  38.753  1.00  0.00     0.000 C 
BRANCH   4   5
ATOM      5  C   UNL     1      26.019   1.395  39.899  1.00  0.00     0.000 C 
BRANCH   5   6
ATOM      6  C   UNL     1      26.575   2.829  40.013  1.00  0.00     0.000 C 
BRANCH   6   7
ATOM      7  C   UNL     1      26.236   3.542  41.340  1.00  0.00     0.000 C 
BRANCH   7   8
ATOM      8  C   UNL     1      25.482   2.638  42.332  1.00  0.00     0.000 C 
BRANCH   8   9
ATOM      9  C   UNL     1      26.411   2.028  43.396  1.00  0.00     0.000 C 
BRANCH   9  10
ATOM     10  C   UNL     1      25.901   0.671  43.906  1.00  0.00     0.000 C 
BRANCH  10  11
ATOM     11  C   UNL     1      26.604  -0.488  43.185  1.00  0.00     0.000 C 
BRANCH  11  12
ATOM     12  C   UNL     1      27.478  -1.322  44.145  1.00  0.00     0.000 C 
BRANCH  12  13
ATOM     13  C   UNL     1      27.694  -2.773  43.682  1.00  0.00     0.006 C 
BRANCH  13  14
ATOM     14  C   UNL     1      27.451  -3.801  44.794  1.00  0.00     0.053 C 
BRANCH  14  15
ATOM     15  C   UNL     1      26.115  -4.453  44.619  1.00  0.00     0.041 C 
ATOM     16  O   UNL     1      25.451  -4.265  43.566  1.00  0.00    -0.550 OA
ATOM     17  O   UNL     1      25.579  -5.227  45.641  1.00  0.00    -0.550 OA
ENDBRANCH  14  15
ENDBRANCH  13  14
ENDBRANCH  12  13
ENDBRANCH  11  12
ENDBRANCH  10  11
ENDBRANCH   9  10
ENDBRANCH   8   9
ENDBRANCH   7   8
ENDBRANCH   6   7
ENDBRANCH   5   6
ENDBRANCH   4   5
ENDBRANCH   3   4
ENDBRANCH   2   3
ENDBRANCH   1   2
BRANCH   1  18
ATOM     18  C   UNL     1      23.959  -2.953  36.221  1.00  0.00     0.000 C 
BRANCH  18  19
ATOM     19  C   UNL     1      22.543  -3.411  36.632  1.00  0.00     0.000 C 
BRANCH  19  20
ATOM     20  C   UNL     1      22.226  -4.866  36.234  1.00  0.00     0.000 C 
BRANCH  20  21
ATOM     21  C   UNL     1      22.812  -5.307  34.881  1.00  0.00     0.000 C 
BRANCH  21  22
ATOM     22  C   UNL     1      23.635  -6.603  34.993  1.00  0.00     0.000 C 
BRANCH  22  23
ATOM     23  C   UNL     1      24.385  -6.723  36.332  1.00  0.00     0.000 C 
BRANCH  23  24
ATOM     24  C   UNL     1      25.923  -6.695  36.226  1.00  0.00    -0.000 C 
BRANCH  24  25
ATOM     25  C   UNL     1      26.523  -5.273  36.248  1.00  0.00    -0.000 C 
BRANCH  25  26
ATOM     26  C   UNL     1      26.950  -4.804  34.848  1.00  0.00    -0.000 C 
BRANCH  26  27
ATOM     27  C   UNL     1      28.478  -4.750  34.721  1.00  0.00    -0.000 C 
BRANCH  27  28
ATOM     28  C   UNL     1      28.982  -3.301  34.802  1.00  0.00    -0.000 C 
BRANCH  28  29
ATOM     29  C   UNL     1      30.040  -3.103  35.898  1.00  0.00    -0.000 C 
BRANCH  29  30
ATOM     30  C   UNL     1      30.069  -4.255  36.917  1.00  0.00    -0.000 C 
BRANCH  30  31
ATOM     31  C   UNL     1      29.276  -3.935  38.192  1.00  0.00    -0.003 C 
ATOM     32  C   UNL     1      28.978  -2.444  38.345  1.00  0.00     0.004 C 
ENDBRANCH  30  31
ENDBRANCH  29  30
ENDBRANCH  28  29
ENDBRANCH  27  28
ENDBRANCH  26  27
ENDBRANCH  25  26
ENDBRANCH  24  25
ENDBRANCH  23  24
ENDBRANCH  22  23
ENDBRANCH  21  22
ENDBRANCH  20  21
ENDBRANCH  19  20
ENDBRANCH  18  19
ENDBRANCH   1  18
TORSDOF 28
ENDMDL
MODEL 2
REMARK VINA RESULT:    -4.813      1.510      5.018
REMARK INTER + INTRA:         -15.683
REMARK INTER:                 -11.687
REMARK INTRA:                  -3.996
REMARK UNBOUND:                -2.992
REMARK SMILES CCCCCCCCCCCCCCCCCCCCCCCCCCCCCC(=O)[O-]
REMARK SMILES IDX 16 1 17 2 18 3 19 4 20 5 21 6 22 7 23 8 24 9 25 10 26 11
REMARK SMILES IDX 27 12 28 13 29 14 30 15 31 16 32 17 15 18 14 19 13 20 12 21
REMARK SMILES IDX 11 22 10 23 9 24 8 25 7 26 6 27 5 28 4 29 3 30 2 31 1 32
REMARK H PARENT
REMARK Flexibility Score: inf
ROOT
ATOM      1  C   UNL     1      30.153  -3.003  37.100  1.00  0.00     0.000 C 
ENDROOT
BRANCH   1   2
ATOM      2  C   UNL     1      29.145  -3.140  38.253  1.00  0.00     0.000 C 
BRANCH   2   3
ATOM      3  C   UNL     1      28.207  -1.926  38.356  1.00  0.00     0.000 C 
BRANCH   3   4
ATOM      4  C   UNL     1      28.646  -0.910  39.428  1.00  0.00     0.000 C 
BRANCH   4   5
ATOM      5  C   UNL     1      27.949   0.462  39.356  1.00  0.00     0.000 C 
BRANCH   5   6
ATOM      6  C   UNL     1      26.410   0.433  39.269  1.00  0.00     0.000 C 
BRANCH   6   7
ATOM      7  C   UNL     1      25.757   1.810  39.020  1.00  0.00     0.000 C 
BRANCH   7   8
ATOM      8  C   UNL     1      26.247   2.892  39.999  1.00  0.00     0.000 C 
BRANCH   8   9
ATOM      9  C   UNL     1      25.333   3.032  41.228  1.00  0.00     0.000 C 
BRANCH   9  10
ATOM     10  C   UNL     1      26.090   2.809  42.547  1.00  0.00     0.000 C 
BRANCH  10  11
ATOM     11  C   UNL     1      25.503   1.622  43.325  1.00  0.00     0.000 C 
BRANCH  11  12
ATOM     12  C   UNL     1      26.598   0.650  43.813  1.00  0.00     0.000 C 
BRANCH  12  13
ATOM     13  C   UNL     1      26.451  -0.777  43.258  1.00  0.00     0.006 C 
BRANCH  13  14
ATOM     14  C   UNL     1      27.797  -1.468  43.013  1.00  0.00     0.053 C 
BRANCH  14  15
ATOM     15  C   UNL     1      28.136  -2.372  44.157  1.00  0.00     0.041 C 
ATOM     16  O   UNL     1      28.574  -1.892  45.236  1.00  0.00    -0.550 OA
ATOM     17  O   UNL     1      28.016  -3.749  44.015  1.00  0.00    -0.550 OA
ENDBRANCH  14  15
ENDBRANCH  13  14
ENDBRANCH  12  13
ENDBRANCH  11  12
ENDBRANCH  10  11
ENDBRANCH   9  10
ENDBRANCH   8   9
ENDBRANCH   7   8
ENDBRANCH   6   7
ENDBRANCH   5   6
ENDBRANCH   4   5
ENDBRANCH   3   4
ENDBRANCH   2   3
ENDBRANCH   1   2
BRANCH   1  18
ATOM     18  C   UNL     1      31.176  -4.155  37.078  1.00  0.00     0.000 C 
BRANCH  18  19
ATOM     19  C   UNL     1      31.938  -4.244  35.738  1.00  0.00     0.000 C 
BRANCH  19  20
ATOM     20  C   UNL     1      31.597  -3.106  34.757  1.00  0.00     0.000 C 
BRANCH  20  21
ATOM     21  C   UNL     1      30.745  -3.530  33.547  1.00  0.00     0.000 C 
BRANCH  21  22
ATOM     22  C   UNL     1      30.255  -4.985  33.656  1.00  0.00     0.000 C 
BRANCH  22  23
ATOM     23  C   UNL     1      28.757  -5.090  33.999  1.00  0.00     0.000 C 
BRANCH  23  24
ATOM     24  C   UNL     1      28.431  -5.907  35.264  1.00  0.00    -0.000 C 
BRANCH  24  25
ATOM     25  C   UNL     1      27.156  -5.438  35.998  1.00  0.00    -0.000 C 
BRANCH  25  26
ATOM     26  C   UNL     1      26.760  -4.005  35.609  1.00  0.00    -0.000 C 
BRANCH  26  27
ATOM     27  C   UNL     1      25.483  -3.564  36.337  1.00  0.00    -0.000 C 
BRANCH  27  28
ATOM     28  C   UNL     1      24.513  -2.872  35.368  1.00  0.00    -0.000 C 
BRANCH  28  29
ATOM     29  C   UNL     1      23.678  -3.870  34.552  1.00  0.00    -0.000 C 
BRANCH  29  30
ATOM     30  C   UNL     1      23.068  -4.986  35.417  1.00  0.00    -0.000 C 
BRANCH  30  31
ATOM     31  C   UNL     1      23.534  -6.385  34.990  1.00  0.00    -0.003 C 
ATOM     32  C   UNL     1      24.204  -6.391  33.616  1.00  0.00     0.004 C 
ENDBRANCH  30  31
ENDBRANCH  29  30
ENDBRANCH  28  29
ENDBRANCH  27  28
ENDBRANCH  26  27
ENDBRANCH  25  26
ENDBRANCH  24  25
ENDBRANCH  23  24
ENDBRANCH  22  23
ENDBRANCH  21  22
ENDBRANCH  20  21
ENDBRANCH  19  20
ENDBRANCH  18  19
ENDBRANCH   1  18
TORSDOF 28
ENDMDL
MODEL 3
REMARK VINA RESULT:    -4.767      2.485      9.009
REMARK INTER + INTRA:         -15.562
REMARK INTER:                 -12.811
REMARK INTRA:                  -2.751
REMARK UNBOUND:                -2.992
REMARK SMILES CCCCCCCCCCCCCCCCCCCCCCCCCCCCCC(=O)[O-]
REMARK SMILES IDX 16 1 17 2 18 3 19 4 20 5 21 6 22 7 23 8 24 9 25 10 26 11
REMARK SMILES IDX 27 12 28 13 29 14 30 15 31 16 32 17 15 18 14 19 13 20 12 21
REMARK SMILES IDX 11 22 10 23 9 24 8 25 7 26 6 27 5 28 4 29 3 30 2 31 1 32
REMARK H PARENT
REMARK Flexibility Score: inf
ROOT
ATOM      1  C   UNL     1      25.434   0.384  37.757  1.00  0.00     0.000 C 
ENDROOT
BRANCH   1   2
ATOM      2  C   UNL     1      25.635  -0.994  37.106  1.00  0.00     0.000 C 
BRANCH   2   3
ATOM      3  C   UNL     1      24.366  -1.494  36.394  1.00  0.00     0.000 C 
BRANCH   3   4
ATOM      4  C   UNL     1      24.078  -2.986  36.645  1.00  0.00     0.000 C 
BRANCH   4   5
ATOM      5  C   UNL     1      22.602  -3.333  36.919  1.00  0.00     0.000 C 
BRANCH   5   6
ATOM      6  C   UNL     1      22.118  -4.694  36.377  1.00  0.00     0.000 C 
BRANCH   6   7
ATOM      7  C   UNL     1      22.484  -4.960  34.901  1.00  0.00     0.000 C 
BRANCH   7   8
ATOM      8  C   UNL     1      23.196  -6.309  34.693  1.00  0.00     0.000 C 
BRANCH   8   9
ATOM      9  C   UNL     1      24.478  -6.175  33.854  1.00  0.00     0.000 C 
BRANCH   9  10
ATOM     10  C   UNL     1      25.737  -6.566  34.645  1.00  0.00     0.000 C 
BRANCH  10  11
ATOM     11  C   UNL     1      26.623  -5.341  34.912  1.00  0.00     0.000 C 
BRANCH  11  12
ATOM     12  C   UNL     1      27.025  -5.229  36.397  1.00  0.00     0.000 C 
BRANCH  12  13
ATOM     13  C   UNL     1      27.709  -3.899  36.755  1.00  0.00     0.006 C 
BRANCH  13  14
ATOM     14  C   UNL     1      28.606  -3.363  35.632  1.00  0.00     0.053 C 
BRANCH  14  15
ATOM     15  C   UNL     1      30.029  -3.293  36.090  1.00  0.00     0.041 C 
ATOM     16  O   UNL     1      30.864  -2.592  35.459  1.00  0.00    -0.550 OA
ATOM     17  O   UNL     1      30.446  -4.042  37.183  1.00  0.00    -0.550 OA
ENDBRANCH  14  15
ENDBRANCH  13  14
ENDBRANCH  12  13
ENDBRANCH  11  12
ENDBRANCH  10  11
ENDBRANCH   9  10
ENDBRANCH   8   9
ENDBRANCH   7   8
ENDBRANCH   6   7
ENDBRANCH   5   6
ENDBRANCH   4   5
ENDBRANCH   3   4
ENDBRANCH   2   3
ENDBRANCH   1   2
BRANCH   1  18
ATOM     18  C   UNL     1      26.322   0.578  39.001  1.00  0.00     0.000 C 
BRANCH  18  19
ATOM     19  C   UNL     1      27.119   1.899  38.959  1.00  0.00     0.000 C 
BRANCH  19  20
ATOM     20  C   UNL     1      26.576   2.979  39.915  1.00  0.00     0.000 C 
BRANCH  20  21
ATOM     21  C   UNL     1      25.525   2.479  40.923  1.00  0.00     0.000 C 
BRANCH  21  22
ATOM     22  C   UNL     1      25.962   2.699  42.382  1.00  0.00     0.000 C 
BRANCH  22  23
ATOM     23  C   UNL     1      25.903   1.413  43.227  1.00  0.00     0.000 C 
BRANCH  23  24
ATOM     24  C   UNL     1      26.566   0.178  42.586  1.00  0.00    -0.000 C 
BRANCH  24  25
ATOM     25  C   UNL     1      26.664  -1.039  43.532  1.00  0.00    -0.000 C 
BRANCH  25  26
ATOM     26  C   UNL     1      28.077  -1.642  43.554  1.00  0.00    -0.000 C 
BRANCH  26  27
ATOM     27  C   UNL     1      28.520  -1.969  44.986  1.00  0.00    -0.000 C 
BRANCH  27  28
ATOM     28  C   UNL     1      27.808  -3.227  45.504  1.00  0.00    -0.000 C 
BRANCH  28  29
ATOM     29  C   UNL     1      28.625  -4.508  45.276  1.00  0.00    -0.000 C 
BRANCH  29  30
ATOM     30  C   UNL     1      27.821  -5.611  44.566  1.00  0.00    -0.000 C 
BRANCH  30  31
ATOM     31  C   UNL     1      26.643  -5.052  43.754  1.00  0.00    -0.003 C 
ATOM     32  C   UNL     1      25.300  -5.647  44.174  1.00  0.00     0.004 C 
ENDBRANCH  30  31
ENDBRANCH  29  30
ENDBRANCH  28  29
ENDBRANCH  27  28
ENDBRANCH  26  27
ENDBRANCH  25  26
ENDBRANCH  24  25
ENDBRANCH  23  24
ENDBRANCH  22  23
ENDBRANCH  21  22
ENDBRANCH  20  21
ENDBRANCH  19  20
ENDBRANCH  18  19
ENDBRANCH   1  18
TORSDOF 28
ENDMDL
MODEL 4
REMARK VINA RESULT:    -4.756      1.009      2.551
REMARK INTER + INTRA:         -15.533
REMARK INTER:                 -12.836
REMARK INTRA:                  -2.697
REMARK UNBOUND:                -2.992
REMARK SMILES CCCCCCCCCCCCCCCCCCCCCCCCCCCCCC(=O)[O-]
REMARK SMILES IDX 16 1 17 2 18 3 19 4 20 5 21 6 22 7 23 8 24 9 25 10 26 11
REMARK SMILES IDX 27 12 28 13 29 14 30 15 31 16 32 17 15 18 14 19 13 20 12 21
REMARK SMILES IDX 11 22 10 23 9 24 8 25 7 26 6 27 5 28 4 29 3 30 2 31 1 32
REMARK H PARENT
REMARK Flexibility Score: inf
ROOT
ATOM      1  C   UNL     1      25.597   0.321  37.929  1.00  0.00     0.000 C 
ENDROOT
BRANCH   1   2
ATOM      2  C   UNL     1      26.844   0.520  38.807  1.00  0.00     0.000 C 
BRANCH   2   3
ATOM      3  C   UNL     1      26.729   1.758  39.712  1.00  0.00     0.000 C 
BRANCH   3   4
ATOM      4  C   UNL     1      25.296   2.316  39.797  1.00  0.00     0.000 C 
BRANCH   4   5
ATOM      5  C   UNL     1      24.890   2.877  41.173  1.00  0.00     0.000 C 
BRANCH   5   6
ATOM      6  C   UNL     1      25.909   2.671  42.312  1.00  0.00     0.000 C 
BRANCH   6   7
ATOM      7  C   UNL     1      25.418   1.753  43.451  1.00  0.00     0.000 C 
BRANCH   7   8
ATOM      8  C   UNL     1      26.466   0.708  43.874  1.00  0.00     0.000 C 
BRANCH   8   9
ATOM      9  C   UNL     1      26.720  -0.346  42.783  1.00  0.00     0.000 C 
BRANCH   9  10
ATOM     10  C   UNL     1      26.946  -1.749  43.368  1.00  0.00     0.000 C 
BRANCH  10  11
ATOM     11  C   UNL     1      28.196  -1.779  44.261  1.00  0.00     0.000 C 
BRANCH  11  12
ATOM     12  C   UNL     1      27.997  -2.668  45.506  1.00  0.00     0.000 C 
BRANCH  12  13
ATOM     13  C   UNL     1      28.606  -4.074  45.366  1.00  0.00     0.006 C 
BRANCH  13  14
ATOM     14  C   UNL     1      27.649  -5.190  45.802  1.00  0.00     0.053 C 
BRANCH  14  15
ATOM     15  C   UNL     1      26.444  -5.220  44.915  1.00  0.00     0.041 C 
ATOM     16  O   UNL     1      25.288  -5.231  45.415  1.00  0.00    -0.550 OA
ATOM     17  O   UNL     1      26.597  -5.288  43.535  1.00  0.00    -0.550 OA
ENDBRANCH  14  15
ENDBRANCH  13  14
ENDBRANCH  12  13
ENDBRANCH  11  12
ENDBRANCH  10  11
ENDBRANCH   9  10
ENDBRANCH   8   9
ENDBRANCH   7   8
ENDBRANCH   6   7
ENDBRANCH   5   6
ENDBRANCH   4   5
ENDBRANCH   3   4
ENDBRANCH   2   3
ENDBRANCH   1   2
BRANCH   1  18
ATOM     18  C   UNL     1      25.637  -1.008  37.151  1.00  0.00     0.000 C 
BRANCH  18  19
ATOM     19  C   UNL     1      24.314  -1.302  36.412  1.00  0.00     0.000 C 
BRANCH  19  20
ATOM     20  C   UNL     1      23.995  -2.804  36.289  1.00  0.00     0.000 C 
BRANCH  20  21
ATOM     21  C   UNL     1      22.633  -3.225  36.871  1.00  0.00     0.000 C 
BRANCH  21  22
ATOM     22  C   UNL     1      22.200  -4.623  36.397  1.00  0.00     0.000 C 
BRANCH  22  23
ATOM     23  C   UNL     1      22.637  -4.930  34.954  1.00  0.00     0.000 C 
BRANCH  23  24
ATOM     24  C   UNL     1      23.501  -6.196  34.787  1.00  0.00    -0.000 C 
BRANCH  24  25
ATOM     25  C   UNL     1      24.782  -5.972  33.955  1.00  0.00    -0.000 C 
BRANCH  25  26
ATOM     26  C   UNL     1      26.053  -6.314  34.747  1.00  0.00    -0.000 C 
BRANCH  26  27
ATOM     27  C   UNL     1      25.917  -5.906  36.220  1.00  0.00    -0.000 C 
BRANCH  27  28
ATOM     28  C   UNL     1      27.292  -5.867  36.905  1.00  0.00    -0.000 C 
BRANCH  28  29
ATOM     29  C   UNL     1      28.214  -4.786  36.322  1.00  0.00    -0.000 C 
BRANCH  29  30
ATOM     30  C   UNL     1      28.452  -3.617  37.293  1.00  0.00    -0.000 C 
BRANCH  30  31
ATOM     31  C   UNL     1      29.858  -3.015  37.158  1.00  0.00    -0.003 C 
ATOM     32  C   UNL     1      30.360  -3.001  35.714  1.00  0.00     0.004 C 
ENDBRANCH  30  31
ENDBRANCH  29  30
ENDBRANCH  28  29
ENDBRANCH  27  28
ENDBRANCH  26  27
ENDBRANCH  25  26
ENDBRANCH  24  25
ENDBRANCH  23  24
ENDBRANCH  22  23
ENDBRANCH  21  22
ENDBRANCH  20  21
ENDBRANCH  19  20
ENDBRANCH  18  19
ENDBRANCH   1  18
TORSDOF 28
ENDMDL
MODEL 5
REMARK VINA RESULT:    -4.754      4.087      9.348
REMARK INTER + INTRA:         -15.528
REMARK INTER:                 -12.065
REMARK INTRA:                  -3.463
REMARK UNBOUND:                -2.992
REMARK SMILES CCCCCCCCCCCCCCCCCCCCCCCCCCCCCC(=O)[O-]
REMARK SMILES IDX 16 1 17 2 18 3 19 4 20 5 21 6 22 7 23 8 24 9 25 10 26 11
REMARK SMILES IDX 27 12 28 13 29 14 30 15 31 16 32 17 15 18 14 19 13 20 12 21
REMARK SMILES IDX 11 22 10 23 9 24 8 25 7 26 6 27 5 28 4 29 3 30 2 31 1 32
REMARK H PARENT
REMARK Flexibility Score: inf
ROOT
ATOM      1  C   UNL     1      28.242  -2.182  44.506  1.00  0.00     0.000 C 
ENDROOT
BRANCH   1   2
ATOM      2  C   UNL     1      27.082  -2.082  43.502  1.00  0.00     0.000 C 
BRANCH   2   3
ATOM      3  C   UNL     1      26.929  -0.665  42.924  1.00  0.00     0.000 C 
BRANCH   3   4
ATOM      4  C   UNL     1      26.269   0.321  43.906  1.00  0.00     0.000 C 
BRANCH   4   5
ATOM      5  C   UNL     1      26.378   1.808  43.516  1.00  0.00     0.000 C 
BRANCH   5   6
ATOM      6  C   UNL     1      25.391   2.296  42.436  1.00  0.00     0.000 C 
BRANCH   6   7
ATOM      7  C   UNL     1      25.911   3.469  41.579  1.00  0.00     0.000 C 
BRANCH   7   8
ATOM      8  C   UNL     1      26.542   3.010  40.252  1.00  0.00     0.000 C 
BRANCH   8   9
ATOM      9  C   UNL     1      25.563   2.204  39.382  1.00  0.00     0.000 C 
BRANCH   9  10
ATOM     10  C   UNL     1      26.075   0.785  39.089  1.00  0.00     0.000 C 
BRANCH  10  11
ATOM     11  C   UNL     1      27.609   0.755  39.028  1.00  0.00     0.000 C 
BRANCH  11  12
ATOM     12  C   UNL     1      28.193  -0.485  39.739  1.00  0.00     0.000 C 
BRANCH  12  13
ATOM     13  C   UNL     1      29.224  -1.254  38.895  1.00  0.00     0.006 C 
BRANCH  13  14
ATOM     14  C   UNL     1      28.772  -2.676  38.543  1.00  0.00     0.053 C 
BRANCH  14  15
ATOM     15  C   UNL     1      29.375  -3.110  37.244  1.00  0.00     0.041 C 
ATOM     16  O   UNL     1      28.639  -3.329  36.245  1.00  0.00    -0.550 OA
ATOM     17  O   UNL     1      30.745  -3.322  37.149  1.00  0.00    -0.550 OA
ENDBRANCH  14  15
ENDBRANCH  13  14
ENDBRANCH  12  13
ENDBRANCH  11  12
ENDBRANCH  10  11
ENDBRANCH   9  10
ENDBRANCH   8   9
ENDBRANCH   7   8
ENDBRANCH   6   7
ENDBRANCH   5   6
ENDBRANCH   4   5
ENDBRANCH   3   4
ENDBRANCH   2   3
ENDBRANCH   1   2
BRANCH   1  18
ATOM     18  C   UNL     1      27.891  -3.066  45.718  1.00  0.00     0.000 C 
BRANCH  18  19
ATOM     19  C   UNL     1      29.092  -3.900  46.210  1.00  0.00     0.000 C 
BRANCH  19  20
ATOM     20  C   UNL     1      28.762  -5.389  46.429  1.00  0.00     0.000 C 
BRANCH  20  21
ATOM     21  C   UNL     1      29.105  -6.307  45.243  1.00  0.00     0.000 C 
BRANCH  21  22
ATOM     22  C   UNL     1      27.868  -7.037  44.688  1.00  0.00     0.000 C 
BRANCH  22  23
ATOM     23  C   UNL     1      26.947  -6.117  43.867  1.00  0.00     0.000 C 
BRANCH  23  24
ATOM     24  C   UNL     1      25.569  -5.838  44.498  1.00  0.00    -0.000 C 
BRANCH  24  25
ATOM     25  C   UNL     1      25.014  -7.014  45.330  1.00  0.00    -0.000 C 
BRANCH  25  26
ATOM     26  C   UNL     1      24.598  -6.577  46.744  1.00  0.00    -0.000 C 
BRANCH  26  27
ATOM     27  C   UNL     1      25.377  -5.335  47.195  1.00  0.00    -0.000 C 
BRANCH  27  28
ATOM     28  C   UNL     1      25.647  -5.379  48.706  1.00  0.00    -0.000 C 
BRANCH  28  29
ATOM     29  C   UNL     1      24.771  -6.409  49.435  1.00  0.00    -0.000 C 
BRANCH  29  30
ATOM     30  C   UNL     1      23.937  -5.789  50.570  1.00  0.00    -0.000 C 
BRANCH  30  31
ATOM     31  C   UNL     1      22.805  -4.893  50.048  1.00  0.00    -0.003 C 
ATOM     32  C   UNL     1      21.839  -5.638  49.127  1.00  0.00     0.004 C 
ENDBRANCH  30  31
ENDBRANCH  29  30
ENDBRANCH  28  29
ENDBRANCH  27  28
ENDBRANCH  26  27
ENDBRANCH  25  26
ENDBRANCH  24  25
ENDBRANCH  23  24
ENDBRANCH  22  23
ENDBRANCH  21  22
ENDBRANCH  20  21
ENDBRANCH  19  20
ENDBRANCH  18  19
ENDBRANCH   1  18
TORSDOF 28
ENDMDL
MODEL 6
REMARK VINA RESULT:    -4.734      1.727      4.399
REMARK INTER + INTRA:         -15.475
REMARK INTER:                 -13.038
REMARK INTRA:                  -2.437
REMARK UNBOUND:                -2.992
REMARK SMILES CCCCCCCCCCCCCCCCCCCCCCCCCCCCCC(=O)[O-]
REMARK SMILES IDX 16 1 17 2 18 3 19 4 20 5 21 6 22 7 23 8 24 9 25 10 26 11
REMARK SMILES IDX 27 12 28 13 29 14 30 15 31 16 32 17 15 18 14 19 13 20 12 21
REMARK SMILES IDX 11 22 10 23 9 24 8 25 7 26 6 27 5 28 4 29 3 30 2 31 1 32
REMARK H PARENT
REMARK Flexibility Score: inf
ROOT
ATOM      1  C   UNL     1      26.593   1.746  39.714  1.00  0.00     0.000 C 
ENDROOT
BRANCH   1   2
ATOM      2  C   UNL     1      25.156   2.269  39.868  1.00  0.00     0.000 C 
BRANCH   2   3
ATOM      3  C   UNL     1      24.961   3.070  41.167  1.00  0.00     0.000 C 
BRANCH   3   4
ATOM      4  C   UNL     1      25.976   2.699  42.265  1.00  0.00     0.000 C 
BRANCH   4   5
ATOM      5  C   UNL     1      25.443   1.757  43.362  1.00  0.00     0.000 C 
BRANCH   5   6
ATOM      6  C   UNL     1      26.439   0.705  43.889  1.00  0.00     0.000 C 
BRANCH   6   7
ATOM      7  C   UNL     1      26.481  -0.603  43.070  1.00  0.00     0.000 C 
BRANCH   7   8
ATOM      8  C   UNL     1      27.656  -1.518  43.459  1.00  0.00     0.000 C 
BRANCH   8   9
ATOM      9  C   UNL     1      27.211  -2.964  43.734  1.00  0.00     0.000 C 
BRANCH   9  10
ATOM     10  C   UNL     1      28.125  -3.673  44.746  1.00  0.00     0.000 C 
BRANCH  10  11
ATOM     11  C   UNL     1      27.445  -3.784  46.119  1.00  0.00     0.000 C 
BRANCH  11  12
ATOM     12  C   UNL     1      27.265  -5.251  46.560  1.00  0.00     0.000 C 
BRANCH  12  13
ATOM     13  C   UNL     1      26.128  -5.458  47.574  1.00  0.00     0.006 C 
BRANCH  13  14
ATOM     14  C   UNL     1      24.835  -5.975  46.931  1.00  0.00     0.053 C 
BRANCH  14  15
ATOM     15  C   UNL     1      23.767  -6.141  47.966  1.00  0.00     0.041 C 
ATOM     16  O   UNL     1      22.682  -6.709  47.672  1.00  0.00    -0.550 OA
ATOM     17  O   UNL     1      23.948  -5.622  49.242  1.00  0.00    -0.550 OA
ENDBRANCH  14  15
ENDBRANCH  13  14
ENDBRANCH  12  13
ENDBRANCH  11  12
ENDBRANCH  10  11
ENDBRANCH   9  10
ENDBRANCH   8   9
ENDBRANCH   7   8
ENDBRANCH   6   7
ENDBRANCH   5   6
ENDBRANCH   4   5
ENDBRANCH   3   4
ENDBRANCH   2   3
ENDBRANCH   1   2
BRANCH   1  18
ATOM     18  C   UNL     1      26.647   0.393  38.979  1.00  0.00     0.000 C 
BRANCH  18  19
ATOM     19  C   UNL     1      25.712   0.349  37.752  1.00  0.00     0.000 C 
BRANCH  19  20
ATOM     20  C   UNL     1      25.571  -1.055  37.133  1.00  0.00     0.000 C 
BRANCH  20  21
ATOM     21  C   UNL     1      24.253  -1.298  36.376  1.00  0.00     0.000 C 
BRANCH  21  22
ATOM     22  C   UNL     1      23.955  -2.795  36.183  1.00  0.00     0.000 C 
BRANCH  22  23
ATOM     23  C   UNL     1      22.597  -3.218  36.772  1.00  0.00     0.000 C 
BRANCH  23  24
ATOM     24  C   UNL     1      22.022  -4.534  36.214  1.00  0.00    -0.000 C 
BRANCH  24  25
ATOM     25  C   UNL     1      23.087  -5.623  35.963  1.00  0.00    -0.000 C 
BRANCH  25  26
ATOM     26  C   UNL     1      23.093  -6.101  34.502  1.00  0.00    -0.000 C 
BRANCH  26  27
ATOM     27  C   UNL     1      24.486  -6.584  34.080  1.00  0.00    -0.000 C 
BRANCH  27  28
ATOM     28  C   UNL     1      25.509  -5.441  34.163  1.00  0.00    -0.000 C 
BRANCH  28  29
ATOM     29  C   UNL     1      26.731  -5.801  35.021  1.00  0.00    -0.000 C 
BRANCH  29  30
ATOM     30  C   UNL     1      26.697  -5.147  36.413  1.00  0.00    -0.000 C 
BRANCH  30  31
ATOM     31  C   UNL     1      27.867  -4.179  36.638  1.00  0.00    -0.003 C 
ATOM     32  C   UNL     1      28.078  -3.223  35.465  1.00  0.00     0.004 C 
ENDBRANCH  30  31
ENDBRANCH  29  30
ENDBRANCH  28  29
ENDBRANCH  27  28
ENDBRANCH  26  27
ENDBRANCH  25  26
ENDBRANCH  24  25
ENDBRANCH  23  24
ENDBRANCH  22  23
ENDBRANCH  21  22
ENDBRANCH  20  21
ENDBRANCH  19  20
ENDBRANCH  18  19
ENDBRANCH   1  18
TORSDOF 28
ENDMDL
MODEL 7
REMARK VINA RESULT:    -4.722      1.148      4.696
REMARK INTER + INTRA:         -15.445
REMARK INTER:                 -12.281
REMARK INTRA:                  -3.163
REMARK UNBOUND:                -2.992
REMARK SMILES CCCCCCCCCCCCCCCCCCCCCCCCCCCCCC(=O)[O-]
REMARK SMILES IDX 16 1 17 2 18 3 19 4 20 5 21 6 22 7 23 8 24 9 25 10 26 11
REMARK SMILES IDX 27 12 28 13 29 14 30 15 31 16 32 17 15 18 14 19 13 20 12 21
REMARK SMILES IDX 11 22 10 23 9 24 8 25 7 26 6 27 5 28 4 29 3 30 2 31 1 32
REMARK H PARENT
REMARK Flexibility Score: inf
ROOT
ATOM      1  C   UNL     1      27.677   0.644  38.998  1.00  0.00     0.000 C 
ENDROOT
BRANCH   1   2
ATOM      2  C   UNL     1      26.140   0.688  39.046  1.00  0.00     0.000 C 
BRANCH   2   3
ATOM      3  C   UNL     1      25.605   2.100  39.338  1.00  0.00     0.000 C 
BRANCH   3   4
ATOM      4  C   UNL     1      26.376   2.819  40.461  1.00  0.00     0.000 C 
BRANCH   4   5
ATOM      5  C   UNL     1      25.592   3.018  41.773  1.00  0.00     0.000 C 
BRANCH   5   6
ATOM      6  C   UNL     1      26.250   2.443  43.044  1.00  0.00     0.000 C 
BRANCH   6   7
ATOM      7  C   UNL     1      25.402   1.383  43.779  1.00  0.00     0.000 C 
BRANCH   7   8
ATOM      8  C   UNL     1      25.801  -0.060  43.418  1.00  0.00     0.000 C 
BRANCH   8   9
ATOM      9  C   UNL     1      27.197  -0.434  43.942  1.00  0.00     0.000 C 
BRANCH   9  10
ATOM     10  C   UNL     1      27.867  -1.524  43.091  1.00  0.00     0.000 C 
BRANCH  10  11
ATOM     11  C   UNL     1      27.568  -2.922  43.651  1.00  0.00     0.000 C 
BRANCH  11  12
ATOM     12  C   UNL     1      28.196  -3.134  45.044  1.00  0.00     0.000 C 
BRANCH  12  13
ATOM     13  C   UNL     1      27.221  -3.721  46.080  1.00  0.00     0.006 C 
BRANCH  13  14
ATOM     14  C   UNL     1      27.052  -5.240  45.954  1.00  0.00     0.053 C 
BRANCH  14  15
ATOM     15  C   UNL     1      25.636  -5.580  45.610  1.00  0.00     0.041 C 
ATOM     16  O   UNL     1      25.149  -5.226  44.504  1.00  0.00    -0.550 OA
ATOM     17  O   UNL     1      24.836  -6.245  46.531  1.00  0.00    -0.550 OA
ENDBRANCH  14  15
ENDBRANCH  13  14
ENDBRANCH  12  13
ENDBRANCH  11  12
ENDBRANCH  10  11
ENDBRANCH   9  10
ENDBRANCH   8   9
ENDBRANCH   7   8
ENDBRANCH   6   7
ENDBRANCH   5   6
ENDBRANCH   4   5
ENDBRANCH   3   4
ENDBRANCH   2   3
ENDBRANCH   1   2
BRANCH   1  18
ATOM     18  C   UNL     1      28.244  -0.643  39.628  1.00  0.00     0.000 C 
BRANCH  18  19
ATOM     19  C   UNL     1      28.990  -1.524  38.603  1.00  0.00     0.000 C 
BRANCH  19  20
ATOM     20  C   UNL     1      28.986  -3.023  38.961  1.00  0.00     0.000 C 
BRANCH  20  21
ATOM     21  C   UNL     1      29.182  -3.972  37.765  1.00  0.00     0.000 C 
BRANCH  21  22
ATOM     22  C   UNL     1      29.212  -3.223  36.421  1.00  0.00     0.000 C 
BRANCH  22  23
ATOM     23  C   UNL     1      27.973  -3.500  35.551  1.00  0.00     0.000 C 
BRANCH  23  24
ATOM     24  C   UNL     1      26.655  -3.687  36.328  1.00  0.00    -0.000 C 
BRANCH  24  25
ATOM     25  C   UNL     1      25.796  -2.407  36.417  1.00  0.00    -0.000 C 
BRANCH  25  26
ATOM     26  C   UNL     1      24.489  -2.532  35.620  1.00  0.00    -0.000 C 
BRANCH  26  27
ATOM     27  C   UNL     1      23.269  -2.555  36.550  1.00  0.00    -0.000 C 
BRANCH  27  28
ATOM     28  C   UNL     1      22.650  -3.960  36.605  1.00  0.00    -0.000 C 
BRANCH  28  29
ATOM     29  C   UNL     1      22.260  -4.488  35.216  1.00  0.00    -0.000 C 
BRANCH  29  30
ATOM     30  C   UNL     1      22.724  -5.935  34.976  1.00  0.00    -0.000 C 
BRANCH  30  31
ATOM     31  C   UNL     1      24.239  -6.106  35.158  1.00  0.00    -0.003 C 
ATOM     32  C   UNL     1      25.015  -5.927  33.853  1.00  0.00     0.004 C 
ENDBRANCH  30  31
ENDBRANCH  29  30
ENDBRANCH  28  29
ENDBRANCH  27  28
ENDBRANCH  26  27
ENDBRANCH  25  26
ENDBRANCH  24  25
ENDBRANCH  23  24
ENDBRANCH  22  23
ENDBRANCH  21  22
ENDBRANCH  20  21
ENDBRANCH  19  20
ENDBRANCH  18  19
ENDBRANCH   1  18
TORSDOF 28
ENDMDL
MODEL 8
REMARK VINA RESULT:    -4.714      1.165      4.180
REMARK INTER + INTRA:         -15.423
REMARK INTER:                 -11.940
REMARK INTRA:                  -3.483
REMARK UNBOUND:                -2.992
REMARK SMILES CCCCCCCCCCCCCCCCCCCCCCCCCCCCCC(=O)[O-]
REMARK SMILES IDX 16 1 17 2 18 3 19 4 20 5 21 6 22 7 23 8 24 9 25 10 26 11
REMARK SMILES IDX 27 12 28 13 29 14 30 15 31 16 32 17 15 18 14 19 13 20 12 21
REMARK SMILES IDX 11 22 10 23 9 24 8 25 7 26 6 27 5 28 4 29 3 30 2 31 1 32
REMARK H PARENT
REMARK Flexibility Score: inf
ROOT
ATOM      1  C   UNL     1      28.517  -0.754  39.542  1.00  0.00     0.000 C 
ENDROOT
BRANCH   1   2
ATOM      2  C   UNL     1      27.906   0.643  39.342  1.00  0.00     0.000 C 
BRANCH   2   3
ATOM      3  C   UNL     1      26.405   0.582  39.012  1.00  0.00     0.000 C 
BRANCH   3   4
ATOM      4  C   UNL     1      25.687   1.931  39.207  1.00  0.00     0.000 C 
BRANCH   4   5
ATOM      5  C   UNL     1      26.274   2.833  40.309  1.00  0.00     0.000 C 
BRANCH   5   6
ATOM      6  C   UNL     1      25.523   2.826  41.657  1.00  0.00     0.000 C 
BRANCH   6   7
ATOM      7  C   UNL     1      26.431   2.658  42.894  1.00  0.00     0.000 C 
BRANCH   7   8
ATOM      8  C   UNL     1      26.184   1.338  43.646  1.00  0.00     0.000 C 
BRANCH   8   9
ATOM      9  C   UNL     1      26.188   0.118  42.710  1.00  0.00     0.000 C 
BRANCH   9  10
ATOM     10  C   UNL     1      26.481  -1.191  43.460  1.00  0.00     0.000 C 
BRANCH  10  11
ATOM     11  C   UNL     1      27.985  -1.502  43.457  1.00  0.00     0.000 C 
BRANCH  11  12
ATOM     12  C   UNL     1      28.524  -1.769  44.878  1.00  0.00     0.000 C 
BRANCH  12  13
ATOM     13  C   UNL     1      27.972  -3.054  45.519  1.00  0.00     0.006 C 
BRANCH  13  14
ATOM     14  C   UNL     1      28.232  -4.307  44.673  1.00  0.00     0.053 C 
BRANCH  14  15
ATOM     15  C   UNL     1      26.938  -4.948  44.280  1.00  0.00     0.041 C 
ATOM     16  O   UNL     1      25.899  -4.752  44.965  1.00  0.00    -0.550 OA
ATOM     17  O   UNL     1      26.889  -5.804  43.187  1.00  0.00    -0.550 OA
ENDBRANCH  14  15
ENDBRANCH  13  14
ENDBRANCH  12  13
ENDBRANCH  11  12
ENDBRANCH  10  11
ENDBRANCH   9  10
ENDBRANCH   8   9
ENDBRANCH   7   8
ENDBRANCH   6   7
ENDBRANCH   5   6
ENDBRANCH   4   5
ENDBRANCH   3   4
ENDBRANCH   2   3
ENDBRANCH   1   2
BRANCH   1  18
ATOM     18  C   UNL     1      28.252  -1.684  38.343  1.00  0.00     0.000 C 
BRANCH  18  19
ATOM     19  C   UNL     1      28.987  -3.036  38.468  1.00  0.00     0.000 C 
BRANCH  19  20
ATOM     20  C   UNL     1      29.578  -3.543  37.139  1.00  0.00     0.000 C 
BRANCH  20  21
ATOM     21  C   UNL     1      30.157  -4.968  37.192  1.00  0.00     0.000 C 
BRANCH  21  22
ATOM     22  C   UNL     1      29.182  -6.020  36.633  1.00  0.00     0.000 C 
BRANCH  22  23
ATOM     23  C   UNL     1      28.314  -5.481  35.481  1.00  0.00     0.000 C 
BRANCH  23  24
ATOM     24  C   UNL     1      26.923  -6.133  35.350  1.00  0.00    -0.000 C 
BRANCH  24  25
ATOM     25  C   UNL     1      26.279  -6.507  36.702  1.00  0.00    -0.000 C 
BRANCH  25  26
ATOM     26  C   UNL     1      24.847  -7.037  36.534  1.00  0.00    -0.000 C 
BRANCH  26  27
ATOM     27  C   UNL     1      24.247  -6.603  35.190  1.00  0.00    -0.000 C 
BRANCH  27  28
ATOM     28  C   UNL     1      22.816  -6.077  35.376  1.00  0.00    -0.000 C 
BRANCH  28  29
ATOM     29  C   UNL     1      22.673  -4.598  34.987  1.00  0.00    -0.000 C 
BRANCH  29  30
ATOM     30  C   UNL     1      24.024  -3.929  34.677  1.00  0.00    -0.000 C 
BRANCH  30  31
ATOM     31  C   UNL     1      24.295  -2.708  35.568  1.00  0.00    -0.003 C 
ATOM     32  C   UNL     1      25.568  -2.856  36.401  1.00  0.00     0.004 C 
ENDBRANCH  30  31
ENDBRANCH  29  30
ENDBRANCH  28  29
ENDBRANCH  27  28
ENDBRANCH  26  27
ENDBRANCH  25  26
ENDBRANCH  24  25
ENDBRANCH  23  24
ENDBRANCH  22  23
ENDBRANCH  21  22
ENDBRANCH  20  21
ENDBRANCH  19  20
ENDBRANCH  18  19
ENDBRANCH   1  18
TORSDOF 28
ENDMDL
MODEL 9
REMARK VINA RESULT:    -4.705      2.493      6.457
REMARK INTER + INTRA:         -15.399
REMARK INTER:                 -13.100
REMARK INTRA:                  -2.298
REMARK UNBOUND:                -2.992
REMARK SMILES CCCCCCCCCCCCCCCCCCCCCCCCCCCCCC(=O)[O-]
REMARK SMILES IDX 16 1 17 2 18 3 19 4 20 5 21 6 22 7 23 8 24 9 25 10 26 11
REMARK SMILES IDX 27 12 28 13 29 14 30 15 31 16 32 17 15 18 14 19 13 20 12 21
REMARK SMILES IDX 11 22 10 23 9 24 8 25 7 26 6 27 5 28 4 29 3 30 2 31 1 32
REMARK H PARENT
REMARK Flexibility Score: inf
ROOT
ATOM      1  C   UNL     1      25.513   2.544  41.921  1.00  0.00     0.000 C 
ENDROOT
BRANCH   1   2
ATOM      2  C   UNL     1      26.223   2.311  43.265  1.00  0.00     0.000 C 
BRANCH   2   3
ATOM      3  C   UNL     1      25.865   0.949  43.886  1.00  0.00     0.000 C 
BRANCH   3   4
ATOM      4  C   UNL     1      26.398  -0.245  43.074  1.00  0.00     0.000 C 
BRANCH   4   5
ATOM      5  C   UNL     1      27.445  -1.115  43.796  1.00  0.00     0.000 C 
BRANCH   5   6
ATOM      6  C   UNL     1      27.731  -2.492  43.162  1.00  0.00     0.000 C 
BRANCH   6   7
ATOM      7  C   UNL     1      27.045  -3.678  43.873  1.00  0.00     0.000 C 
BRANCH   7   8
ATOM      8  C   UNL     1      28.036  -4.774  44.304  1.00  0.00     0.000 C 
BRANCH   8   9
ATOM      9  C   UNL     1      28.160  -4.889  45.833  1.00  0.00     0.000 C 
BRANCH   9  10
ATOM     10  C   UNL     1      26.878  -4.446  46.556  1.00  0.00     0.000 C 
BRANCH  10  11
ATOM     11  C   UNL     1      26.274  -5.603  47.365  1.00  0.00     0.000 C 
BRANCH  11  12
ATOM     12  C   UNL     1      24.852  -5.963  46.888  1.00  0.00     0.000 C 
BRANCH  12  13
ATOM     13  C   UNL     1      23.892  -6.337  48.031  1.00  0.00     0.006 C 
BRANCH  13  14
ATOM     14  C   UNL     1      24.303  -5.739  49.381  1.00  0.00     0.053 C 
BRANCH  14  15
ATOM     15  C   UNL     1      23.092  -5.366  50.178  1.00  0.00     0.041 C 
ATOM     16  O   UNL     1      22.497  -6.234  50.870  1.00  0.00    -0.550 OA
ATOM     17  O   UNL     1      22.590  -4.072  50.117  1.00  0.00    -0.550 OA
ENDBRANCH  14  15
ENDBRANCH  13  14
ENDBRANCH  12  13
ENDBRANCH  11  12
ENDBRANCH  10  11
ENDBRANCH   9  10
ENDBRANCH   8   9
ENDBRANCH   7   8
ENDBRANCH   6   7
ENDBRANCH   5   6
ENDBRANCH   4   5
ENDBRANCH   3   4
ENDBRANCH   2   3
ENDBRANCH   1   2
BRANCH   1  18
ATOM     18  C   UNL     1      26.368   3.378  40.947  1.00  0.00     0.000 C 
BRANCH  18  19
ATOM     19  C   UNL     1      26.670   2.627  39.633  1.00  0.00     0.000 C 
BRANCH  19  20
ATOM     20  C   UNL     1      25.712   1.451  39.360  1.00  0.00     0.000 C 
BRANCH  20  21
ATOM     21  C   UNL     1      25.585   1.054  37.878  1.00  0.00     0.000 C 
BRANCH  21  22
ATOM     22  C   UNL     1      25.713  -0.465  37.665  1.00  0.00     0.000 C 
BRANCH  22  23
ATOM     23  C   UNL     1      24.593  -1.044  36.781  1.00  0.00     0.000 C 
BRANCH  23  24
ATOM     24  C   UNL     1      25.011  -2.224  35.884  1.00  0.00    -0.000 C 
BRANCH  24  25
ATOM     25  C   UNL     1      26.189  -3.049  36.446  1.00  0.00    -0.000 C 
BRANCH  25  26
ATOM     26  C   UNL     1      26.481  -4.295  35.596  1.00  0.00    -0.000 C 
BRANCH  26  27
ATOM     27  C   UNL     1      26.200  -5.583  36.381  1.00  0.00    -0.000 C 
BRANCH  27  28
ATOM     28  C   UNL     1      25.275  -6.516  35.586  1.00  0.00    -0.000 C 
BRANCH  28  29
ATOM     29  C   UNL     1      24.468  -5.774  34.510  1.00  0.00    -0.000 C 
BRANCH  29  30
ATOM     30  C   UNL     1      22.948  -5.897  34.712  1.00  0.00    -0.000 C 
BRANCH  30  31
ATOM     31  C   UNL     1      22.317  -4.600  35.238  1.00  0.00    -0.003 C 
ATOM     32  C   UNL     1      22.215  -4.567  36.762  1.00  0.00     0.004 C 
ENDBRANCH  30  31
ENDBRANCH  29  30
ENDBRANCH  28  29
ENDBRANCH  27  28
ENDBRANCH  26  27
ENDBRANCH  25  26
ENDBRANCH  24  25
ENDBRANCH  23  24
ENDBRANCH  22  23
ENDBRANCH  21  22
ENDBRANCH  20  21
ENDBRANCH  19  20
ENDBRANCH  18  19
ENDBRANCH   1  18
TORSDOF 28
ENDMDL
