MODEL 1
REMARK VINA RESULT:    -4.261      0.000      0.000
REMARK INTER + INTRA:         -12.188
REMARK INTER:                  -9.243
REMARK INTRA:                  -2.945
REMARK UNBOUND:                -2.945
REMARK SMILES CCCCCCCCCCCCCCCCCCCCCC(=O)[O-]
REMARK SMILES IDX 12 1 11 2 10 3 9 4 8 5 7 6 6 7 5 8 4 9 3 10 2 11 1 12 13 13
REMARK SMILES IDX 14 14 15 15 16 16 17 17 18 18 19 19 20 20 21 21 22 22 23 23
REMARK SMILES IDX 24 24
REMARK H PARENT
REMARK Flexibility Score: inf
ROOT
ATOM      1  C   UNL     1       4.783  -0.432  -4.029  1.00  0.00     0.000 C 
ENDROOT
BRANCH   1   2
ATOM      2  C   UNL     1       5.493   0.426  -2.971  1.00  0.00     0.000 C 
BRANCH   2   3
ATOM      3  C   UNL     1       5.571   1.891  -3.413  1.00  0.00     0.000 C 
BRANCH   3   4
ATOM      4  C   UNL     1       6.908   2.185  -4.113  1.00  0.00    -0.000 C 
BRANCH   4   5
ATOM      5  C   UNL     1       6.764   3.187  -5.269  1.00  0.00    -0.000 C 
BRANCH   5   6
ATOM      6  C   UNL     1       7.340   4.572  -4.923  1.00  0.00    -0.000 C 
BRANCH   6   7
ATOM      7  C   UNL     1       6.463   5.724  -5.441  1.00  0.00    -0.000 C 
BRANCH   7   8
ATOM      8  C   UNL     1       4.960   5.450  -5.265  1.00  0.00    -0.000 C 
BRANCH   8   9
ATOM      9  C   UNL     1       4.520   5.465  -3.790  1.00  0.00    -0.000 C 
BRANCH   9  10
ATOM     10  C   UNL     1       3.483   6.547  -3.424  1.00  0.00    -0.000 C 
BRANCH  10  11
ATOM     11  C   UNL     1       2.522   6.937  -4.561  1.00  0.00    -0.003 C 
ATOM     12  C   UNL     1       1.564   8.061  -4.171  1.00  0.00     0.004 C 
ENDBRANCH  10  11
ENDBRANCH   9  10
ENDBRANCH   8   9
ENDBRANCH   7   8
ENDBRANCH   6   7
ENDBRANCH   5   6
ENDBRANCH   4   5
ENDBRANCH   3   4
ENDBRANCH   2   3
ENDBRANCH   1   2
BRANCH   1  13
ATOM     13  C   UNL     1       5.714  -0.859  -5.177  1.00  0.00     0.000 C 
BRANCH  13  14
ATOM     14  C   UNL     1       5.414  -0.205  -6.542  1.00  0.00     0.000 C 
BRANCH  14  15
ATOM     15  C   UNL     1       3.964   0.283  -6.728  1.00  0.00     0.000 C 
BRANCH  15  16
ATOM     16  C   UNL     1       3.806   1.807  -6.872  1.00  0.00     0.000 C 
BRANCH  16  17
ATOM     17  C   UNL     1       2.965   2.454  -5.750  1.00  0.00     0.000 C 
BRANCH  17  18
ATOM     18  C   UNL     1       1.517   1.941  -5.728  1.00  0.00     0.000 C 
BRANCH  18  19
ATOM     19  C   UNL     1       1.201   1.242  -4.400  1.00  0.00     0.000 C 
BRANCH  19  20
ATOM     20  C   UNL     1      -0.155   0.523  -4.467  1.00  0.00     0.006 C 
BRANCH  20  21
ATOM     21  C   UNL     1      -0.061  -0.936  -4.004  1.00  0.00     0.053 C 
BRANCH  21  22
ATOM     22  C   UNL     1       1.012  -1.683  -4.738  1.00  0.00     0.041 C 
ATOM     23  O   UNL     1       1.921  -2.276  -4.101  1.00  0.00    -0.550 OA
ATOM     24  O   UNL     1       0.986  -1.752  -6.125  1.00  0.00    -0.550 OA
ENDBRANCH  21  22
ENDBRANCH  20  21
ENDBRANCH  19  20
ENDBRANCH  18  19
ENDBRANCH  17  18
ENDBRANCH  16  17
ENDBRANCH  15  16
ENDBRANCH  14  15
ENDBRANCH  13  14
ENDBRANCH   1  13
TORSDOF 20
ENDMDL
MODEL 2
REMARK VINA RESULT:    -4.228      1.230      2.475
REMARK INTER + INTRA:         -12.116
REMARK INTER:                  -8.486
REMARK INTRA:                  -3.630
REMARK UNBOUND:                -2.945
REMARK SMILES CCCCCCCCCCCCCCCCCCCCCC(=O)[O-]
REMARK SMILES IDX 12 1 11 2 10 3 9 4 8 5 7 6 6 7 5 8 4 9 3 10 2 11 1 12 13 13
REMARK SMILES IDX 14 14 15 15 16 16 17 17 18 18 19 19 20 20 21 21 22 22 23 23
REMARK SMILES IDX 24 24
REMARK H PARENT
REMARK Flexibility Score: inf
ROOT
ATOM      1  C   UNL     1       6.131  -0.876  -5.270  1.00  0.00     0.000 C 
ENDROOT
BRANCH   1   2
ATOM      2  C   UNL     1       5.563  -0.214  -6.535  1.00  0.00     0.000 C 
BRANCH   2   3
ATOM      3  C   UNL     1       6.447   0.954  -6.987  1.00  0.00     0.000 C 
BRANCH   3   4
ATOM      4  C   UNL     1       7.914   0.718  -6.598  1.00  0.00    -0.000 C 
BRANCH   4   5
ATOM      5  C   UNL     1       8.589   1.978  -6.032  1.00  0.00    -0.000 C 
BRANCH   5   6
ATOM      6  C   UNL     1       7.648   3.196  -6.023  1.00  0.00    -0.000 C 
BRANCH   6   7
ATOM      7  C   UNL     1       7.999   4.207  -4.920  1.00  0.00    -0.000 C 
BRANCH   7   8
ATOM      8  C   UNL     1       6.902   5.266  -4.716  1.00  0.00    -0.000 C 
BRANCH   8   9
ATOM      9  C   UNL     1       5.903   5.323  -5.885  1.00  0.00    -0.000 C 
BRANCH   9  10
ATOM     10  C   UNL     1       4.447   5.649  -5.493  1.00  0.00    -0.000 C 
BRANCH  10  11
ATOM     11  C   UNL     1       4.237   5.998  -4.008  1.00  0.00    -0.003 C 
ATOM     12  C   UNL     1       2.906   6.700  -3.744  1.00  0.00     0.004 C 
ENDBRANCH  10  11
ENDBRANCH   9  10
ENDBRANCH   8   9
ENDBRANCH   7   8
ENDBRANCH   6   7
ENDBRANCH   5   6
ENDBRANCH   4   5
ENDBRANCH   3   4
ENDBRANCH   2   3
ENDBRANCH   1   2
BRANCH   1  13
ATOM     13  C   UNL     1       5.109  -0.948  -4.122  1.00  0.00     0.000 C 
BRANCH  13  14
ATOM     14  C   UNL     1       5.359   0.036  -2.960  1.00  0.00     0.000 C 
BRANCH  14  15
ATOM     15  C   UNL     1       5.793   1.452  -3.385  1.00  0.00     0.000 C 
BRANCH  15  16
ATOM     16  C   UNL     1       4.655   2.486  -3.457  1.00  0.00     0.000 C 
BRANCH  16  17
ATOM     17  C   UNL     1       3.702   2.279  -4.654  1.00  0.00     0.000 C 
BRANCH  17  18
ATOM     18  C   UNL     1       2.311   1.791  -4.223  1.00  0.00     0.000 C 
BRANCH  18  19
ATOM     19  C   UNL     1       1.478   1.359  -5.436  1.00  0.00     0.000 C 
BRANCH  19  20
ATOM     20  C   UNL     1       2.004   0.040  -6.021  1.00  0.00     0.006 C 
BRANCH  20  21
ATOM     21  C   UNL     1       0.993  -1.105  -5.869  1.00  0.00     0.053 C 
BRANCH  21  22
ATOM     22  C   UNL     1       0.978  -1.650  -4.473  1.00  0.00     0.041 C 
ATOM     23  O   UNL     1       1.899  -2.413  -4.080  1.00  0.00    -0.550 OA
ATOM     24  O   UNL     1      -0.037  -1.287  -3.596  1.00  0.00    -0.550 OA
ENDBRANCH  21  22
ENDBRANCH  20  21
ENDBRANCH  19  20
ENDBRANCH  18  19
ENDBRANCH  17  18
ENDBRANCH  16  17
ENDBRANCH  15  16
ENDBRANCH  14  15
ENDBRANCH  13  14
ENDBRANCH   1  13
TORSDOF 20
ENDMDL
MODEL 3
REMARK VINA RESULT:    -3.906      1.355      1.847
REMARK INTER + INTRA:         -11.417
REMARK INTER:                  -8.350
REMARK INTRA:                  -3.067
REMARK UNBOUND:                -2.945
REMARK SMILES CCCCCCCCCCCCCCCCCCCCCC(=O)[O-]
REMARK SMILES IDX 12 1 11 2 10 3 9 4 8 5 7 6 6 7 5 8 4 9 3 10 2 11 1 12 13 13
REMARK SMILES IDX 14 14 15 15 16 16 17 17 18 18 19 19 20 20 21 21 22 22 23 23
REMARK SMILES IDX 24 24
REMARK H PARENT
REMARK Flexibility Score: inf
ROOT
ATOM      1  C   UNL     1       4.914  -0.557  -3.586  1.00  0.00     0.000 C 
ENDROOT
BRANCH   1   2
ATOM      2  C   UNL     1       5.625   0.508  -2.736  1.00  0.00     0.000 C 
BRANCH   2   3
ATOM      3  C   UNL     1       5.590   1.875  -3.427  1.00  0.00     0.000 C 
BRANCH   3   4
ATOM      4  C   UNL     1       6.948   2.204  -4.068  1.00  0.00    -0.000 C 
BRANCH   4   5
ATOM      5  C   UNL     1       6.866   2.337  -5.597  1.00  0.00    -0.000 C 
BRANCH   5   6
ATOM      6  C   UNL     1       7.531   3.626  -6.112  1.00  0.00    -0.000 C 
BRANCH   6   7
ATOM      7  C   UNL     1       7.241   4.841  -5.214  1.00  0.00    -0.000 C 
BRANCH   7   8
ATOM      8  C   UNL     1       6.461   5.946  -5.948  1.00  0.00    -0.000 C 
BRANCH   8   9
ATOM      9  C   UNL     1       5.072   5.482  -6.421  1.00  0.00    -0.000 C 
BRANCH   9  10
ATOM     10  C   UNL     1       3.886   5.977  -5.568  1.00  0.00    -0.000 C 
BRANCH  10  11
ATOM     11  C   UNL     1       4.096   5.879  -4.046  1.00  0.00    -0.003 C 
ATOM     12  C   UNL     1       3.595   4.560  -3.459  1.00  0.00     0.004 C 
ENDBRANCH  10  11
ENDBRANCH   9  10
ENDBRANCH   8   9
ENDBRANCH   7   8
ENDBRANCH   6   7
ENDBRANCH   5   6
ENDBRANCH   4   5
ENDBRANCH   3   4
ENDBRANCH   2   3
ENDBRANCH   1   2
BRANCH   1  13
ATOM     13  C   UNL     1       3.833   0.036  -4.506  1.00  0.00     0.000 C 
BRANCH  13  14
ATOM     14  C   UNL     1       4.139  -0.048  -6.016  1.00  0.00     0.000 C 
BRANCH  14  15
ATOM     15  C   UNL     1       3.284   0.872  -6.908  1.00  0.00     0.000 C 
BRANCH  15  16
ATOM     16  C   UNL     1       3.254   2.349  -6.476  1.00  0.00     0.000 C 
BRANCH  16  17
ATOM     17  C   UNL     1       1.830   2.898  -6.238  1.00  0.00     0.000 C 
BRANCH  17  18
ATOM     18  C   UNL     1       0.737   1.914  -6.679  1.00  0.00     0.000 C 
BRANCH  18  19
ATOM     19  C   UNL     1      -0.256   1.648  -5.542  1.00  0.00     0.000 C 
BRANCH  19  20
ATOM     20  C   UNL     1       0.295   0.601  -4.563  1.00  0.00     0.006 C 
BRANCH  20  21
ATOM     21  C   UNL     1      -0.819  -0.100  -3.775  1.00  0.00     0.053 C 
BRANCH  21  22
ATOM     22  C   UNL     1      -0.304  -1.289  -3.023  1.00  0.00     0.041 C 
ATOM     23  O   UNL     1      -0.804  -1.602  -1.912  1.00  0.00    -0.550 OA
ATOM     24  O   UNL     1       0.708  -2.071  -3.568  1.00  0.00    -0.550 OA
ENDBRANCH  21  22
ENDBRANCH  20  21
ENDBRANCH  19  20
ENDBRANCH  18  19
ENDBRANCH  17  18
ENDBRANCH  16  17
ENDBRANCH  15  16
ENDBRANCH  14  15
ENDBRANCH  13  14
ENDBRANCH   1  13
TORSDOF 20
ENDMDL
MODEL 4
REMARK VINA RESULT:    -3.789      2.738      6.183
REMARK INTER + INTRA:         -11.163
REMARK INTER:                  -8.015
REMARK INTRA:                  -3.148
REMARK UNBOUND:                -2.945
REMARK SMILES CCCCCCCCCCCCCCCCCCCCCC(=O)[O-]
REMARK SMILES IDX 12 1 11 2 10 3 9 4 8 5 7 6 6 7 5 8 4 9 3 10 2 11 1 12 13 13
REMARK SMILES IDX 14 14 15 15 16 16 17 17 18 18 19 19 20 20 21 21 22 22 23 23
REMARK SMILES IDX 24 24
REMARK H PARENT
REMARK Flexibility Score: inf
ROOT
ATOM      1  C   UNL     1       4.611  -0.298  -3.334  1.00  0.00     0.000 C 
ENDROOT
BRANCH   1   2
ATOM      2  C   UNL     1       4.936  -1.259  -4.487  1.00  0.00     0.000 C 
BRANCH   2   3
ATOM      3  C   UNL     1       5.975  -0.649  -5.434  1.00  0.00     0.000 C 
BRANCH   3   4
ATOM      4  C   UNL     1       5.309  -0.113  -6.711  1.00  0.00    -0.000 C 
BRANCH   4   5
ATOM      5  C   UNL     1       3.813   0.181  -6.521  1.00  0.00    -0.000 C 
BRANCH   5   6
ATOM      6  C   UNL     1       3.522   1.686  -6.379  1.00  0.00    -0.000 C 
BRANCH   6   7
ATOM      7  C   UNL     1       2.106   1.968  -5.850  1.00  0.00    -0.000 C 
BRANCH   7   8
ATOM      8  C   UNL     1       1.803   1.218  -4.541  1.00  0.00    -0.000 C 
BRANCH   8   9
ATOM      9  C   UNL     1       0.300   0.956  -4.337  1.00  0.00    -0.000 C 
BRANCH   9  10
ATOM     10  C   UNL     1      -0.119  -0.529  -4.360  1.00  0.00    -0.000 C 
BRANCH  10  11
ATOM     11  C   UNL     1       0.873  -1.473  -5.064  1.00  0.00    -0.003 C 
ATOM     12  C   UNL     1       1.440  -2.543  -4.132  1.00  0.00     0.004 C 
ENDBRANCH  10  11
ENDBRANCH   9  10
ENDBRANCH   8   9
ENDBRANCH   7   8
ENDBRANCH   6   7
ENDBRANCH   5   6
ENDBRANCH   4   5
ENDBRANCH   3   4
ENDBRANCH   2   3
ENDBRANCH   1   2
BRANCH   1  13
ATOM     13  C   UNL     1       5.808   0.581  -2.931  1.00  0.00     0.000 C 
BRANCH  13  14
ATOM     14  C   UNL     1       5.840   1.981  -3.579  1.00  0.00     0.000 C 
BRANCH  14  15
ATOM     15  C   UNL     1       7.246   2.504  -3.933  1.00  0.00     0.000 C 
BRANCH  15  16
ATOM     16  C   UNL     1       7.579   2.503  -5.436  1.00  0.00     0.000 C 
BRANCH  16  17
ATOM     17  C   UNL     1       6.709   3.471  -6.266  1.00  0.00     0.000 C 
BRANCH  17  18
ATOM     18  C   UNL     1       7.120   4.939  -6.080  1.00  0.00     0.000 C 
BRANCH  18  19
ATOM     19  C   UNL     1       6.095   5.692  -5.223  1.00  0.00     0.000 C 
BRANCH  19  20
ATOM     20  C   UNL     1       4.662   5.286  -5.596  1.00  0.00     0.006 C 
BRANCH  20  21
ATOM     21  C   UNL     1       3.828   4.907  -4.366  1.00  0.00     0.053 C 
BRANCH  21  22
ATOM     22  C   UNL     1       3.482   6.107  -3.538  1.00  0.00     0.041 C 
ATOM     23  O   UNL     1       4.317   6.577  -2.721  1.00  0.00    -0.550 OA
ATOM     24  O   UNL     1       2.248   6.727  -3.694  1.00  0.00    -0.550 OA
ENDBRANCH  21  22
ENDBRANCH  20  21
ENDBRANCH  19  20
ENDBRANCH  18  19
ENDBRANCH  17  18
ENDBRANCH  16  17
ENDBRANCH  15  16
ENDBRANCH  14  15
ENDBRANCH  13  14
ENDBRANCH   1  13
TORSDOF 20
ENDMDL
MODEL 5
REMARK VINA RESULT:    -3.638      1.423      4.905
REMARK INTER + INTRA:         -10.837
REMARK INTER:                  -7.754
REMARK INTRA:                  -3.082
REMARK UNBOUND:                -2.945
REMARK SMILES CCCCCCCCCCCCCCCCCCCCCC(=O)[O-]
REMARK SMILES IDX 12 1 11 2 10 3 9 4 8 5 7 6 6 7 5 8 4 9 3 10 2 11 1 12 13 13
REMARK SMILES IDX 14 14 15 15 16 16 17 17 18 18 19 19 20 20 21 21 22 22 23 23
REMARK SMILES IDX 24 24
REMARK H PARENT
REMARK Flexibility Score: inf
ROOT
ATOM      1  C   UNL     1       4.289   5.267  -3.756  1.00  0.00     0.000 C 
ENDROOT
BRANCH   1   2
ATOM      2  C   UNL     1       5.555   5.478  -4.601  1.00  0.00     0.000 C 
BRANCH   2   3
ATOM      3  C   UNL     1       5.791   4.291  -5.541  1.00  0.00     0.000 C 
BRANCH   3   4
ATOM      4  C   UNL     1       7.272   3.882  -5.552  1.00  0.00    -0.000 C 
BRANCH   4   5
ATOM      5  C   UNL     1       7.751   3.424  -6.938  1.00  0.00    -0.000 C 
BRANCH   5   6
ATOM      6  C   UNL     1       8.571   2.122  -6.878  1.00  0.00    -0.000 C 
BRANCH   6   7
ATOM      7  C   UNL     1       7.934   1.064  -5.961  1.00  0.00    -0.000 C 
BRANCH   7   8
ATOM      8  C   UNL     1       6.722   0.373  -6.607  1.00  0.00    -0.000 C 
BRANCH   8   9
ATOM      9  C   UNL     1       5.499   0.317  -5.675  1.00  0.00    -0.000 C 
BRANCH   9  10
ATOM     10  C   UNL     1       5.738   0.839  -4.243  1.00  0.00    -0.000 C 
BRANCH  10  11
ATOM     11  C   UNL     1       5.286  -0.113  -3.121  1.00  0.00    -0.003 C 
ATOM     12  C   UNL     1       4.443  -1.279  -3.632  1.00  0.00     0.004 C 
ENDBRANCH  10  11
ENDBRANCH   9  10
ENDBRANCH   8   9
ENDBRANCH   7   8
ENDBRANCH   6   7
ENDBRANCH   5   6
ENDBRANCH   4   5
ENDBRANCH   3   4
ENDBRANCH   2   3
ENDBRANCH   1   2
BRANCH   1  13
ATOM     13  C   UNL     1       3.526   6.575  -3.483  1.00  0.00     0.000 C 
BRANCH  13  14
ATOM     14  C   UNL     1       2.351   6.860  -4.441  1.00  0.00     0.000 C 
BRANCH  14  15
ATOM     15  C   UNL     1       2.589   6.451  -5.907  1.00  0.00     0.000 C 
BRANCH  15  16
ATOM     16  C   UNL     1       1.716   5.285  -6.405  1.00  0.00     0.000 C 
BRANCH  16  17
ATOM     17  C   UNL     1       2.528   4.096  -6.963  1.00  0.00     0.000 C 
BRANCH  17  18
ATOM     18  C   UNL     1       2.000   2.740  -6.473  1.00  0.00     0.000 C 
BRANCH  18  19
ATOM     19  C   UNL     1       2.473   2.449  -5.044  1.00  0.00     0.000 C 
BRANCH  19  20
ATOM     20  C   UNL     1       1.597   1.374  -4.383  1.00  0.00     0.006 C 
BRANCH  20  21
ATOM     21  C   UNL     1       0.967   0.426  -5.412  1.00  0.00     0.053 C 
BRANCH  21  22
ATOM     22  C   UNL     1       0.853  -0.971  -4.882  1.00  0.00     0.041 C 
ATOM     23  O   UNL     1       0.370  -1.178  -3.738  1.00  0.00    -0.550 OA
ATOM     24  O   UNL     1       1.250  -2.047  -5.667  1.00  0.00    -0.550 OA
ENDBRANCH  21  22
ENDBRANCH  20  21
ENDBRANCH  19  20
ENDBRANCH  18  19
ENDBRANCH  17  18
ENDBRANCH  16  17
ENDBRANCH  15  16
ENDBRANCH  14  15
ENDBRANCH  13  14
ENDBRANCH   1  13
TORSDOF 20
ENDMDL
MODEL 6
REMARK VINA RESULT:    -3.566      2.122      5.999
REMARK INTER + INTRA:         -10.681
REMARK INTER:                  -8.141
REMARK INTRA:                  -2.540
REMARK UNBOUND:                -2.945
REMARK SMILES CCCCCCCCCCCCCCCCCCCCCC(=O)[O-]
REMARK SMILES IDX 12 1 11 2 10 3 9 4 8 5 7 6 6 7 5 8 4 9 3 10 2 11 1 12 13 13
REMARK SMILES IDX 14 14 15 15 16 16 17 17 18 18 19 19 20 20 21 21 22 22 23 23
REMARK SMILES IDX 24 24
REMARK H PARENT
REMARK Flexibility Score: inf
ROOT
ATOM      1  C   UNL     1      -0.304   7.716  -5.290  1.00  0.00     0.000 C 
ENDROOT
BRANCH   1   2
ATOM      2  C   UNL     1       0.730   7.850  -6.418  1.00  0.00     0.000 C 
BRANCH   2   3
ATOM      3  C   UNL     1       2.123   7.426  -5.939  1.00  0.00     0.000 C 
BRANCH   3   4
ATOM      4  C   UNL     1       2.213   7.464  -4.405  1.00  0.00    -0.000 C 
BRANCH   4   5
ATOM      5  C   UNL     1       3.024   6.293  -3.828  1.00  0.00    -0.000 C 
BRANCH   5   6
ATOM      6  C   UNL     1       3.479   5.301  -4.914  1.00  0.00    -0.000 C 
BRANCH   6   7
ATOM      7  C   UNL     1       4.920   4.808  -4.698  1.00  0.00    -0.000 C 
BRANCH   7   8
ATOM      8  C   UNL     1       5.064   3.291  -4.908  1.00  0.00    -0.000 C 
BRANCH   8   9
ATOM      9  C   UNL     1       4.674   2.477  -3.662  1.00  0.00    -0.000 C 
BRANCH   9  10
ATOM     10  C   UNL     1       5.752   1.500  -3.149  1.00  0.00    -0.000 C 
BRANCH  10  11
ATOM     11  C   UNL     1       5.398   0.008  -3.294  1.00  0.00    -0.003 C 
ATOM     12  C   UNL     1       5.726  -0.550  -4.677  1.00  0.00     0.004 C 
ENDBRANCH  10  11
ENDBRANCH   9  10
ENDBRANCH   8   9
ENDBRANCH   7   8
ENDBRANCH   6   7
ENDBRANCH   5   6
ENDBRANCH   4   5
ENDBRANCH   3   4
ENDBRANCH   2   3
ENDBRANCH   1   2
BRANCH   1  13
ATOM     13  C   UNL     1      -1.696   7.303  -5.800  1.00  0.00     0.000 C 
BRANCH  13  14
ATOM     14  C   UNL     1      -2.100   5.846  -5.493  1.00  0.00     0.000 C 
BRANCH  14  15
ATOM     15  C   UNL     1      -2.224   4.929  -6.725  1.00  0.00     0.000 C 
BRANCH  15  16
ATOM     16  C   UNL     1      -1.334   3.673  -6.690  1.00  0.00     0.000 C 
BRANCH  16  17
ATOM     17  C   UNL     1       0.125   3.933  -7.125  1.00  0.00     0.000 C 
BRANCH  17  18
ATOM     18  C   UNL     1       1.131   3.055  -6.366  1.00  0.00     0.000 C 
BRANCH  18  19
ATOM     19  C   UNL     1       0.432   1.860  -5.708  1.00  0.00     0.000 C 
BRANCH  19  20
ATOM     20  C   UNL     1       1.282   1.289  -4.563  1.00  0.00     0.006 C 
BRANCH  20  21
ATOM     21  C   UNL     1       2.049   0.028  -4.983  1.00  0.00     0.053 C 
BRANCH  21  22
ATOM     22  C   UNL     1       1.171  -1.187  -4.965  1.00  0.00     0.041 C 
ATOM     23  O   UNL     1       0.994  -1.856  -6.016  1.00  0.00    -0.550 OA
ATOM     24  O   UNL     1       0.577  -1.597  -3.778  1.00  0.00    -0.550 OA
ENDBRANCH  21  22
ENDBRANCH  20  21
ENDBRANCH  19  20
ENDBRANCH  18  19
ENDBRANCH  17  18
ENDBRANCH  16  17
ENDBRANCH  15  16
ENDBRANCH  14  15
ENDBRANCH  13  14
ENDBRANCH   1  13
TORSDOF 20
ENDMDL
MODEL 7
REMARK VINA RESULT:    -3.534      2.680      5.338
REMARK INTER + INTRA:         -10.611
REMARK INTER:                  -7.208
REMARK INTRA:                  -3.403
REMARK UNBOUND:                -2.945
REMARK SMILES CCCCCCCCCCCCCCCCCCCCCC(=O)[O-]
REMARK SMILES IDX 12 1 11 2 10 3 9 4 8 5 7 6 6 7 5 8 4 9 3 10 2 11 1 12 13 13
REMARK SMILES IDX 14 14 15 15 16 16 17 17 18 18 19 19 20 20 21 21 22 22 23 23
REMARK SMILES IDX 24 24
REMARK H PARENT
REMARK Flexibility Score: inf
ROOT
ATOM      1  C   UNL     1       0.423   0.975  -4.462  1.00  0.00     0.000 C 
ENDROOT
BRANCH   1   2
ATOM      2  C   UNL     1      -0.274   1.723  -5.609  1.00  0.00     0.000 C 
BRANCH   2   3
ATOM      3  C   UNL     1       0.682   1.932  -6.789  1.00  0.00     0.000 C 
BRANCH   3   4
ATOM      4  C   UNL     1       1.528   3.200  -6.594  1.00  0.00    -0.000 C 
BRANCH   4   5
ATOM      5  C   UNL     1       3.015   2.976  -6.912  1.00  0.00    -0.000 C 
BRANCH   5   6
ATOM      6  C   UNL     1       3.882   2.888  -5.643  1.00  0.00    -0.000 C 
BRANCH   6   7
ATOM      7  C   UNL     1       3.153   3.406  -4.391  1.00  0.00    -0.000 C 
BRANCH   7   8
ATOM      8  C   UNL     1       4.059   4.265  -3.492  1.00  0.00    -0.000 C 
BRANCH   8   9
ATOM      9  C   UNL     1       4.085   5.746  -3.911  1.00  0.00    -0.000 C 
BRANCH   9  10
ATOM     10  C   UNL     1       2.724   6.470  -3.856  1.00  0.00    -0.000 C 
BRANCH  10  11
ATOM     11  C   UNL     1       2.308   7.171  -5.162  1.00  0.00    -0.003 C 
ATOM     12  C   UNL     1       3.044   6.633  -6.387  1.00  0.00     0.004 C 
ENDBRANCH  10  11
ENDBRANCH   9  10
ENDBRANCH   8   9
ENDBRANCH   7   8
ENDBRANCH   6   7
ENDBRANCH   5   6
ENDBRANCH   4   5
ENDBRANCH   3   4
ENDBRANCH   2   3
ENDBRANCH   1   2
BRANCH   1  13
ATOM     13  C   UNL     1       1.063  -0.350  -4.912  1.00  0.00     0.000 C 
BRANCH  13  14
ATOM     14  C   UNL     1       2.604  -0.388  -4.848  1.00  0.00     0.000 C 
BRANCH  14  15
ATOM     15  C   UNL     1       3.194  -1.545  -4.019  1.00  0.00     0.000 C 
BRANCH  15  16
ATOM     16  C   UNL     1       4.538  -1.234  -3.336  1.00  0.00     0.000 C 
BRANCH  16  17
ATOM     17  C   UNL     1       5.381  -0.173  -4.077  1.00  0.00     0.000 C 
BRANCH  17  18
ATOM     18  C   UNL     1       6.219  -0.775  -5.214  1.00  0.00     0.000 C 
BRANCH  18  19
ATOM     19  C   UNL     1       6.298   0.185  -6.407  1.00  0.00     0.000 C 
BRANCH  19  20
ATOM     20  C   UNL     1       7.672   0.870  -6.472  1.00  0.00     0.006 C 
BRANCH  20  21
ATOM     21  C   UNL     1       7.555   2.399  -6.506  1.00  0.00     0.053 C 
BRANCH  21  22
ATOM     22  C   UNL     1       7.597   2.990  -5.130  1.00  0.00     0.041 C 
ATOM     23  O   UNL     1       7.988   2.298  -4.154  1.00  0.00    -0.550 OA
ATOM     24  O   UNL     1       7.233   4.316  -4.932  1.00  0.00    -0.550 OA
ENDBRANCH  21  22
ENDBRANCH  20  21
ENDBRANCH  19  20
ENDBRANCH  18  19
ENDBRANCH  17  18
ENDBRANCH  16  17
ENDBRANCH  15  16
ENDBRANCH  14  15
ENDBRANCH  13  14
ENDBRANCH   1  13
TORSDOF 20
ENDMDL
MODEL 8
REMARK VINA RESULT:    -3.509      3.335      6.673
REMARK INTER + INTRA:         -10.557
REMARK INTER:                  -7.288
REMARK INTRA:                  -3.269
REMARK UNBOUND:                -2.945
REMARK SMILES CCCCCCCCCCCCCCCCCCCCCC(=O)[O-]
REMARK SMILES IDX 12 1 11 2 10 3 9 4 8 5 7 6 6 7 5 8 4 9 3 10 2 11 1 12 13 13
REMARK SMILES IDX 14 14 15 15 16 16 17 17 18 18 19 19 20 20 21 21 22 22 23 23
REMARK SMILES IDX 24 24
REMARK H PARENT
REMARK Flexibility Score: inf
ROOT
ATOM      1  C   UNL     1       4.185   4.105  -4.798  1.00  0.00     0.000 C 
ENDROOT
BRANCH   1   2
ATOM      2  C   UNL     1       4.419   3.846  -6.294  1.00  0.00     0.000 C 
BRANCH   2   3
ATOM      3  C   UNL     1       3.100   3.540  -7.012  1.00  0.00     0.000 C 
BRANCH   3   4
ATOM      4  C   UNL     1       1.990   3.203  -6.004  1.00  0.00    -0.000 C 
BRANCH   4   5
ATOM      5  C   UNL     1       0.769   2.543  -6.664  1.00  0.00    -0.000 C 
BRANCH   5   6
ATOM      6  C   UNL     1      -0.141   1.834  -5.645  1.00  0.00    -0.000 C 
BRANCH   6   7
ATOM      7  C   UNL     1       0.654   1.060  -4.580  1.00  0.00    -0.000 C 
BRANCH   7   8
ATOM      8  C   UNL     1       1.094  -0.332  -5.065  1.00  0.00    -0.000 C 
BRANCH   8   9
ATOM      9  C   UNL     1       2.584  -0.612  -4.803  1.00  0.00    -0.000 C 
BRANCH   9  10
ATOM     10  C   UNL     1       3.378   0.562  -4.196  1.00  0.00    -0.000 C 
BRANCH  10  11
ATOM     11  C   UNL     1       4.877   0.583  -4.546  1.00  0.00    -0.003 C 
ATOM     12  C   UNL     1       5.757   1.003  -3.370  1.00  0.00     0.004 C 
ENDBRANCH  10  11
ENDBRANCH   9  10
ENDBRANCH   8   9
ENDBRANCH   7   8
ENDBRANCH   6   7
ENDBRANCH   5   6
ENDBRANCH   4   5
ENDBRANCH   3   4
ENDBRANCH   2   3
ENDBRANCH   1   2
BRANCH   1  13
ATOM     13  C   UNL     1       4.920   5.355  -4.284  1.00  0.00     0.000 C 
BRANCH  13  14
ATOM     14  C   UNL     1       4.076   6.292  -3.395  1.00  0.00     0.000 C 
BRANCH  14  15
ATOM     15  C   UNL     1       2.583   6.372  -3.764  1.00  0.00     0.000 C 
BRANCH  15  16
ATOM     16  C   UNL     1       2.212   7.518  -4.723  1.00  0.00     0.000 C 
BRANCH  16  17
ATOM     17  C   UNL     1       2.048   7.070  -6.192  1.00  0.00     0.000 C 
BRANCH  17  18
ATOM     18  C   UNL     1       0.658   7.398  -6.756  1.00  0.00     0.000 C 
BRANCH  18  19
ATOM     19  C   UNL     1      -0.140   6.119  -7.032  1.00  0.00     0.000 C 
BRANCH  19  20
ATOM     20  C   UNL     1      -1.493   6.147  -6.304  1.00  0.00     0.006 C 
BRANCH  20  21
ATOM     21  C   UNL     1      -2.202   4.787  -6.346  1.00  0.00     0.053 C 
BRANCH  21  22
ATOM     22  C   UNL     1      -3.506   4.818  -5.609  1.00  0.00     0.041 C 
ATOM     23  O   UNL     1      -4.355   3.905  -5.782  1.00  0.00    -0.550 OA
ATOM     24  O   UNL     1      -3.769   5.840  -4.704  1.00  0.00    -0.550 OA
ENDBRANCH  21  22
ENDBRANCH  20  21
ENDBRANCH  19  20
ENDBRANCH  18  19
ENDBRANCH  17  18
ENDBRANCH  16  17
ENDBRANCH  15  16
ENDBRANCH  14  15
ENDBRANCH  13  14
ENDBRANCH   1  13
TORSDOF 20
ENDMDL
MODEL 9
REMARK VINA RESULT:    -3.496      3.582      5.143
REMARK INTER + INTRA:         -10.529
REMARK INTER:                  -8.304
REMARK INTRA:                  -2.225
REMARK UNBOUND:                -2.945
REMARK SMILES CCCCCCCCCCCCCCCCCCCCCC(=O)[O-]
REMARK SMILES IDX 12 1 11 2 10 3 9 4 8 5 7 6 6 7 5 8 4 9 3 10 2 11 1 12 13 13
REMARK SMILES IDX 14 14 15 15 16 16 17 17 18 18 19 19 20 20 21 21 22 22 23 23
REMARK SMILES IDX 24 24
REMARK H PARENT
REMARK Flexibility Score: inf
ROOT
ATOM      1  C   UNL     1       0.787  -1.620  -4.655  1.00  0.00     0.000 C 
ENDROOT
BRANCH   1   2
ATOM      2  C   UNL     1       2.184  -2.013  -4.150  1.00  0.00     0.000 C 
BRANCH   2   3
ATOM      3  C   UNL     1       3.191  -0.881  -4.385  1.00  0.00     0.000 C 
BRANCH   3   4
ATOM      4  C   UNL     1       4.564  -1.232  -3.791  1.00  0.00    -0.000 C 
BRANCH   4   5
ATOM      5  C   UNL     1       5.727  -0.864  -4.725  1.00  0.00    -0.000 C 
BRANCH   5   6
ATOM      6  C   UNL     1       6.059   0.638  -4.689  1.00  0.00    -0.000 C 
BRANCH   6   7
ATOM      7  C   UNL     1       5.732   1.284  -3.332  1.00  0.00    -0.000 C 
BRANCH   7   8
ATOM      8  C   UNL     1       4.794   2.496  -3.464  1.00  0.00    -0.000 C 
BRANCH   8   9
ATOM      9  C   UNL     1       4.794   3.099  -4.880  1.00  0.00    -0.000 C 
BRANCH   9  10
ATOM     10  C   UNL     1       4.061   4.449  -5.020  1.00  0.00    -0.000 C 
BRANCH  10  11
ATOM     11  C   UNL     1       3.407   4.971  -3.728  1.00  0.00    -0.003 C 
ATOM     12  C   UNL     1       3.691   6.450  -3.472  1.00  0.00     0.004 C 
ENDBRANCH  10  11
ENDBRANCH   9  10
ENDBRANCH   8   9
ENDBRANCH   7   8
ENDBRANCH   6   7
ENDBRANCH   5   6
ENDBRANCH   4   5
ENDBRANCH   3   4
ENDBRANCH   2   3
ENDBRANCH   1   2
BRANCH   1  13
ATOM     13  C   UNL     1       0.721  -1.482  -6.186  1.00  0.00     0.000 C 
BRANCH  13  14
ATOM     14  C   UNL     1       0.420  -0.060  -6.703  1.00  0.00     0.000 C 
BRANCH  14  15
ATOM     15  C   UNL     1       0.181   0.996  -5.608  1.00  0.00     0.000 C 
BRANCH  15  16
ATOM     16  C   UNL     1       1.165   2.181  -5.624  1.00  0.00     0.000 C 
BRANCH  16  17
ATOM     17  C   UNL     1       1.180   2.958  -6.958  1.00  0.00     0.000 C 
BRANCH  17  18
ATOM     18  C   UNL     1       0.495   4.329  -6.849  1.00  0.00     0.000 C 
BRANCH  18  19
ATOM     19  C   UNL     1      -1.028   4.179  -6.773  1.00  0.00     0.000 C 
BRANCH  19  20
ATOM     20  C   UNL     1      -1.714   5.553  -6.725  1.00  0.00     0.006 C 
BRANCH  20  21
ATOM     21  C   UNL     1      -3.010   5.525  -5.905  1.00  0.00     0.053 C 
BRANCH  21  22
ATOM     22  C   UNL     1      -2.882   6.315  -4.638  1.00  0.00     0.041 C 
ATOM     23  O   UNL     1      -3.818   6.319  -3.796  1.00  0.00    -0.550 OA
ATOM     24  O   UNL     1      -1.715   7.019  -4.373  1.00  0.00    -0.550 OA
ENDBRANCH  21  22
ENDBRANCH  20  21
ENDBRANCH  19  20
ENDBRANCH  18  19
ENDBRANCH  17  18
ENDBRANCH  16  17
ENDBRANCH  15  16
ENDBRANCH  14  15
ENDBRANCH  13  14
ENDBRANCH   1  13
TORSDOF 20
ENDMDL
