MODEL 1
REMARK VINA RESULT:    -5.989      0.000      0.000
REMARK INTER + INTRA:          -6.165
REMARK INTER:                  -6.165
REMARK INTRA:                   0.000
REMARK UNBOUND:                 0.000
REMARK SMILES O=c1ccc2ccc(O)cc2o1
REMARK SMILES IDX 6 1 7 2 8 3 10 4 11 5 5 6 4 7 3 8 2 9 1 10 12 11 9 12
REMARK H PARENT 9 13
REMARK Flexibility Score: inf
ROOT
ATOM      1  C   UNL     1      74.354  45.157  -3.331  1.00  0.00     0.016 A 
ATOM      2  C   UNL     1      73.864  45.501  -2.067  1.00  0.00     0.047 A 
ATOM      3  C   UNL     1      73.114  44.578  -1.323  1.00  0.00     0.119 A 
ATOM      4  C   UNL     1      72.854  43.306  -1.846  1.00  0.00     0.094 A 
ATOM      5  C   UNL     1      73.340  42.952  -3.111  1.00  0.00     0.142 A 
ATOM      6  C   UNL     1      74.095  43.884  -3.857  1.00  0.00     0.018 A 
ATOM      7  C   UNL     1      74.567  43.502  -5.117  1.00  0.00     0.019 A 
ATOM      8  C   UNL     1      74.281  42.223  -5.595  1.00  0.00     0.094 A 
ATOM      9  C   UNL     1      73.528  41.354  -4.800  1.00  0.00     0.336 A 
ATOM     10  O   UNL     1      73.259  40.196  -5.215  1.00  0.00    -0.246 OA
ATOM     11  O   UNL     1      73.090  41.742  -3.605  1.00  0.00    -0.423 OA
ENDROOT
BRANCH   3  12
ATOM     12  O   UNL     1      72.624  44.915  -0.063  1.00  0.00    -0.508 OA
ATOM     13  H   UNL     1      72.636  44.253   0.704  1.00  0.00     0.293 HD
ENDBRANCH   3  12
TORSDOF 1
ENDMDL
MODEL 2
REMARK VINA RESULT:    -5.933      2.228      5.366
REMARK INTER + INTRA:          -6.107
REMARK INTER:                  -6.107
REMARK INTRA:                   0.000
REMARK UNBOUND:                 0.000
REMARK SMILES O=c1ccc2ccc(O)cc2o1
REMARK SMILES IDX 6 1 7 2 8 3 10 4 11 5 5 6 4 7 3 8 2 9 1 10 12 11 9 12
REMARK H PARENT 9 13
REMARK Flexibility Score: inf
ROOT
ATOM      1  C   UNL     1      74.345  40.800  -7.559  1.00  0.00     0.016 A 
ATOM      2  C   UNL     1      73.493  39.816  -8.071  1.00  0.00     0.047 A 
ATOM      3  C   UNL     1      72.452  39.302  -7.283  1.00  0.00     0.119 A 
ATOM      4  C   UNL     1      72.264  39.776  -5.979  1.00  0.00     0.094 A 
ATOM      5  C   UNL     1      73.111  40.760  -5.458  1.00  0.00     0.142 A 
ATOM      6  C   UNL     1      74.159  41.276  -6.254  1.00  0.00     0.018 A 
ATOM      7  C   UNL     1      74.989  42.259  -5.707  1.00  0.00     0.019 A 
ATOM      8  C   UNL     1      74.761  42.698  -4.403  1.00  0.00     0.094 A 
ATOM      9  C   UNL     1      73.705  42.142  -3.674  1.00  0.00     0.336 A 
ATOM     10  O   UNL     1      73.484  42.525  -2.495  1.00  0.00    -0.246 OA
ATOM     11  O   UNL     1      72.930  41.207  -4.219  1.00  0.00    -0.423 OA
ENDROOT
BRANCH   3  12
ATOM     12  O   UNL     1      71.600  38.322  -7.787  1.00  0.00    -0.508 OA
ATOM     13  H   UNL     1      71.672  37.999  -8.745  1.00  0.00     0.293 HD
ENDBRANCH   3  12
TORSDOF 1
ENDMDL
MODEL 3
REMARK VINA RESULT:    -5.779      2.743      4.344
REMARK INTER + INTRA:          -5.948
REMARK INTER:                  -5.948
REMARK INTRA:                   0.000
REMARK UNBOUND:                 0.000
REMARK SMILES O=c1ccc2ccc(O)cc2o1
REMARK SMILES IDX 6 1 7 2 8 3 10 4 11 5 5 6 4 7 3 8 2 9 1 10 12 11 9 12
REMARK H PARENT 9 13
REMARK Flexibility Score: inf
ROOT
ATOM      1  C   UNL     1      71.744  40.625  -4.167  1.00  0.00     0.016 A 
ATOM      2  C   UNL     1      72.616  41.380  -3.377  1.00  0.00     0.047 A 
ATOM      3  C   UNL     1      73.872  41.761  -3.873  1.00  0.00     0.119 A 
ATOM      4  C   UNL     1      74.255  41.383  -5.166  1.00  0.00     0.094 A 
ATOM      5  C   UNL     1      73.390  40.627  -5.964  1.00  0.00     0.142 A 
ATOM      6  C   UNL     1      72.125  40.246  -5.462  1.00  0.00     0.018 A 
ATOM      7  C   UNL     1      71.282  39.492  -6.283  1.00  0.00     0.019 A 
ATOM      8  C   UNL     1      71.709  39.140  -7.563  1.00  0.00     0.094 A 
ATOM      9  C   UNL     1      72.974  39.553  -7.994  1.00  0.00     0.336 A 
ATOM     10  O   UNL     1      73.377  39.245  -9.146  1.00  0.00    -0.246 OA
ATOM     11  O   UNL     1      73.757  40.270  -7.192  1.00  0.00    -0.423 OA
ENDROOT
BRANCH   3  12
ATOM     12  O   UNL     1      74.745  42.512  -3.091  1.00  0.00    -0.508 OA
ATOM     13  H   UNL     1      74.822  42.364  -2.091  1.00  0.00     0.293 HD
ENDBRANCH   3  12
TORSDOF 1
ENDMDL
MODEL 4
REMARK VINA RESULT:    -5.664      0.840      4.224
REMARK INTER + INTRA:          -5.829
REMARK INTER:                  -5.829
REMARK INTRA:                   0.000
REMARK UNBOUND:                 0.000
REMARK SMILES O=c1ccc2ccc(O)cc2o1
REMARK SMILES IDX 6 1 7 2 8 3 10 4 11 5 5 6 4 7 3 8 2 9 1 10 12 11 9 12
REMARK H PARENT 9 13
REMARK Flexibility Score: inf
ROOT
ATOM      1  C   UNL     1      74.648  43.333  -4.850  1.00  0.00     0.016 A 
ATOM      2  C   UNL     1      74.336  42.053  -5.319  1.00  0.00     0.047 A 
ATOM      3  C   UNL     1      73.400  41.259  -4.640  1.00  0.00     0.119 A 
ATOM      4  C   UNL     1      72.774  41.749  -3.488  1.00  0.00     0.094 A 
ATOM      5  C   UNL     1      73.079  43.029  -3.011  1.00  0.00     0.142 A 
ATOM      6  C   UNL     1      74.022  43.827  -3.697  1.00  0.00     0.018 A 
ATOM      7  C   UNL     1      74.306  45.101  -3.197  1.00  0.00     0.019 A 
ATOM      8  C   UNL     1      73.656  45.544  -2.046  1.00  0.00     0.094 A 
ATOM      9  C   UNL     1      72.734  44.700  -1.419  1.00  0.00     0.336 A 
ATOM     10  O   UNL     1      72.137  45.082  -0.379  1.00  0.00    -0.246 OA
ATOM     11  O   UNL     1      72.482  43.491  -1.916  1.00  0.00    -0.423 OA
ENDROOT
BRANCH   3  12
ATOM     12  O   UNL     1      73.086  39.983  -5.102  1.00  0.00    -0.508 OA
ATOM     13  H   UNL     1      72.813  39.820  -6.065  1.00  0.00     0.293 HD
ENDBRANCH   3  12
TORSDOF 1
ENDMDL
MODEL 5
REMARK VINA RESULT:    -5.605      2.986      6.017
REMARK INTER + INTRA:          -5.768
REMARK INTER:                  -5.768
REMARK INTRA:                   0.000
REMARK UNBOUND:                 0.000
REMARK SMILES O=c1ccc2ccc(O)cc2o1
REMARK SMILES IDX 6 1 7 2 8 3 10 4 11 5 5 6 4 7 3 8 2 9 1 10 12 11 9 12
REMARK H PARENT 9 13
REMARK Flexibility Score: inf
ROOT
ATOM      1  C   UNL     1      71.950  39.087  -7.082  1.00  0.00     0.016 A 
ATOM      2  C   UNL     1      72.909  39.119  -8.099  1.00  0.00     0.047 A 
ATOM      3  C   UNL     1      74.066  39.900  -7.957  1.00  0.00     0.119 A 
ATOM      4  C   UNL     1      74.262  40.651  -6.793  1.00  0.00     0.094 A 
ATOM      5  C   UNL     1      73.308  40.626  -5.769  1.00  0.00     0.142 A 
ATOM      6  C   UNL     1      72.144  39.838  -5.914  1.00  0.00     0.018 A 
ATOM      7  C   UNL     1      71.209  39.833  -4.875  1.00  0.00     0.019 A 
ATOM      8  C   UNL     1      71.450  40.599  -3.735  1.00  0.00     0.094 A 
ATOM      9  C   UNL     1      72.624  41.354  -3.660  1.00  0.00     0.336 A 
ATOM     10  O   UNL     1      72.859  42.052  -2.639  1.00  0.00    -0.246 OA
ATOM     11  O   UNL     1      73.498  41.342  -4.664  1.00  0.00    -0.423 OA
ENDROOT
BRANCH   3  12
ATOM     12  O   UNL     1      75.025  39.936  -8.967  1.00  0.00    -0.508 OA
ATOM     13  H   UNL     1      74.879  40.467  -9.817  1.00  0.00     0.293 HD
ENDBRANCH   3  12
TORSDOF 1
ENDMDL
MODEL 6
REMARK VINA RESULT:    -5.517      3.456      6.300
REMARK INTER + INTRA:          -5.678
REMARK INTER:                  -5.678
REMARK INTRA:                   0.000
REMARK UNBOUND:                 0.000
REMARK SMILES O=c1ccc2ccc(O)cc2o1
REMARK SMILES IDX 6 1 7 2 8 3 10 4 11 5 5 6 4 7 3 8 2 9 1 10 12 11 9 12
REMARK H PARENT 9 13
REMARK Flexibility Score: inf
ROOT
ATOM      1  C   UNL     1      74.772  40.631  -7.608  1.00  0.00     0.016 A 
ATOM      2  C   UNL     1      74.568  39.910  -8.789  1.00  0.00     0.047 A 
ATOM      3  C   UNL     1      73.419  39.121  -8.948  1.00  0.00     0.119 A 
ATOM      4  C   UNL     1      72.471  39.053  -7.921  1.00  0.00     0.094 A 
ATOM      5  C   UNL     1      72.666  39.770  -6.735  1.00  0.00     0.142 A 
ATOM      6  C   UNL     1      73.824  40.565  -6.578  1.00  0.00     0.018 A 
ATOM      7  C   UNL     1      73.991  41.270  -5.382  1.00  0.00     0.019 A 
ATOM      8  C   UNL     1      73.018  41.170  -4.387  1.00  0.00     0.094 A 
ATOM      9  C   UNL     1      71.897  40.364  -4.613  1.00  0.00     0.336 A 
ATOM     10  O   UNL     1      71.009  40.261  -3.727  1.00  0.00    -0.246 OA
ATOM     11  O   UNL     1      71.763  39.703  -5.760  1.00  0.00    -0.423 OA
ENDROOT
BRANCH   3  12
ATOM     12  O   UNL     1      73.211  38.402 -10.123  1.00  0.00    -0.508 OA
ATOM     13  H   UNL     1      73.091  37.395 -10.113  1.00  0.00     0.293 HD
ENDBRANCH   3  12
TORSDOF 1
ENDMDL
MODEL 7
REMARK VINA RESULT:    -5.493      5.448      6.293
REMARK INTER + INTRA:          -5.653
REMARK INTER:                  -5.653
REMARK INTRA:                   0.000
REMARK UNBOUND:                 0.000
REMARK SMILES O=c1ccc2ccc(O)cc2o1
REMARK SMILES IDX 6 1 7 2 8 3 10 4 11 5 5 6 4 7 3 8 2 9 1 10 12 11 9 12
REMARK H PARENT 9 13
REMARK Flexibility Score: inf
ROOT
ATOM      1  C   UNL     1      72.060  40.049  -5.664  1.00  0.00     0.016 A 
ATOM      2  C   UNL     1      70.671  40.003  -5.819  1.00  0.00     0.047 A 
ATOM      3  C   UNL     1      70.104  39.880  -7.097  1.00  0.00     0.119 A 
ATOM      4  C   UNL     1      70.932  39.802  -8.223  1.00  0.00     0.094 A 
ATOM      5  C   UNL     1      72.324  39.847  -8.078  1.00  0.00     0.142 A 
ATOM      6  C   UNL     1      72.891  39.971  -6.790  1.00  0.00     0.018 A 
ATOM      7  C   UNL     1      74.284  40.013  -6.677  1.00  0.00     0.019 A 
ATOM      8  C   UNL     1      75.067  39.932  -7.828  1.00  0.00     0.094 A 
ATOM      9  C   UNL     1      74.436  39.811  -9.070  1.00  0.00     0.336 A 
ATOM     10  O   UNL     1      75.125  39.736 -10.121  1.00  0.00    -0.246 OA
ATOM     11  O   UNL     1      73.108  39.773  -9.151  1.00  0.00    -0.423 OA
ENDROOT
BRANCH   3  12
ATOM     12  O   UNL     1      68.722  39.833  -7.258  1.00  0.00    -0.508 OA
ATOM     13  H   UNL     1      68.097  39.785  -6.461  1.00  0.00     0.293 HD
ENDBRANCH   3  12
TORSDOF 1
ENDMDL
MODEL 8
REMARK VINA RESULT:    -5.471      2.101      3.239
REMARK INTER + INTRA:          -5.631
REMARK INTER:                  -5.631
REMARK INTRA:                   0.000
REMARK UNBOUND:                 0.000
REMARK SMILES O=c1ccc2ccc(O)cc2o1
REMARK SMILES IDX 6 1 7 2 8 3 10 4 11 5 5 6 4 7 3 8 2 9 1 10 12 11 9 12
REMARK H PARENT 9 13
REMARK Flexibility Score: inf
ROOT
ATOM      1  C   UNL     1      74.983  42.508  -5.589  1.00  0.00     0.016 A 
ATOM      2  C   UNL     1      74.794  42.905  -4.261  1.00  0.00     0.047 A 
ATOM      3  C   UNL     1      73.819  42.281  -3.468  1.00  0.00     0.119 A 
ATOM      4  C   UNL     1      73.032  41.257  -4.006  1.00  0.00     0.094 A 
ATOM      5  C   UNL     1      73.213  40.853  -5.334  1.00  0.00     0.142 A 
ATOM      6  C   UNL     1      74.196  41.482  -6.130  1.00  0.00     0.018 A 
ATOM      7  C   UNL     1      74.355  41.057  -7.453  1.00  0.00     0.019 A 
ATOM      8  C   UNL     1      73.546  40.033  -7.944  1.00  0.00     0.094 A 
ATOM      9  C   UNL     1      72.594  39.456  -7.097  1.00  0.00     0.336 A 
ATOM     10  O   UNL     1      71.854  38.530  -7.522  1.00  0.00    -0.246 OA
ATOM     11  O   UNL     1      72.463  39.879  -5.842  1.00  0.00    -0.423 OA
ENDROOT
BRANCH   3  12
ATOM     12  O   UNL     1      73.626  42.672  -2.145  1.00  0.00    -0.508 OA
ATOM     13  H   UNL     1      73.301  43.603  -1.910  1.00  0.00     0.293 HD
ENDBRANCH   3  12
TORSDOF 1
ENDMDL
MODEL 9
REMARK VINA RESULT:    -5.461      1.645      4.742
REMARK INTER + INTRA:          -5.621
REMARK INTER:                  -5.621
REMARK INTRA:                   0.000
REMARK UNBOUND:                 0.000
REMARK SMILES O=c1ccc2ccc(O)cc2o1
REMARK SMILES IDX 6 1 7 2 8 3 10 4 11 5 5 6 4 7 3 8 2 9 1 10 12 11 9 12
REMARK H PARENT 9 13
REMARK Flexibility Score: inf
ROOT
ATOM      1  C   UNL     1      72.797  41.526  -3.446  1.00  0.00     0.016 A 
ATOM      2  C   UNL     1      73.211  40.890  -4.621  1.00  0.00     0.047 A 
ATOM      3  C   UNL     1      74.066  41.547  -5.518  1.00  0.00     0.119 A 
ATOM      4  C   UNL     1      74.507  42.846  -5.238  1.00  0.00     0.094 A 
ATOM      5  C   UNL     1      74.098  43.491  -4.065  1.00  0.00     0.142 A 
ATOM      6  C   UNL     1      73.237  42.826  -3.163  1.00  0.00     0.018 A 
ATOM      7  C   UNL     1      72.846  43.495  -2.000  1.00  0.00     0.019 A 
ATOM      8  C   UNL     1      73.312  44.788  -1.765  1.00  0.00     0.094 A 
ATOM      9  C   UNL     1      74.161  45.384  -2.703  1.00  0.00     0.336 A 
ATOM     10  O   UNL     1      74.592  46.551  -2.509  1.00  0.00    -0.246 OA
ATOM     11  O   UNL     1      74.519  44.725  -3.803  1.00  0.00    -0.423 OA
ENDROOT
BRANCH   3  12
ATOM     12  O   UNL     1      74.482  40.919  -6.690  1.00  0.00    -0.508 OA
ATOM     13  H   UNL     1      74.659  39.922  -6.722  1.00  0.00     0.293 HD
ENDBRANCH   3  12
TORSDOF 1
ENDMDL
