MODEL 1
REMARK VINA RESULT:    -5.945      0.000      0.000
REMARK INTER + INTRA:          -6.293
REMARK INTER:                  -6.293
REMARK INTRA:                   0.000
REMARK UNBOUND:                 0.000
REMARK SMILES O=c1ccc2cc(O)c(O)cc2o1
REMARK SMILES IDX 4 1 3 2 2 3 1 4 13 5 12 6 11 7 9 8 7 9 6 10 5 11 8 12 10 14
REMARK H PARENT 8 13 10 15
REMARK Flexibility Score: inf
ROOT
ATOM      1  C   UNL     1      -4.627  -4.089  44.497  1.00  0.00     0.019 A 
ATOM      2  C   UNL     1      -4.034  -2.898  44.914  1.00  0.00     0.094 A 
ATOM      3  C   UNL     1      -4.350  -2.387  46.177  1.00  0.00     0.336 A 
ATOM      4  O   UNL     1      -3.825  -1.313  46.570  1.00  0.00    -0.246 OA
ATOM      5  O   UNL     1      -5.206  -3.030  46.967  1.00  0.00    -0.423 OA
ATOM      6  C   UNL     1      -5.793  -4.169  46.610  1.00  0.00     0.142 A 
ATOM      7  C   UNL     1      -6.684  -4.800  47.484  1.00  0.00     0.098 A 
ATOM      8  C   UNL     1      -7.307  -6.001  47.112  1.00  0.00     0.161 A 
ATOM      9  C   UNL     1      -7.037  -6.572  45.860  1.00  0.00     0.158 A 
ATOM     10  C   UNL     1      -6.144  -5.944  44.979  1.00  0.00     0.062 A 
ATOM     11  C   UNL     1      -5.522  -4.744  45.349  1.00  0.00     0.022 A 
ENDROOT
BRANCH   9  12
ATOM     12  O   UNL     1      -7.661  -7.765  45.499  1.00  0.00    -0.504 OA
ATOM     13  H   UNL     1      -8.065  -7.894  44.578  1.00  0.00     0.293 HD
ENDBRANCH   9  12
BRANCH   8  14
ATOM     14  O   UNL     1      -8.194  -6.632  47.982  1.00  0.00    -0.504 OA
ATOM     15  H   UNL     1      -9.043  -6.177  48.297  1.00  0.00     0.293 HD
ENDBRANCH   8  14
TORSDOF 2
ENDMDL
MODEL 2
REMARK VINA RESULT:    -5.884      1.477      4.564
REMARK INTER + INTRA:          -6.227
REMARK INTER:                  -6.227
REMARK INTRA:                   0.000
REMARK UNBOUND:                 0.000
REMARK SMILES O=c1ccc2cc(O)c(O)cc2o1
REMARK SMILES IDX 4 1 3 2 2 3 1 4 13 5 12 6 11 7 9 8 7 9 6 10 5 11 8 12 10 14
REMARK H PARENT 8 13 10 15
REMARK Flexibility Score: inf
ROOT
ATOM      1  C   UNL     1      -4.768  -4.334  44.283  1.00  0.00     0.019 A 
ATOM      2  C   UNL     1      -5.486  -5.529  44.279  1.00  0.00     0.094 A 
ATOM      3  C   UNL     1      -6.318  -5.825  45.363  1.00  0.00     0.336 A 
ATOM      4  O   UNL     1      -6.974  -6.900  45.377  1.00  0.00    -0.246 OA
ATOM      5  O   UNL     1      -6.422  -4.977  46.383  1.00  0.00    -0.423 OA
ATOM      6  C   UNL     1      -5.756  -3.826  46.428  1.00  0.00     0.142 A 
ATOM      7  C   UNL     1      -5.905  -2.974  47.527  1.00  0.00     0.098 A 
ATOM      8  C   UNL     1      -5.205  -1.760  47.579  1.00  0.00     0.161 A 
ATOM      9  C   UNL     1      -4.352  -1.397  46.527  1.00  0.00     0.158 A 
ATOM     10  C   UNL     1      -4.198  -2.247  45.422  1.00  0.00     0.062 A 
ATOM     11  C   UNL     1      -4.897  -3.461  45.369  1.00  0.00     0.022 A 
ENDROOT
BRANCH   9  12
ATOM     12  O   UNL     1      -3.660  -0.189  46.587  1.00  0.00    -0.504 OA
ATOM     13  H   UNL     1      -4.144   0.696  46.692  1.00  0.00     0.293 HD
ENDBRANCH   9  12
BRANCH   8  14
ATOM     14  O   UNL     1      -5.352  -0.909  48.673  1.00  0.00    -0.504 OA
ATOM     15  H   UNL     1      -4.814  -1.037  49.521  1.00  0.00     0.293 HD
ENDBRANCH   8  14
TORSDOF 2
ENDMDL
MODEL 3
REMARK VINA RESULT:    -5.726      1.916      4.889
REMARK INTER + INTRA:          -6.060
REMARK INTER:                  -6.060
REMARK INTRA:                   0.000
REMARK UNBOUND:                 0.000
REMARK SMILES O=c1ccc2cc(O)c(O)cc2o1
REMARK SMILES IDX 4 1 3 2 2 3 1 4 13 5 12 6 11 7 9 8 7 9 6 10 5 11 8 12 10 14
REMARK H PARENT 8 13 10 15
REMARK Flexibility Score: inf
ROOT
ATOM      1  C   UNL     1      -6.680  -5.119  46.659  1.00  0.00     0.019 A 
ATOM      2  C   UNL     1      -6.650  -6.041  45.614  1.00  0.00     0.094 A 
ATOM      3  C   UNL     1      -5.815  -5.800  44.518  1.00  0.00     0.336 A 
ATOM      4  O   UNL     1      -5.774  -6.621  43.565  1.00  0.00    -0.246 OA
ATOM      5  O   UNL     1      -5.061  -4.704  44.476  1.00  0.00    -0.423 OA
ATOM      6  C   UNL     1      -5.058  -3.798  45.450  1.00  0.00     0.142 A 
ATOM      7  C   UNL     1      -4.244  -2.666  45.350  1.00  0.00     0.098 A 
ATOM      8  C   UNL     1      -4.238  -1.708  46.375  1.00  0.00     0.161 A 
ATOM      9  C   UNL     1      -5.050  -1.884  47.505  1.00  0.00     0.158 A 
ATOM     10  C   UNL     1      -5.869  -3.018  47.611  1.00  0.00     0.062 A 
ATOM     11  C   UNL     1      -5.876  -3.976  46.587  1.00  0.00     0.022 A 
ENDROOT
BRANCH   9  12
ATOM     12  O   UNL     1      -5.038  -0.927  48.518  1.00  0.00    -0.504 OA
ATOM     13  H   UNL     1      -5.686  -0.148  48.519  1.00  0.00     0.293 HD
ENDBRANCH   9  12
BRANCH   8  14
ATOM     14  O   UNL     1      -3.427  -0.579  46.278  1.00  0.00    -0.504 OA
ATOM     15  H   UNL     1      -3.782   0.349  46.477  1.00  0.00     0.293 HD
ENDBRANCH   8  14
TORSDOF 2
ENDMDL
MODEL 4
REMARK VINA RESULT:    -5.683      2.802      4.128
REMARK INTER + INTRA:          -6.015
REMARK INTER:                  -6.015
REMARK INTRA:                   0.000
REMARK UNBOUND:                 0.000
REMARK SMILES O=c1ccc2cc(O)c(O)cc2o1
REMARK SMILES IDX 4 1 3 2 2 3 1 4 13 5 12 6 11 7 9 8 7 9 6 10 5 11 8 12 10 14
REMARK H PARENT 8 13 10 15
REMARK Flexibility Score: inf
ROOT
ATOM      1  C   UNL     1      -2.691  -3.519  44.598  1.00  0.00     0.019 A 
ATOM      2  C   UNL     1      -1.712  -2.784  43.929  1.00  0.00     0.094 A 
ATOM      3  C   UNL     1      -1.527  -1.438  44.261  1.00  0.00     0.336 A 
ATOM      4  O   UNL     1      -0.649  -0.759  43.667  1.00  0.00    -0.246 OA
ATOM      5  O   UNL     1      -2.276  -0.869  45.202  1.00  0.00    -0.423 OA
ATOM      6  C   UNL     1      -3.219  -1.532  45.866  1.00  0.00     0.142 A 
ATOM      7  C   UNL     1      -3.975  -0.880  46.846  1.00  0.00     0.098 A 
ATOM      8  C   UNL     1      -4.971  -1.575  47.547  1.00  0.00     0.161 A 
ATOM      9  C   UNL     1      -5.213  -2.927  47.268  1.00  0.00     0.158 A 
ATOM     10  C   UNL     1      -4.458  -3.587  46.286  1.00  0.00     0.062 A 
ATOM     11  C   UNL     1      -3.462  -2.894  45.584  1.00  0.00     0.022 A 
ENDROOT
BRANCH   9  12
ATOM     12  O   UNL     1      -6.204  -3.609  47.970  1.00  0.00    -0.504 OA
ATOM     13  H   UNL     1      -5.976  -4.330  48.645  1.00  0.00     0.293 HD
ENDBRANCH   9  12
BRANCH   8  14
ATOM     14  O   UNL     1      -5.725  -0.927  48.525  1.00  0.00    -0.504 OA
ATOM     15  H   UNL     1      -5.671   0.076  48.659  1.00  0.00     0.293 HD
ENDBRANCH   8  14
TORSDOF 2
ENDMDL
MODEL 5
REMARK VINA RESULT:    -5.662      1.066      2.233
REMARK INTER + INTRA:          -5.993
REMARK INTER:                  -5.993
REMARK INTRA:                   0.000
REMARK UNBOUND:                 0.000
REMARK SMILES O=c1ccc2cc(O)c(O)cc2o1
REMARK SMILES IDX 4 1 3 2 2 3 1 4 13 5 12 6 11 7 9 8 7 9 6 10 5 11 8 12 10 14
REMARK H PARENT 8 13 10 15
REMARK Flexibility Score: inf
ROOT
ATOM      1  C   UNL     1      -5.108  -2.888  47.221  1.00  0.00     0.019 A 
ATOM      2  C   UNL     1      -4.244  -2.210  46.362  1.00  0.00     0.094 A 
ATOM      3  C   UNL     1      -4.026  -2.719  45.077  1.00  0.00     0.336 A 
ATOM      4  O   UNL     1      -3.249  -2.121  44.288  1.00  0.00    -0.246 OA
ATOM      5  O   UNL     1      -4.634  -3.834  44.684  1.00  0.00    -0.423 OA
ATOM      6  C   UNL     1      -5.467  -4.512  45.470  1.00  0.00     0.142 A 
ATOM      7  C   UNL     1      -6.078  -5.679  45.000  1.00  0.00     0.098 A 
ATOM      8  C   UNL     1      -6.955  -6.397  45.826  1.00  0.00     0.161 A 
ATOM      9  C   UNL     1      -7.222  -5.947  47.127  1.00  0.00     0.158 A 
ATOM     10  C   UNL     1      -6.612  -4.776  47.603  1.00  0.00     0.062 A 
ATOM     11  C   UNL     1      -5.734  -4.058  46.780  1.00  0.00     0.022 A 
ENDROOT
BRANCH   9  12
ATOM     12  O   UNL     1      -8.095  -6.666  47.940  1.00  0.00    -0.504 OA
ATOM     13  H   UNL     1      -7.816  -7.538  48.377  1.00  0.00     0.293 HD
ENDBRANCH   9  12
BRANCH   8  14
ATOM     14  O   UNL     1      -7.567  -7.560  45.360  1.00  0.00    -0.504 OA
ATOM     15  H   UNL     1      -8.566  -7.706  45.445  1.00  0.00     0.293 HD
ENDBRANCH   8  14
TORSDOF 2
ENDMDL
MODEL 6
REMARK VINA RESULT:    -5.384      2.840      4.429
REMARK INTER + INTRA:          -5.698
REMARK INTER:                  -5.698
REMARK INTRA:                   0.000
REMARK UNBOUND:                 0.000
REMARK SMILES O=c1ccc2cc(O)c(O)cc2o1
REMARK SMILES IDX 4 1 3 2 2 3 1 4 13 5 12 6 11 7 9 8 7 9 6 10 5 11 8 12 10 14
REMARK H PARENT 8 13 10 15
REMARK Flexibility Score: inf
ROOT
ATOM      1  C   UNL     1      -2.235  -0.905  45.157  1.00  0.00     0.019 A 
ATOM      2  C   UNL     1      -1.507  -1.607  44.198  1.00  0.00     0.094 A 
ATOM      3  C   UNL     1      -1.788  -2.961  43.987  1.00  0.00     0.336 A 
ATOM      4  O   UNL     1      -1.141  -3.611  43.125  1.00  0.00    -0.246 OA
ATOM      5  O   UNL     1      -2.737  -3.568  44.695  1.00  0.00    -0.423 OA
ATOM      6  C   UNL     1      -3.456  -2.937  45.619  1.00  0.00     0.142 A 
ATOM      7  C   UNL     1      -4.442  -3.628  46.331  1.00  0.00     0.098 A 
ATOM      8  C   UNL     1      -5.202  -2.967  47.307  1.00  0.00     0.161 A 
ATOM      9  C   UNL     1      -4.975  -1.609  47.572  1.00  0.00     0.158 A 
ATOM     10  C   UNL     1      -3.988  -0.910  46.861  1.00  0.00     0.062 A 
ATOM     11  C   UNL     1      -3.227  -1.569  45.886  1.00  0.00     0.022 A 
ENDROOT
BRANCH   9  12
ATOM     12  O   UNL     1      -5.735  -0.960  48.543  1.00  0.00    -0.504 OA
ATOM     13  H   UNL     1      -6.641  -1.312  48.832  1.00  0.00     0.293 HD
ENDBRANCH   9  12
BRANCH   8  14
ATOM     14  O   UNL     1      -6.185  -3.654  48.018  1.00  0.00    -0.504 OA
ATOM     15  H   UNL     1      -6.790  -4.331  47.568  1.00  0.00     0.293 HD
ENDBRANCH   8  14
TORSDOF 2
ENDMDL
MODEL 7
REMARK VINA RESULT:    -5.257      5.874      7.511
REMARK INTER + INTRA:          -5.564
REMARK INTER:                  -5.564
REMARK INTRA:                   0.000
REMARK UNBOUND:                 0.000
REMARK SMILES O=c1ccc2cc(O)c(O)cc2o1
REMARK SMILES IDX 4 1 3 2 2 3 1 4 13 5 12 6 11 7 9 8 7 9 6 10 5 11 8 12 10 14
REMARK H PARENT 8 13 10 15
REMARK Flexibility Score: inf
ROOT
ATOM      1  C   UNL     1     -11.698  -4.760  40.515  1.00  0.00     0.019 A 
ATOM      2  C   UNL     1     -11.574  -4.865  39.130  1.00  0.00     0.094 A 
ATOM      3  C   UNL     1     -10.523  -5.616  38.596  1.00  0.00     0.336 A 
ATOM      4  O   UNL     1     -10.395  -5.722  37.348  1.00  0.00    -0.246 OA
ATOM      5  O   UNL     1      -9.653  -6.222  39.401  1.00  0.00    -0.423 OA
ATOM      6  C   UNL     1      -9.733  -6.150  40.727  1.00  0.00     0.142 A 
ATOM      7  C   UNL     1      -8.790  -6.809  41.522  1.00  0.00     0.098 A 
ATOM      8  C   UNL     1      -8.871  -6.735  42.920  1.00  0.00     0.161 A 
ATOM      9  C   UNL     1      -9.899  -5.999  43.526  1.00  0.00     0.158 A 
ATOM     10  C   UNL     1     -10.849  -5.336  42.734  1.00  0.00     0.062 A 
ATOM     11  C   UNL     1     -10.769  -5.408  41.336  1.00  0.00     0.022 A 
ENDROOT
BRANCH   9  12
ATOM     12  O   UNL     1      -9.971  -5.931  44.916  1.00  0.00    -0.504 OA
ATOM     13  H   UNL     1     -10.129  -5.052  45.397  1.00  0.00     0.293 HD
ENDBRANCH   9  12
BRANCH   8  14
ATOM     14  O   UNL     1      -7.932  -7.391  43.714  1.00  0.00    -0.504 OA
ATOM     15  H   UNL     1      -7.020  -7.650  43.355  1.00  0.00     0.293 HD
ENDBRANCH   8  14
TORSDOF 2
ENDMDL
MODEL 8
REMARK VINA RESULT:    -5.079      6.043      7.340
REMARK INTER + INTRA:          -5.376
REMARK INTER:                  -5.376
REMARK INTRA:                   0.000
REMARK UNBOUND:                 0.000
REMARK SMILES O=c1ccc2cc(O)c(O)cc2o1
REMARK SMILES IDX 4 1 3 2 2 3 1 4 13 5 12 6 11 7 9 8 7 9 6 10 5 11 8 12 10 14
REMARK H PARENT 8 13 10 15
REMARK Flexibility Score: inf
ROOT
ATOM      1  C   UNL     1      -9.996  -5.882  39.257  1.00  0.00     0.019 A 
ATOM      2  C   UNL     1     -10.970  -5.104  38.632  1.00  0.00     0.094 A 
ATOM      3  C   UNL     1     -11.891  -4.406  39.421  1.00  0.00     0.336 A 
ATOM      4  O   UNL     1     -12.778  -3.699  38.875  1.00  0.00    -0.246 OA
ATOM      5  O   UNL     1     -11.837  -4.487  40.748  1.00  0.00    -0.423 OA
ATOM      6  C   UNL     1     -10.925  -5.216  41.385  1.00  0.00     0.142 A 
ATOM      7  C   UNL     1     -10.917  -5.262  42.782  1.00  0.00     0.098 A 
ATOM      8  C   UNL     1      -9.958  -6.031  43.458  1.00  0.00     0.161 A 
ATOM      9  C   UNL     1      -9.002  -6.757  42.733  1.00  0.00     0.158 A 
ATOM     10  C   UNL     1      -9.005  -6.714  41.330  1.00  0.00     0.062 A 
ATOM     11  C   UNL     1      -9.963  -5.948  40.654  1.00  0.00     0.022 A 
ENDROOT
BRANCH   9  12
ATOM     12  O   UNL     1      -8.053  -7.518  43.412  1.00  0.00    -0.504 OA
ATOM     13  H   UNL     1      -8.046  -7.577  44.424  1.00  0.00     0.293 HD
ENDBRANCH   9  12
BRANCH   8  14
ATOM     14  O   UNL     1      -9.948  -6.077  44.851  1.00  0.00    -0.504 OA
ATOM     15  H   UNL     1      -9.097  -6.261  45.370  1.00  0.00     0.293 HD
ENDBRANCH   8  14
TORSDOF 2
ENDMDL
MODEL 9
REMARK VINA RESULT:    -5.054      1.952      3.289
REMARK INTER + INTRA:          -5.350
REMARK INTER:                  -5.350
REMARK INTRA:                   0.000
REMARK UNBOUND:                 0.000
REMARK SMILES O=c1ccc2cc(O)c(O)cc2o1
REMARK SMILES IDX 4 1 3 2 2 3 1 4 13 5 12 6 11 7 9 8 7 9 6 10 5 11 8 12 10 14
REMARK H PARENT 8 13 10 15
REMARK Flexibility Score: inf
ROOT
ATOM      1  C   UNL     1      -6.850  -5.315  46.888  1.00  0.00     0.019 A 
ATOM      2  C   UNL     1      -6.216  -4.283  47.580  1.00  0.00     0.094 A 
ATOM      3  C   UNL     1      -5.224  -3.540  46.931  1.00  0.00     0.336 A 
ATOM      4  O   UNL     1      -4.640  -2.605  47.540  1.00  0.00    -0.246 OA
ATOM      5  O   UNL     1      -4.892  -3.815  45.672  1.00  0.00    -0.423 OA
ATOM      6  C   UNL     1      -5.472  -4.789  44.975  1.00  0.00     0.142 A 
ATOM      7  C   UNL     1      -5.081  -5.032  43.655  1.00  0.00     0.098 A 
ATOM      8  C   UNL     1      -5.689  -6.058  42.916  1.00  0.00     0.161 A 
ATOM      9  C   UNL     1      -6.691  -6.844  43.501  1.00  0.00     0.158 A 
ATOM     10  C   UNL     1      -7.088  -6.605  44.826  1.00  0.00     0.062 A 
ATOM     11  C   UNL     1      -6.481  -5.581  45.565  1.00  0.00     0.022 A 
ENDROOT
BRANCH   9  12
ATOM     12  O   UNL     1      -7.289  -7.862  42.760  1.00  0.00    -0.504 OA
ATOM     13  H   UNL     1      -8.296  -7.980  42.737  1.00  0.00     0.293 HD
ENDBRANCH   9  12
BRANCH   8  14
ATOM     14  O   UNL     1      -5.301  -6.301  41.599  1.00  0.00    -0.504 OA
ATOM     15  H   UNL     1      -4.404  -5.993  41.245  1.00  0.00     0.293 HD
ENDBRANCH   8  14
TORSDOF 2
ENDMDL
