MODEL 1
REMARK VINA RESULT:    -4.134      0.000      0.000
REMARK INTER + INTRA:         -15.214
REMARK INTER:                 -10.417
REMARK INTRA:                  -4.797
REMARK UNBOUND:                -4.797
REMARK SMILES CCCCCCCCCCCCCCCCCCCCCCCCCCCC(=O)[O-]
REMARK SMILES IDX 15 1 16 2 17 3 18 4 19 5 20 6 21 7 22 8 23 9 24 10 25 11
REMARK SMILES IDX 26 12 27 13 28 14 29 15 30 16 14 17 13 18 12 19 11 20 10 21
REMARK SMILES IDX 9 22 8 23 7 24 6 25 5 26 4 27 3 28 2 29 1 30
REMARK H PARENT
REMARK Flexibility Score: inf
ROOT
ATOM      1  C   UNL     1     -40.642 -50.262  37.759  1.00  0.00     0.000 C 
ENDROOT
BRANCH   1   2
ATOM      2  C   UNL     1     -39.977 -49.649  36.509  1.00  0.00     0.000 C 
BRANCH   2   3
ATOM      3  C   UNL     1     -40.617 -48.345  36.003  1.00  0.00     0.000 C 
BRANCH   3   4
ATOM      4  C   UNL     1     -41.282 -48.499  34.628  1.00  0.00     0.000 C 
BRANCH   4   5
ATOM      5  C   UNL     1     -42.810 -48.378  34.746  1.00  0.00     0.000 C 
BRANCH   5   6
ATOM      6  C   UNL     1     -43.526 -49.732  34.619  1.00  0.00     0.000 C 
BRANCH   6   7
ATOM      7  C   UNL     1     -44.528 -49.980  35.756  1.00  0.00     0.000 C 
BRANCH   7   8
ATOM      8  C   UNL     1     -44.007 -49.412  37.082  1.00  0.00     0.000 C 
BRANCH   8   9
ATOM      9  C   UNL     1     -44.986 -48.377  37.657  1.00  0.00     0.000 C 
BRANCH   9  10
ATOM     10  C   UNL     1     -44.650 -47.975  39.104  1.00  0.00     0.000 C 
BRANCH  10  11
ATOM     11  C   UNL     1     -43.204 -47.490  39.332  1.00  0.00     0.000 C 
BRANCH  11  12
ATOM     12  C   UNL     1     -42.950 -46.808  40.688  1.00  0.00     0.006 C 
BRANCH  12  13
ATOM     13  C   UNL     1     -42.947 -45.278  40.595  1.00  0.00     0.053 C 
BRANCH  13  14
ATOM     14  C   UNL     1     -41.720 -44.716  41.243  1.00  0.00     0.041 C 
ATOM     15  O   UNL     1     -41.229 -45.272  42.260  1.00  0.00    -0.550 OA
ATOM     16  O   UNL     1     -41.097 -43.598  40.701  1.00  0.00    -0.550 OA
ENDBRANCH  13  14
ENDBRANCH  12  13
ENDBRANCH  11  12
ENDBRANCH  10  11
ENDBRANCH   9  10
ENDBRANCH   8   9
ENDBRANCH   7   8
ENDBRANCH   6   7
ENDBRANCH   5   6
ENDBRANCH   4   5
ENDBRANCH   3   4
ENDBRANCH   2   3
ENDBRANCH   1   2
BRANCH   1  17
ATOM     17  C   UNL     1     -41.170 -51.698  37.585  1.00  0.00     0.000 C 
BRANCH  17  18
ATOM     18  C   UNL     1     -41.167 -52.165  36.120  1.00  0.00     0.000 C 
BRANCH  18  19
ATOM     19  C   UNL     1     -42.380 -53.049  35.786  1.00  0.00     0.000 C 
BRANCH  19  20
ATOM     20  C   UNL     1     -43.211 -53.409  37.029  1.00  0.00     0.000 C 
BRANCH  20  21
ATOM     21  C   UNL     1     -44.711 -53.565  36.702  1.00  0.00     0.000 C 
BRANCH  21  22
ATOM     22  C   UNL     1     -45.601 -53.756  37.941  1.00  0.00    -0.000 C 
BRANCH  22  23
ATOM     23  C   UNL     1     -46.940 -53.012  37.839  1.00  0.00    -0.000 C 
BRANCH  23  24
ATOM     24  C   UNL     1     -46.857 -51.557  38.328  1.00  0.00    -0.000 C 
BRANCH  24  25
ATOM     25  C   UNL     1     -46.017 -51.376  39.609  1.00  0.00    -0.000 C 
BRANCH  25  26
ATOM     26  C   UNL     1     -46.824 -50.735  40.748  1.00  0.00    -0.000 C 
BRANCH  26  27
ATOM     27  C   UNL     1     -47.173 -51.766  41.827  1.00  0.00    -0.000 C 
BRANCH  27  28
ATOM     28  C   UNL     1     -48.692 -51.935  41.951  1.00  0.00    -0.000 C 
BRANCH  28  29
ATOM     29  C   UNL     1     -49.211 -52.999  40.977  1.00  0.00    -0.003 C 
ATOM     30  C   UNL     1     -48.334 -54.247  41.010  1.00  0.00     0.004 C 
ENDBRANCH  28  29
ENDBRANCH  27  28
ENDBRANCH  26  27
ENDBRANCH  25  26
ENDBRANCH  24  25
ENDBRANCH  23  24
ENDBRANCH  22  23
ENDBRANCH  21  22
ENDBRANCH  20  21
ENDBRANCH  19  20
ENDBRANCH  18  19
ENDBRANCH  17  18
ENDBRANCH   1  17
TORSDOF 26
ENDMDL
MODEL 2
REMARK VINA RESULT:    -4.111      1.633      3.495
REMARK INTER + INTRA:         -15.156
REMARK INTER:                 -10.394
REMARK INTRA:                  -4.762
REMARK UNBOUND:                -4.797
REMARK SMILES CCCCCCCCCCCCCCCCCCCCCCCCCCCC(=O)[O-]
REMARK SMILES IDX 15 1 16 2 17 3 18 4 19 5 20 6 21 7 22 8 23 9 24 10 25 11
REMARK SMILES IDX 26 12 27 13 28 14 29 15 30 16 14 17 13 18 12 19 11 20 10 21
REMARK SMILES IDX 9 22 8 23 7 24 6 25 5 26 4 27 3 28 2 29 1 30
REMARK H PARENT
REMARK Flexibility Score: inf
ROOT
ATOM      1  C   UNL     1     -43.910 -50.525  35.396  1.00  0.00     0.000 C 
ENDROOT
BRANCH   1   2
ATOM      2  C   UNL     1     -43.075 -49.860  34.282  1.00  0.00     0.000 C 
BRANCH   2   3
ATOM      3  C   UNL     1     -42.721 -48.383  34.526  1.00  0.00     0.000 C 
BRANCH   3   4
ATOM      4  C   UNL     1     -41.207 -48.131  34.579  1.00  0.00     0.000 C 
BRANCH   4   5
ATOM      5  C   UNL     1     -40.564 -48.921  35.729  1.00  0.00     0.000 C 
BRANCH   5   6
ATOM      6  C   UNL     1     -40.992 -48.411  37.115  1.00  0.00     0.000 C 
BRANCH   6   7
ATOM      7  C   UNL     1     -41.306 -49.551  38.094  1.00  0.00     0.000 C 
BRANCH   7   8
ATOM      8  C   UNL     1     -42.172 -49.054  39.258  1.00  0.00     0.000 C 
BRANCH   8   9
ATOM      9  C   UNL     1     -42.799 -47.690  38.933  1.00  0.00     0.000 C 
BRANCH   9  10
ATOM     10  C   UNL     1     -44.065 -47.401  39.758  1.00  0.00     0.000 C 
BRANCH  10  11
ATOM     11  C   UNL     1     -44.111 -46.010  40.423  1.00  0.00     0.000 C 
BRANCH  11  12
ATOM     12  C   UNL     1     -42.739 -45.362  40.676  1.00  0.00     0.006 C 
BRANCH  12  13
ATOM     13  C   UNL     1     -42.134 -45.751  42.030  1.00  0.00     0.053 C 
BRANCH  13  14
ATOM     14  C   UNL     1     -40.865 -46.520  41.836  1.00  0.00     0.041 C 
ATOM     15  O   UNL     1     -40.148 -46.316  40.821  1.00  0.00    -0.550 OA
ATOM     16  O   UNL     1     -40.454 -47.438  42.796  1.00  0.00    -0.550 OA
ENDBRANCH  13  14
ENDBRANCH  12  13
ENDBRANCH  11  12
ENDBRANCH  10  11
ENDBRANCH   9  10
ENDBRANCH   8   9
ENDBRANCH   7   8
ENDBRANCH   6   7
ENDBRANCH   5   6
ENDBRANCH   4   5
ENDBRANCH   3   4
ENDBRANCH   2   3
ENDBRANCH   1   2
BRANCH   1  17
ATOM     17  C   UNL     1     -44.655 -49.553  36.329  1.00  0.00     0.000 C 
BRANCH  17  18
ATOM     18  C   UNL     1     -45.190 -50.233  37.600  1.00  0.00     0.000 C 
BRANCH  18  19
ATOM     19  C   UNL     1     -45.701 -51.658  37.330  1.00  0.00     0.000 C 
BRANCH  19  20
ATOM     20  C   UNL     1     -47.226 -51.783  37.496  1.00  0.00     0.000 C 
BRANCH  20  21
ATOM     21  C   UNL     1     -47.678 -53.253  37.628  1.00  0.00     0.000 C 
BRANCH  21  22
ATOM     22  C   UNL     1     -47.571 -53.810  39.057  1.00  0.00    -0.000 C 
BRANCH  22  23
ATOM     23  C   UNL     1     -48.621 -53.220  40.011  1.00  0.00    -0.000 C 
BRANCH  23  24
ATOM     24  C   UNL     1     -48.112 -53.092  41.456  1.00  0.00    -0.000 C 
BRANCH  24  25
ATOM     25  C   UNL     1     -46.674 -52.544  41.565  1.00  0.00    -0.000 C 
BRANCH  25  26
ATOM     26  C   UNL     1     -46.572 -51.082  41.103  1.00  0.00    -0.000 C 
BRANCH  26  27
ATOM     27  C   UNL     1     -45.137 -50.560  41.234  1.00  0.00    -0.000 C 
BRANCH  27  28
ATOM     28  C   UNL     1     -44.135 -51.720  41.266  1.00  0.00    -0.000 C 
BRANCH  28  29
ATOM     29  C   UNL     1     -42.826 -51.301  41.946  1.00  0.00    -0.003 C 
ATOM     30  C   UNL     1     -42.986 -49.968  42.670  1.00  0.00     0.004 C 
ENDBRANCH  28  29
ENDBRANCH  27  28
ENDBRANCH  26  27
ENDBRANCH  25  26
ENDBRANCH  24  25
ENDBRANCH  23  24
ENDBRANCH  22  23
ENDBRANCH  21  22
ENDBRANCH  20  21
ENDBRANCH  19  20
ENDBRANCH  18  19
ENDBRANCH  17  18
ENDBRANCH   1  17
TORSDOF 26
ENDMDL
MODEL 3
REMARK VINA RESULT:    -4.021      4.917      9.266
REMARK INTER + INTRA:         -14.929
REMARK INTER:                 -10.786
REMARK INTRA:                  -4.142
REMARK UNBOUND:                -4.797
REMARK SMILES CCCCCCCCCCCCCCCCCCCCCCCCCCCC(=O)[O-]
REMARK SMILES IDX 15 1 16 2 17 3 18 4 19 5 20 6 21 7 22 8 23 9 24 10 25 11
REMARK SMILES IDX 26 12 27 13 28 14 29 15 30 16 14 17 13 18 12 19 11 20 10 21
REMARK SMILES IDX 9 22 8 23 7 24 6 25 5 26 4 27 3 28 2 29 1 30
REMARK H PARENT
REMARK Flexibility Score: inf
ROOT
ATOM      1  C   UNL     1     -44.303 -52.893  41.565  1.00  0.00     0.000 C 
ENDROOT
BRANCH   1   2
ATOM      2  C   UNL     1     -44.830 -54.014  42.484  1.00  0.00     0.000 C 
BRANCH   2   3
ATOM      3  C   UNL     1     -45.734 -53.542  43.636  1.00  0.00     0.000 C 
BRANCH   3   4
ATOM      4  C   UNL     1     -47.221 -53.838  43.390  1.00  0.00     0.000 C 
BRANCH   4   5
ATOM      5  C   UNL     1     -48.048 -52.544  43.442  1.00  0.00     0.000 C 
BRANCH   5   6
ATOM      6  C   UNL     1     -48.364 -51.982  42.046  1.00  0.00     0.000 C 
BRANCH   6   7
ATOM      7  C   UNL     1     -49.200 -52.948  41.196  1.00  0.00     0.000 C 
BRANCH   7   8
ATOM      8  C   UNL     1     -48.503 -53.256  39.865  1.00  0.00     0.000 C 
BRANCH   8   9
ATOM      9  C   UNL     1     -47.627 -54.511  39.981  1.00  0.00     0.000 C 
BRANCH   9  10
ATOM     10  C   UNL     1     -46.785 -54.773  38.720  1.00  0.00     0.000 C 
BRANCH  10  11
ATOM     11  C   UNL     1     -46.438 -56.253  38.459  1.00  0.00     0.000 C 
BRANCH  11  12
ATOM     12  C   UNL     1     -47.497 -57.265  38.931  1.00  0.00     0.006 C 
BRANCH  12  13
ATOM     13  C   UNL     1     -47.598 -58.493  38.019  1.00  0.00     0.053 C 
BRANCH  13  14
ATOM     14  C   UNL     1     -47.025 -59.699  38.696  1.00  0.00     0.041 C 
ATOM     15  O   UNL     1     -47.377 -59.995  39.868  1.00  0.00    -0.550 OA
ATOM     16  O   UNL     1     -46.129 -60.517  38.018  1.00  0.00    -0.550 OA
ENDBRANCH  13  14
ENDBRANCH  12  13
ENDBRANCH  11  12
ENDBRANCH  10  11
ENDBRANCH   9  10
ENDBRANCH   8   9
ENDBRANCH   7   8
ENDBRANCH   6   7
ENDBRANCH   5   6
ENDBRANCH   4   5
ENDBRANCH   3   4
ENDBRANCH   2   3
ENDBRANCH   1   2
BRANCH   1  17
ATOM     17  C   UNL     1     -44.642 -51.460  42.014  1.00  0.00     0.000 C 
BRANCH  17  18
ATOM     18  C   UNL     1     -45.147 -50.574  40.863  1.00  0.00     0.000 C 
BRANCH  18  19
ATOM     19  C   UNL     1     -45.516 -51.393  39.615  1.00  0.00     0.000 C 
BRANCH  19  20
ATOM     20  C   UNL     1     -46.292 -50.569  38.572  1.00  0.00     0.000 C 
BRANCH  20  21
ATOM     21  C   UNL     1     -45.962 -50.998  37.127  1.00  0.00     0.000 C 
BRANCH  21  22
ATOM     22  C   UNL     1     -45.077 -49.995  36.369  1.00  0.00    -0.000 C 
BRANCH  22  23
ATOM     23  C   UNL     1     -44.811 -48.708  37.164  1.00  0.00    -0.000 C 
BRANCH  23  24
ATOM     24  C   UNL     1     -43.351 -48.579  37.626  1.00  0.00    -0.000 C 
BRANCH  24  25
ATOM     25  C   UNL     1     -43.194 -47.961  39.031  1.00  0.00    -0.000 C 
BRANCH  25  26
ATOM     26  C   UNL     1     -44.510 -47.365  39.554  1.00  0.00    -0.000 C 
BRANCH  26  27
ATOM     27  C   UNL     1     -44.295 -45.952  40.110  1.00  0.00    -0.000 C 
BRANCH  27  28
ATOM     28  C   UNL     1     -42.809 -45.697  40.391  1.00  0.00    -0.000 C 
BRANCH  28  29
ATOM     29  C   UNL     1     -42.527 -45.673  41.898  1.00  0.00    -0.003 C 
ATOM     30  C   UNL     1     -42.153 -47.061  42.408  1.00  0.00     0.004 C 
ENDBRANCH  28  29
ENDBRANCH  27  28
ENDBRANCH  26  27
ENDBRANCH  25  26
ENDBRANCH  24  25
ENDBRANCH  23  24
ENDBRANCH  22  23
ENDBRANCH  21  22
ENDBRANCH  20  21
ENDBRANCH  19  20
ENDBRANCH  18  19
ENDBRANCH  17  18
ENDBRANCH   1  17
TORSDOF 26
ENDMDL
MODEL 4
REMARK VINA RESULT:    -4.013      1.835      5.012
REMARK INTER + INTRA:         -14.908
REMARK INTER:                  -9.255
REMARK INTRA:                  -5.653
REMARK UNBOUND:                -4.797
REMARK SMILES CCCCCCCCCCCCCCCCCCCCCCCCCCCC(=O)[O-]
REMARK SMILES IDX 15 1 16 2 17 3 18 4 19 5 20 6 21 7 22 8 23 9 24 10 25 11
REMARK SMILES IDX 26 12 27 13 28 14 29 15 30 16 14 17 13 18 12 19 11 20 10 21
REMARK SMILES IDX 9 22 8 23 7 24 6 25 5 26 4 27 3 28 2 29 1 30
REMARK H PARENT
REMARK Flexibility Score: inf
ROOT
ATOM      1  C   UNL     1     -46.910 -52.853  37.289  1.00  0.00     0.000 C 
ENDROOT
BRANCH   1   2
ATOM      2  C   UNL     1     -46.870 -51.320  37.124  1.00  0.00     0.000 C 
BRANCH   2   3
ATOM      3  C   UNL     1     -45.469 -50.726  36.896  1.00  0.00     0.000 C 
BRANCH   3   4
ATOM      4  C   UNL     1     -44.444 -51.769  36.430  1.00  0.00     0.000 C 
BRANCH   4   5
ATOM      5  C   UNL     1     -43.613 -51.228  35.255  1.00  0.00     0.000 C 
BRANCH   5   6
ATOM      6  C   UNL     1     -43.904 -49.750  34.951  1.00  0.00     0.000 C 
BRANCH   6   7
ATOM      7  C   UNL     1     -42.944 -49.161  33.908  1.00  0.00     0.000 C 
BRANCH   7   8
ATOM      8  C   UNL     1     -42.150 -47.985  34.491  1.00  0.00     0.000 C 
BRANCH   8   9
ATOM      9  C   UNL     1     -40.827 -48.466  35.104  1.00  0.00     0.000 C 
BRANCH   9  10
ATOM     10  C   UNL     1     -40.804 -48.359  36.638  1.00  0.00     0.000 C 
BRANCH  10  11
ATOM     11  C   UNL     1     -41.166 -49.655  37.392  1.00  0.00     0.000 C 
BRANCH  11  12
ATOM     12  C   UNL     1     -42.096 -49.467  38.604  1.00  0.00     0.006 C 
BRANCH  12  13
ATOM     13  C   UNL     1     -43.171 -48.398  38.372  1.00  0.00     0.053 C 
BRANCH  13  14
ATOM     14  C   UNL     1     -43.453 -47.654  39.640  1.00  0.00     0.041 C 
ATOM     15  O   UNL     1     -42.636 -47.701  40.598  1.00  0.00    -0.550 OA
ATOM     16  O   UNL     1     -44.600 -46.878  39.751  1.00  0.00    -0.550 OA
ENDBRANCH  13  14
ENDBRANCH  12  13
ENDBRANCH  11  12
ENDBRANCH  10  11
ENDBRANCH   9  10
ENDBRANCH   8   9
ENDBRANCH   7   8
ENDBRANCH   6   7
ENDBRANCH   5   6
ENDBRANCH   4   5
ENDBRANCH   3   4
ENDBRANCH   2   3
ENDBRANCH   1   2
BRANCH   1  17
ATOM     17  C   UNL     1     -47.989 -53.382  38.252  1.00  0.00     0.000 C 
BRANCH  17  18
ATOM     18  C   UNL     1     -47.457 -54.455  39.217  1.00  0.00     0.000 C 
BRANCH  18  19
ATOM     19  C   UNL     1     -48.108 -54.365  40.607  1.00  0.00     0.000 C 
BRANCH  19  20
ATOM     20  C   UNL     1     -49.281 -53.370  40.650  1.00  0.00     0.000 C 
BRANCH  20  21
ATOM     21  C   UNL     1     -49.055 -52.246  41.683  1.00  0.00     0.000 C 
BRANCH  21  22
ATOM     22  C   UNL     1     -47.772 -52.416  42.513  1.00  0.00    -0.000 C 
BRANCH  22  23
ATOM     23  C   UNL     1     -46.764 -51.277  42.299  1.00  0.00    -0.000 C 
BRANCH  23  24
ATOM     24  C   UNL     1     -46.373 -51.093  40.824  1.00  0.00    -0.000 C 
BRANCH  24  25
ATOM     25  C   UNL     1     -44.852 -50.980  40.591  1.00  0.00    -0.000 C 
BRANCH  25  26
ATOM     26  C   UNL     1     -44.270 -52.238  39.929  1.00  0.00    -0.000 C 
BRANCH  26  27
ATOM     27  C   UNL     1     -44.155 -53.389  40.935  1.00  0.00    -0.000 C 
BRANCH  27  28
ATOM     28  C   UNL     1     -43.983 -54.731  40.212  1.00  0.00    -0.000 C 
BRANCH  28  29
ATOM     29  C   UNL     1     -43.399 -54.531  38.808  1.00  0.00    -0.003 C 
ATOM     30  C   UNL     1     -44.168 -55.345  37.772  1.00  0.00     0.004 C 
ENDBRANCH  28  29
ENDBRANCH  27  28
ENDBRANCH  26  27
ENDBRANCH  25  26
ENDBRANCH  24  25
ENDBRANCH  23  24
ENDBRANCH  22  23
ENDBRANCH  21  22
ENDBRANCH  20  21
ENDBRANCH  19  20
ENDBRANCH  18  19
ENDBRANCH  17  18
ENDBRANCH   1  17
TORSDOF 26
ENDMDL
MODEL 5
REMARK VINA RESULT:    -4.011      1.981      6.304
REMARK INTER + INTRA:         -14.904
REMARK INTER:                  -9.898
REMARK INTRA:                  -5.006
REMARK UNBOUND:                -4.797
REMARK SMILES CCCCCCCCCCCCCCCCCCCCCCCCCCCC(=O)[O-]
REMARK SMILES IDX 15 1 16 2 17 3 18 4 19 5 20 6 21 7 22 8 23 9 24 10 25 11
REMARK SMILES IDX 26 12 27 13 28 14 29 15 30 16 14 17 13 18 12 19 11 20 10 21
REMARK SMILES IDX 9 22 8 23 7 24 6 25 5 26 4 27 3 28 2 29 1 30
REMARK H PARENT
REMARK Flexibility Score: inf
ROOT
ATOM      1  C   UNL     1     -45.654 -56.773  38.657  1.00  0.00     0.000 C 
ENDROOT
BRANCH   1   2
ATOM      2  C   UNL     1     -47.160 -56.518  38.868  1.00  0.00     0.000 C 
BRANCH   2   3
ATOM      3  C   UNL     1     -47.621 -55.074  38.605  1.00  0.00     0.000 C 
BRANCH   3   4
ATOM      4  C   UNL     1     -47.291 -54.120  39.762  1.00  0.00     0.000 C 
BRANCH   4   5
ATOM      5  C   UNL     1     -47.279 -52.662  39.277  1.00  0.00     0.000 C 
BRANCH   5   6
ATOM      6  C   UNL     1     -47.646 -52.525  37.791  1.00  0.00     0.000 C 
BRANCH   6   7
ATOM      7  C   UNL     1     -46.940 -51.342  37.114  1.00  0.00     0.000 C 
BRANCH   7   8
ATOM      8  C   UNL     1     -46.558 -50.268  38.140  1.00  0.00     0.000 C 
BRANCH   8   9
ATOM      9  C   UNL     1     -46.331 -48.912  37.456  1.00  0.00     0.000 C 
BRANCH   9  10
ATOM     10  C   UNL     1     -45.238 -48.072  38.139  1.00  0.00     0.000 C 
BRANCH  10  11
ATOM     11  C   UNL     1     -44.117 -48.884  38.820  1.00  0.00     0.000 C 
BRANCH  11  12
ATOM     12  C   UNL     1     -43.522 -48.240  40.085  1.00  0.00     0.006 C 
BRANCH  12  13
ATOM     13  C   UNL     1     -42.867 -46.881  39.813  1.00  0.00     0.053 C 
BRANCH  13  14
ATOM     14  C   UNL     1     -43.459 -45.827  40.695  1.00  0.00     0.041 C 
ATOM     15  O   UNL     1     -42.779 -45.327  41.630  1.00  0.00    -0.550 OA
ATOM     16  O   UNL     1     -44.750 -45.369  40.463  1.00  0.00    -0.550 OA
ENDBRANCH  13  14
ENDBRANCH  12  13
ENDBRANCH  11  12
ENDBRANCH  10  11
ENDBRANCH   9  10
ENDBRANCH   8   9
ENDBRANCH   7   8
ENDBRANCH   6   7
ENDBRANCH   5   6
ENDBRANCH   4   5
ENDBRANCH   3   4
ENDBRANCH   2   3
ENDBRANCH   1   2
BRANCH   1  17
ATOM     17  C   UNL     1     -44.867 -57.146  39.926  1.00  0.00     0.000 C 
BRANCH  17  18
ATOM     18  C   UNL     1     -44.213 -55.931  40.606  1.00  0.00     0.000 C 
BRANCH  18  19
ATOM     19  C   UNL     1     -43.420 -55.064  39.614  1.00  0.00     0.000 C 
BRANCH  19  20
ATOM     20  C   UNL     1     -43.604 -53.557  39.865  1.00  0.00     0.000 C 
BRANCH  20  21
ATOM     21  C   UNL     1     -43.696 -52.755  38.550  1.00  0.00     0.000 C 
BRANCH  21  22
ATOM     22  C   UNL     1     -44.089 -53.605  37.330  1.00  0.00    -0.000 C 
BRANCH  22  23
ATOM     23  C   UNL     1     -43.702 -52.952  35.994  1.00  0.00    -0.000 C 
BRANCH  23  24
ATOM     24  C   UNL     1     -43.267 -51.486  36.147  1.00  0.00    -0.000 C 
BRANCH  24  25
ATOM     25  C   UNL     1     -44.022 -50.512  35.220  1.00  0.00    -0.000 C 
BRANCH  25  26
ATOM     26  C   UNL     1     -43.075 -49.757  34.274  1.00  0.00    -0.000 C 
BRANCH  26  27
ATOM     27  C   UNL     1     -42.782 -48.345  34.795  1.00  0.00    -0.000 C 
BRANCH  27  28
ATOM     28  C   UNL     1     -41.319 -47.962  34.539  1.00  0.00    -0.000 C 
BRANCH  28  29
ATOM     29  C   UNL     1     -40.387 -48.631  35.557  1.00  0.00    -0.003 C 
ATOM     30  C   UNL     1     -40.935 -48.497  36.974  1.00  0.00     0.004 C 
ENDBRANCH  28  29
ENDBRANCH  27  28
ENDBRANCH  26  27
ENDBRANCH  25  26
ENDBRANCH  24  25
ENDBRANCH  23  24
ENDBRANCH  22  23
ENDBRANCH  21  22
ENDBRANCH  20  21
ENDBRANCH  19  20
ENDBRANCH  18  19
ENDBRANCH  17  18
ENDBRANCH   1  17
TORSDOF 26
ENDMDL
MODEL 6
REMARK VINA RESULT:    -4.002      1.384      6.729
REMARK INTER + INTRA:         -14.883
REMARK INTER:                  -9.938
REMARK INTRA:                  -4.945
REMARK UNBOUND:                -4.797
REMARK SMILES CCCCCCCCCCCCCCCCCCCCCCCCCCCC(=O)[O-]
REMARK SMILES IDX 15 1 16 2 17 3 18 4 19 5 20 6 21 7 22 8 23 9 24 10 25 11
REMARK SMILES IDX 26 12 27 13 28 14 29 15 30 16 14 17 13 18 12 19 11 20 10 21
REMARK SMILES IDX 9 22 8 23 7 24 6 25 5 26 4 27 3 28 2 29 1 30
REMARK H PARENT
REMARK Flexibility Score: inf
ROOT
ATOM      1  C   UNL     1     -47.535 -51.972  41.920  1.00  0.00     0.000 C 
ENDROOT
BRANCH   1   2
ATOM      2  C   UNL     1     -48.847 -52.635  41.452  1.00  0.00     0.000 C 
BRANCH   2   3
ATOM      3  C   UNL     1     -48.689 -54.048  40.863  1.00  0.00     0.000 C 
BRANCH   3   4
ATOM      4  C   UNL     1     -47.343 -54.255  40.155  1.00  0.00     0.000 C 
BRANCH   4   5
ATOM      5  C   UNL     1     -47.539 -54.365  38.635  1.00  0.00     0.000 C 
BRANCH   5   6
ATOM      6  C   UNL     1     -46.608 -53.433  37.844  1.00  0.00     0.000 C 
BRANCH   6   7
ATOM      7  C   UNL     1     -47.314 -52.155  37.370  1.00  0.00     0.000 C 
BRANCH   7   8
ATOM      8  C   UNL     1     -46.383 -50.940  37.475  1.00  0.00     0.000 C 
BRANCH   8   9
ATOM      9  C   UNL     1     -47.184 -49.630  37.436  1.00  0.00     0.000 C 
BRANCH   9  10
ATOM     10  C   UNL     1     -46.288 -48.382  37.361  1.00  0.00     0.000 C 
BRANCH  10  11
ATOM     11  C   UNL     1     -44.923 -48.512  38.067  1.00  0.00     0.000 C 
BRANCH  11  12
ATOM     12  C   UNL     1     -44.660 -47.476  39.174  1.00  0.00     0.006 C 
BRANCH  12  13
ATOM     13  C   UNL     1     -43.381 -47.763  39.970  1.00  0.00     0.053 C 
BRANCH  13  14
ATOM     14  C   UNL     1     -42.707 -46.485  40.360  1.00  0.00     0.041 C 
ATOM     15  O   UNL     1     -43.392 -45.455  40.598  1.00  0.00    -0.550 OA
ATOM     16  O   UNL     1     -41.325 -46.440  40.496  1.00  0.00    -0.550 OA
ENDBRANCH  13  14
ENDBRANCH  12  13
ENDBRANCH  11  12
ENDBRANCH  10  11
ENDBRANCH   9  10
ENDBRANCH   8   9
ENDBRANCH   7   8
ENDBRANCH   6   7
ENDBRANCH   5   6
ENDBRANCH   4   5
ENDBRANCH   3   4
ENDBRANCH   2   3
ENDBRANCH   1   2
BRANCH   1  17
ATOM     17  C   UNL     1     -47.173 -50.655  41.210  1.00  0.00     0.000 C 
BRANCH  17  18
ATOM     18  C   UNL     1     -45.660 -50.487  40.993  1.00  0.00     0.000 C 
BRANCH  18  19
ATOM     19  C   UNL     1     -44.947 -51.833  40.785  1.00  0.00     0.000 C 
BRANCH  19  20
ATOM     20  C   UNL     1     -43.483 -51.666  40.342  1.00  0.00     0.000 C 
BRANCH  20  21
ATOM     21  C   UNL     1     -43.231 -52.245  38.934  1.00  0.00     0.000 C 
BRANCH  21  22
ATOM     22  C   UNL     1     -42.564 -51.255  37.965  1.00  0.00    -0.000 C 
BRANCH  22  23
ATOM     23  C   UNL     1     -42.642 -51.705  36.499  1.00  0.00    -0.000 C 
BRANCH  23  24
ATOM     24  C   UNL     1     -43.748 -50.987  35.709  1.00  0.00    -0.000 C 
BRANCH  24  25
ATOM     25  C   UNL     1     -43.455 -50.862  34.199  1.00  0.00    -0.000 C 
BRANCH  25  26
ATOM     26  C   UNL     1     -42.260 -49.940  33.913  1.00  0.00    -0.000 C 
BRANCH  26  27
ATOM     27  C   UNL     1     -42.483 -48.544  34.507  1.00  0.00    -0.000 C 
BRANCH  27  28
ATOM     28  C   UNL     1     -41.290 -48.123  35.374  1.00  0.00    -0.000 C 
BRANCH  28  29
ATOM     29  C   UNL     1     -39.994 -48.786  34.891  1.00  0.00    -0.003 C 
ATOM     30  C   UNL     1     -39.402 -49.685  35.971  1.00  0.00     0.004 C 
ENDBRANCH  28  29
ENDBRANCH  27  28
ENDBRANCH  26  27
ENDBRANCH  25  26
ENDBRANCH  24  25
ENDBRANCH  23  24
ENDBRANCH  22  23
ENDBRANCH  21  22
ENDBRANCH  20  21
ENDBRANCH  19  20
ENDBRANCH  18  19
ENDBRANCH  17  18
ENDBRANCH   1  17
TORSDOF 26
ENDMDL
MODEL 7
REMARK VINA RESULT:    -3.980      1.676      5.327
REMARK INTER + INTRA:         -14.827
REMARK INTER:                  -9.812
REMARK INTRA:                  -5.015
REMARK UNBOUND:                -4.797
REMARK SMILES CCCCCCCCCCCCCCCCCCCCCCCCCCCC(=O)[O-]
REMARK SMILES IDX 15 1 16 2 17 3 18 4 19 5 20 6 21 7 22 8 23 9 24 10 25 11
REMARK SMILES IDX 26 12 27 13 28 14 29 15 30 16 14 17 13 18 12 19 11 20 10 21
REMARK SMILES IDX 9 22 8 23 7 24 6 25 5 26 4 27 3 28 2 29 1 30
REMARK H PARENT
REMARK Flexibility Score: inf
ROOT
ATOM      1  C   UNL     1     -46.596 -54.030  38.574  1.00  0.00     0.000 C 
ENDROOT
BRANCH   1   2
ATOM      2  C   UNL     1     -47.376 -52.941  37.811  1.00  0.00     0.000 C 
BRANCH   2   3
ATOM      3  C   UNL     1     -46.515 -51.799  37.244  1.00  0.00     0.000 C 
BRANCH   3   4
ATOM      4  C   UNL     1     -47.162 -50.417  37.417  1.00  0.00     0.000 C 
BRANCH   4   5
ATOM      5  C   UNL     1     -46.103 -49.306  37.334  1.00  0.00     0.000 C 
BRANCH   5   6
ATOM      6  C   UNL     1     -44.786 -49.785  36.704  1.00  0.00     0.000 C 
BRANCH   6   7
ATOM      7  C   UNL     1     -43.603 -48.864  37.034  1.00  0.00     0.000 C 
BRANCH   7   8
ATOM      8  C   UNL     1     -43.139 -49.060  38.482  1.00  0.00     0.000 C 
BRANCH   8   9
ATOM      9  C   UNL     1     -42.947 -47.708  39.185  1.00  0.00     0.000 C 
BRANCH   9  10
ATOM     10  C   UNL     1     -44.236 -47.187  39.842  1.00  0.00     0.000 C 
BRANCH  10  11
ATOM     11  C   UNL     1     -44.144 -45.764  40.430  1.00  0.00     0.000 C 
BRANCH  11  12
ATOM     12  C   UNL     1     -42.810 -45.430  41.122  1.00  0.00     0.006 C 
BRANCH  12  13
ATOM     13  C   UNL     1     -42.099 -44.223  40.497  1.00  0.00     0.053 C 
BRANCH  13  14
ATOM     14  C   UNL     1     -40.905 -43.838  41.313  1.00  0.00     0.041 C 
ATOM     15  O   UNL     1     -39.750 -43.890  40.812  1.00  0.00    -0.550 OA
ATOM     16  O   UNL     1     -41.069 -43.385  42.617  1.00  0.00    -0.550 OA
ENDBRANCH  13  14
ENDBRANCH  12  13
ENDBRANCH  11  12
ENDBRANCH  10  11
ENDBRANCH   9  10
ENDBRANCH   8   9
ENDBRANCH   7   8
ENDBRANCH   6   7
ENDBRANCH   5   6
ENDBRANCH   4   5
ENDBRANCH   3   4
ENDBRANCH   2   3
ENDBRANCH   1   2
BRANCH   1  17
ATOM     17  C   UNL     1     -47.440 -54.900  39.523  1.00  0.00     0.000 C 
BRANCH  17  18
ATOM     18  C   UNL     1     -47.541 -54.316  40.942  1.00  0.00     0.000 C 
BRANCH  18  19
ATOM     19  C   UNL     1     -48.913 -53.676  41.214  1.00  0.00     0.000 C 
BRANCH  19  20
ATOM     20  C   UNL     1     -48.839 -52.145  41.340  1.00  0.00     0.000 C 
BRANCH  20  21
ATOM     21  C   UNL     1     -47.468 -51.668  41.865  1.00  0.00     0.000 C 
BRANCH  21  22
ATOM     22  C   UNL     1     -46.786 -50.626  40.964  1.00  0.00    -0.000 C 
BRANCH  22  23
ATOM     23  C   UNL     1     -45.259 -50.604  41.122  1.00  0.00    -0.000 C 
BRANCH  23  24
ATOM     24  C   UNL     1     -44.568 -51.791  40.431  1.00  0.00    -0.000 C 
BRANCH  24  25
ATOM     25  C   UNL     1     -43.067 -51.919  40.763  1.00  0.00    -0.000 C 
BRANCH  25  26
ATOM     26  C   UNL     1     -42.319 -52.795  39.746  1.00  0.00    -0.000 C 
BRANCH  26  27
ATOM     27  C   UNL     1     -43.105 -52.914  38.434  1.00  0.00    -0.000 C 
BRANCH  27  28
ATOM     28  C   UNL     1     -42.270 -52.412  37.250  1.00  0.00    -0.000 C 
BRANCH  28  29
ATOM     29  C   UNL     1     -42.375 -53.368  36.056  1.00  0.00    -0.003 C 
ATOM     30  C   UNL     1     -43.780 -53.951  35.941  1.00  0.00     0.004 C 
ENDBRANCH  28  29
ENDBRANCH  27  28
ENDBRANCH  26  27
ENDBRANCH  25  26
ENDBRANCH  24  25
ENDBRANCH  23  24
ENDBRANCH  22  23
ENDBRANCH  21  22
ENDBRANCH  20  21
ENDBRANCH  19  20
ENDBRANCH  18  19
ENDBRANCH  17  18
ENDBRANCH   1  17
TORSDOF 26
ENDMDL
MODEL 8
REMARK VINA RESULT:    -3.970      1.590      6.277
REMARK INTER + INTRA:         -14.802
REMARK INTER:                 -10.783
REMARK INTRA:                  -4.019
REMARK UNBOUND:                -4.797
REMARK SMILES CCCCCCCCCCCCCCCCCCCCCCCCCCCC(=O)[O-]
REMARK SMILES IDX 15 1 16 2 17 3 18 4 19 5 20 6 21 7 22 8 23 9 24 10 25 11
REMARK SMILES IDX 26 12 27 13 28 14 29 15 30 16 14 17 13 18 12 19 11 20 10 21
REMARK SMILES IDX 9 22 8 23 7 24 6 25 5 26 4 27 3 28 2 29 1 30
REMARK H PARENT
REMARK Flexibility Score: inf
ROOT
ATOM      1  C   UNL     1     -48.355 -52.844  42.101  1.00  0.00     0.000 C 
ENDROOT
BRANCH   1   2
ATOM      2  C   UNL     1     -48.000 -51.351  41.948  1.00  0.00     0.000 C 
BRANCH   2   3
ATOM      3  C   UNL     1     -47.278 -50.983  40.640  1.00  0.00     0.000 C 
BRANCH   3   4
ATOM      4  C   UNL     1     -45.905 -50.336  40.876  1.00  0.00     0.000 C 
BRANCH   4   5
ATOM      5  C   UNL     1     -44.775 -51.291  40.459  1.00  0.00     0.000 C 
BRANCH   5   6
ATOM      6  C   UNL     1     -43.496 -50.551  40.037  1.00  0.00     0.000 C 
BRANCH   6   7
ATOM      7  C   UNL     1     -43.146 -49.390  40.979  1.00  0.00     0.000 C 
BRANCH   7   8
ATOM      8  C   UNL     1     -42.624 -48.181  40.193  1.00  0.00     0.000 C 
BRANCH   8   9
ATOM      9  C   UNL     1     -43.786 -47.366  39.606  1.00  0.00     0.000 C 
BRANCH   9  10
ATOM     10  C   UNL     1     -44.109 -46.106  40.429  1.00  0.00     0.000 C 
BRANCH  10  11
ATOM     11  C   UNL     1     -43.001 -45.658  41.404  1.00  0.00     0.000 C 
BRANCH  11  12
ATOM     12  C   UNL     1     -41.981 -44.664  40.821  1.00  0.00     0.006 C 
BRANCH  12  13
ATOM     13  C   UNL     1     -40.531 -45.026  41.163  1.00  0.00     0.053 C 
BRANCH  13  14
ATOM     14  C   UNL     1     -40.254 -44.774  42.612  1.00  0.00     0.041 C 
ATOM     15  O   UNL     1     -39.890 -45.719  43.361  1.00  0.00    -0.550 OA
ATOM     16  O   UNL     1     -40.364 -43.489  43.128  1.00  0.00    -0.550 OA
ENDBRANCH  13  14
ENDBRANCH  12  13
ENDBRANCH  11  12
ENDBRANCH  10  11
ENDBRANCH   9  10
ENDBRANCH   8   9
ENDBRANCH   7   8
ENDBRANCH   6   7
ENDBRANCH   5   6
ENDBRANCH   4   5
ENDBRANCH   3   4
ENDBRANCH   2   3
ENDBRANCH   1   2
BRANCH   1  17
ATOM     17  C   UNL     1     -48.729 -53.569  40.795  1.00  0.00     0.000 C 
BRANCH  17  18
ATOM     18  C   UNL     1     -47.684 -54.613  40.367  1.00  0.00     0.000 C 
BRANCH  18  19
ATOM     19  C   UNL     1     -47.575 -54.738  38.839  1.00  0.00     0.000 C 
BRANCH  19  20
ATOM     20  C   UNL     1     -46.654 -53.672  38.220  1.00  0.00     0.000 C 
BRANCH  20  21
ATOM     21  C   UNL     1     -47.394 -52.787  37.196  1.00  0.00     0.000 C 
BRANCH  21  22
ATOM     22  C   UNL     1     -47.070 -51.289  37.322  1.00  0.00    -0.000 C 
BRANCH  22  23
ATOM     23  C   UNL     1     -45.636 -50.947  36.890  1.00  0.00    -0.000 C 
BRANCH  23  24
ATOM     24  C   UNL     1     -45.389 -49.434  36.775  1.00  0.00    -0.000 C 
BRANCH  24  25
ATOM     25  C   UNL     1     -43.903 -49.055  36.613  1.00  0.00    -0.000 C 
BRANCH  25  26
ATOM     26  C   UNL     1     -43.013 -50.283  36.367  1.00  0.00    -0.000 C 
BRANCH  26  27
ATOM     27  C   UNL     1     -41.546 -49.977  36.694  1.00  0.00    -0.000 C 
BRANCH  27  28
ATOM     28  C   UNL     1     -41.229 -48.497  36.446  1.00  0.00    -0.000 C 
BRANCH  28  29
ATOM     29  C   UNL     1     -40.561 -48.296  35.081  1.00  0.00    -0.003 C 
ATOM     30  C   UNL     1     -39.843 -49.564  34.629  1.00  0.00     0.004 C 
ENDBRANCH  28  29
ENDBRANCH  27  28
ENDBRANCH  26  27
ENDBRANCH  25  26
ENDBRANCH  24  25
ENDBRANCH  23  24
ENDBRANCH  22  23
ENDBRANCH  21  22
ENDBRANCH  20  21
ENDBRANCH  19  20
ENDBRANCH  18  19
ENDBRANCH  17  18
ENDBRANCH   1  17
TORSDOF 26
ENDMDL
MODEL 9
REMARK VINA RESULT:    -3.966      2.568      6.683
REMARK INTER + INTRA:         -14.791
REMARK INTER:                 -10.050
REMARK INTRA:                  -4.741
REMARK UNBOUND:                -4.797
REMARK SMILES CCCCCCCCCCCCCCCCCCCCCCCCCCCC(=O)[O-]
REMARK SMILES IDX 15 1 16 2 17 3 18 4 19 5 20 6 21 7 22 8 23 9 24 10 25 11
REMARK SMILES IDX 26 12 27 13 28 14 29 15 30 16 14 17 13 18 12 19 11 20 10 21
REMARK SMILES IDX 9 22 8 23 7 24 6 25 5 26 4 27 3 28 2 29 1 30
REMARK H PARENT
REMARK Flexibility Score: inf
ROOT
ATOM      1  C   UNL     1     -46.493 -54.445  39.348  1.00  0.00     0.000 C 
ENDROOT
BRANCH   1   2
ATOM      2  C   UNL     1     -46.080 -53.432  38.261  1.00  0.00     0.000 C 
BRANCH   2   3
ATOM      3  C   UNL     1     -47.209 -52.513  37.763  1.00  0.00     0.000 C 
BRANCH   3   4
ATOM      4  C   UNL     1     -46.689 -51.219  37.120  1.00  0.00     0.000 C 
BRANCH   4   5
ATOM      5  C   UNL     1     -45.196 -51.344  36.779  1.00  0.00     0.000 C 
BRANCH   5   6
ATOM      6  C   UNL     1     -44.690 -50.196  35.890  1.00  0.00     0.000 C 
BRANCH   6   7
ATOM      7  C   UNL     1     -43.512 -50.614  34.999  1.00  0.00     0.000 C 
BRANCH   7   8
ATOM      8  C   UNL     1     -43.275 -49.588  33.883  1.00  0.00     0.000 C 
BRANCH   8   9
ATOM      9  C   UNL     1     -42.729 -48.272  34.454  1.00  0.00     0.000 C 
BRANCH   9  10
ATOM     10  C   UNL     1     -41.403 -48.453  35.213  1.00  0.00     0.000 C 
BRANCH  10  11
ATOM     11  C   UNL     1     -40.132 -48.365  34.343  1.00  0.00     0.000 C 
BRANCH  11  12
ATOM     12  C   UNL     1     -39.050 -49.411  34.662  1.00  0.00     0.006 C 
BRANCH  12  13
ATOM     13  C   UNL     1     -37.702 -49.097  34.002  1.00  0.00     0.053 C 
BRANCH  13  14
ATOM     14  C   UNL     1     -36.996 -48.005  34.742  1.00  0.00     0.041 C 
ATOM     15  O   UNL     1     -36.156 -47.278  34.149  1.00  0.00    -0.550 OA
ATOM     16  O   UNL     1     -37.293 -47.764  36.078  1.00  0.00    -0.550 OA
ENDBRANCH  13  14
ENDBRANCH  12  13
ENDBRANCH  11  12
ENDBRANCH  10  11
ENDBRANCH   9  10
ENDBRANCH   8   9
ENDBRANCH   7   8
ENDBRANCH   6   7
ENDBRANCH   5   6
ENDBRANCH   4   5
ENDBRANCH   3   4
ENDBRANCH   2   3
ENDBRANCH   1   2
BRANCH   1  17
ATOM     17  C   UNL     1     -47.989 -54.449  39.709  1.00  0.00     0.000 C 
BRANCH  17  18
ATOM     18  C   UNL     1     -48.256 -54.017  41.160  1.00  0.00     0.000 C 
BRANCH  18  19
ATOM     19  C   UNL     1     -49.020 -52.685  41.242  1.00  0.00     0.000 C 
BRANCH  19  20
ATOM     20  C   UNL     1     -48.198 -51.569  41.910  1.00  0.00     0.000 C 
BRANCH  20  21
ATOM     21  C   UNL     1     -47.135 -50.979  40.959  1.00  0.00     0.000 C 
BRANCH  21  22
ATOM     22  C   UNL     1     -45.688 -51.280  41.382  1.00  0.00    -0.000 C 
BRANCH  22  23
ATOM     23  C   UNL     1     -44.646 -50.598  40.483  1.00  0.00    -0.000 C 
BRANCH  23  24
ATOM     24  C   UNL     1     -45.183 -49.333  39.795  1.00  0.00    -0.000 C 
BRANCH  24  25
ATOM     25  C   UNL     1     -44.152 -48.190  39.698  1.00  0.00    -0.000 C 
BRANCH  25  26
ATOM     26  C   UNL     1     -43.226 -48.344  38.482  1.00  0.00    -0.000 C 
BRANCH  26  27
ATOM     27  C   UNL     1     -41.752 -48.247  38.893  1.00  0.00    -0.000 C 
BRANCH  27  28
ATOM     28  C   UNL     1     -41.177 -49.636  39.194  1.00  0.00    -0.000 C 
BRANCH  28  29
ATOM     29  C   UNL     1     -41.785 -50.698  38.269  1.00  0.00    -0.003 C 
ATOM     30  C   UNL     1     -40.717 -51.329  37.382  1.00  0.00     0.004 C 
ENDBRANCH  28  29
ENDBRANCH  27  28
ENDBRANCH  26  27
ENDBRANCH  25  26
ENDBRANCH  24  25
ENDBRANCH  23  24
ENDBRANCH  22  23
ENDBRANCH  21  22
ENDBRANCH  20  21
ENDBRANCH  19  20
ENDBRANCH  18  19
ENDBRANCH  17  18
ENDBRANCH   1  17
TORSDOF 26
ENDMDL
