MODEL 1
REMARK VINA RESULT:    -6.446      0.000      0.000
REMARK INTER + INTRA:          -7.843
REMARK INTER:                  -7.576
REMARK INTRA:                  -0.267
REMARK UNBOUND:                -0.267
REMARK SMILES O=c1cc(-c2ccc(O)c(O)c2)oc2cc(O)cc(O)c12
REMARK SMILES IDX 4 1 3 2 2 3 1 4 21 5 19 6 18 7 16 8 15 9 14 10 13 11 5 12
REMARK SMILES IDX 6 13 7 14 8 15 12 16 10 17 9 18 11 20 20 22 17 24
REMARK H PARENT 9 19 11 21 20 23 17 25
REMARK Flexibility Score: inf
ROOT
ATOM      1  C   UNL     1      -2.636  67.795 165.533  1.00  0.00     0.138 A 
ATOM      2  C   UNL     1      -2.107  68.302 166.728  1.00  0.00     0.100 A 
ATOM      3  C   UNL     1      -1.003  69.154 166.689  1.00  0.00     0.197 A 
ATOM      4  O   UNL     1      -0.517  69.546 167.781  1.00  0.00    -0.289 OA
ATOM      5  C   UNL     1      -0.448  69.529 165.442  1.00  0.00     0.107 A 
ATOM      6  C   UNL     1       0.657  70.418 165.277  1.00  0.00     0.134 A 
ATOM      7  C   UNL     1       1.181  70.637 163.996  1.00  0.00     0.093 A 
ATOM      8  C   UNL     1       0.604  70.045 162.870  1.00  0.00     0.123 A 
ATOM      9  C   UNL     1      -0.505  69.216 163.016  1.00  0.00     0.094 A 
ATOM     10  C   UNL     1      -1.029  68.950 164.283  1.00  0.00     0.146 A 
ATOM     11  O   UNL     1      -2.077  68.138 164.377  1.00  0.00    -0.456 OA
ENDROOT
BRANCH   1  12
ATOM     12  C   UNL     1      -3.811  66.889 165.517  1.00  0.00     0.021 A 
ATOM     13  C   UNL     1      -3.613  65.504 165.407  1.00  0.00     0.016 A 
ATOM     14  C   UNL     1      -4.700  64.629 165.396  1.00  0.00     0.051 A 
ATOM     15  C   UNL     1      -6.007  65.113 165.504  1.00  0.00     0.157 A 
ATOM     16  C   UNL     1      -5.127  67.376 165.640  1.00  0.00     0.062 A 
ATOM     17  C   UNL     1      -6.223  66.505 165.633  1.00  0.00     0.158 A 
BRANCH  15  18
ATOM     18  O   UNL     1      -7.052  64.186 165.480  1.00  0.00    -0.504 OA
ATOM     19  H   UNL     1      -7.279  63.571 166.247  1.00  0.00     0.293 HD
ENDBRANCH  15  18
BRANCH  17  20
ATOM     20  O   UNL     1      -7.498  67.061 165.762  1.00  0.00    -0.504 OA
ATOM     21  H   UNL     1      -8.158  66.801 166.481  1.00  0.00     0.293 HD
ENDBRANCH  17  20
ENDBRANCH   1  12
BRANCH   6  22
ATOM     22  O   UNL     1       1.258  71.124 166.324  1.00  0.00    -0.507 OA
ATOM     23  H   UNL     1       1.342  70.794 167.272  1.00  0.00     0.293 HD
ENDBRANCH   6  22
BRANCH   8  24
ATOM     24  O   UNL     1       1.123  70.282 161.599  1.00  0.00    -0.508 OA
ATOM     25  H   UNL     1       1.374  69.521 160.979  1.00  0.00     0.293 HD
ENDBRANCH   8  24
TORSDOF 5
ENDMDL
MODEL 2
REMARK VINA RESULT:    -5.767      1.539      2.747
REMARK INTER + INTRA:          -7.045
REMARK INTER:                  -6.768
REMARK INTRA:                  -0.277
REMARK UNBOUND:                -0.267
REMARK SMILES O=c1cc(-c2ccc(O)c(O)c2)oc2cc(O)cc(O)c12
REMARK SMILES IDX 4 1 3 2 2 3 1 4 21 5 19 6 18 7 16 8 15 9 14 10 13 11 5 12
REMARK SMILES IDX 6 13 7 14 8 15 12 16 10 17 9 18 11 20 20 22 17 24
REMARK H PARENT 9 19 11 21 20 23 17 25
REMARK Flexibility Score: inf
ROOT
ATOM      1  C   UNL     1      -2.012  68.070 165.420  1.00  0.00     0.138 A 
ATOM      2  C   UNL     1      -1.866  68.807 164.237  1.00  0.00     0.100 A 
ATOM      3  C   UNL     1      -0.741  69.614 164.060  1.00  0.00     0.197 A 
ATOM      4  O   UNL     1      -0.667  70.306 163.013  1.00  0.00    -0.289 OA
ATOM      5  C   UNL     1       0.261  69.654 165.060  1.00  0.00     0.107 A 
ATOM      6  C   UNL     1       1.466  70.413 164.974  1.00  0.00     0.134 A 
ATOM      7  C   UNL     1       2.337  70.450 166.071  1.00  0.00     0.093 A 
ATOM      8  C   UNL     1       2.074  69.709 167.226  1.00  0.00     0.123 A 
ATOM      9  C   UNL     1       0.926  68.926 167.299  1.00  0.00     0.094 A 
ATOM     10  C   UNL     1       0.020  68.896 166.237  1.00  0.00     0.146 A 
ATOM     11  O   UNL     1      -1.073  68.148 166.356  1.00  0.00    -0.456 OA
ENDROOT
BRANCH   1  12
ATOM     12  C   UNL     1      -3.186  67.193 165.659  1.00  0.00     0.021 A 
ATOM     13  C   UNL     1      -2.989  65.896 166.155  1.00  0.00     0.016 A 
ATOM     14  C   UNL     1      -4.077  65.054 166.395  1.00  0.00     0.051 A 
ATOM     15  C   UNL     1      -5.383  65.490 166.155  1.00  0.00     0.157 A 
ATOM     16  C   UNL     1      -4.503  67.638 165.431  1.00  0.00     0.062 A 
ATOM     17  C   UNL     1      -5.600  66.802 165.671  1.00  0.00     0.158 A 
BRANCH  15  18
ATOM     18  O   UNL     1      -6.427  64.597 166.409  1.00  0.00    -0.504 OA
ATOM     19  H   UNL     1      -6.352  63.802 167.026  1.00  0.00     0.293 HD
ENDBRANCH  15  18
BRANCH  17  20
ATOM     20  O   UNL     1      -6.875  67.312 165.424  1.00  0.00    -0.504 OA
ATOM     21  H   UNL     1      -7.556  67.509 166.145  1.00  0.00     0.293 HD
ENDBRANCH  17  20
ENDBRANCH   1  12
BRANCH   6  22
ATOM     22  O   UNL     1       1.866  71.125 163.839  1.00  0.00    -0.507 OA
ATOM     23  H   UNL     1       2.539  71.874 163.833  1.00  0.00     0.293 HD
ENDBRANCH   6  22
BRANCH   8  24
ATOM     24  O   UNL     1       2.955  69.741 168.306  1.00  0.00    -0.508 OA
ATOM     25  H   UNL     1       2.868  69.092 169.080  1.00  0.00     0.293 HD
ENDBRANCH   8  24
TORSDOF 5
ENDMDL
MODEL 3
REMARK VINA RESULT:    -5.599      2.864      7.641
REMARK INTER + INTRA:          -6.848
REMARK INTER:                  -6.567
REMARK INTRA:                  -0.280
REMARK UNBOUND:                -0.267
REMARK SMILES O=c1cc(-c2ccc(O)c(O)c2)oc2cc(O)cc(O)c12
REMARK SMILES IDX 4 1 3 2 2 3 1 4 21 5 19 6 18 7 16 8 15 9 14 10 13 11 5 12
REMARK SMILES IDX 6 13 7 14 8 15 12 16 10 17 9 18 11 20 20 22 17 24
REMARK H PARENT 9 19 11 21 20 23 17 25
REMARK Flexibility Score: inf
ROOT
ATOM      1  C   UNL     1       0.786  69.816 166.094  1.00  0.00     0.138 A 
ATOM      2  C   UNL     1       0.497  70.596 164.966  1.00  0.00     0.100 A 
ATOM      3  C   UNL     1      -0.716  70.424 164.299  1.00  0.00     0.197 A 
ATOM      4  O   UNL     1      -0.922  71.100 163.258  1.00  0.00    -0.289 OA
ATOM      5  C   UNL     1      -1.661  69.490 164.787  1.00  0.00     0.107 A 
ATOM      6  C   UNL     1      -2.945  69.254 164.210  1.00  0.00     0.134 A 
ATOM      7  C   UNL     1      -3.755  68.232 164.723  1.00  0.00     0.093 A 
ATOM      8  C   UNL     1      -3.351  67.479 165.829  1.00  0.00     0.123 A 
ATOM      9  C   UNL     1      -2.122  67.737 166.430  1.00  0.00     0.094 A 
ATOM     10  C   UNL     1      -1.277  68.724 165.920  1.00  0.00     0.146 A 
ATOM     11  O   UNL     1      -0.104  68.924 166.514  1.00  0.00    -0.456 OA
ENDROOT
BRANCH   1  12
ATOM     12  C   UNL     1       2.060  69.960 166.843  1.00  0.00     0.021 A 
ATOM     13  C   UNL     1       2.041  69.939 168.246  1.00  0.00     0.016 A 
ATOM     14  C   UNL     1       3.226  70.065 168.974  1.00  0.00     0.051 A 
ATOM     15  C   UNL     1       4.454  70.205 168.321  1.00  0.00     0.157 A 
ATOM     16  C   UNL     1       3.298  70.087 166.184  1.00  0.00     0.062 A 
ATOM     17  C   UNL     1       4.491  70.211 166.907  1.00  0.00     0.158 A 
BRANCH  15  18
ATOM     18  O   UNL     1       5.601  70.334 169.107  1.00  0.00    -0.504 OA
ATOM     19  H   UNL     1       6.497  70.635 168.754  1.00  0.00     0.293 HD
ENDBRANCH  15  18
BRANCH  17  20
ATOM     20  O   UNL     1       5.680  70.330 166.185  1.00  0.00    -0.504 OA
ATOM     21  H   UNL     1       6.588  70.065 166.542  1.00  0.00     0.293 HD
ENDBRANCH  17  20
ENDBRANCH   1  12
BRANCH   6  22
ATOM     22  O   UNL     1      -3.480  70.000 163.155  1.00  0.00    -0.507 OA
ATOM     23  H   UNL     1      -4.019  70.845 163.258  1.00  0.00     0.293 HD
ENDBRANCH   6  22
BRANCH   8  24
ATOM     24  O   UNL     1      -4.171  66.476 166.342  1.00  0.00    -0.508 OA
ATOM     25  H   UNL     1      -3.802  65.564 166.587  1.00  0.00     0.293 HD
ENDBRANCH   8  24
TORSDOF 5
ENDMDL
MODEL 4
REMARK VINA RESULT:    -5.313      4.139      6.839
REMARK INTER + INTRA:          -6.512
REMARK INTER:                  -6.200
REMARK INTRA:                  -0.311
REMARK UNBOUND:                -0.267
REMARK SMILES O=c1cc(-c2ccc(O)c(O)c2)oc2cc(O)cc(O)c12
REMARK SMILES IDX 4 1 3 2 2 3 1 4 21 5 19 6 18 7 16 8 15 9 14 10 13 11 5 12
REMARK SMILES IDX 6 13 7 14 8 15 12 16 10 17 9 18 11 20 20 22 17 24
REMARK H PARENT 9 19 11 21 20 23 17 25
REMARK Flexibility Score: inf
ROOT
ATOM      1  C   UNL     1       0.476  70.213 165.173  1.00  0.00     0.138 A 
ATOM      2  C   UNL     1      -0.865  70.384 165.543  1.00  0.00     0.100 A 
ATOM      3  C   UNL     1      -1.834  70.586 164.559  1.00  0.00     0.197 A 
ATOM      4  O   UNL     1      -3.019  70.791 164.927  1.00  0.00    -0.289 OA
ATOM      5  C   UNL     1      -1.462  70.580 163.194  1.00  0.00     0.107 A 
ATOM      6  C   UNL     1      -2.367  70.742 162.102  1.00  0.00     0.134 A 
ATOM      7  C   UNL     1      -1.867  70.818 160.796  1.00  0.00     0.093 A 
ATOM      8  C   UNL     1      -0.501  70.679 160.538  1.00  0.00     0.123 A 
ATOM      9  C   UNL     1       0.385  70.471 161.592  1.00  0.00     0.094 A 
ATOM     10  C   UNL     1      -0.079  70.426 162.909  1.00  0.00     0.146 A 
ATOM     11  O   UNL     1       0.804  70.243 163.886  1.00  0.00    -0.456 OA
ENDROOT
BRANCH   1  12
ATOM     12  C   UNL     1       1.546  69.992 166.177  1.00  0.00     0.021 A 
ATOM     13  C   UNL     1       1.213  69.468 167.435  1.00  0.00     0.016 A 
ATOM     14  C   UNL     1       2.202  69.243 168.395  1.00  0.00     0.051 A 
ATOM     15  C   UNL     1       3.542  69.527 168.120  1.00  0.00     0.157 A 
ATOM     16  C   UNL     1       2.898  70.264 165.893  1.00  0.00     0.062 A 
ATOM     17  C   UNL     1       3.896  70.040 166.849  1.00  0.00     0.158 A 
BRANCH  15  18
ATOM     18  O   UNL     1       4.481  69.287 169.125  1.00  0.00    -0.504 OA
ATOM     19  H   UNL     1       5.208  69.937 169.386  1.00  0.00     0.293 HD
ENDBRANCH  15  18
BRANCH  17  20
ATOM     20  O   UNL     1       5.215  70.331 166.495  1.00  0.00    -0.504 OA
ATOM     21  H   UNL     1       5.602  70.172 165.576  1.00  0.00     0.293 HD
ENDBRANCH  17  20
ENDBRANCH   1  12
BRANCH   6  22
ATOM     22  O   UNL     1      -3.757  70.810 162.240  1.00  0.00    -0.507 OA
ATOM     23  H   UNL     1      -4.283  70.417 163.004  1.00  0.00     0.293 HD
ENDBRANCH   6  22
BRANCH   8  24
ATOM     24  O   UNL     1      -0.015  70.740 159.233  1.00  0.00    -0.508 OA
ATOM     25  H   UNL     1      -0.560  71.148 158.483  1.00  0.00     0.293 HD
ENDBRANCH   8  24
TORSDOF 5
ENDMDL
MODEL 5
REMARK VINA RESULT:    -5.249      1.881      2.836
REMARK INTER + INTRA:          -6.436
REMARK INTER:                  -6.148
REMARK INTRA:                  -0.288
REMARK UNBOUND:                -0.267
REMARK SMILES O=c1cc(-c2ccc(O)c(O)c2)oc2cc(O)cc(O)c12
REMARK SMILES IDX 4 1 3 2 2 3 1 4 21 5 19 6 18 7 16 8 15 9 14 10 13 11 5 12
REMARK SMILES IDX 6 13 7 14 8 15 12 16 10 17 9 18 11 20 20 22 17 24
REMARK H PARENT 9 19 11 21 20 23 17 25
REMARK Flexibility Score: inf
ROOT
ATOM      1  C   UNL     1      -3.817  67.069 165.342  1.00  0.00     0.138 A 
ATOM      2  C   UNL     1      -3.980  68.290 164.674  1.00  0.00     0.100 A 
ATOM      3  C   UNL     1      -2.985  69.264 164.759  1.00  0.00     0.197 A 
ATOM      4  O   UNL     1      -3.186  70.369 164.195  1.00  0.00    -0.289 OA
ATOM      5  C   UNL     1      -1.801  68.997 165.490  1.00  0.00     0.107 A 
ATOM      6  C   UNL     1      -0.703  69.900 165.618  1.00  0.00     0.134 A 
ATOM      7  C   UNL     1       0.373  69.564 166.450  1.00  0.00     0.093 A 
ATOM      8  C   UNL     1       0.417  68.333 167.109  1.00  0.00     0.123 A 
ATOM      9  C   UNL     1      -0.626  67.425 166.949  1.00  0.00     0.094 A 
ATOM     10  C   UNL     1      -1.730  67.745 166.156  1.00  0.00     0.146 A 
ATOM     11  O   UNL     1      -2.711  66.855 166.046  1.00  0.00    -0.456 OA
ENDROOT
BRANCH   1  12
ATOM     12  C   UNL     1      -4.843  65.998 165.282  1.00  0.00     0.021 A 
ATOM     13  C   UNL     1      -4.446  64.656 165.382  1.00  0.00     0.016 A 
ATOM     14  C   UNL     1      -5.391  63.630 165.336  1.00  0.00     0.051 A 
ATOM     15  C   UNL     1      -6.752  63.918 165.198  1.00  0.00     0.157 A 
ATOM     16  C   UNL     1      -6.215  66.290 165.158  1.00  0.00     0.062 A 
ATOM     17  C   UNL     1      -7.170  65.267 165.113  1.00  0.00     0.158 A 
BRANCH  15  18
ATOM     18  O   UNL     1      -7.646  62.846 165.151  1.00  0.00    -0.504 OA
ATOM     19  H   UNL     1      -7.374  61.891 164.971  1.00  0.00     0.293 HD
ENDBRANCH  15  18
BRANCH  17  20
ATOM     20  O   UNL     1      -8.512  65.633 164.991  1.00  0.00    -0.504 OA
ATOM     21  H   UNL     1      -9.047  65.546 164.139  1.00  0.00     0.293 HD
ENDBRANCH  17  20
ENDBRANCH   1  12
BRANCH   6  22
ATOM     22  O   UNL     1      -0.608  71.120 164.941  1.00  0.00    -0.507 OA
ATOM     23  H   UNL     1       0.142  71.381 164.322  1.00  0.00     0.293 HD
ENDBRANCH   6  22
BRANCH   8  24
ATOM     24  O   UNL     1       1.500  68.001 167.922  1.00  0.00    -0.508 OA
ATOM     25  H   UNL     1       1.385  67.431 168.751  1.00  0.00     0.293 HD
ENDBRANCH   8  24
TORSDOF 5
ENDMDL
MODEL 6
REMARK VINA RESULT:    -5.141      3.746      7.623
REMARK INTER + INTRA:          -6.309
REMARK INTER:                  -6.014
REMARK INTRA:                  -0.295
REMARK UNBOUND:                -0.267
REMARK SMILES O=c1cc(-c2ccc(O)c(O)c2)oc2cc(O)cc(O)c12
REMARK SMILES IDX 4 1 3 2 2 3 1 4 21 5 19 6 18 7 16 8 15 9 14 10 13 11 5 12
REMARK SMILES IDX 6 13 7 14 8 15 12 16 10 17 9 18 11 20 20 22 17 24
REMARK H PARENT 9 19 11 21 20 23 17 25
REMARK Flexibility Score: inf
ROOT
ATOM      1  C   UNL     1       0.958  70.376 165.332  1.00  0.00     0.138 A 
ATOM      2  C   UNL     1       1.113  70.252 163.945  1.00  0.00     0.100 A 
ATOM      3  C   UNL     1      -0.003  70.343 163.113  1.00  0.00     0.197 A 
ATOM      4  O   UNL     1       0.161  70.172 161.878  1.00  0.00    -0.289 OA
ATOM      5  C   UNL     1      -1.279  70.596 163.673  1.00  0.00     0.107 A 
ATOM      6  C   UNL     1      -2.483  70.743 162.921  1.00  0.00     0.134 A 
ATOM      7  C   UNL     1      -3.703  70.893 163.595  1.00  0.00     0.093 A 
ATOM      8  C   UNL     1      -3.753  70.960 164.989  1.00  0.00     0.123 A 
ATOM      9  C   UNL     1      -2.577  70.868 165.729  1.00  0.00     0.094 A 
ATOM     10  C   UNL     1      -1.350  70.683 165.089  1.00  0.00     0.146 A 
ATOM     11  O   UNL     1      -0.254  70.582 165.835  1.00  0.00    -0.456 OA
ENDROOT
BRANCH   1  12
ATOM     12  C   UNL     1       2.112  70.291 166.262  1.00  0.00     0.021 A 
ATOM     13  C   UNL     1       1.881  70.095 167.632  1.00  0.00     0.016 A 
ATOM     14  C   UNL     1       2.948  70.004 168.527  1.00  0.00     0.051 A 
ATOM     15  C   UNL     1       4.268  70.097 168.076  1.00  0.00     0.157 A 
ATOM     16  C   UNL     1       3.441  70.370 165.804  1.00  0.00     0.062 A 
ATOM     17  C   UNL     1       4.518  70.277 166.695  1.00  0.00     0.158 A 
BRANCH  15  18
ATOM     18  O   UNL     1       5.290  70.006 169.023  1.00  0.00    -0.504 OA
ATOM     19  H   UNL     1       5.777  69.151 169.247  1.00  0.00     0.293 HD
ENDBRANCH  15  18
BRANCH  17  20
ATOM     20  O   UNL     1       5.808  70.362 166.168  1.00  0.00    -0.504 OA
ATOM     21  H   UNL     1       6.618  69.921 166.581  1.00  0.00     0.293 HD
ENDBRANCH  17  20
ENDBRANCH   1  12
BRANCH   6  22
ATOM     22  O   UNL     1      -2.537  70.771 161.524  1.00  0.00    -0.507 OA
ATOM     23  H   UNL     1      -2.787  71.575 160.970  1.00  0.00     0.293 HD
ENDBRANCH   6  22
BRANCH   8  24
ATOM     24  O   UNL     1      -4.969  71.125 165.649  1.00  0.00    -0.508 OA
ATOM     25  H   UNL     1      -5.775  70.552 165.426  1.00  0.00     0.293 HD
ENDBRANCH   8  24
TORSDOF 5
ENDMDL
MODEL 7
REMARK VINA RESULT:    -5.116      3.872      5.561
REMARK INTER + INTRA:          -6.280
REMARK INTER:                  -5.992
REMARK INTRA:                  -0.288
REMARK UNBOUND:                -0.267
REMARK SMILES O=c1cc(-c2ccc(O)c(O)c2)oc2cc(O)cc(O)c12
REMARK SMILES IDX 4 1 3 2 2 3 1 4 21 5 19 6 18 7 16 8 15 9 14 10 13 11 5 12
REMARK SMILES IDX 6 13 7 14 8 15 12 16 10 17 9 18 11 20 20 22 17 24
REMARK H PARENT 9 19 11 21 20 23 17 25
REMARK Flexibility Score: inf
ROOT
ATOM      1  C   UNL     1      -0.547  70.250 163.483  1.00  0.00     0.138 A 
ATOM      2  C   UNL     1      -1.253  69.642 164.530  1.00  0.00     0.100 A 
ATOM      3  C   UNL     1      -0.628  69.445 165.762  1.00  0.00     0.197 A 
ATOM      4  O   UNL     1      -1.270  68.847 166.663  1.00  0.00    -0.289 OA
ATOM      5  C   UNL     1       0.701  69.893 165.957  1.00  0.00     0.107 A 
ATOM      6  C   UNL     1       1.428  69.778 167.180  1.00  0.00     0.134 A 
ATOM      7  C   UNL     1       2.773  70.168 167.222  1.00  0.00     0.093 A 
ATOM      8  C   UNL     1       3.398  70.725 166.103  1.00  0.00     0.123 A 
ATOM      9  C   UNL     1       2.681  70.888 164.921  1.00  0.00     0.094 A 
ATOM     10  C   UNL     1       1.350  70.475 164.835  1.00  0.00     0.146 A 
ATOM     11  O   UNL     1       0.710  70.633 163.681  1.00  0.00    -0.456 OA
ENDROOT
BRANCH   1  12
ATOM     12  C   UNL     1      -1.164  70.487 162.154  1.00  0.00     0.021 A 
ATOM     13  C   UNL     1      -0.358  70.464 161.005  1.00  0.00     0.016 A 
ATOM     14  C   UNL     1      -0.914  70.677 159.743  1.00  0.00     0.051 A 
ATOM     15  C   UNL     1      -2.285  70.907 159.596  1.00  0.00     0.157 A 
ATOM     16  C   UNL     1      -2.547  70.704 162.006  1.00  0.00     0.062 A 
ATOM     17  C   UNL     1      -3.114  70.916 160.743  1.00  0.00     0.158 A 
BRANCH  15  18
ATOM     18  O   UNL     1      -2.778  71.120 158.306  1.00  0.00    -0.504 OA
ATOM     19  H   UNL     1      -2.313  70.810 157.466  1.00  0.00     0.293 HD
ENDBRANCH  15  18
BRANCH  17  20
ATOM     20  O   UNL     1      -4.493  71.123 160.673  1.00  0.00    -0.504 OA
ATOM     21  H   UNL     1      -4.984  71.387 159.831  1.00  0.00     0.293 HD
ENDBRANCH  17  20
ENDBRANCH   1  12
BRANCH   6  22
ATOM     22  O   UNL     1       0.878  69.311 168.378  1.00  0.00    -0.507 OA
ATOM     23  H   UNL     1      -0.094  69.089 168.521  1.00  0.00     0.293 HD
ENDBRANCH   6  22
BRANCH   8  24
ATOM     24  O   UNL     1       4.731  71.125 166.160  1.00  0.00    -0.508 OA
ATOM     25  H   UNL     1       5.396  70.666 166.772  1.00  0.00     0.293 HD
ENDBRANCH   8  24
TORSDOF 5
ENDMDL
MODEL 8
REMARK VINA RESULT:    -5.032      3.581      7.914
REMARK INTER + INTRA:          -6.181
REMARK INTER:                  -5.864
REMARK INTRA:                  -0.316
REMARK UNBOUND:                -0.267
REMARK SMILES O=c1cc(-c2ccc(O)c(O)c2)oc2cc(O)cc(O)c12
REMARK SMILES IDX 4 1 3 2 2 3 1 4 21 5 19 6 18 7 16 8 15 9 14 10 13 11 5 12
REMARK SMILES IDX 6 13 7 14 8 15 12 16 10 17 9 18 11 20 20 22 17 24
REMARK H PARENT 9 19 11 21 20 23 17 25
REMARK Flexibility Score: inf
ROOT
ATOM      1  C   UNL     1       2.084  70.011 166.128  1.00  0.00     0.138 A 
ATOM      2  C   UNL     1       0.947  69.490 166.760  1.00  0.00     0.100 A 
ATOM      3  C   UNL     1      -0.206  69.240 166.013  1.00  0.00     0.197 A 
ATOM      4  O   UNL     1      -1.226  68.825 166.620  1.00  0.00    -0.289 OA
ATOM      5  C   UNL     1      -0.206  69.479 164.618  1.00  0.00     0.107 A 
ATOM      6  C   UNL     1      -1.310  69.230 163.750  1.00  0.00     0.134 A 
ATOM      7  C   UNL     1      -1.225  69.600 162.401  1.00  0.00     0.093 A 
ATOM      8  C   UNL     1      -0.055  70.157 161.878  1.00  0.00     0.123 A 
ATOM      9  C   UNL     1       1.046  70.357 162.708  1.00  0.00     0.094 A 
ATOM     10  C   UNL     1       0.980  70.031 164.064  1.00  0.00     0.146 A 
ATOM     11  O   UNL     1       2.048  70.257 164.823  1.00  0.00    -0.456 OA
ENDROOT
BRANCH   1  12
ATOM     12  C   UNL     1       3.337  70.292 166.873  1.00  0.00     0.021 A 
ATOM     13  C   UNL     1       3.332  70.241 168.275  1.00  0.00     0.016 A 
ATOM     14  C   UNL     1       4.498  70.495 168.999  1.00  0.00     0.051 A 
ATOM     15  C   UNL     1       5.695  70.795 168.342  1.00  0.00     0.157 A 
ATOM     16  C   UNL     1       4.545  70.580 166.210  1.00  0.00     0.062 A 
ATOM     17  C   UNL     1       5.720  70.834 166.928  1.00  0.00     0.158 A 
BRANCH  15  18
ATOM     18  O   UNL     1       6.825  71.046 169.125  1.00  0.00    -0.504 OA
ATOM     19  H   UNL     1       6.942  71.866 169.701  1.00  0.00     0.293 HD
ENDBRANCH  15  18
BRANCH  17  20
ATOM     20  O   UNL     1       6.881  71.110 166.203  1.00  0.00    -0.504 OA
ATOM     21  H   UNL     1       7.672  71.619 166.573  1.00  0.00     0.293 HD
ENDBRANCH  17  20
ENDBRANCH   1  12
BRANCH   6  22
ATOM     22  O   UNL     1      -2.497  68.606 164.149  1.00  0.00    -0.507 OA
ATOM     23  H   UNL     1      -2.551  67.769 164.708  1.00  0.00     0.293 HD
ENDBRANCH   6  22
BRANCH   8  24
ATOM     24  O   UNL     1       0.025  70.507 160.532  1.00  0.00    -0.508 OA
ATOM     25  H   UNL     1       0.696  70.071 159.910  1.00  0.00     0.293 HD
ENDBRANCH   8  24
TORSDOF 5
ENDMDL
MODEL 9
REMARK VINA RESULT:    -4.859      4.201      5.874
REMARK INTER + INTRA:          -5.977
REMARK INTER:                  -5.674
REMARK INTRA:                  -0.303
REMARK UNBOUND:                -0.267
REMARK SMILES O=c1cc(-c2ccc(O)c(O)c2)oc2cc(O)cc(O)c12
REMARK SMILES IDX 4 1 3 2 2 3 1 4 21 5 19 6 18 7 16 8 15 9 14 10 13 11 5 12
REMARK SMILES IDX 6 13 7 14 8 15 12 16 10 17 9 18 11 20 20 22 17 24
REMARK H PARENT 9 19 11 21 20 23 17 25
REMARK Flexibility Score: inf
ROOT
ATOM      1  C   UNL     1       0.100  70.095 164.251  1.00  0.00     0.138 A 
ATOM      2  C   UNL     1      -0.490  69.412 165.323  1.00  0.00     0.100 A 
ATOM      3  C   UNL     1       0.241  69.198 166.493  1.00  0.00     0.197 A 
ATOM      4  O   UNL     1      -0.297  68.533 167.415  1.00  0.00    -0.289 OA
ATOM      5  C   UNL     1       1.559  69.703 166.601  1.00  0.00     0.107 A 
ATOM      6  C   UNL     1       2.387  69.576 167.757  1.00  0.00     0.134 A 
ATOM      7  C   UNL     1       3.711  70.031 167.710  1.00  0.00     0.093 A 
ATOM      8  C   UNL     1       4.217  70.661 166.571  1.00  0.00     0.123 A 
ATOM      9  C   UNL     1       3.401  70.835 165.456  1.00  0.00     0.094 A 
ATOM     10  C   UNL     1       2.088  70.360 165.458  1.00  0.00     0.146 A 
ATOM     11  O   UNL     1       1.350  70.532 164.366  1.00  0.00    -0.456 OA
ENDROOT
BRANCH   1  12
ATOM     12  C   UNL     1      -0.632  70.353 162.986  1.00  0.00     0.021 A 
ATOM     13  C   UNL     1      -2.014  70.593 163.025  1.00  0.00     0.016 A 
ATOM     14  C   UNL     1      -2.725  70.846 161.851  1.00  0.00     0.051 A 
ATOM     15  C   UNL     1      -2.074  70.874 160.614  1.00  0.00     0.157 A 
ATOM     16  C   UNL     1       0.028  70.396 161.742  1.00  0.00     0.062 A 
ATOM     17  C   UNL     1      -0.678  70.651 160.560  1.00  0.00     0.158 A 
BRANCH  15  18
ATOM     18  O   UNL     1      -2.843  71.125 159.476  1.00  0.00    -0.504 OA
ATOM     19  H   UNL     1      -2.967  70.467 158.721  1.00  0.00     0.293 HD
ENDBRANCH  15  18
BRANCH  17  20
ATOM     20  O   UNL     1       0.044  70.680 159.364  1.00  0.00    -0.504 OA
ATOM     21  H   UNL     1      -0.361  70.504 158.455  1.00  0.00     0.293 HD
ENDBRANCH  17  20
ENDBRANCH   1  12
BRANCH   6  22
ATOM     22  O   UNL     1       1.958  69.035 168.973  1.00  0.00    -0.507 OA
ATOM     23  H   UNL     1       1.825  68.053 169.156  1.00  0.00     0.293 HD
ENDBRANCH   6  22
BRANCH   8  24
ATOM     24  O   UNL     1       5.531  71.125 166.540  1.00  0.00    -0.508 OA
ATOM     25  H   UNL     1       6.146  71.028 167.339  1.00  0.00     0.293 HD
ENDBRANCH   8  24
TORSDOF 5
ENDMDL
