MODEL 1
REMARK VINA RESULT:    -4.277      0.000      0.000
REMARK INTER + INTRA:         -10.311
REMARK INTER:                  -7.777
REMARK INTRA:                  -2.534
REMARK UNBOUND:                -2.534
REMARK SMILES CCCCCCCCCCCCCCCC(=O)[O-]
REMARK SMILES IDX 9 1 10 2 11 3 12 4 13 5 14 6 15 7 16 8 17 9 18 10 8 11 7 12
REMARK SMILES IDX 6 13 5 14 4 15 3 16 2 17 1 18
REMARK H PARENT
REMARK Flexibility Score: inf
ROOT
ATOM      1  C   UNL     1     -37.289  18.126 -28.070  1.00  0.00     0.000 C 
ENDROOT
BRANCH   1   2
ATOM      2  C   UNL     1     -35.832  18.427 -27.685  1.00  0.00     0.000 C 
BRANCH   2   3
ATOM      3  C   UNL     1     -35.103  19.150 -28.827  1.00  0.00     0.000 C 
BRANCH   3   4
ATOM      4  C   UNL     1     -34.181  18.218 -29.629  1.00  0.00     0.000 C 
BRANCH   4   5
ATOM      5  C   UNL     1     -34.809  17.763 -30.957  1.00  0.00     0.000 C 
BRANCH   5   6
ATOM      6  C   UNL     1     -34.958  16.234 -31.054  1.00  0.00     0.006 C 
BRANCH   6   7
ATOM      7  C   UNL     1     -36.257  15.683 -30.443  1.00  0.00     0.053 C 
BRANCH   7   8
ATOM      8  C   UNL     1     -36.184  14.206 -30.204  1.00  0.00     0.041 C 
ATOM      9  O   UNL     1     -35.497  13.474 -30.964  1.00  0.00    -0.550 OA
ATOM     10  O   UNL     1     -36.847  13.643 -29.120  1.00  0.00    -0.550 OA
ENDBRANCH   7   8
ENDBRANCH   6   7
ENDBRANCH   5   6
ENDBRANCH   4   5
ENDBRANCH   3   4
ENDBRANCH   2   3
ENDBRANCH   1   2
BRANCH   1  11
ATOM     11  C   UNL     1     -37.902  19.213 -28.966  1.00  0.00     0.000 C 
BRANCH  11  12
ATOM     12  C   UNL     1     -38.640  18.630 -30.184  1.00  0.00    -0.000 C 
BRANCH  12  13
ATOM     13  C   UNL     1     -38.013  19.064 -31.517  1.00  0.00    -0.000 C 
BRANCH  13  14
ATOM     14  C   UNL     1     -37.817  20.587 -31.608  1.00  0.00    -0.000 C 
BRANCH  14  15
ATOM     15  C   UNL     1     -36.364  20.979 -31.919  1.00  0.00    -0.000 C 
BRANCH  15  16
ATOM     16  C   UNL     1     -35.869  22.148 -31.054  1.00  0.00    -0.000 C 
BRANCH  16  17
ATOM     17  C   UNL     1     -36.820  22.402 -29.878  1.00  0.00    -0.003 C 
ATOM     18  C   UNL     1     -36.046  22.700 -28.597  1.00  0.00     0.004 C 
ENDBRANCH  16  17
ENDBRANCH  15  16
ENDBRANCH  14  15
ENDBRANCH  13  14
ENDBRANCH  12  13
ENDBRANCH  11  12
ENDBRANCH   1  11
TORSDOF 14
ENDMDL
MODEL 2
REMARK VINA RESULT:    -4.083      3.993      5.959
REMARK INTER + INTRA:          -9.959
REMARK INTER:                  -7.757
REMARK INTRA:                  -2.202
REMARK UNBOUND:                -2.534
REMARK SMILES CCCCCCCCCCCCCCCC(=O)[O-]
REMARK SMILES IDX 9 1 10 2 11 3 12 4 13 5 14 6 15 7 16 8 17 9 18 10 8 11 7 12
REMARK SMILES IDX 6 13 5 14 4 15 3 16 2 17 1 18
REMARK H PARENT
REMARK Flexibility Score: inf
ROOT
ATOM      1  C   UNL     1     -36.883  16.763 -30.351  1.00  0.00     0.000 C 
ENDROOT
BRANCH   1   2
ATOM      2  C   UNL     1     -37.799  17.440 -31.382  1.00  0.00     0.000 C 
BRANCH   2   3
ATOM      3  C   UNL     1     -38.359  18.761 -30.833  1.00  0.00     0.000 C 
BRANCH   3   4
ATOM      4  C   UNL     1     -38.881  18.632 -29.392  1.00  0.00     0.000 C 
BRANCH   4   5
ATOM      5  C   UNL     1     -39.494  19.941 -28.867  1.00  0.00     0.000 C 
BRANCH   5   6
ATOM      6  C   UNL     1     -39.515  21.057 -29.927  1.00  0.00     0.006 C 
BRANCH   6   7
ATOM      7  C   UNL     1     -39.966  22.428 -29.397  1.00  0.00     0.053 C 
BRANCH   7   8
ATOM      8  C   UNL     1     -41.258  22.873 -30.011  1.00  0.00     0.041 C 
ATOM      9  O   UNL     1     -41.612  22.425 -31.133  1.00  0.00    -0.550 OA
ATOM     10  O   UNL     1     -42.086  23.754 -29.328  1.00  0.00    -0.550 OA
ENDBRANCH   7   8
ENDBRANCH   6   7
ENDBRANCH   5   6
ENDBRANCH   4   5
ENDBRANCH   3   4
ENDBRANCH   2   3
ENDBRANCH   1   2
BRANCH   1  11
ATOM     11  C   UNL     1     -35.406  16.766 -30.778  1.00  0.00     0.000 C 
BRANCH  11  12
ATOM     12  C   UNL     1     -34.745  18.146 -30.612  1.00  0.00    -0.000 C 
BRANCH  12  13
ATOM     13  C   UNL     1     -34.899  18.705 -29.190  1.00  0.00    -0.000 C 
BRANCH  13  14
ATOM     14  C   UNL     1     -34.656  20.223 -29.123  1.00  0.00    -0.000 C 
BRANCH  14  15
ATOM     15  C   UNL     1     -35.959  21.024 -28.970  1.00  0.00    -0.000 C 
BRANCH  15  16
ATOM     16  C   UNL     1     -36.109  22.118 -30.038  1.00  0.00    -0.000 C 
BRANCH  16  17
ATOM     17  C   UNL     1     -36.038  21.521 -31.449  1.00  0.00    -0.003 C 
ATOM     18  C   UNL     1     -34.927  22.173 -32.267  1.00  0.00     0.004 C 
ENDBRANCH  16  17
ENDBRANCH  15  16
ENDBRANCH  14  15
ENDBRANCH  13  14
ENDBRANCH  12  13
ENDBRANCH  11  12
ENDBRANCH   1  11
TORSDOF 14
ENDMDL
MODEL 3
REMARK VINA RESULT:    -4.064      2.194      5.532
REMARK INTER + INTRA:          -9.924
REMARK INTER:                  -7.965
REMARK INTRA:                  -1.960
REMARK UNBOUND:                -2.534
REMARK SMILES CCCCCCCCCCCCCCCC(=O)[O-]
REMARK SMILES IDX 9 1 10 2 11 3 12 4 13 5 14 6 15 7 16 8 17 9 18 10 8 11 7 12
REMARK SMILES IDX 6 13 5 14 4 15 3 16 2 17 1 18
REMARK H PARENT
REMARK Flexibility Score: inf
ROOT
ATOM      1  C   UNL     1     -34.441  20.937 -29.540  1.00  0.00     0.000 C 
ENDROOT
BRANCH   1   2
ATOM      2  C   UNL     1     -35.147  22.287 -29.738  1.00  0.00     0.000 C 
BRANCH   2   3
ATOM      3  C   UNL     1     -35.778  22.375 -31.136  1.00  0.00     0.000 C 
BRANCH   3   4
ATOM      4  C   UNL     1     -36.127  20.995 -31.719  1.00  0.00     0.000 C 
BRANCH   4   5
ATOM      5  C   UNL     1     -37.643  20.762 -31.817  1.00  0.00     0.000 C 
BRANCH   5   6
ATOM      6  C   UNL     1     -38.145  19.682 -30.840  1.00  0.00     0.006 C 
BRANCH   6   7
ATOM      7  C   UNL     1     -38.676  20.231 -29.505  1.00  0.00     0.053 C 
BRANCH   7   8
ATOM      8  C   UNL     1     -39.216  19.146 -28.625  1.00  0.00     0.041 C 
ATOM      9  O   UNL     1     -38.432  18.338 -28.063  1.00  0.00    -0.550 OA
ATOM     10  O   UNL     1     -40.584  19.051 -28.399  1.00  0.00    -0.550 OA
ENDBRANCH   7   8
ENDBRANCH   6   7
ENDBRANCH   5   6
ENDBRANCH   4   5
ENDBRANCH   3   4
ENDBRANCH   2   3
ENDBRANCH   1   2
BRANCH   1  11
ATOM     11  C   UNL     1     -35.128  20.060 -28.481  1.00  0.00     0.000 C 
BRANCH  11  12
ATOM     12  C   UNL     1     -35.110  18.566 -28.849  1.00  0.00    -0.000 C 
BRANCH  12  13
ATOM     13  C   UNL     1     -34.367  18.292 -30.165  1.00  0.00    -0.000 C 
BRANCH  13  14
ATOM     14  C   UNL     1     -34.764  16.948 -30.798  1.00  0.00    -0.000 C 
BRANCH  14  15
ATOM     15  C   UNL     1     -36.280  16.700 -30.757  1.00  0.00    -0.000 C 
BRANCH  15  16
ATOM     16  C   UNL     1     -36.658  15.488 -29.891  1.00  0.00    -0.000 C 
BRANCH  16  17
ATOM     17  C   UNL     1     -36.023  14.204 -30.437  1.00  0.00    -0.003 C 
ATOM     18  C   UNL     1     -36.854  12.979 -30.069  1.00  0.00     0.004 C 
ENDBRANCH  16  17
ENDBRANCH  15  16
ENDBRANCH  14  15
ENDBRANCH  13  14
ENDBRANCH  12  13
ENDBRANCH  11  12
ENDBRANCH   1  11
TORSDOF 14
ENDMDL
MODEL 4
REMARK VINA RESULT:    -3.958      1.415      2.690
REMARK INTER + INTRA:          -9.732
REMARK INTER:                  -7.774
REMARK INTRA:                  -1.958
REMARK UNBOUND:                -2.534
REMARK SMILES CCCCCCCCCCCCCCCC(=O)[O-]
REMARK SMILES IDX 9 1 10 2 11 3 12 4 13 5 14 6 15 7 16 8 17 9 18 10 8 11 7 12
REMARK SMILES IDX 6 13 5 14 4 15 3 16 2 17 1 18
REMARK H PARENT
REMARK Flexibility Score: inf
ROOT
ATOM      1  C   UNL     1     -35.548  20.374 -28.528  1.00  0.00     0.000 C 
ENDROOT
BRANCH   1   2
ATOM      2  C   UNL     1     -35.111  18.907 -28.658  1.00  0.00     0.000 C 
BRANCH   2   3
ATOM      3  C   UNL     1     -36.221  17.960 -28.175  1.00  0.00     0.000 C 
BRANCH   3   4
ATOM      4  C   UNL     1     -36.867  17.167 -29.322  1.00  0.00     0.000 C 
BRANCH   4   5
ATOM      5  C   UNL     1     -35.906  16.942 -30.501  1.00  0.00     0.000 C 
BRANCH   5   6
ATOM      6  C   UNL     1     -35.795  15.461 -30.906  1.00  0.00     0.006 C 
BRANCH   6   7
ATOM      7  C   UNL     1     -36.405  14.479 -29.892  1.00  0.00     0.053 C 
BRANCH   7   8
ATOM      8  C   UNL     1     -36.740  13.160 -30.517  1.00  0.00     0.041 C 
ATOM      9  O   UNL     1     -35.841  12.477 -31.075  1.00  0.00    -0.550 OA
ATOM     10  O   UNL     1     -38.038  12.669 -30.453  1.00  0.00    -0.550 OA
ENDBRANCH   7   8
ENDBRANCH   6   7
ENDBRANCH   5   6
ENDBRANCH   4   5
ENDBRANCH   3   4
ENDBRANCH   2   3
ENDBRANCH   1   2
BRANCH   1  11
ATOM     11  C   UNL     1     -35.297  21.182 -29.811  1.00  0.00     0.000 C 
BRANCH  11  12
ATOM     12  C   UNL     1     -35.489  20.343 -31.087  1.00  0.00    -0.000 C 
BRANCH  12  13
ATOM     13  C   UNL     1     -36.698  20.802 -31.916  1.00  0.00    -0.000 C 
BRANCH  13  14
ATOM     14  C   UNL     1     -38.018  20.179 -31.431  1.00  0.00    -0.000 C 
BRANCH  14  15
ATOM     15  C   UNL     1     -39.084  21.235 -31.099  1.00  0.00    -0.000 C 
BRANCH  15  16
ATOM     16  C   UNL     1     -39.492  21.219 -29.618  1.00  0.00    -0.000 C 
BRANCH  16  17
ATOM     17  C   UNL     1     -39.030  19.926 -28.936  1.00  0.00    -0.003 C 
ATOM     18  C   UNL     1     -40.220  19.088 -28.477  1.00  0.00     0.004 C 
ENDBRANCH  16  17
ENDBRANCH  15  16
ENDBRANCH  14  15
ENDBRANCH  13  14
ENDBRANCH  12  13
ENDBRANCH  11  12
ENDBRANCH   1  11
TORSDOF 14
ENDMDL
MODEL 5
REMARK VINA RESULT:    -3.933     14.342     16.328
REMARK INTER + INTRA:          -9.686
REMARK INTER:                  -7.656
REMARK INTRA:                  -2.030
REMARK UNBOUND:                -2.534
REMARK SMILES CCCCCCCCCCCCCCCC(=O)[O-]
REMARK SMILES IDX 9 1 10 2 11 3 12 4 13 5 14 6 15 7 16 8 17 9 18 10 8 11 7 12
REMARK SMILES IDX 6 13 5 14 4 15 3 16 2 17 1 18
REMARK H PARENT
REMARK Flexibility Score: inf
ROOT
ATOM      1  C   UNL     1     -47.006   9.614 -30.032  1.00  0.00     0.000 C 
ENDROOT
BRANCH   1   2
ATOM      2  C   UNL     1     -47.768  10.668 -29.214  1.00  0.00     0.000 C 
BRANCH   2   3
ATOM      3  C   UNL     1     -49.283  10.425 -29.283  1.00  0.00     0.000 C 
BRANCH   3   4
ATOM      4  C   UNL     1     -50.072  11.690 -29.658  1.00  0.00     0.000 C 
BRANCH   4   5
ATOM      5  C   UNL     1     -49.157  12.858 -30.065  1.00  0.00     0.000 C 
BRANCH   5   6
ATOM      6  C   UNL     1     -49.593  13.525 -31.382  1.00  0.00     0.006 C 
BRANCH   6   7
ATOM      7  C   UNL     1     -51.101  13.808 -31.482  1.00  0.00     0.053 C 
BRANCH   7   8
ATOM      8  C   UNL     1     -51.497  15.026 -30.706  1.00  0.00     0.041 C 
ATOM      9  O   UNL     1     -51.503  16.156 -31.261  1.00  0.00    -0.550 OA
ATOM     10  O   UNL     1     -51.894  14.908 -29.379  1.00  0.00    -0.550 OA
ENDBRANCH   7   8
ENDBRANCH   6   7
ENDBRANCH   5   6
ENDBRANCH   4   5
ENDBRANCH   3   4
ENDBRANCH   2   3
ENDBRANCH   1   2
BRANCH   1  11
ATOM     11  C   UNL     1     -47.689   8.237 -30.007  1.00  0.00     0.000 C 
BRANCH  11  12
ATOM     12  C   UNL     1     -47.113   7.271 -31.057  1.00  0.00    -0.000 C 
BRANCH  12  13
ATOM     13  C   UNL     1     -47.156   7.853 -32.479  1.00  0.00    -0.000 C 
BRANCH  13  14
ATOM     14  C   UNL     1     -48.124   7.091 -33.399  1.00  0.00    -0.000 C 
BRANCH  14  15
ATOM     15  C   UNL     1     -49.534   7.703 -33.410  1.00  0.00    -0.000 C 
BRANCH  15  16
ATOM     16  C   UNL     1     -49.526   9.211 -33.119  1.00  0.00    -0.000 C 
BRANCH  16  17
ATOM     17  C   UNL     1     -50.904   9.685 -32.643  1.00  0.00    -0.003 C 
ATOM     18  C   UNL     1     -51.562   8.647 -31.738  1.00  0.00     0.004 C 
ENDBRANCH  16  17
ENDBRANCH  15  16
ENDBRANCH  14  15
ENDBRANCH  13  14
ENDBRANCH  12  13
ENDBRANCH  11  12
ENDBRANCH   1  11
TORSDOF 14
ENDMDL
MODEL 6
REMARK VINA RESULT:    -3.863     13.835     15.584
REMARK INTER + INTRA:          -9.558
REMARK INTER:                  -7.722
REMARK INTRA:                  -1.836
REMARK UNBOUND:                -2.534
REMARK SMILES CCCCCCCCCCCCCCCC(=O)[O-]
REMARK SMILES IDX 9 1 10 2 11 3 12 4 13 5 14 6 15 7 16 8 17 9 18 10 8 11 7 12
REMARK SMILES IDX 6 13 5 14 4 15 3 16 2 17 1 18
REMARK H PARENT
REMARK Flexibility Score: inf
ROOT
ATOM      1  C   UNL     1     -50.455  15.265 -32.290  1.00  0.00     0.000 C 
ENDROOT
BRANCH   1   2
ATOM      2  C   UNL     1     -50.426  13.851 -31.690  1.00  0.00     0.000 C 
BRANCH   2   3
ATOM      3  C   UNL     1     -49.178  13.651 -30.818  1.00  0.00     0.000 C 
BRANCH   3   4
ATOM      4  C   UNL     1     -49.409  12.660 -29.666  1.00  0.00     0.000 C 
BRANCH   4   5
ATOM      5  C   UNL     1     -50.331  11.495 -30.064  1.00  0.00     0.000 C 
BRANCH   5   6
ATOM      6  C   UNL     1     -49.554  10.209 -30.402  1.00  0.00     0.006 C 
BRANCH   6   7
ATOM      7  C   UNL     1     -48.165  10.117 -29.749  1.00  0.00     0.053 C 
BRANCH   7   8
ATOM      8  C   UNL     1     -47.454   8.850 -30.114  1.00  0.00     0.041 C 
ATOM      9  O   UNL     1     -46.229   8.873 -30.403  1.00  0.00    -0.550 OA
ATOM     10  O   UNL     1     -48.137   7.640 -30.102  1.00  0.00    -0.550 OA
ENDBRANCH   7   8
ENDBRANCH   6   7
ENDBRANCH   5   6
ENDBRANCH   4   5
ENDBRANCH   3   4
ENDBRANCH   2   3
ENDBRANCH   1   2
BRANCH   1  11
ATOM     11  C   UNL     1     -50.499  16.363 -31.215  1.00  0.00     0.000 C 
BRANCH  11  12
ATOM     12  C   UNL     1     -51.917  16.595 -30.665  1.00  0.00    -0.000 C 
BRANCH  12  13
ATOM     13  C   UNL     1     -51.909  17.272 -29.285  1.00  0.00    -0.000 C 
BRANCH  13  14
ATOM     14  C   UNL     1     -52.288  16.305 -28.151  1.00  0.00    -0.000 C 
BRANCH  14  15
ATOM     15  C   UNL     1     -52.246  14.833 -28.592  1.00  0.00    -0.000 C 
BRANCH  15  16
ATOM     16  C   UNL     1     -53.538  14.076 -28.250  1.00  0.00    -0.000 C 
BRANCH  16  17
ATOM     17  C   UNL     1     -53.725  12.866 -29.173  1.00  0.00    -0.003 C 
ATOM     18  C   UNL     1     -53.834  13.297 -30.633  1.00  0.00     0.004 C 
ENDBRANCH  16  17
ENDBRANCH  15  16
ENDBRANCH  14  15
ENDBRANCH  13  14
ENDBRANCH  12  13
ENDBRANCH  11  12
ENDBRANCH   1  11
TORSDOF 14
ENDMDL
MODEL 7
REMARK VINA RESULT:    -3.859     13.947     15.267
REMARK INTER + INTRA:          -9.552
REMARK INTER:                  -8.014
REMARK INTRA:                  -1.538
REMARK UNBOUND:                -2.534
REMARK SMILES CCCCCCCCCCCCCCCC(=O)[O-]
REMARK SMILES IDX 9 1 10 2 11 3 12 4 13 5 14 6 15 7 16 8 17 9 18 10 8 11 7 12
REMARK SMILES IDX 6 13 5 14 4 15 3 16 2 17 1 18
REMARK H PARENT
REMARK Flexibility Score: inf
ROOT
ATOM      1  C   UNL     1     -51.010  14.191 -31.660  1.00  0.00     0.000 C 
ENDROOT
BRANCH   1   2
ATOM      2  C   UNL     1     -49.647  13.752 -31.103  1.00  0.00     0.000 C 
BRANCH   2   3
ATOM      3  C   UNL     1     -49.822  12.708 -29.989  1.00  0.00     0.000 C 
BRANCH   3   4
ATOM      4  C   UNL     1     -48.481  12.182 -29.451  1.00  0.00     0.000 C 
BRANCH   4   5
ATOM      5  C   UNL     1     -48.578  10.737 -28.934  1.00  0.00     0.000 C 
BRANCH   5   6
ATOM      6  C   UNL     1     -47.504   9.814 -29.540  1.00  0.00     0.006 C 
BRANCH   6   7
ATOM      7  C   UNL     1     -48.065   8.612 -30.317  1.00  0.00     0.053 C 
BRANCH   7   8
ATOM      8  C   UNL     1     -47.840   8.740 -31.792  1.00  0.00     0.041 C 
ATOM      9  O   UNL     1     -46.828   8.215 -32.326  1.00  0.00    -0.550 OA
ATOM     10  O   UNL     1     -48.767   9.409 -32.582  1.00  0.00    -0.550 OA
ENDBRANCH   7   8
ENDBRANCH   6   7
ENDBRANCH   5   6
ENDBRANCH   4   5
ENDBRANCH   3   4
ENDBRANCH   2   3
ENDBRANCH   1   2
BRANCH   1  11
ATOM     11  C   UNL     1     -52.174  13.357 -31.102  1.00  0.00     0.000 C 
BRANCH  11  12
ATOM     12  C   UNL     1     -53.209  14.215 -30.352  1.00  0.00    -0.000 C 
BRANCH  12  13
ATOM     13  C   UNL     1     -53.108  14.059 -28.827  1.00  0.00    -0.000 C 
BRANCH  13  14
ATOM     14  C   UNL     1     -52.319  15.203 -28.168  1.00  0.00    -0.000 C 
BRANCH  14  15
ATOM     15  C   UNL     1     -53.182  16.452 -27.925  1.00  0.00    -0.000 C 
BRANCH  15  16
ATOM     16  C   UNL     1     -52.816  17.615 -28.860  1.00  0.00    -0.000 C 
BRANCH  16  17
ATOM     17  C   UNL     1     -51.435  17.399 -29.488  1.00  0.00    -0.003 C 
ATOM     18  C   UNL     1     -51.432  17.794 -30.963  1.00  0.00     0.004 C 
ENDBRANCH  16  17
ENDBRANCH  15  16
ENDBRANCH  14  15
ENDBRANCH  13  14
ENDBRANCH  12  13
ENDBRANCH  11  12
ENDBRANCH   1  11
TORSDOF 14
ENDMDL
MODEL 8
REMARK VINA RESULT:    -3.794     14.478     16.498
REMARK INTER + INTRA:          -9.433
REMARK INTER:                  -7.653
REMARK INTRA:                  -1.780
REMARK UNBOUND:                -2.534
REMARK SMILES CCCCCCCCCCCCCCCC(=O)[O-]
REMARK SMILES IDX 9 1 10 2 11 3 12 4 13 5 14 6 15 7 16 8 17 9 18 10 8 11 7 12
REMARK SMILES IDX 6 13 5 14 4 15 3 16 2 17 1 18
REMARK H PARENT
REMARK Flexibility Score: inf
ROOT
ATOM      1  C   UNL     1     -49.600  10.989 -29.693  1.00  0.00     0.000 C 
ENDROOT
BRANCH   1   2
ATOM      2  C   UNL     1     -49.636  11.587 -31.108  1.00  0.00     0.000 C 
BRANCH   2   3
ATOM      3  C   UNL     1     -51.083  11.810 -31.571  1.00  0.00     0.000 C 
BRANCH   3   4
ATOM      4  C   UNL     1     -51.535  13.273 -31.424  1.00  0.00     0.000 C 
BRANCH   4   5
ATOM      5  C   UNL     1     -50.354  14.258 -31.409  1.00  0.00     0.000 C 
BRANCH   5   6
ATOM      6  C   UNL     1     -50.797  15.722 -31.583  1.00  0.00     0.006 C 
BRANCH   6   7
ATOM      7  C   UNL     1     -52.122  16.071 -30.885  1.00  0.00     0.053 C 
BRANCH   7   8
ATOM      8  C   UNL     1     -51.944  16.286 -29.413  1.00  0.00     0.041 C 
ATOM      9  O   UNL     1     -52.270  15.383 -28.598  1.00  0.00    -0.550 OA
ATOM     10  O   UNL     1     -51.387  17.469 -28.945  1.00  0.00    -0.550 OA
ENDBRANCH   7   8
ENDBRANCH   6   7
ENDBRANCH   5   6
ENDBRANCH   4   5
ENDBRANCH   3   4
ENDBRANCH   2   3
ENDBRANCH   1   2
BRANCH   1  11
ATOM     11  C   UNL     1     -48.183  10.582 -29.258  1.00  0.00     0.000 C 
BRANCH  11  12
ATOM     12  C   UNL     1     -47.854   9.120 -29.609  1.00  0.00    -0.000 C 
BRANCH  12  13
ATOM     13  C   UNL     1     -46.569   8.990 -30.442  1.00  0.00    -0.000 C 
BRANCH  13  14
ATOM     14  C   UNL     1     -46.844   8.519 -31.881  1.00  0.00    -0.000 C 
BRANCH  14  15
ATOM     15  C   UNL     1     -48.239   7.894 -32.041  1.00  0.00    -0.000 C 
BRANCH  15  16
ATOM     16  C   UNL     1     -48.967   8.388 -33.300  1.00  0.00    -0.000 C 
BRANCH  16  17
ATOM     17  C   UNL     1     -50.473   8.523 -33.045  1.00  0.00    -0.003 C 
ATOM     18  C   UNL     1     -50.851   7.976 -31.671  1.00  0.00     0.004 C 
ENDBRANCH  16  17
ENDBRANCH  15  16
ENDBRANCH  14  15
ENDBRANCH  13  14
ENDBRANCH  12  13
ENDBRANCH  11  12
ENDBRANCH   1  11
TORSDOF 14
ENDMDL
MODEL 9
REMARK VINA RESULT:    -3.741     14.054     16.093
REMARK INTER + INTRA:          -9.337
REMARK INTER:                  -7.034
REMARK INTRA:                  -2.303
REMARK UNBOUND:                -2.534
REMARK SMILES CCCCCCCCCCCCCCCC(=O)[O-]
REMARK SMILES IDX 9 1 10 2 11 3 12 4 13 5 14 6 15 7 16 8 17 9 18 10 8 11 7 12
REMARK SMILES IDX 6 13 5 14 4 15 3 16 2 17 1 18
REMARK H PARENT
REMARK Flexibility Score: inf
ROOT
ATOM      1  C   UNL     1     -51.374   9.825 -30.566  1.00  0.00     0.000 C 
ENDROOT
BRANCH   1   2
ATOM      2  C   UNL     1     -51.138  10.174 -32.043  1.00  0.00     0.000 C 
BRANCH   2   3
ATOM      3  C   UNL     1     -51.324   8.937 -32.935  1.00  0.00     0.000 C 
BRANCH   3   4
ATOM      4  C   UNL     1     -50.023   8.139 -33.122  1.00  0.00     0.000 C 
BRANCH   4   5
ATOM      5  C   UNL     1     -50.000   6.844 -32.292  1.00  0.00     0.000 C 
BRANCH   5   6
ATOM      6  C   UNL     1     -48.656   6.619 -31.576  1.00  0.00     0.006 C 
BRANCH   6   7
ATOM      7  C   UNL     1     -48.293   7.707 -30.551  1.00  0.00     0.053 C 
BRANCH   7   8
ATOM      8  C   UNL     1     -47.057   8.458 -30.941  1.00  0.00     0.041 C 
ATOM      9  O   UNL     1     -46.394   9.080 -30.070  1.00  0.00    -0.550 OA
ATOM     10  O   UNL     1     -46.620   8.442 -32.259  1.00  0.00    -0.550 OA
ENDBRANCH   7   8
ENDBRANCH   6   7
ENDBRANCH   5   6
ENDBRANCH   4   5
ENDBRANCH   3   4
ENDBRANCH   2   3
ENDBRANCH   1   2
BRANCH   1  11
ATOM     11  C   UNL     1     -50.547  10.699 -29.611  1.00  0.00     0.000 C 
BRANCH  11  12
ATOM     12  C   UNL     1     -49.324  11.333 -30.298  1.00  0.00    -0.000 C 
BRANCH  12  13
ATOM     13  C   UNL     1     -49.199  12.837 -30.009  1.00  0.00    -0.000 C 
BRANCH  13  14
ATOM     14  C   UNL     1     -49.571  13.703 -31.224  1.00  0.00    -0.000 C 
BRANCH  14  15
ATOM     15  C   UNL     1     -51.017  14.219 -31.162  1.00  0.00    -0.000 C 
BRANCH  15  16
ATOM     16  C   UNL     1     -51.536  14.354 -29.723  1.00  0.00    -0.000 C 
BRANCH  16  17
ATOM     17  C   UNL     1     -52.867  13.614 -29.548  1.00  0.00    -0.003 C 
ATOM     18  C   UNL     1     -53.327  12.989 -30.862  1.00  0.00     0.004 C 
ENDBRANCH  16  17
ENDBRANCH  15  16
ENDBRANCH  14  15
ENDBRANCH  13  14
ENDBRANCH  12  13
ENDBRANCH  11  12
ENDBRANCH   1  11
TORSDOF 14
ENDMDL
