MODEL 1
REMARK VINA RESULT:    -4.456      0.000      0.000
REMARK INTER + INTRA:         -14.614
REMARK INTER:                 -10.188
REMARK INTRA:                  -4.426
REMARK UNBOUND:                -4.426
REMARK SMILES CCCCCCCCCCCCCCCCCCCCCCCC(=O)[O-]
REMARK SMILES IDX 13 1 14 2 15 3 16 4 17 5 18 6 19 7 20 8 21 9 22 10 23 11
REMARK SMILES IDX 24 12 25 13 26 14 12 15 11 16 10 17 9 18 8 19 7 20 6 21 5 22
REMARK SMILES IDX 4 23 3 24 2 25 1 26
REMARK H PARENT
REMARK Flexibility Score: inf
ROOT
ATOM      1  C   UNL     1      16.538 -34.380  23.166  1.00  0.00     0.000 C 
ENDROOT
BRANCH   1   2
ATOM      2  C   UNL     1      15.146 -33.877  22.742  1.00  0.00     0.000 C 
BRANCH   2   3
ATOM      3  C   UNL     1      14.969 -33.828  21.213  1.00  0.00     0.000 C 
BRANCH   3   4
ATOM      4  C   UNL     1      15.435 -35.127  20.521  1.00  0.00     0.000 C 
BRANCH   4   5
ATOM      5  C   UNL     1      16.444 -34.902  19.376  1.00  0.00     0.000 C 
BRANCH   5   6
ATOM      6  C   UNL     1      17.622 -35.890  19.340  1.00  0.00     0.000 C 
BRANCH   6   7
ATOM      7  C   UNL     1      17.177 -37.356  19.462  1.00  0.00     0.000 C 
BRANCH   7   8
ATOM      8  C   UNL     1      17.924 -38.065  20.603  1.00  0.00     0.000 C 
BRANCH   8   9
ATOM      9  C   UNL     1      18.310 -37.114  21.750  1.00  0.00     0.000 C 
BRANCH   9  10
ATOM     10  C   UNL     1      19.325 -37.680  22.763  1.00  0.00     0.006 C 
BRANCH  10  11
ATOM     11  C   UNL     1      19.706 -36.700  23.889  1.00  0.00     0.053 C 
BRANCH  11  12
ATOM     12  C   UNL     1      18.901 -36.909  25.139  1.00  0.00     0.041 C 
ATOM     13  O   UNL     1      18.338 -38.016  25.355  1.00  0.00    -0.550 OA
ATOM     14  O   UNL     1      18.813 -35.895  26.086  1.00  0.00    -0.550 OA
ENDBRANCH  11  12
ENDBRANCH  10  11
ENDBRANCH   9  10
ENDBRANCH   8   9
ENDBRANCH   7   8
ENDBRANCH   6   7
ENDBRANCH   5   6
ENDBRANCH   4   5
ENDBRANCH   3   4
ENDBRANCH   2   3
ENDBRANCH   1   2
BRANCH   1  15
ATOM     15  C   UNL     1      17.429 -33.326  23.852  1.00  0.00     0.000 C 
BRANCH  15  16
ATOM     16  C   UNL     1      18.841 -33.162  23.249  1.00  0.00     0.000 C 
BRANCH  16  17
ATOM     17  C   UNL     1      18.933 -33.410  21.732  1.00  0.00     0.000 C 
BRANCH  17  18
ATOM     18  C   UNL     1      18.431 -32.248  20.854  1.00  0.00    -0.000 C 
BRANCH  18  19
ATOM     19  C   UNL     1      19.024 -30.874  21.237  1.00  0.00    -0.000 C 
BRANCH  19  20
ATOM     20  C   UNL     1      17.954 -29.893  21.747  1.00  0.00    -0.000 C 
BRANCH  20  21
ATOM     21  C   UNL     1      16.523 -30.449  21.625  1.00  0.00    -0.000 C 
BRANCH  21  22
ATOM     22  C   UNL     1      15.471 -29.755  22.515  1.00  0.00    -0.000 C 
BRANCH  22  23
ATOM     23  C   UNL     1      15.195 -30.451  23.864  1.00  0.00    -0.000 C 
BRANCH  23  24
ATOM     24  C   UNL     1      13.707 -30.722  24.163  1.00  0.00    -0.000 C 
BRANCH  24  25
ATOM     25  C   UNL     1      12.728 -30.194  23.100  1.00  0.00    -0.003 C 
ATOM     26  C   UNL     1      12.309 -31.261  22.089  1.00  0.00     0.004 C 
ENDBRANCH  24  25
ENDBRANCH  23  24
ENDBRANCH  22  23
ENDBRANCH  21  22
ENDBRANCH  20  21
ENDBRANCH  19  20
ENDBRANCH  18  19
ENDBRANCH  17  18
ENDBRANCH  16  17
ENDBRANCH  15  16
ENDBRANCH   1  15
TORSDOF 22
ENDMDL
MODEL 2
REMARK VINA RESULT:    -4.450      2.372      4.476
REMARK INTER + INTRA:         -14.598
REMARK INTER:                 -10.725
REMARK INTRA:                  -3.873
REMARK UNBOUND:                -4.426
REMARK SMILES CCCCCCCCCCCCCCCCCCCCCCCC(=O)[O-]
REMARK SMILES IDX 13 1 14 2 15 3 16 4 17 5 18 6 19 7 20 8 21 9 22 10 23 11
REMARK SMILES IDX 24 12 25 13 26 14 12 15 11 16 10 17 9 18 8 19 7 20 6 21 5 22
REMARK SMILES IDX 4 23 3 24 2 25 1 26
REMARK H PARENT
REMARK Flexibility Score: inf
ROOT
ATOM      1  C   UNL     1      19.558 -38.045  24.956  1.00  0.00     0.000 C 
ENDROOT
BRANCH   1   2
ATOM      2  C   UNL     1      19.511 -38.653  23.542  1.00  0.00     0.000 C 
BRANCH   2   3
ATOM      3  C   UNL     1      19.644 -37.594  22.432  1.00  0.00     0.000 C 
BRANCH   3   4
ATOM      4  C   UNL     1      18.291 -37.259  21.768  1.00  0.00     0.000 C 
BRANCH   4   5
ATOM      5  C   UNL     1      18.004 -38.065  20.485  1.00  0.00     0.000 C 
BRANCH   5   6
ATOM      6  C   UNL     1      17.107 -37.357  19.456  1.00  0.00     0.000 C 
BRANCH   6   7
ATOM      7  C   UNL     1      16.533 -36.030  19.974  1.00  0.00     0.000 C 
BRANCH   7   8
ATOM      8  C   UNL     1      17.071 -34.842  19.161  1.00  0.00     0.000 C 
BRANCH   8   9
ATOM      9  C   UNL     1      18.025 -33.944  19.969  1.00  0.00     0.000 C 
BRANCH   9  10
ATOM     10  C   UNL     1      19.528 -34.194  19.729  1.00  0.00     0.006 C 
BRANCH  10  11
ATOM     11  C   UNL     1      20.375 -34.226  21.016  1.00  0.00     0.053 C 
BRANCH  11  12
ATOM     12  C   UNL     1      21.174 -32.972  21.218  1.00  0.00     0.041 C 
ATOM     13  O   UNL     1      22.279 -33.012  21.824  1.00  0.00    -0.550 OA
ATOM     14  O   UNL     1      20.721 -31.767  20.693  1.00  0.00    -0.550 OA
ENDBRANCH  11  12
ENDBRANCH  10  11
ENDBRANCH   9  10
ENDBRANCH   8   9
ENDBRANCH   7   8
ENDBRANCH   6   7
ENDBRANCH   5   6
ENDBRANCH   4   5
ENDBRANCH   3   4
ENDBRANCH   2   3
ENDBRANCH   1   2
BRANCH   1  15
ATOM     15  C   UNL     1      18.276 -38.237  25.790  1.00  0.00     0.000 C 
BRANCH  15  16
ATOM     16  C   UNL     1      17.723 -36.957  26.455  1.00  0.00     0.000 C 
BRANCH  16  17
ATOM     17  C   UNL     1      17.860 -35.676  25.612  1.00  0.00     0.000 C 
BRANCH  17  18
ATOM     18  C   UNL     1      16.591 -35.271  24.837  1.00  0.00    -0.000 C 
BRANCH  18  19
ATOM     19  C   UNL     1      16.877 -34.588  23.482  1.00  0.00    -0.000 C 
BRANCH  19  20
ATOM     20  C   UNL     1      17.862 -33.413  23.612  1.00  0.00    -0.000 C 
BRANCH  20  21
ATOM     21  C   UNL     1      17.269 -32.077  23.127  1.00  0.00    -0.000 C 
BRANCH  21  22
ATOM     22  C   UNL     1      16.080 -31.548  23.954  1.00  0.00    -0.000 C 
BRANCH  22  23
ATOM     23  C   UNL     1      15.063 -30.696  23.167  1.00  0.00    -0.000 C 
BRANCH  23  24
ATOM     24  C   UNL     1      15.085 -30.902  21.639  1.00  0.00    -0.000 C 
BRANCH  24  25
ATOM     25  C   UNL     1      13.933 -31.760  21.087  1.00  0.00    -0.003 C 
ATOM     26  C   UNL     1      14.306 -33.235  20.934  1.00  0.00     0.004 C 
ENDBRANCH  24  25
ENDBRANCH  23  24
ENDBRANCH  22  23
ENDBRANCH  21  22
ENDBRANCH  20  21
ENDBRANCH  19  20
ENDBRANCH  18  19
ENDBRANCH  17  18
ENDBRANCH  16  17
ENDBRANCH  15  16
ENDBRANCH   1  15
TORSDOF 22
ENDMDL
MODEL 3
REMARK VINA RESULT:    -4.444      3.353      6.872
REMARK INTER + INTRA:         -14.586
REMARK INTER:                 -10.866
REMARK INTRA:                  -3.719
REMARK UNBOUND:                -4.426
REMARK SMILES CCCCCCCCCCCCCCCCCCCCCCCC(=O)[O-]
REMARK SMILES IDX 13 1 14 2 15 3 16 4 17 5 18 6 19 7 20 8 21 9 22 10 23 11
REMARK SMILES IDX 24 12 25 13 26 14 12 15 11 16 10 17 9 18 8 19 7 20 6 21 5 22
REMARK SMILES IDX 4 23 3 24 2 25 1 26
REMARK H PARENT
REMARK Flexibility Score: inf
ROOT
ATOM      1  C   UNL     1      13.110 -31.527  21.927  1.00  0.00     0.000 C 
ENDROOT
BRANCH   1   2
ATOM      2  C   UNL     1      13.470 -32.017  23.341  1.00  0.00     0.000 C 
BRANCH   2   3
ATOM      3  C   UNL     1      14.001 -30.890  24.247  1.00  0.00     0.000 C 
BRANCH   3   4
ATOM      4  C   UNL     1      14.552 -29.693  23.442  1.00  0.00     0.000 C 
BRANCH   4   5
ATOM      5  C   UNL     1      16.059 -29.786  23.130  1.00  0.00     0.000 C 
BRANCH   5   6
ATOM      6  C   UNL     1      16.789 -30.973  23.780  1.00  0.00     0.000 C 
BRANCH   6   7
ATOM      7  C   UNL     1      17.514 -31.861  22.758  1.00  0.00     0.000 C 
BRANCH   7   8
ATOM      8  C   UNL     1      17.541 -31.198  21.372  1.00  0.00     0.000 C 
BRANCH   8   9
ATOM      9  C   UNL     1      18.965 -30.860  20.896  1.00  0.00     0.000 C 
BRANCH   9  10
ATOM     10  C   UNL     1      19.562 -29.560  21.472  1.00  0.00     0.006 C 
BRANCH  10  11
ATOM     11  C   UNL     1      19.377 -28.327  20.567  1.00  0.00     0.053 C 
BRANCH  11  12
ATOM     12  C   UNL     1      20.370 -27.239  20.857  1.00  0.00     0.041 C 
ATOM     13  O   UNL     1      20.403 -26.200  20.143  1.00  0.00    -0.550 OA
ATOM     14  O   UNL     1      21.228 -27.353  21.945  1.00  0.00    -0.550 OA
ENDBRANCH  11  12
ENDBRANCH  10  11
ENDBRANCH   9  10
ENDBRANCH   8   9
ENDBRANCH   7   8
ENDBRANCH   6   7
ENDBRANCH   5   6
ENDBRANCH   4   5
ENDBRANCH   3   4
ENDBRANCH   2   3
ENDBRANCH   1   2
BRANCH   1  15
ATOM     15  C   UNL     1      13.789 -32.298  20.778  1.00  0.00     0.000 C 
BRANCH  15  16
ATOM     16  C   UNL     1      14.604 -33.538  21.206  1.00  0.00     0.000 C 
BRANCH  16  17
ATOM     17  C   UNL     1      15.610 -34.048  20.159  1.00  0.00     0.000 C 
BRANCH  17  18
ATOM     18  C   UNL     1      15.795 -35.577  20.128  1.00  0.00    -0.000 C 
BRANCH  18  19
ATOM     19  C   UNL     1      17.190 -36.028  19.641  1.00  0.00    -0.000 C 
BRANCH  19  20
ATOM     20  C   UNL     1      18.143 -34.842  19.406  1.00  0.00    -0.000 C 
BRANCH  20  21
ATOM     21  C   UNL     1      19.281 -34.773  20.441  1.00  0.00    -0.000 C 
BRANCH  21  22
ATOM     22  C   UNL     1      19.142 -35.738  21.636  1.00  0.00    -0.000 C 
BRANCH  22  23
ATOM     23  C   UNL     1      18.632 -35.093  22.941  1.00  0.00    -0.000 C 
BRANCH  23  24
ATOM     24  C   UNL     1      17.238 -35.565  23.399  1.00  0.00    -0.000 C 
BRANCH  24  25
ATOM     25  C   UNL     1      17.095 -35.780  24.916  1.00  0.00    -0.003 C 
ATOM     26  C   UNL     1      17.768 -34.684  25.742  1.00  0.00     0.004 C 
ENDBRANCH  24  25
ENDBRANCH  23  24
ENDBRANCH  22  23
ENDBRANCH  21  22
ENDBRANCH  20  21
ENDBRANCH  19  20
ENDBRANCH  18  19
ENDBRANCH  17  18
ENDBRANCH  16  17
ENDBRANCH  15  16
ENDBRANCH   1  15
TORSDOF 22
ENDMDL
MODEL 4
REMARK VINA RESULT:    -4.427      3.012      6.526
REMARK INTER + INTRA:         -14.546
REMARK INTER:                 -10.484
REMARK INTRA:                  -4.063
REMARK UNBOUND:                -4.426
REMARK SMILES CCCCCCCCCCCCCCCCCCCCCCCC(=O)[O-]
REMARK SMILES IDX 13 1 14 2 15 3 16 4 17 5 18 6 19 7 20 8 21 9 22 10 23 11
REMARK SMILES IDX 24 12 25 13 26 14 12 15 11 16 10 17 9 18 8 19 7 20 6 21 5 22
REMARK SMILES IDX 4 23 3 24 2 25 1 26
REMARK H PARENT
REMARK Flexibility Score: inf
ROOT
ATOM      1  C   UNL     1      19.849 -34.795  20.724  1.00  0.00     0.000 C 
ENDROOT
BRANCH   1   2
ATOM      2  C   UNL     1      20.824 -33.885  21.494  1.00  0.00     0.000 C 
BRANCH   2   3
ATOM      3  C   UNL     1      20.880 -32.455  20.926  1.00  0.00     0.000 C 
BRANCH   3   4
ATOM      4  C   UNL     1      20.807 -31.376  22.029  1.00  0.00     0.000 C 
BRANCH   4   5
ATOM      5  C   UNL     1      19.515 -30.535  22.001  1.00  0.00     0.000 C 
BRANCH   5   6
ATOM      6  C   UNL     1      18.503 -30.928  20.912  1.00  0.00     0.000 C 
BRANCH   6   7
ATOM      7  C   UNL     1      17.106 -31.229  21.474  1.00  0.00     0.000 C 
BRANCH   7   8
ATOM      8  C   UNL     1      16.762 -30.280  22.633  1.00  0.00     0.000 C 
BRANCH   8   9
ATOM      9  C   UNL     1      15.266 -29.921  22.691  1.00  0.00     0.000 C 
BRANCH   9  10
ATOM     10  C   UNL     1      14.484 -30.538  23.868  1.00  0.00     0.006 C 
BRANCH  10  11
ATOM     11  C   UNL     1      13.475 -31.626  23.454  1.00  0.00     0.053 C 
BRANCH  11  12
ATOM     12  C   UNL     1      12.671 -31.244  22.246  1.00  0.00     0.041 C 
ATOM     13  O   UNL     1      12.917 -31.767  21.125  1.00  0.00    -0.550 OA
ATOM     14  O   UNL     1      11.618 -30.345  22.369  1.00  0.00    -0.550 OA
ENDBRANCH  11  12
ENDBRANCH  10  11
ENDBRANCH   9  10
ENDBRANCH   8   9
ENDBRANCH   7   8
ENDBRANCH   6   7
ENDBRANCH   5   6
ENDBRANCH   4   5
ENDBRANCH   3   4
ENDBRANCH   2   3
ENDBRANCH   1   2
BRANCH   1  15
ATOM     15  C   UNL     1      19.338 -34.218  19.389  1.00  0.00     0.000 C 
BRANCH  15  16
ATOM     16  C   UNL     1      17.818 -34.356  19.149  1.00  0.00     0.000 C 
BRANCH  16  17
ATOM     17  C   UNL     1      17.253 -35.772  19.357  1.00  0.00     0.000 C 
BRANCH  17  18
ATOM     18  C   UNL     1      15.943 -35.834  20.167  1.00  0.00    -0.000 C 
BRANCH  18  19
ATOM     19  C   UNL     1      15.380 -34.449  20.552  1.00  0.00    -0.000 C 
BRANCH  19  20
ATOM     20  C   UNL     1      15.359 -34.224  22.074  1.00  0.00    -0.000 C 
BRANCH  20  21
ATOM     21  C   UNL     1      16.402 -35.077  22.820  1.00  0.00    -0.000 C 
BRANCH  21  22
ATOM     22  C   UNL     1      17.592 -34.291  23.409  1.00  0.00    -0.000 C 
BRANCH  22  23
ATOM     23  C   UNL     1      17.236 -33.340  24.571  1.00  0.00    -0.000 C 
BRANCH  23  24
ATOM     24  C   UNL     1      18.057 -33.551  25.859  1.00  0.00    -0.000 C 
BRANCH  24  25
ATOM     25  C   UNL     1      19.277 -32.626  26.006  1.00  0.00    -0.003 C 
ATOM     26  C   UNL     1      18.896 -31.167  26.258  1.00  0.00     0.004 C 
ENDBRANCH  24  25
ENDBRANCH  23  24
ENDBRANCH  22  23
ENDBRANCH  21  22
ENDBRANCH  20  21
ENDBRANCH  19  20
ENDBRANCH  18  19
ENDBRANCH  17  18
ENDBRANCH  16  17
ENDBRANCH  15  16
ENDBRANCH   1  15
TORSDOF 22
ENDMDL
MODEL 5
REMARK VINA RESULT:    -4.416      1.582      5.856
REMARK INTER + INTRA:         -14.522
REMARK INTER:                 -10.283
REMARK INTRA:                  -4.238
REMARK UNBOUND:                -4.426
REMARK SMILES CCCCCCCCCCCCCCCCCCCCCCCC(=O)[O-]
REMARK SMILES IDX 13 1 14 2 15 3 16 4 17 5 18 6 19 7 20 8 21 9 22 10 23 11
REMARK SMILES IDX 24 12 25 13 26 14 12 15 11 16 10 17 9 18 8 19 7 20 6 21 5 22
REMARK SMILES IDX 4 23 3 24 2 25 1 26
REMARK H PARENT
REMARK Flexibility Score: inf
ROOT
ATOM      1  C   UNL     1      13.453 -32.121  20.644  1.00  0.00     0.000 C 
ENDROOT
BRANCH   1   2
ATOM      2  C   UNL     1      12.608 -31.499  21.771  1.00  0.00     0.000 C 
BRANCH   2   3
ATOM      3  C   UNL     1      13.360 -31.432  23.113  1.00  0.00     0.000 C 
BRANCH   3   4
ATOM      4  C   UNL     1      13.651 -29.982  23.557  1.00  0.00     0.000 C 
BRANCH   4   5
ATOM      5  C   UNL     1      15.141 -29.590  23.487  1.00  0.00     0.000 C 
BRANCH   5   6
ATOM      6  C   UNL     1      15.754 -29.604  22.077  1.00  0.00     0.000 C 
BRANCH   6   7
ATOM      7  C   UNL     1      16.993 -30.507  21.972  1.00  0.00     0.000 C 
BRANCH   7   8
ATOM      8  C   UNL     1      17.368 -31.089  23.344  1.00  0.00     0.000 C 
BRANCH   8   9
ATOM      9  C   UNL     1      17.355 -32.628  23.366  1.00  0.00     0.000 C 
BRANCH   9  10
ATOM     10  C   UNL     1      16.437 -33.265  24.430  1.00  0.00     0.006 C 
BRANCH  10  11
ATOM     11  C   UNL     1      17.164 -34.213  25.403  1.00  0.00     0.053 C 
BRANCH  11  12
ATOM     12  C   UNL     1      18.511 -33.698  25.820  1.00  0.00     0.041 C 
ATOM     13  O   UNL     1      18.603 -32.670  26.545  1.00  0.00    -0.550 OA
ATOM     14  O   UNL     1      19.662 -34.381  25.445  1.00  0.00    -0.550 OA
ENDBRANCH  11  12
ENDBRANCH  10  11
ENDBRANCH   9  10
ENDBRANCH   8   9
ENDBRANCH   7   8
ENDBRANCH   6   7
ENDBRANCH   5   6
ENDBRANCH   4   5
ENDBRANCH   3   4
ENDBRANCH   2   3
ENDBRANCH   1   2
BRANCH   1  15
ATOM     15  C   UNL     1      14.526 -33.123  21.112  1.00  0.00     0.000 C 
BRANCH  15  16
ATOM     16  C   UNL     1      14.862 -34.248  20.109  1.00  0.00     0.000 C 
BRANCH  16  17
ATOM     17  C   UNL     1      16.326 -34.724  20.133  1.00  0.00     0.000 C 
BRANCH  17  18
ATOM     18  C   UNL     1      16.520 -36.235  19.902  1.00  0.00    -0.000 C 
BRANCH  18  19
ATOM     19  C   UNL     1      17.671 -36.851  20.728  1.00  0.00    -0.000 C 
BRANCH  19  20
ATOM     20  C   UNL     1      18.005 -36.021  21.980  1.00  0.00    -0.000 C 
BRANCH  20  21
ATOM     21  C   UNL     1      19.502 -36.052  22.339  1.00  0.00    -0.000 C 
BRANCH  21  22
ATOM     22  C   UNL     1      20.296 -34.788  21.952  1.00  0.00    -0.000 C 
BRANCH  22  23
ATOM     23  C   UNL     1      19.907 -34.161  20.597  1.00  0.00    -0.000 C 
BRANCH  23  24
ATOM     24  C   UNL     1      19.721 -32.630  20.618  1.00  0.00    -0.000 C 
BRANCH  24  25
ATOM     25  C   UNL     1      20.988 -31.830  20.969  1.00  0.00    -0.003 C 
ATOM     26  C   UNL     1      20.802 -30.917  22.181  1.00  0.00     0.004 C 
ENDBRANCH  24  25
ENDBRANCH  23  24
ENDBRANCH  22  23
ENDBRANCH  21  22
ENDBRANCH  20  21
ENDBRANCH  19  20
ENDBRANCH  18  19
ENDBRANCH  17  18
ENDBRANCH  16  17
ENDBRANCH  15  16
ENDBRANCH   1  15
TORSDOF 22
ENDMDL
MODEL 6
REMARK VINA RESULT:    -4.394      1.925      3.731
REMARK INTER + INTRA:         -14.471
REMARK INTER:                 -10.861
REMARK INTRA:                  -3.610
REMARK UNBOUND:                -4.426
REMARK SMILES CCCCCCCCCCCCCCCCCCCCCCCC(=O)[O-]
REMARK SMILES IDX 13 1 14 2 15 3 16 4 17 5 18 6 19 7 20 8 21 9 22 10 23 11
REMARK SMILES IDX 24 12 25 13 26 14 12 15 11 16 10 17 9 18 8 19 7 20 6 21 5 22
REMARK SMILES IDX 4 23 3 24 2 25 1 26
REMARK H PARENT
REMARK Flexibility Score: inf
ROOT
ATOM      1  C   UNL     1      17.390 -34.540  19.362  1.00  0.00     0.000 C 
ENDROOT
BRANCH   1   2
ATOM      2  C   UNL     1      16.891 -35.996  19.372  1.00  0.00     0.000 C 
BRANCH   2   3
ATOM      3  C   UNL     1      18.037 -37.019  19.479  1.00  0.00     0.000 C 
BRANCH   3   4
ATOM      4  C   UNL     1      18.024 -37.785  20.820  1.00  0.00     0.000 C 
BRANCH   4   5
ATOM      5  C   UNL     1      18.969 -37.199  21.888  1.00  0.00     0.000 C 
BRANCH   5   6
ATOM      6  C   UNL     1      18.303 -36.850  23.229  1.00  0.00     0.000 C 
BRANCH   6   7
ATOM      7  C   UNL     1      18.601 -35.415  23.689  1.00  0.00     0.000 C 
BRANCH   7   8
ATOM      8  C   UNL     1      17.885 -35.100  25.012  1.00  0.00     0.000 C 
BRANCH   8   9
ATOM      9  C   UNL     1      17.245 -36.343  25.657  1.00  0.00     0.000 C 
BRANCH   9  10
ATOM     10  C   UNL     1      18.081 -37.016  26.764  1.00  0.00     0.006 C 
BRANCH  10  11
ATOM     11  C   UNL     1      17.574 -38.411  27.177  1.00  0.00     0.053 C 
BRANCH  11  12
ATOM     12  C   UNL     1      16.221 -38.369  27.825  1.00  0.00     0.041 C 
ATOM     13  O   UNL     1      16.035 -37.683  28.866  1.00  0.00    -0.550 OA
ATOM     14  O   UNL     1      15.154 -39.052  27.251  1.00  0.00    -0.550 OA
ENDBRANCH  11  12
ENDBRANCH  10  11
ENDBRANCH   9  10
ENDBRANCH   8   9
ENDBRANCH   7   8
ENDBRANCH   6   7
ENDBRANCH   5   6
ENDBRANCH   4   5
ENDBRANCH   3   4
ENDBRANCH   2   3
ENDBRANCH   1   2
BRANCH   1  15
ATOM     15  C   UNL     1      18.923 -34.377  19.378  1.00  0.00     0.000 C 
BRANCH  15  16
ATOM     16  C   UNL     1      19.495 -33.631  20.603  1.00  0.00     0.000 C 
BRANCH  16  17
ATOM     17  C   UNL     1      18.480 -32.758  21.365  1.00  0.00     0.000 C 
BRANCH  17  18
ATOM     18  C   UNL     1      18.395 -31.296  20.887  1.00  0.00    -0.000 C 
BRANCH  18  19
ATOM     19  C   UNL     1      17.886 -30.315  21.966  1.00  0.00    -0.000 C 
BRANCH  19  20
ATOM     20  C   UNL     1      17.431 -31.034  23.247  1.00  0.00    -0.000 C 
BRANCH  20  21
ATOM     21  C   UNL     1      15.950 -30.779  23.586  1.00  0.00    -0.000 C 
BRANCH  21  22
ATOM     22  C   UNL     1      15.147 -30.038  22.497  1.00  0.00    -0.000 C 
BRANCH  22  23
ATOM     23  C   UNL     1      14.252 -30.936  21.619  1.00  0.00    -0.000 C 
BRANCH  23  24
ATOM     24  C   UNL     1      13.960 -32.333  22.202  1.00  0.00    -0.000 C 
BRANCH  24  25
ATOM     25  C   UNL     1      14.641 -33.497  21.462  1.00  0.00    -0.003 C 
ATOM     26  C   UNL     1      15.347 -34.473  22.403  1.00  0.00     0.004 C 
ENDBRANCH  24  25
ENDBRANCH  23  24
ENDBRANCH  22  23
ENDBRANCH  21  22
ENDBRANCH  20  21
ENDBRANCH  19  20
ENDBRANCH  18  19
ENDBRANCH  17  18
ENDBRANCH  16  17
ENDBRANCH  15  16
ENDBRANCH   1  15
TORSDOF 22
ENDMDL
MODEL 7
REMARK VINA RESULT:    -4.394      2.238      6.287
REMARK INTER + INTRA:         -14.470
REMARK INTER:                 -10.859
REMARK INTRA:                  -3.611
REMARK UNBOUND:                -4.426
REMARK SMILES CCCCCCCCCCCCCCCCCCCCCCCC(=O)[O-]
REMARK SMILES IDX 13 1 14 2 15 3 16 4 17 5 18 6 19 7 20 8 21 9 22 10 23 11
REMARK SMILES IDX 24 12 25 13 26 14 12 15 11 16 10 17 9 18 8 19 7 20 6 21 5 22
REMARK SMILES IDX 4 23 3 24 2 25 1 26
REMARK H PARENT
REMARK Flexibility Score: inf
ROOT
ATOM      1  C   UNL     1      15.008 -33.885  21.788  1.00  0.00     0.000 C 
ENDROOT
BRANCH   1   2
ATOM      2  C   UNL     1      15.402 -34.147  23.252  1.00  0.00     0.000 C 
BRANCH   2   3
ATOM      3  C   UNL     1      15.080 -32.960  24.179  1.00  0.00     0.000 C 
BRANCH   3   4
ATOM      4  C   UNL     1      13.916 -32.094  23.649  1.00  0.00     0.000 C 
BRANCH   4   5
ATOM      5  C   UNL     1      14.298 -30.626  23.376  1.00  0.00     0.000 C 
BRANCH   5   6
ATOM      6  C   UNL     1      14.824 -30.341  21.960  1.00  0.00     0.000 C 
BRANCH   6   7
ATOM      7  C   UNL     1      16.170 -29.599  21.959  1.00  0.00     0.000 C 
BRANCH   7   8
ATOM      8  C   UNL     1      17.309 -30.524  22.417  1.00  0.00     0.000 C 
BRANCH   8   9
ATOM      9  C   UNL     1      17.803 -31.464  21.302  1.00  0.00     0.000 C 
BRANCH   9  10
ATOM     10  C   UNL     1      18.596 -32.696  21.781  1.00  0.00     0.006 C 
BRANCH  10  11
ATOM     11  C   UNL     1      19.827 -33.029  20.916  1.00  0.00     0.053 C 
BRANCH  11  12
ATOM     12  C   UNL     1      21.114 -32.560  21.529  1.00  0.00     0.041 C 
ATOM     13  O   UNL     1      21.203 -31.397  22.009  1.00  0.00    -0.550 OA
ATOM     14  O   UNL     1      22.199 -33.424  21.613  1.00  0.00    -0.550 OA
ENDBRANCH  11  12
ENDBRANCH  10  11
ENDBRANCH   9  10
ENDBRANCH   8   9
ENDBRANCH   7   8
ENDBRANCH   6   7
ENDBRANCH   5   6
ENDBRANCH   4   5
ENDBRANCH   3   4
ENDBRANCH   2   3
ENDBRANCH   1   2
BRANCH   1  15
ATOM     15  C   UNL     1      15.356 -35.021  20.806  1.00  0.00     0.000 C 
BRANCH  15  16
ATOM     16  C   UNL     1      16.317 -34.633  19.661  1.00  0.00     0.000 C 
BRANCH  16  17
ATOM     17  C   UNL     1      17.413 -35.670  19.353  1.00  0.00     0.000 C 
BRANCH  17  18
ATOM     18  C   UNL     1      17.055 -37.122  19.724  1.00  0.00    -0.000 C 
BRANCH  18  19
ATOM     19  C   UNL     1      18.022 -37.763  20.743  1.00  0.00    -0.000 C 
BRANCH  19  20
ATOM     20  C   UNL     1      18.806 -36.713  21.550  1.00  0.00    -0.000 C 
BRANCH  20  21
ATOM     21  C   UNL     1      18.127 -36.350  22.884  1.00  0.00    -0.000 C 
BRANCH  21  22
ATOM     22  C   UNL     1      18.738 -37.017  24.133  1.00  0.00    -0.000 C 
BRANCH  22  23
ATOM     23  C   UNL     1      18.463 -36.287  25.464  1.00  0.00    -0.000 C 
BRANCH  23  24
ATOM     24  C   UNL     1      17.051 -36.502  26.045  1.00  0.00    -0.000 C 
BRANCH  24  25
ATOM     25  C   UNL     1      17.014 -37.238  27.396  1.00  0.00    -0.003 C 
ATOM     26  C   UNL     1      16.560 -38.692  27.273  1.00  0.00     0.004 C 
ENDBRANCH  24  25
ENDBRANCH  23  24
ENDBRANCH  22  23
ENDBRANCH  21  22
ENDBRANCH  20  21
ENDBRANCH  19  20
ENDBRANCH  18  19
ENDBRANCH  17  18
ENDBRANCH  16  17
ENDBRANCH  15  16
ENDBRANCH   1  15
TORSDOF 22
ENDMDL
MODEL 8
REMARK VINA RESULT:    -4.384      1.460      3.761
REMARK INTER + INTRA:         -14.447
REMARK INTER:                 -10.450
REMARK INTRA:                  -3.997
REMARK UNBOUND:                -4.426
REMARK SMILES CCCCCCCCCCCCCCCCCCCCCCCC(=O)[O-]
REMARK SMILES IDX 13 1 14 2 15 3 16 4 17 5 18 6 19 7 20 8 21 9 22 10 23 11
REMARK SMILES IDX 24 12 25 13 26 14 12 15 11 16 10 17 9 18 8 19 7 20 6 21 5 22
REMARK SMILES IDX 4 23 3 24 2 25 1 26
REMARK H PARENT
REMARK Flexibility Score: inf
ROOT
ATOM      1  C   UNL     1      19.017 -31.117  21.426  1.00  0.00     0.000 C 
ENDROOT
BRANCH   1   2
ATOM      2  C   UNL     1      18.411 -32.211  20.528  1.00  0.00     0.000 C 
BRANCH   2   3
ATOM      3  C   UNL     1      19.058 -33.591  20.750  1.00  0.00     0.000 C 
BRANCH   3   4
ATOM      4  C   UNL     1      18.955 -34.500  19.506  1.00  0.00     0.000 C 
BRANCH   4   5
ATOM      5  C   UNL     1      17.510 -34.753  19.030  1.00  0.00     0.000 C 
BRANCH   5   6
ATOM      6  C   UNL     1      16.900 -36.091  19.478  1.00  0.00     0.000 C 
BRANCH   6   7
ATOM      7  C   UNL     1      17.894 -37.260  19.397  1.00  0.00     0.000 C 
BRANCH   7   8
ATOM      8  C   UNL     1      17.949 -38.029  20.727  1.00  0.00     0.000 C 
BRANCH   8   9
ATOM      9  C   UNL     1      18.946 -37.422  21.730  1.00  0.00     0.000 C 
BRANCH   9  10
ATOM     10  C   UNL     1      18.314 -36.614  22.882  1.00  0.00     0.006 C 
BRANCH  10  11
ATOM     11  C   UNL     1      19.255 -36.382  24.079  1.00  0.00     0.053 C 
BRANCH  11  12
ATOM     12  C   UNL     1      20.299 -35.339  23.805  1.00  0.00     0.041 C 
ATOM     13  O   UNL     1      21.362 -35.647  23.200  1.00  0.00    -0.550 OA
ATOM     14  O   UNL     1      20.076 -34.018  24.175  1.00  0.00    -0.550 OA
ENDBRANCH  11  12
ENDBRANCH  10  11
ENDBRANCH   9  10
ENDBRANCH   8   9
ENDBRANCH   7   8
ENDBRANCH   6   7
ENDBRANCH   5   6
ENDBRANCH   4   5
ENDBRANCH   3   4
ENDBRANCH   2   3
ENDBRANCH   1   2
BRANCH   1  15
ATOM     15  C   UNL     1      18.025 -30.032  21.890  1.00  0.00     0.000 C 
BRANCH  15  16
ATOM     16  C   UNL     1      17.102 -30.438  23.060  1.00  0.00     0.000 C 
BRANCH  16  17
ATOM     17  C   UNL     1      15.739 -29.724  23.090  1.00  0.00     0.000 C 
BRANCH  17  18
ATOM     18  C   UNL     1      14.619 -30.496  23.815  1.00  0.00    -0.000 C 
BRANCH  18  19
ATOM     19  C   UNL     1      13.223 -30.316  23.178  1.00  0.00    -0.000 C 
BRANCH  19  20
ATOM     20  C   UNL     1      12.783 -31.550  22.371  1.00  0.00    -0.000 C 
BRANCH  20  21
ATOM     21  C   UNL     1      13.535 -31.693  21.035  1.00  0.00    -0.000 C 
BRANCH  21  22
ATOM     22  C   UNL     1      14.185 -33.071  20.793  1.00  0.00    -0.000 C 
BRANCH  22  23
ATOM     23  C   UNL     1      15.450 -33.354  21.629  1.00  0.00    -0.000 C 
BRANCH  23  24
ATOM     24  C   UNL     1      15.344 -34.561  22.583  1.00  0.00    -0.000 C 
BRANCH  24  25
ATOM     25  C   UNL     1      15.250 -34.198  24.075  1.00  0.00    -0.003 C 
ATOM     26  C   UNL     1      16.572 -33.695  24.654  1.00  0.00     0.004 C 
ENDBRANCH  24  25
ENDBRANCH  23  24
ENDBRANCH  22  23
ENDBRANCH  21  22
ENDBRANCH  20  21
ENDBRANCH  19  20
ENDBRANCH  18  19
ENDBRANCH  17  18
ENDBRANCH  16  17
ENDBRANCH  15  16
ENDBRANCH   1  15
TORSDOF 22
ENDMDL
MODEL 9
REMARK VINA RESULT:    -4.379      1.674      3.856
REMARK INTER + INTRA:         -14.437
REMARK INTER:                 -10.762
REMARK INTRA:                  -3.675
REMARK UNBOUND:                -4.426
REMARK SMILES CCCCCCCCCCCCCCCCCCCCCCCC(=O)[O-]
REMARK SMILES IDX 13 1 14 2 15 3 16 4 17 5 18 6 19 7 20 8 21 9 22 10 23 11
REMARK SMILES IDX 24 12 25 13 26 14 12 15 11 16 10 17 9 18 8 19 7 20 6 21 5 22
REMARK SMILES IDX 4 23 3 24 2 25 1 26
REMARK H PARENT
REMARK Flexibility Score: inf
ROOT
ATOM      1  C   UNL     1      17.596 -33.511  20.075  1.00  0.00     0.000 C 
ENDROOT
BRANCH   1   2
ATOM      2  C   UNL     1      17.564 -34.782  19.206  1.00  0.00     0.000 C 
BRANCH   2   3
ATOM      3  C   UNL     1      16.743 -35.919  19.844  1.00  0.00     0.000 C 
BRANCH   3   4
ATOM      4  C   UNL     1      17.233 -37.318  19.409  1.00  0.00     0.000 C 
BRANCH   4   5
ATOM      5  C   UNL     1      18.030 -38.070  20.494  1.00  0.00     0.000 C 
BRANCH   5   6
ATOM      6  C   UNL     1      18.363 -37.246  21.749  1.00  0.00     0.000 C 
BRANCH   6   7
ATOM      7  C   UNL     1      19.698 -37.650  22.394  1.00  0.00     0.000 C 
BRANCH   7   8
ATOM      8  C   UNL     1      19.468 -38.569  23.604  1.00  0.00     0.000 C 
BRANCH   8   9
ATOM      9  C   UNL     1      19.321 -37.795  24.926  1.00  0.00     0.000 C 
BRANCH   9  10
ATOM     10  C   UNL     1      18.279 -38.364  25.911  1.00  0.00     0.006 C 
BRANCH  10  11
ATOM     11  C   UNL     1      17.426 -37.291  26.616  1.00  0.00     0.053 C 
BRANCH  11  12
ATOM     12  C   UNL     1      16.448 -37.876  27.593  1.00  0.00     0.041 C 
ATOM     13  O   UNL     1      15.699 -38.830  27.250  1.00  0.00    -0.550 OA
ATOM     14  O   UNL     1      16.399 -37.396  28.897  1.00  0.00    -0.550 OA
ENDBRANCH  11  12
ENDBRANCH  10  11
ENDBRANCH   9  10
ENDBRANCH   8   9
ENDBRANCH   7   8
ENDBRANCH   6   7
ENDBRANCH   5   6
ENDBRANCH   4   5
ENDBRANCH   3   4
ENDBRANCH   2   3
ENDBRANCH   1   2
BRANCH   1  15
ATOM     15  C   UNL     1      18.963 -33.192  20.711  1.00  0.00     0.000 C 
BRANCH  15  16
ATOM     16  C   UNL     1      19.021 -31.884  21.530  1.00  0.00     0.000 C 
BRANCH  16  17
ATOM     17  C   UNL     1      17.975 -30.825  21.138  1.00  0.00     0.000 C 
BRANCH  17  18
ATOM     18  C   UNL     1      16.938 -30.502  22.230  1.00  0.00    -0.000 C 
BRANCH  18  19
ATOM     19  C   UNL     1      15.538 -30.151  21.679  1.00  0.00    -0.000 C 
BRANCH  19  20
ATOM     20  C   UNL     1      14.740 -31.399  21.264  1.00  0.00    -0.000 C 
BRANCH  20  21
ATOM     21  C   UNL     1      14.371 -32.299  22.458  1.00  0.00    -0.000 C 
BRANCH  21  22
ATOM     22  C   UNL     1      14.977 -33.717  22.422  1.00  0.00    -0.000 C 
BRANCH  22  23
ATOM     23  C   UNL     1      15.503 -34.238  23.775  1.00  0.00    -0.000 C 
BRANCH  23  24
ATOM     24  C   UNL     1      16.810 -35.051  23.696  1.00  0.00    -0.000 C 
BRANCH  24  25
ATOM     25  C   UNL     1      18.058 -34.323  24.227  1.00  0.00    -0.003 C 
ATOM     26  C   UNL     1      17.730 -32.994  24.907  1.00  0.00     0.004 C 
ENDBRANCH  24  25
ENDBRANCH  23  24
ENDBRANCH  22  23
ENDBRANCH  21  22
ENDBRANCH  20  21
ENDBRANCH  19  20
ENDBRANCH  18  19
ENDBRANCH  17  18
ENDBRANCH  16  17
ENDBRANCH  15  16
ENDBRANCH   1  15
TORSDOF 22
ENDMDL
