MODEL 1
REMARK VINA RESULT:    -4.227      0.000      0.000
REMARK INTER + INTRA:          -9.396
REMARK INTER:                  -7.686
REMARK INTRA:                  -1.710
REMARK UNBOUND:                -1.710
REMARK SMILES CCCCCCCCCCCCCCCC(=O)[O-]
REMARK SMILES IDX 9 1 10 2 11 3 12 4 13 5 14 6 15 7 16 8 17 9 18 10 8 11 7 12
REMARK SMILES IDX 6 13 5 14 4 15 3 16 2 17 1 18
REMARK H PARENT
REMARK Flexibility Score: inf
ROOT
ATOM      1  C   UNL     1     -45.707 -37.487  36.932  1.00  0.00     0.000 C 
ENDROOT
BRANCH   1   2
ATOM      2  C   UNL     1     -46.111 -37.551  38.416  1.00  0.00     0.000 C 
BRANCH   2   3
ATOM      3  C   UNL     1     -47.611 -37.283  38.640  1.00  0.00     0.000 C 
BRANCH   3   4
ATOM      4  C   UNL     1     -47.931 -36.164  39.648  1.00  0.00     0.000 C 
BRANCH   4   5
ATOM      5  C   UNL     1     -47.293 -34.818  39.273  1.00  0.00     0.000 C 
BRANCH   5   6
ATOM      6  C   UNL     1     -46.359 -34.325  40.384  1.00  0.00     0.006 C 
BRANCH   6   7
ATOM      7  C   UNL     1     -47.008 -34.491  41.762  1.00  0.00     0.053 C 
BRANCH   7   8
ATOM      8  C   UNL     1     -47.736 -33.245  42.152  1.00  0.00     0.041 C 
ATOM      9  O   UNL     1     -48.675 -33.294  42.990  1.00  0.00    -0.550 OA
ATOM     10  O   UNL     1     -47.345 -32.019  41.628  1.00  0.00    -0.550 OA
ENDBRANCH   7   8
ENDBRANCH   6   7
ENDBRANCH   5   6
ENDBRANCH   4   5
ENDBRANCH   3   4
ENDBRANCH   2   3
ENDBRANCH   1   2
BRANCH   1  11
ATOM     11  C   UNL     1     -44.476 -36.597  36.696  1.00  0.00     0.000 C 
BRANCH  11  12
ATOM     12  C   UNL     1     -44.843 -35.108  36.562  1.00  0.00    -0.000 C 
BRANCH  12  13
ATOM     13  C   UNL     1     -44.103 -34.222  37.577  1.00  0.00    -0.000 C 
BRANCH  13  14
ATOM     14  C   UNL     1     -43.139 -35.022  38.469  1.00  0.00    -0.000 C 
BRANCH  14  15
ATOM     15  C   UNL     1     -41.801 -34.299  38.698  1.00  0.00    -0.000 C 
BRANCH  15  16
ATOM     16  C   UNL     1     -40.547 -35.183  38.552  1.00  0.00    -0.000 C 
BRANCH  16  17
ATOM     17  C   UNL     1     -39.959 -35.198  37.124  1.00  0.00    -0.003 C 
ATOM     18  C   UNL     1     -40.836 -35.971  36.140  1.00  0.00     0.004 C 
ENDBRANCH  16  17
ENDBRANCH  15  16
ENDBRANCH  14  15
ENDBRANCH  13  14
ENDBRANCH  12  13
ENDBRANCH  11  12
ENDBRANCH   1  11
TORSDOF 14
ENDMDL
MODEL 2
REMARK VINA RESULT:    -4.116      3.893      6.266
REMARK INTER + INTRA:          -9.195
REMARK INTER:                  -7.665
REMARK INTRA:                  -1.530
REMARK UNBOUND:                -1.710
REMARK SMILES CCCCCCCCCCCCCCCC(=O)[O-]
REMARK SMILES IDX 9 1 10 2 11 3 12 4 13 5 14 6 15 7 16 8 17 9 18 10 8 11 7 12
REMARK SMILES IDX 6 13 5 14 4 15 3 16 2 17 1 18
REMARK H PARENT
REMARK Flexibility Score: inf
ROOT
ATOM      1  C   UNL     1     -46.051 -36.520  39.305  1.00  0.00     0.000 C 
ENDROOT
BRANCH   1   2
ATOM      2  C   UNL     1     -46.145 -37.734  38.364  1.00  0.00     0.000 C 
BRANCH   2   3
ATOM      3  C   UNL     1     -45.877 -37.372  36.891  1.00  0.00     0.000 C 
BRANCH   3   4
ATOM      4  C   UNL     1     -44.406 -37.075  36.547  1.00  0.00     0.000 C 
BRANCH   4   5
ATOM      5  C   UNL     1     -44.115 -35.574  36.405  1.00  0.00     0.000 C 
BRANCH   5   6
ATOM      6  C   UNL     1     -42.811 -35.198  37.118  1.00  0.00     0.006 C 
BRANCH   6   7
ATOM      7  C   UNL     1     -41.594 -35.734  36.359  1.00  0.00     0.053 C 
BRANCH   7   8
ATOM      8  C   UNL     1     -40.331 -35.177  36.933  1.00  0.00     0.041 C 
ATOM      9  O   UNL     1     -40.360 -34.134  37.639  1.00  0.00    -0.550 OA
ATOM     10  O   UNL     1     -39.125 -35.837  36.731  1.00  0.00    -0.550 OA
ENDBRANCH   7   8
ENDBRANCH   6   7
ENDBRANCH   5   6
ENDBRANCH   4   5
ENDBRANCH   3   4
ENDBRANCH   2   3
ENDBRANCH   1   2
BRANCH   1  11
ATOM     11  C   UNL     1     -47.120 -35.457  39.002  1.00  0.00     0.000 C 
BRANCH  11  12
ATOM     12  C   UNL     1     -46.763 -34.080  39.588  1.00  0.00    -0.000 C 
BRANCH  12  13
ATOM     13  C   UNL     1     -45.271 -33.741  39.440  1.00  0.00    -0.000 C 
BRANCH  13  14
ATOM     14  C   UNL     1     -45.025 -32.551  38.496  1.00  0.00    -0.000 C 
BRANCH  14  15
ATOM     15  C   UNL     1     -46.018 -32.507  37.322  1.00  0.00    -0.000 C 
BRANCH  15  16
ATOM     16  C   UNL     1     -46.691 -31.141  37.086  1.00  0.00    -0.000 C 
BRANCH  16  17
ATOM     17  C   UNL     1     -47.481 -31.056  35.763  1.00  0.00    -0.003 C 
ATOM     18  C   UNL     1     -47.220 -29.752  35.009  1.00  0.00     0.004 C 
ENDBRANCH  16  17
ENDBRANCH  15  16
ENDBRANCH  14  15
ENDBRANCH  13  14
ENDBRANCH  12  13
ENDBRANCH  11  12
ENDBRANCH   1  11
TORSDOF 14
ENDMDL
MODEL 3
REMARK VINA RESULT:    -4.075      4.198      6.219
REMARK INTER + INTRA:          -9.119
REMARK INTER:                  -7.461
REMARK INTRA:                  -1.659
REMARK UNBOUND:                -1.710
REMARK SMILES CCCCCCCCCCCCCCCC(=O)[O-]
REMARK SMILES IDX 9 1 10 2 11 3 12 4 13 5 14 6 15 7 16 8 17 9 18 10 8 11 7 12
REMARK SMILES IDX 6 13 5 14 4 15 3 16 2 17 1 18
REMARK H PARENT
REMARK Flexibility Score: inf
ROOT
ATOM      1  C   UNL     1     -44.288 -33.932  38.162  1.00  0.00     0.000 C 
ENDROOT
BRANCH   1   2
ATOM      2  C   UNL     1     -45.463 -33.489  37.272  1.00  0.00     0.000 C 
BRANCH   2   3
ATOM      3  C   UNL     1     -46.746 -33.201  38.073  1.00  0.00     0.000 C 
BRANCH   3   4
ATOM      4  C   UNL     1     -47.378 -31.820  37.821  1.00  0.00     0.000 C 
BRANCH   4   5
ATOM      5  C   UNL     1     -48.020 -31.699  36.431  1.00  0.00     0.000 C 
BRANCH   5   6
ATOM      6  C   UNL     1     -47.197 -30.777  35.524  1.00  0.00     0.006 C 
BRANCH   6   7
ATOM      7  C   UNL     1     -47.890 -29.423  35.341  1.00  0.00     0.053 C 
BRANCH   7   8
ATOM      8  C   UNL     1     -47.191 -28.614  34.296  1.00  0.00     0.041 C 
ATOM      9  O   UNL     1     -45.938 -28.498  34.317  1.00  0.00    -0.550 OA
ATOM     10  O   UNL     1     -47.920 -28.026  33.269  1.00  0.00    -0.550 OA
ENDBRANCH   7   8
ENDBRANCH   6   7
ENDBRANCH   5   6
ENDBRANCH   4   5
ENDBRANCH   3   4
ENDBRANCH   2   3
ENDBRANCH   1   2
BRANCH   1  11
ATOM     11  C   UNL     1     -43.515 -35.121  37.567  1.00  0.00     0.000 C 
BRANCH  11  12
ATOM     12  C   UNL     1     -44.244 -35.758  36.371  1.00  0.00    -0.000 C 
BRANCH  12  13
ATOM     13  C   UNL     1     -44.552 -37.248  36.590  1.00  0.00    -0.000 C 
BRANCH  13  14
ATOM     14  C   UNL     1     -46.027 -37.501  36.950  1.00  0.00    -0.000 C 
BRANCH  14  15
ATOM     15  C   UNL     1     -46.278 -37.502  38.468  1.00  0.00    -0.000 C 
BRANCH  15  16
ATOM     16  C   UNL     1     -47.455 -36.626  38.937  1.00  0.00    -0.000 C 
BRANCH  16  17
ATOM     17  C   UNL     1     -47.282 -36.061  40.363  1.00  0.00    -0.003 C 
ATOM     18  C   UNL     1     -45.815 -35.986  40.787  1.00  0.00     0.004 C 
ENDBRANCH  16  17
ENDBRANCH  15  16
ENDBRANCH  14  15
ENDBRANCH  13  14
ENDBRANCH  12  13
ENDBRANCH  11  12
ENDBRANCH   1  11
TORSDOF 14
ENDMDL
MODEL 4
REMARK VINA RESULT:    -4.052      8.903     10.941
REMARK INTER + INTRA:          -9.079
REMARK INTER:                  -6.378
REMARK INTRA:                  -2.701
REMARK UNBOUND:                -1.710
REMARK SMILES CCCCCCCCCCCCCCCC(=O)[O-]
REMARK SMILES IDX 9 1 10 2 11 3 12 4 13 5 14 6 15 7 16 8 17 9 18 10 8 11 7 12
REMARK SMILES IDX 6 13 5 14 4 15 3 16 2 17 1 18
REMARK H PARENT
REMARK Flexibility Score: inf
ROOT
ATOM      1  C   UNL     1     -39.948 -24.182  41.696  1.00  0.00     0.000 C 
ENDROOT
BRANCH   1   2
ATOM      2  C   UNL     1     -41.223 -25.012  41.930  1.00  0.00     0.000 C 
BRANCH   2   3
ATOM      3  C   UNL     1     -42.461 -24.418  41.233  1.00  0.00     0.000 C 
BRANCH   3   4
ATOM      4  C   UNL     1     -43.509 -25.448  40.773  1.00  0.00     0.000 C 
BRANCH   4   5
ATOM      5  C   UNL     1     -43.330 -26.822  41.433  1.00  0.00     0.000 C 
BRANCH   5   6
ATOM      6  C   UNL     1     -43.044 -27.903  40.383  1.00  0.00     0.006 C 
BRANCH   6   7
ATOM      7  C   UNL     1     -41.967 -28.875  40.874  1.00  0.00     0.053 C 
BRANCH   7   8
ATOM      8  C   UNL     1     -41.869 -30.054  39.959  1.00  0.00     0.041 C 
ATOM      9  O   UNL     1     -42.649 -31.032  40.100  1.00  0.00    -0.550 OA
ATOM     10  O   UNL     1     -40.949 -30.052  38.918  1.00  0.00    -0.550 OA
ENDBRANCH   7   8
ENDBRANCH   6   7
ENDBRANCH   5   6
ENDBRANCH   4   5
ENDBRANCH   3   4
ENDBRANCH   2   3
ENDBRANCH   1   2
BRANCH   1  11
ATOM     11  C   UNL     1     -38.864 -24.968  40.941  1.00  0.00     0.000 C 
BRANCH  11  12
ATOM     12  C   UNL     1     -39.330 -26.379  40.542  1.00  0.00    -0.000 C 
BRANCH  12  13
ATOM     13  C   UNL     1     -39.264 -26.618  39.024  1.00  0.00    -0.000 C 
BRANCH  13  14
ATOM     14  C   UNL     1     -40.571 -26.235  38.307  1.00  0.00    -0.000 C 
BRANCH  14  15
ATOM     15  C   UNL     1     -40.470 -24.894  37.562  1.00  0.00    -0.000 C 
BRANCH  15  16
ATOM     16  C   UNL     1     -41.493 -23.826  37.995  1.00  0.00    -0.000 C 
BRANCH  16  17
ATOM     17  C   UNL     1     -40.857 -22.471  38.374  1.00  0.00    -0.003 C 
ATOM     18  C   UNL     1     -39.334 -22.551  38.484  1.00  0.00     0.004 C 
ENDBRANCH  16  17
ENDBRANCH  15  16
ENDBRANCH  14  15
ENDBRANCH  13  14
ENDBRANCH  12  13
ENDBRANCH  11  12
ENDBRANCH   1  11
TORSDOF 14
ENDMDL
MODEL 5
REMARK VINA RESULT:    -4.050      2.689      3.401
REMARK INTER + INTRA:          -9.074
REMARK INTER:                  -7.515
REMARK INTRA:                  -1.559
REMARK UNBOUND:                -1.710
REMARK SMILES CCCCCCCCCCCCCCCC(=O)[O-]
REMARK SMILES IDX 9 1 10 2 11 3 12 4 13 5 14 6 15 7 16 8 17 9 18 10 8 11 7 12
REMARK SMILES IDX 6 13 5 14 4 15 3 16 2 17 1 18
REMARK H PARENT
REMARK Flexibility Score: inf
ROOT
ATOM      1  C   UNL     1     -44.329 -36.514  36.892  1.00  0.00     0.000 C 
ENDROOT
BRANCH   1   2
ATOM      2  C   UNL     1     -45.505 -37.498  36.759  1.00  0.00     0.000 C 
BRANCH   2   3
ATOM      3  C   UNL     1     -46.191 -37.797  38.105  1.00  0.00     0.000 C 
BRANCH   3   4
ATOM      4  C   UNL     1     -47.088 -36.669  38.647  1.00  0.00     0.000 C 
BRANCH   4   5
ATOM      5  C   UNL     1     -47.348 -36.781  40.156  1.00  0.00     0.000 C 
BRANCH   5   6
ATOM      6  C   UNL     1     -48.780 -37.255  40.432  1.00  0.00     0.006 C 
BRANCH   6   7
ATOM      7  C   UNL     1     -48.881 -38.781  40.346  1.00  0.00     0.053 C 
BRANCH   7   8
ATOM      8  C   UNL     1     -47.942 -39.424  41.315  1.00  0.00     0.041 C 
ATOM      9  O   UNL     1     -48.127 -39.302  42.555  1.00  0.00    -0.550 OA
ATOM     10  O   UNL     1     -46.888 -40.202  40.850  1.00  0.00    -0.550 OA
ENDBRANCH   7   8
ENDBRANCH   6   7
ENDBRANCH   5   6
ENDBRANCH   4   5
ENDBRANCH   3   4
ENDBRANCH   2   3
ENDBRANCH   1   2
BRANCH   1  11
ATOM     11  C   UNL     1     -44.720 -35.075  36.519  1.00  0.00     0.000 C 
BRANCH  11  12
ATOM     12  C   UNL     1     -44.358 -34.062  37.619  1.00  0.00    -0.000 C 
BRANCH  12  13
ATOM     13  C   UNL     1     -43.507 -34.682  38.739  1.00  0.00    -0.000 C 
BRANCH  13  14
ATOM     14  C   UNL     1     -42.096 -34.073  38.817  1.00  0.00    -0.000 C 
BRANCH  14  15
ATOM     15  C   UNL     1     -41.020 -35.107  39.192  1.00  0.00    -0.000 C 
BRANCH  15  16
ATOM     16  C   UNL     1     -39.898 -35.289  38.152  1.00  0.00    -0.000 C 
BRANCH  16  17
ATOM     17  C   UNL     1     -40.324 -34.946  36.708  1.00  0.00    -0.003 C 
ATOM     18  C   UNL     1     -40.922 -36.147  35.975  1.00  0.00     0.004 C 
ENDBRANCH  16  17
ENDBRANCH  15  16
ENDBRANCH  14  15
ENDBRANCH  13  14
ENDBRANCH  12  13
ENDBRANCH  11  12
ENDBRANCH   1  11
TORSDOF 14
ENDMDL
MODEL 6
REMARK VINA RESULT:    -4.049      2.688      3.929
REMARK INTER + INTRA:          -9.073
REMARK INTER:                  -6.865
REMARK INTRA:                  -2.208
REMARK UNBOUND:                -1.710
REMARK SMILES CCCCCCCCCCCCCCCC(=O)[O-]
REMARK SMILES IDX 9 1 10 2 11 3 12 4 13 5 14 6 15 7 16 8 17 9 18 10 8 11 7 12
REMARK SMILES IDX 6 13 5 14 4 15 3 16 2 17 1 18
REMARK H PARENT
REMARK Flexibility Score: inf
ROOT
ATOM      1  C   UNL     1     -44.860 -32.064  38.072  1.00  0.00     0.000 C 
ENDROOT
BRANCH   1   2
ATOM      2  C   UNL     1     -45.056 -32.086  39.598  1.00  0.00     0.000 C 
BRANCH   2   3
ATOM      3  C   UNL     1     -44.112 -33.073  40.309  1.00  0.00     0.000 C 
BRANCH   3   4
ATOM      4  C   UNL     1     -44.798 -34.308  40.921  1.00  0.00     0.000 C 
BRANCH   4   5
ATOM      5  C   UNL     1     -46.330 -34.206  40.919  1.00  0.00     0.000 C 
BRANCH   5   6
ATOM      6  C   UNL     1     -46.970 -35.552  40.558  1.00  0.00     0.006 C 
BRANCH   6   7
ATOM      7  C   UNL     1     -45.910 -36.560  40.103  1.00  0.00     0.053 C 
BRANCH   7   8
ATOM      8  C   UNL     1     -46.545 -37.681  39.344  1.00  0.00     0.041 C 
ATOM      9  O   UNL     1     -46.686 -38.811  39.881  1.00  0.00    -0.550 OA
ATOM     10  O   UNL     1     -47.028 -37.465  38.059  1.00  0.00    -0.550 OA
ENDBRANCH   7   8
ENDBRANCH   6   7
ENDBRANCH   5   6
ENDBRANCH   4   5
ENDBRANCH   3   4
ENDBRANCH   2   3
ENDBRANCH   1   2
BRANCH   1  11
ATOM     11  C   UNL     1     -46.047 -32.684  37.317  1.00  0.00     0.000 C 
BRANCH  11  12
ATOM     12  C   UNL     1     -45.982 -34.222  37.281  1.00  0.00    -0.000 C 
BRANCH  12  13
ATOM     13  C   UNL     1     -44.837 -34.746  36.399  1.00  0.00    -0.000 C 
BRANCH  13  14
ATOM     14  C   UNL     1     -43.969 -35.793  37.119  1.00  0.00    -0.000 C 
BRANCH  14  15
ATOM     15  C   UNL     1     -42.462 -35.546  36.933  1.00  0.00    -0.000 C 
BRANCH  15  16
ATOM     16  C   UNL     1     -41.791 -34.726  38.052  1.00  0.00    -0.000 C 
BRANCH  16  17
ATOM     17  C   UNL     1     -40.279 -35.000  38.204  1.00  0.00    -0.003 C 
ATOM     18  C   UNL     1     -39.654 -35.550  36.922  1.00  0.00     0.004 C 
ENDBRANCH  16  17
ENDBRANCH  15  16
ENDBRANCH  14  15
ENDBRANCH  13  14
ENDBRANCH  12  13
ENDBRANCH  11  12
ENDBRANCH   1  11
TORSDOF 14
ENDMDL
MODEL 7
REMARK VINA RESULT:    -4.028      2.209      5.219
REMARK INTER + INTRA:          -9.034
REMARK INTER:                  -6.927
REMARK INTRA:                  -2.107
REMARK UNBOUND:                -1.710
REMARK SMILES CCCCCCCCCCCCCCCC(=O)[O-]
REMARK SMILES IDX 9 1 10 2 11 3 12 4 13 5 14 6 15 7 16 8 17 9 18 10 8 11 7 12
REMARK SMILES IDX 6 13 5 14 4 15 3 16 2 17 1 18
REMARK H PARENT
REMARK Flexibility Score: inf
ROOT
ATOM      1  C   UNL     1     -40.174 -34.880  38.311  1.00  0.00     0.000 C 
ENDROOT
BRANCH   1   2
ATOM      2  C   UNL     1     -40.355 -33.364  38.115  1.00  0.00     0.000 C 
BRANCH   2   3
ATOM      3  C   UNL     1     -41.320 -32.739  39.140  1.00  0.00     0.000 C 
BRANCH   3   4
ATOM      4  C   UNL     1     -42.814 -32.859  38.789  1.00  0.00     0.000 C 
BRANCH   4   5
ATOM      5  C   UNL     1     -43.728 -32.770  40.020  1.00  0.00     0.000 C 
BRANCH   5   6
ATOM      6  C   UNL     1     -45.112 -32.232  39.639  1.00  0.00     0.006 C 
BRANCH   6   7
ATOM      7  C   UNL     1     -45.218 -32.007  38.127  1.00  0.00     0.053 C 
BRANCH   7   8
ATOM      8  C   UNL     1     -46.650 -31.974  37.700  1.00  0.00     0.041 C 
ATOM      9  O   UNL     1     -46.953 -32.092  36.484  1.00  0.00    -0.550 OA
ATOM     10  O   UNL     1     -47.657 -31.862  38.652  1.00  0.00    -0.550 OA
ENDBRANCH   7   8
ENDBRANCH   6   7
ENDBRANCH   5   6
ENDBRANCH   4   5
ENDBRANCH   3   4
ENDBRANCH   2   3
ENDBRANCH   1   2
BRANCH   1  11
ATOM     11  C   UNL     1     -40.016 -35.630  36.978  1.00  0.00     0.000 C 
BRANCH  11  12
ATOM     12  C   UNL     1     -41.244 -35.473  36.065  1.00  0.00    -0.000 C 
BRANCH  12  13
ATOM     13  C   UNL     1     -42.558 -35.852  36.768  1.00  0.00    -0.000 C 
BRANCH  13  14
ATOM     14  C   UNL     1     -43.794 -35.249  36.077  1.00  0.00    -0.000 C 
BRANCH  14  15
ATOM     15  C   UNL     1     -45.100 -35.535  36.838  1.00  0.00    -0.000 C 
BRANCH  15  16
ATOM     16  C   UNL     1     -44.927 -35.868  38.332  1.00  0.00    -0.000 C 
BRANCH  16  17
ATOM     17  C   UNL     1     -46.200 -36.434  38.996  1.00  0.00    -0.003 C 
ATOM     18  C   UNL     1     -47.224 -35.345  39.318  1.00  0.00     0.004 C 
ENDBRANCH  16  17
ENDBRANCH  15  16
ENDBRANCH  14  15
ENDBRANCH  13  14
ENDBRANCH  12  13
ENDBRANCH  11  12
ENDBRANCH   1  11
TORSDOF 14
ENDMDL
MODEL 8
REMARK VINA RESULT:    -3.997      2.460      5.303
REMARK INTER + INTRA:          -8.979
REMARK INTER:                  -6.725
REMARK INTRA:                  -2.254
REMARK UNBOUND:                -1.710
REMARK SMILES CCCCCCCCCCCCCCCC(=O)[O-]
REMARK SMILES IDX 9 1 10 2 11 3 12 4 13 5 14 6 15 7 16 8 17 9 18 10 8 11 7 12
REMARK SMILES IDX 6 13 5 14 4 15 3 16 2 17 1 18
REMARK H PARENT
REMARK Flexibility Score: inf
ROOT
ATOM      1  C   UNL     1     -46.381 -37.689  38.808  1.00  0.00     0.000 C 
ENDROOT
BRANCH   1   2
ATOM      2  C   UNL     1     -46.343 -37.299  37.319  1.00  0.00     0.000 C 
BRANCH   2   3
ATOM      3  C   UNL     1     -44.961 -37.522  36.677  1.00  0.00     0.000 C 
BRANCH   3   4
ATOM      4  C   UNL     1     -44.042 -36.286  36.658  1.00  0.00     0.000 C 
BRANCH   4   5
ATOM      5  C   UNL     1     -44.814 -34.967  36.513  1.00  0.00     0.000 C 
BRANCH   5   6
ATOM      6  C   UNL     1     -44.497 -34.015  37.672  1.00  0.00     0.006 C 
BRANCH   6   7
ATOM      7  C   UNL     1     -43.371 -34.571  38.549  1.00  0.00     0.053 C 
BRANCH   7   8
ATOM      8  C   UNL     1     -42.761 -33.482  39.373  1.00  0.00     0.041 C 
ATOM      9  O   UNL     1     -42.913 -33.471  40.622  1.00  0.00    -0.550 OA
ATOM     10  O   UNL     1     -41.982 -32.505  38.766  1.00  0.00    -0.550 OA
ENDBRANCH   7   8
ENDBRANCH   6   7
ENDBRANCH   5   6
ENDBRANCH   4   5
ENDBRANCH   3   4
ENDBRANCH   2   3
ENDBRANCH   1   2
BRANCH   1  11
ATOM     11  C   UNL     1     -46.682 -36.490  39.722  1.00  0.00     0.000 C 
BRANCH  11  12
ATOM     12  C   UNL     1     -45.569 -36.245  40.757  1.00  0.00    -0.000 C 
BRANCH  12  13
ATOM     13  C   UNL     1     -45.911 -35.111  41.737  1.00  0.00    -0.000 C 
BRANCH  13  14
ATOM     14  C   UNL     1     -46.918 -34.106  41.152  1.00  0.00    -0.000 C 
BRANCH  14  15
ATOM     15  C   UNL     1     -46.308 -32.712  40.929  1.00  0.00    -0.000 C 
BRANCH  15  16
ATOM     16  C   UNL     1     -46.692 -32.035  39.599  1.00  0.00    -0.000 C 
BRANCH  16  17
ATOM     17  C   UNL     1     -47.808 -32.770  38.826  1.00  0.00    -0.003 C 
ATOM     18  C   UNL     1     -48.803 -31.805  38.179  1.00  0.00     0.004 C 
ENDBRANCH  16  17
ENDBRANCH  15  16
ENDBRANCH  14  15
ENDBRANCH  13  14
ENDBRANCH  12  13
ENDBRANCH  11  12
ENDBRANCH   1  11
TORSDOF 14
ENDMDL
MODEL 9
REMARK VINA RESULT:    -3.947      8.285     10.675
REMARK INTER + INTRA:          -8.887
REMARK INTER:                  -6.440
REMARK INTRA:                  -2.446
REMARK UNBOUND:                -1.710
REMARK SMILES CCCCCCCCCCCCCCCC(=O)[O-]
REMARK SMILES IDX 9 1 10 2 11 3 12 4 13 5 14 6 15 7 16 8 17 9 18 10 8 11 7 12
REMARK SMILES IDX 6 13 5 14 4 15 3 16 2 17 1 18
REMARK H PARENT
REMARK Flexibility Score: inf
ROOT
ATOM      1  C   UNL     1     -38.886 -24.599  39.697  1.00  0.00     0.000 C 
ENDROOT
BRANCH   1   2
ATOM      2  C   UNL     1     -38.349 -25.587  40.747  1.00  0.00     0.000 C 
BRANCH   2   3
ATOM      3  C   UNL     1     -38.556 -27.059  40.345  1.00  0.00     0.000 C 
BRANCH   3   4
ATOM      4  C   UNL     1     -39.633 -27.812  41.148  1.00  0.00     0.000 C 
BRANCH   4   5
ATOM      5  C   UNL     1     -40.959 -27.954  40.387  1.00  0.00     0.000 C 
BRANCH   5   6
ATOM      6  C   UNL     1     -41.959 -28.805  41.180  1.00  0.00     0.006 C 
BRANCH   6   7
ATOM      7  C   UNL     1     -42.260 -30.119  40.453  1.00  0.00     0.053 C 
BRANCH   7   8
ATOM      8  C   UNL     1     -43.298 -29.908  39.397  1.00  0.00     0.041 C 
ATOM      9  O   UNL     1     -43.135 -30.385  38.243  1.00  0.00    -0.550 OA
ATOM     10  O   UNL     1     -44.470 -29.227  39.702  1.00  0.00    -0.550 OA
ENDBRANCH   7   8
ENDBRANCH   6   7
ENDBRANCH   5   6
ENDBRANCH   4   5
ENDBRANCH   3   4
ENDBRANCH   2   3
ENDBRANCH   1   2
BRANCH   1  11
ATOM     11  C   UNL     1     -39.933 -23.634  40.278  1.00  0.00     0.000 C 
BRANCH  11  12
ATOM     12  C   UNL     1     -40.335 -23.999  41.718  1.00  0.00    -0.000 C 
BRANCH  12  13
ATOM     13  C   UNL     1     -41.753 -24.588  41.806  1.00  0.00    -0.000 C 
BRANCH  13  14
ATOM     14  C   UNL     1     -42.581 -24.329  40.535  1.00  0.00    -0.000 C 
BRANCH  14  15
ATOM     15  C   UNL     1     -43.590 -25.452  40.243  1.00  0.00    -0.000 C 
BRANCH  15  16
ATOM     16  C   UNL     1     -43.582 -25.978  38.795  1.00  0.00    -0.000 C 
BRANCH  16  17
ATOM     17  C   UNL     1     -42.583 -25.248  37.872  1.00  0.00    -0.003 C 
ATOM     18  C   UNL     1     -41.438 -26.154  37.418  1.00  0.00     0.004 C 
ENDBRANCH  16  17
ENDBRANCH  15  16
ENDBRANCH  14  15
ENDBRANCH  13  14
ENDBRANCH  12  13
ENDBRANCH  11  12
ENDBRANCH   1  11
TORSDOF 14
ENDMDL
