MODEL 1
REMARK VINA RESULT:    -5.619      0.000      0.000
REMARK INTER + INTRA:          -5.947
REMARK INTER:                  -5.947
REMARK INTRA:                   0.000
REMARK UNBOUND:                 0.000
REMARK SMILES O=c1ccc2cc(O)c(O)cc2o1
REMARK SMILES IDX 4 1 3 2 2 3 1 4 13 5 12 6 11 7 9 8 7 9 6 10 5 11 8 12 10 14
REMARK H PARENT 8 13 10 15
REMARK Flexibility Score: inf
ROOT
ATOM      1  C   UNL     1      -8.695 -23.408 -18.000  1.00  0.00     0.019 A 
ATOM      2  C   UNL     1      -7.807 -22.631 -17.256  1.00  0.00     0.094 A 
ATOM      3  C   UNL     1      -6.470 -22.554 -17.661  1.00  0.00     0.336 A 
ATOM      4  O   UNL     1      -5.654 -21.858 -17.003  1.00  0.00    -0.246 OA
ATOM      5  O   UNL     1      -6.054 -23.214 -18.739  1.00  0.00    -0.423 OA
ATOM      6  C   UNL     1      -6.867 -23.967 -19.477  1.00  0.00     0.142 A 
ATOM      7  C   UNL     1      -6.373 -24.636 -20.600  1.00  0.00     0.098 A 
ATOM      8  C   UNL     1      -7.222 -25.430 -21.381  1.00  0.00     0.161 A 
ATOM      9  C   UNL     1      -8.580 -25.554 -21.036  1.00  0.00     0.158 A 
ATOM     10  C   UNL     1      -9.080 -24.884 -19.910  1.00  0.00     0.062 A 
ATOM     11  C   UNL     1      -8.230 -24.090 -19.129  1.00  0.00     0.022 A 
ENDROOT
BRANCH   9  12
ATOM     12  O   UNL     1      -9.427 -26.344 -21.813  1.00  0.00    -0.504 OA
ATOM     13  H   UNL     1      -9.588 -27.321 -21.598  1.00  0.00     0.293 HD
ENDBRANCH   9  12
BRANCH   8  14
ATOM     14  O   UNL     1      -6.699 -26.085 -22.495  1.00  0.00    -0.504 OA
ATOM     15  H   UNL     1      -7.292 -26.539 -23.179  1.00  0.00     0.293 HD
ENDBRANCH   8  14
TORSDOF 2
ENDMDL
MODEL 2
REMARK VINA RESULT:    -5.523      1.738      4.709
REMARK INTER + INTRA:          -5.846
REMARK INTER:                  -5.846
REMARK INTRA:                   0.000
REMARK UNBOUND:                 0.000
REMARK SMILES O=c1ccc2cc(O)c(O)cc2o1
REMARK SMILES IDX 4 1 3 2 2 3 1 4 13 5 12 6 11 7 9 8 7 9 6 10 5 11 8 12 10 14
REMARK H PARENT 8 13 10 15
REMARK Flexibility Score: inf
ROOT
ATOM      1  C   UNL     1      -8.706 -24.011 -19.576  1.00  0.00     0.019 A 
ATOM      2  C   UNL     1      -8.331 -24.074 -20.918  1.00  0.00     0.094 A 
ATOM      3  C   UNL     1      -7.117 -23.501 -21.310  1.00  0.00     0.336 A 
ATOM      4  O   UNL     1      -6.760 -23.547 -22.515  1.00  0.00    -0.246 OA
ATOM      5  O   UNL     1      -6.333 -22.904 -20.414  1.00  0.00    -0.423 OA
ATOM      6  C   UNL     1      -6.653 -22.822 -19.124  1.00  0.00     0.142 A 
ATOM      7  C   UNL     1      -5.791 -22.184 -18.229  1.00  0.00     0.098 A 
ATOM      8  C   UNL     1      -6.120 -22.092 -16.872  1.00  0.00     0.161 A 
ATOM      9  C   UNL     1      -7.325 -22.646 -16.403  1.00  0.00     0.158 A 
ATOM     10  C   UNL     1      -8.195 -23.288 -17.298  1.00  0.00     0.062 A 
ATOM     11  C   UNL     1      -7.864 -23.378 -18.656  1.00  0.00     0.022 A 
ENDROOT
BRANCH   9  12
ATOM     12  O   UNL     1      -7.655 -22.556 -15.051  1.00  0.00    -0.504 OA
ATOM     13  H   UNL     1      -7.003 -22.829 -14.326  1.00  0.00     0.293 HD
ENDBRANCH   9  12
BRANCH   8  14
ATOM     14  O   UNL     1      -5.238 -21.449 -16.003  1.00  0.00    -0.504 OA
ATOM     15  H   UNL     1      -4.317 -21.818 -15.802  1.00  0.00     0.293 HD
ENDBRANCH   8  14
TORSDOF 2
ENDMDL
MODEL 3
REMARK VINA RESULT:    -5.191      1.571      5.194
REMARK INTER + INTRA:          -5.495
REMARK INTER:                  -5.495
REMARK INTRA:                   0.000
REMARK UNBOUND:                 0.000
REMARK SMILES O=c1ccc2cc(O)c(O)cc2o1
REMARK SMILES IDX 4 1 3 2 2 3 1 4 13 5 12 6 11 7 9 8 7 9 6 10 5 11 8 12 10 14
REMARK H PARENT 8 13 10 15
REMARK Flexibility Score: inf
ROOT
ATOM      1  C   UNL     1      -6.570 -23.298 -20.603  1.00  0.00     0.019 A 
ATOM      2  C   UNL     1      -7.535 -24.129 -21.171  1.00  0.00     0.094 A 
ATOM      3  C   UNL     1      -8.561 -24.629 -20.362  1.00  0.00     0.336 A 
ATOM      4  O   UNL     1      -9.441 -25.380 -20.855  1.00  0.00    -0.246 OA
ATOM      5  O   UNL     1      -8.612 -24.315 -19.069  1.00  0.00    -0.423 OA
ATOM      6  C   UNL     1      -7.712 -23.526 -18.487  1.00  0.00     0.142 A 
ATOM      7  C   UNL     1      -7.818 -23.230 -17.126  1.00  0.00     0.098 A 
ATOM      8  C   UNL     1      -6.875 -22.401 -16.506  1.00  0.00     0.161 A 
ATOM      9  C   UNL     1      -5.815 -21.861 -17.256  1.00  0.00     0.158 A 
ATOM     10  C   UNL     1      -5.705 -22.154 -18.624  1.00  0.00     0.062 A 
ATOM     11  C   UNL     1      -6.649 -22.984 -19.242  1.00  0.00     0.022 A 
ENDROOT
BRANCH   9  12
ATOM     12  O   UNL     1      -4.875 -21.035 -16.641  1.00  0.00    -0.504 OA
ATOM     13  H   UNL     1      -4.560 -20.174 -17.073  1.00  0.00     0.293 HD
ENDBRANCH   9  12
BRANCH   8  14
ATOM     14  O   UNL     1      -7.008 -22.124 -15.145  1.00  0.00    -0.504 OA
ATOM     15  H   UNL     1      -6.613 -22.726 -14.433  1.00  0.00     0.293 HD
ENDBRANCH   8  14
TORSDOF 2
ENDMDL
MODEL 4
REMARK VINA RESULT:    -5.172      2.645      4.946
REMARK INTER + INTRA:          -5.474
REMARK INTER:                  -5.474
REMARK INTRA:                   0.000
REMARK UNBOUND:                 0.000
REMARK SMILES O=c1ccc2cc(O)c(O)cc2o1
REMARK SMILES IDX 4 1 3 2 2 3 1 4 13 5 12 6 11 7 9 8 7 9 6 10 5 11 8 12 10 14
REMARK H PARENT 8 13 10 15
REMARK Flexibility Score: inf
ROOT
ATOM      1  C   UNL     1      -5.841 -21.349 -19.250  1.00  0.00     0.019 A 
ATOM      2  C   UNL     1      -6.345 -21.377 -20.550  1.00  0.00     0.094 A 
ATOM      3  C   UNL     1      -7.448 -22.189 -20.832  1.00  0.00     0.336 A 
ATOM      4  O   UNL     1      -7.918 -22.229 -21.999  1.00  0.00    -0.246 OA
ATOM      5  O   UNL     1      -8.007 -22.924 -19.872  1.00  0.00    -0.423 OA
ATOM      6  C   UNL     1      -7.558 -22.926 -18.619  1.00  0.00     0.142 A 
ATOM      7  C   UNL     1      -8.186 -23.717 -17.653  1.00  0.00     0.098 A 
ATOM      8  C   UNL     1      -7.720 -23.726 -16.333  1.00  0.00     0.161 A 
ATOM      9  C   UNL     1      -6.614 -22.934 -15.974  1.00  0.00     0.158 A 
ATOM     10  C   UNL     1      -5.981 -22.137 -16.940  1.00  0.00     0.062 A 
ATOM     11  C   UNL     1      -6.448 -22.130 -18.261  1.00  0.00     0.022 A 
ENDROOT
BRANCH   9  12
ATOM     12  O   UNL     1      -6.148 -22.940 -14.660  1.00  0.00    -0.504 OA
ATOM     13  H   UNL     1      -5.382 -22.347 -14.364  1.00  0.00     0.293 HD
ENDBRANCH   9  12
BRANCH   8  14
ATOM     14  O   UNL     1      -8.368 -24.525 -15.392  1.00  0.00    -0.504 OA
ATOM     15  H   UNL     1      -9.020 -25.251 -15.661  1.00  0.00     0.293 HD
ENDBRANCH   8  14
TORSDOF 2
ENDMDL
MODEL 5
REMARK VINA RESULT:    -5.084      1.599      2.491
REMARK INTER + INTRA:          -5.381
REMARK INTER:                  -5.381
REMARK INTRA:                   0.000
REMARK UNBOUND:                 0.000
REMARK SMILES O=c1ccc2cc(O)c(O)cc2o1
REMARK SMILES IDX 4 1 3 2 2 3 1 4 13 5 12 6 11 7 9 8 7 9 6 10 5 11 8 12 10 14
REMARK H PARENT 8 13 10 15
REMARK Flexibility Score: inf
ROOT
ATOM      1  C   UNL     1      -5.998 -21.753 -18.391  1.00  0.00     0.019 A 
ATOM      2  C   UNL     1      -6.271 -21.709 -17.024  1.00  0.00     0.094 A 
ATOM      3  C   UNL     1      -7.266 -22.545 -16.505  1.00  0.00     0.336 A 
ATOM      4  O   UNL     1      -7.528 -22.521 -15.274  1.00  0.00    -0.246 OA
ATOM      5  O   UNL     1      -7.941 -23.367 -17.306  1.00  0.00    -0.423 OA
ATOM      6  C   UNL     1      -7.712 -23.440 -18.615  1.00  0.00     0.142 A 
ATOM      7  C   UNL     1      -8.451 -24.323 -19.406  1.00  0.00     0.098 A 
ATOM      8  C   UNL     1      -8.218 -24.405 -20.784  1.00  0.00     0.161 A 
ATOM      9  C   UNL     1      -7.232 -23.596 -21.377  1.00  0.00     0.158 A 
ATOM     10  C   UNL     1      -6.486 -22.708 -20.587  1.00  0.00     0.062 A 
ATOM     11  C   UNL     1      -6.722 -22.627 -19.209  1.00  0.00     0.022 A 
ENDROOT
BRANCH   9  12
ATOM     12  O   UNL     1      -6.996 -23.677 -22.749  1.00  0.00    -0.504 OA
ATOM     13  H   UNL     1      -7.757 -23.736 -23.416  1.00  0.00     0.293 HD
ENDBRANCH   9  12
BRANCH   8  14
ATOM     14  O   UNL     1      -8.972 -25.297 -21.546  1.00  0.00    -0.504 OA
ATOM     15  H   UNL     1      -9.242 -26.208 -21.197  1.00  0.00     0.293 HD
ENDBRANCH   8  14
TORSDOF 2
ENDMDL
MODEL 6
REMARK VINA RESULT:    -5.005      3.484      4.345
REMARK INTER + INTRA:          -5.297
REMARK INTER:                  -5.297
REMARK INTRA:                   0.000
REMARK UNBOUND:                 0.000
REMARK SMILES O=c1ccc2cc(O)c(O)cc2o1
REMARK SMILES IDX 4 1 3 2 2 3 1 4 13 5 12 6 11 7 9 8 7 9 6 10 5 11 8 12 10 14
REMARK H PARENT 8 13 10 15
REMARK Flexibility Score: inf
ROOT
ATOM      1  C   UNL     1      -5.997 -23.637 -20.746  1.00  0.00     0.019 A 
ATOM      2  C   UNL     1      -6.798 -23.811 -19.618  1.00  0.00     0.094 A 
ATOM      3  C   UNL     1      -8.125 -23.368 -19.653  1.00  0.00     0.336 A 
ATOM      4  O   UNL     1      -8.864 -23.516 -18.646  1.00  0.00    -0.246 OA
ATOM      5  O   UNL     1      -8.612 -22.789 -20.748  1.00  0.00    -0.423 OA
ATOM      6  C   UNL     1      -7.883 -22.604 -21.846  1.00  0.00     0.142 A 
ATOM      7  C   UNL     1      -8.450 -21.991 -22.967  1.00  0.00     0.098 A 
ATOM      8  C   UNL     1      -7.689 -21.792 -24.125  1.00  0.00     0.161 A 
ATOM      9  C   UNL     1      -6.347 -22.211 -24.164  1.00  0.00     0.158 A 
ATOM     10  C   UNL     1      -5.774 -22.828 -23.042  1.00  0.00     0.062 A 
ATOM     11  C   UNL     1      -6.536 -23.026 -21.883  1.00  0.00     0.022 A 
ENDROOT
BRANCH   9  12
ATOM     12  O   UNL     1      -5.588 -22.015 -25.317  1.00  0.00    -0.504 OA
ATOM     13  H   UNL     1      -4.991 -22.743 -25.692  1.00  0.00     0.293 HD
ENDBRANCH   9  12
BRANCH   8  14
ATOM     14  O   UNL     1      -8.283 -21.177 -25.227  1.00  0.00    -0.504 OA
ATOM     15  H   UNL     1      -7.793 -20.493 -25.791  1.00  0.00     0.293 HD
ENDBRANCH   8  14
TORSDOF 2
ENDMDL
MODEL 7
REMARK VINA RESULT:    -4.940      3.257      4.963
REMARK INTER + INTRA:          -5.229
REMARK INTER:                  -5.229
REMARK INTRA:                   0.000
REMARK UNBOUND:                 0.000
REMARK SMILES O=c1ccc2cc(O)c(O)cc2o1
REMARK SMILES IDX 4 1 3 2 2 3 1 4 13 5 12 6 11 7 9 8 7 9 6 10 5 11 8 12 10 14
REMARK H PARENT 8 13 10 15
REMARK Flexibility Score: inf
ROOT
ATOM      1  C   UNL     1      -6.012 -22.889 -23.389  1.00  0.00     0.019 A 
ATOM      2  C   UNL     1      -6.695 -22.082 -24.299  1.00  0.00     0.094 A 
ATOM      3  C   UNL     1      -7.985 -21.644 -23.980  1.00  0.00     0.336 A 
ATOM      4  O   UNL     1      -8.618 -20.915 -24.787  1.00  0.00    -0.246 OA
ATOM      5  O   UNL     1      -8.549 -21.993 -22.826  1.00  0.00    -0.423 OA
ATOM      6  C   UNL     1      -7.932 -22.760 -21.930  1.00  0.00     0.142 A 
ATOM      7  C   UNL     1      -8.574 -23.093 -20.734  1.00  0.00     0.098 A 
ATOM      8  C   UNL     1      -7.932 -23.901 -19.788  1.00  0.00     0.161 A 
ATOM      9  C   UNL     1      -6.634 -24.379 -20.039  1.00  0.00     0.158 A 
ATOM     10  C   UNL     1      -5.985 -24.047 -21.237  1.00  0.00     0.062 A 
ATOM     11  C   UNL     1      -6.628 -23.240 -22.184  1.00  0.00     0.022 A 
ENDROOT
BRANCH   9  12
ATOM     12  O   UNL     1      -5.992 -25.183 -19.097  1.00  0.00    -0.504 OA
ATOM     13  H   UNL     1      -4.999 -25.375 -19.150  1.00  0.00     0.293 HD
ENDBRANCH   9  12
BRANCH   8  14
ATOM     14  O   UNL     1      -8.599 -24.215 -18.604  1.00  0.00    -0.504 OA
ATOM     15  H   UNL     1      -8.410 -25.067 -18.090  1.00  0.00     0.293 HD
ENDBRANCH   8  14
TORSDOF 2
ENDMDL
MODEL 8
REMARK VINA RESULT:    -4.842      3.447      3.870
REMARK INTER + INTRA:          -5.125
REMARK INTER:                  -5.125
REMARK INTRA:                   0.000
REMARK UNBOUND:                 0.000
REMARK SMILES O=c1ccc2cc(O)c(O)cc2o1
REMARK SMILES IDX 4 1 3 2 2 3 1 4 13 5 12 6 11 7 9 8 7 9 6 10 5 11 8 12 10 14
REMARK H PARENT 8 13 10 15
REMARK Flexibility Score: inf
ROOT
ATOM      1  C   UNL     1      -8.598 -22.746 -20.730  1.00  0.00     0.019 A 
ATOM      2  C   UNL     1      -7.988 -23.397 -19.658  1.00  0.00     0.094 A 
ATOM      3  C   UNL     1      -6.666 -23.835 -19.795  1.00  0.00     0.336 A 
ATOM      4  O   UNL     1      -6.097 -24.425 -18.840  1.00  0.00    -0.246 OA
ATOM      5  O   UNL     1      -6.004 -23.632 -20.932  1.00  0.00    -0.423 OA
ATOM      6  C   UNL     1      -6.548 -23.015 -21.978  1.00  0.00     0.142 A 
ATOM      7  C   UNL     1      -5.803 -22.829 -23.145  1.00  0.00     0.098 A 
ATOM      8  C   UNL     1      -6.369 -22.182 -24.250  1.00  0.00     0.161 A 
ATOM      9  C   UNL     1      -7.693 -21.713 -24.187  1.00  0.00     0.158 A 
ATOM     10  C   UNL     1      -8.445 -21.896 -23.016  1.00  0.00     0.062 A 
ATOM     11  C   UNL     1      -7.878 -22.545 -21.912  1.00  0.00     0.022 A 
ENDROOT
BRANCH   9  12
ATOM     12  O   UNL     1      -8.258 -21.067 -25.286  1.00  0.00    -0.504 OA
ATOM     13  H   UNL     1      -7.747 -20.947 -26.152  1.00  0.00     0.293 HD
ENDBRANCH   9  12
BRANCH   8  14
ATOM     14  O   UNL     1      -5.599 -22.011 -25.401  1.00  0.00    -0.504 OA
ATOM     15  H   UNL     1      -4.735 -21.483 -25.397  1.00  0.00     0.293 HD
ENDBRANCH   8  14
TORSDOF 2
ENDMDL
MODEL 9
REMARK VINA RESULT:    -4.803      1.833      2.254
REMARK INTER + INTRA:          -5.083
REMARK INTER:                  -5.083
REMARK INTRA:                   0.000
REMARK UNBOUND:                 0.000
REMARK SMILES O=c1ccc2cc(O)c(O)cc2o1
REMARK SMILES IDX 4 1 3 2 2 3 1 4 13 5 12 6 11 7 9 8 7 9 6 10 5 11 8 12 10 14
REMARK H PARENT 8 13 10 15
REMARK Flexibility Score: inf
ROOT
ATOM      1  C   UNL     1      -8.224 -23.624 -17.324  1.00  0.00     0.019 A 
ATOM      2  C   UNL     1      -7.640 -23.188 -16.135  1.00  0.00     0.094 A 
ATOM      3  C   UNL     1      -6.482 -22.406 -16.196  1.00  0.00     0.336 A 
ATOM      4  O   UNL     1      -5.939 -22.002 -15.135  1.00  0.00    -0.246 OA
ATOM      5  O   UNL     1      -5.947 -22.086 -17.372  1.00  0.00    -0.423 OA
ATOM      6  C   UNL     1      -6.472 -22.481 -18.530  1.00  0.00     0.142 A 
ATOM      7  C   UNL     1      -5.867 -22.112 -19.734  1.00  0.00     0.098 A 
ATOM      8  C   UNL     1      -6.412 -22.524 -20.956  1.00  0.00     0.161 A 
ATOM      9  C   UNL     1      -7.577 -23.312 -20.974  1.00  0.00     0.158 A 
ATOM     10  C   UNL     1      -8.189 -23.684 -19.767  1.00  0.00     0.062 A 
ATOM     11  C   UNL     1      -7.641 -23.272 -18.546  1.00  0.00     0.022 A 
ENDROOT
BRANCH   9  12
ATOM     12  O   UNL     1      -8.123 -23.723 -22.190  1.00  0.00    -0.504 OA
ATOM     13  H   UNL     1      -7.623 -24.347 -22.813  1.00  0.00     0.293 HD
ENDBRANCH   9  12
BRANCH   8  14
ATOM     14  O   UNL     1      -5.785 -22.140 -22.141  1.00  0.00    -0.504 OA
ATOM     15  H   UNL     1      -5.590 -22.799 -22.885  1.00  0.00     0.293 HD
ENDBRANCH   8  14
TORSDOF 2
ENDMDL
