MODEL 1
REMARK VINA RESULT:    -8.170      0.000      0.000
REMARK INTER + INTRA:          -9.695
REMARK INTER:                 -10.080
REMARK INTRA:                   0.385
REMARK UNBOUND:                 0.385
REMARK SMILES Oc1cc(O)c2cc(O)c(-c3cc(O)c(O)c(O)c3)[o+]c2c1
REMARK SMILES IDX 10 1 20 2 21 3 22 4 2 5 3 6 4 7 6 8 7 9 8 10 11 11 12 12
REMARK SMILES IDX 13 13 19 14 15 15 17 16 14 17 16 19 18 21 9 23 1 25 5 27
REMARK H PARENT 14 18 16 20 18 22 9 24 1 26 5 28
REMARK Flexibility Score: inf
ROOT
ATOM      1  C   UNL     1     -15.027 -31.316 -13.540  1.00  0.00     0.402 A 
ATOM      2  O   UNL     1     -14.809 -31.948 -14.690  1.00  0.00    -0.202 OA
ATOM      3  C   UNL     1     -14.805 -33.271 -14.807  1.00  0.00     0.368 A 
ATOM      4  C   UNL     1     -14.563 -33.843 -16.059  1.00  0.00     0.162 A 
ATOM      5  C   UNL     1     -14.549 -35.230 -16.209  1.00  0.00     0.128 A 
ATOM      6  C   UNL     1     -14.777 -36.054 -15.102  1.00  0.00     0.093 A 
ATOM      7  C   UNL     1     -15.022 -35.506 -13.837  1.00  0.00     0.136 A 
ATOM      8  C   UNL     1     -15.039 -34.096 -13.680  1.00  0.00     0.125 A 
ATOM      9  C   UNL     1     -15.288 -33.459 -12.453  1.00  0.00     0.078 A 
ATOM     10  C   UNL     1     -15.295 -32.063 -12.377  1.00  0.00     0.223 A 
ENDROOT
BRANCH   1  11
ATOM     11  C   UNL     1     -14.997 -29.836 -13.536  1.00  0.00     0.091 A 
ATOM     12  C   UNL     1     -15.371 -29.100 -12.402  1.00  0.00     0.068 A 
ATOM     13  C   UNL     1     -15.314 -27.700 -12.412  1.00  0.00     0.162 A 
ATOM     14  C   UNL     1     -14.532 -29.152 -14.669  1.00  0.00     0.068 A 
ATOM     15  C   UNL     1     -14.871 -27.018 -13.554  1.00  0.00     0.200 A 
ATOM     16  C   UNL     1     -14.471 -27.755 -14.694  1.00  0.00     0.162 A 
BRANCH  13  17
ATOM     17  O   UNL     1     -15.695 -26.977 -11.282  1.00  0.00    -0.504 OA
ATOM     18  H   UNL     1     -16.621 -27.064 -10.882  1.00  0.00     0.293 HD
ENDBRANCH  13  17
BRANCH  15  19
ATOM     19  O   UNL     1     -14.841 -25.622 -13.512  1.00  0.00    -0.502 OA
ATOM     20  H   UNL     1     -14.661 -25.035 -14.315  1.00  0.00     0.293 HD
ENDBRANCH  15  19
BRANCH  16  21
ATOM     21  O   UNL     1     -14.008 -27.144 -15.861  1.00  0.00    -0.504 OA
ATOM     22  H   UNL     1     -14.004 -27.586 -16.768  1.00  0.00     0.293 HD
ENDBRANCH  16  21
ENDBRANCH   1  11
BRANCH  10  23
ATOM     23  O   UNL     1     -15.591 -31.429 -11.170  1.00  0.00    -0.500 OA
ATOM     24  H   UNL     1     -15.232 -30.507 -10.951  1.00  0.00     0.294 HD
ENDBRANCH  10  23
BRANCH   5  25
ATOM     25  O   UNL     1     -14.307 -35.781 -17.466  1.00  0.00    -0.507 OA
ATOM     26  H   UNL     1     -15.043 -36.227 -18.000  1.00  0.00     0.293 HD
ENDBRANCH   5  25
BRANCH   7  27
ATOM     27  O   UNL     1     -15.237 -36.395 -12.780  1.00  0.00    -0.507 OA
ATOM     28  H   UNL     1     -15.039 -37.384 -12.818  1.00  0.00     0.293 HD
ENDBRANCH   7  27
TORSDOF 7
ENDMDL
MODEL 2
REMARK VINA RESULT:    -8.066      4.301      7.164
REMARK INTER + INTRA:          -9.567
REMARK INTER:                  -9.864
REMARK INTRA:                   0.298
REMARK UNBOUND:                 0.385
REMARK SMILES Oc1cc(O)c2cc(O)c(-c3cc(O)c(O)c(O)c3)[o+]c2c1
REMARK SMILES IDX 10 1 20 2 21 3 22 4 2 5 3 6 4 7 6 8 7 9 8 10 11 11 12 12
REMARK SMILES IDX 13 13 19 14 15 15 17 16 14 17 16 19 18 21 9 23 1 25 5 27
REMARK H PARENT 14 18 16 20 18 22 9 24 1 26 5 28
REMARK Flexibility Score: inf
ROOT
ATOM      1  C   UNL     1     -12.911 -30.370 -10.839  1.00  0.00     0.402 A 
ATOM      2  O   UNL     1     -12.693 -29.188 -11.411  1.00  0.00    -0.202 OA
ATOM      3  C   UNL     1     -13.549 -28.613 -12.247  1.00  0.00     0.368 A 
ATOM      4  C   UNL     1     -13.228 -27.370 -12.800  1.00  0.00     0.162 A 
ATOM      5  C   UNL     1     -14.108 -26.744 -13.683  1.00  0.00     0.128 A 
ATOM      6  C   UNL     1     -15.318 -27.361 -14.019  1.00  0.00     0.093 A 
ATOM      7  C   UNL     1     -15.662 -28.607 -13.478  1.00  0.00     0.136 A 
ATOM      8  C   UNL     1     -14.772 -29.246 -12.578  1.00  0.00     0.125 A 
ATOM      9  C   UNL     1     -15.039 -30.488 -11.978  1.00  0.00     0.078 A 
ATOM     10  C   UNL     1     -14.115 -31.053 -11.095  1.00  0.00     0.223 A 
ENDROOT
BRANCH   1  11
ATOM     11  C   UNL     1     -11.874 -30.912  -9.932  1.00  0.00     0.091 A 
ATOM     12  C   UNL     1     -11.853 -32.269  -9.575  1.00  0.00     0.068 A 
ATOM     13  C   UNL     1     -10.849 -32.767  -8.733  1.00  0.00     0.162 A 
ATOM     14  C   UNL     1     -10.858 -30.068  -9.462  1.00  0.00     0.068 A 
ATOM     15  C   UNL     1      -9.847 -31.915  -8.246  1.00  0.00     0.200 A 
ATOM     16  C   UNL     1      -9.850 -30.551  -8.620  1.00  0.00     0.162 A 
BRANCH  13  17
ATOM     17  O   UNL     1     -10.839 -34.115  -8.378  1.00  0.00    -0.504 OA
ATOM     18  H   UNL     1     -10.703 -34.845  -9.067  1.00  0.00     0.293 HD
ENDBRANCH  13  17
BRANCH  15  19
ATOM     19  O   UNL     1      -8.876 -32.462  -7.405  1.00  0.00    -0.502 OA
ATOM     20  H   UNL     1      -8.496 -33.392  -7.506  1.00  0.00     0.293 HD
ENDBRANCH  15  19
BRANCH  16  21
ATOM     21  O   UNL     1      -8.879 -29.647  -8.183  1.00  0.00    -0.504 OA
ATOM     22  H   UNL     1      -9.059 -28.887  -7.544  1.00  0.00     0.293 HD
ENDBRANCH  16  21
ENDBRANCH   1  11
BRANCH  10  23
ATOM     23  O   UNL     1     -14.401 -32.262 -10.461  1.00  0.00    -0.500 OA
ATOM     24  H   UNL     1     -14.858 -33.024 -10.949  1.00  0.00     0.294 HD
ENDBRANCH  10  23
BRANCH   5  25
ATOM     25  O   UNL     1     -13.771 -25.504 -14.224  1.00  0.00    -0.507 OA
ATOM     26  H   UNL     1     -13.690 -25.367 -15.225  1.00  0.00     0.293 HD
ENDBRANCH   5  25
BRANCH   7  27
ATOM     27  O   UNL     1     -16.886 -29.160 -13.865  1.00  0.00    -0.507 OA
ATOM     28  H   UNL     1     -17.153 -30.121 -13.708  1.00  0.00     0.293 HD
ENDBRANCH   7  27
TORSDOF 7
ENDMDL
MODEL 3
REMARK VINA RESULT:    -7.862      1.164      7.083
REMARK INTER + INTRA:          -9.316
REMARK INTER:                  -9.748
REMARK INTRA:                   0.432
REMARK UNBOUND:                 0.385
REMARK SMILES Oc1cc(O)c2cc(O)c(-c3cc(O)c(O)c(O)c3)[o+]c2c1
REMARK SMILES IDX 10 1 20 2 21 3 22 4 2 5 3 6 4 7 6 8 7 9 8 10 11 11 12 12
REMARK SMILES IDX 13 13 19 14 15 15 17 16 14 17 16 19 18 21 9 23 1 25 5 27
REMARK H PARENT 14 18 16 20 18 22 9 24 1 26 5 28
REMARK Flexibility Score: inf
ROOT
ATOM      1  C   UNL     1     -14.995 -30.842 -13.359  1.00  0.00     0.402 A 
ATOM      2  O   UNL     1     -14.652 -29.933 -14.269  1.00  0.00    -0.202 OA
ATOM      3  C   UNL     1     -14.586 -28.632 -14.011  1.00  0.00     0.368 A 
ATOM      4  C   UNL     1     -14.220 -27.754 -15.035  1.00  0.00     0.162 A 
ATOM      5  C   UNL     1     -14.145 -26.382 -14.794  1.00  0.00     0.128 A 
ATOM      6  C   UNL     1     -14.439 -25.880 -13.522  1.00  0.00     0.093 A 
ATOM      7  C   UNL     1     -14.810 -26.739 -12.479  1.00  0.00     0.136 A 
ATOM      8  C   UNL     1     -14.884 -28.136 -12.719  1.00  0.00     0.125 A 
ATOM      9  C   UNL     1     -15.234 -29.071 -11.732  1.00  0.00     0.078 A 
ATOM     10  C   UNL     1     -15.281 -30.433 -12.043  1.00  0.00     0.223 A 
ENDROOT
BRANCH   1  11
ATOM     11  C   UNL     1     -15.042 -32.263 -13.771  1.00  0.00     0.091 A 
ATOM     12  C   UNL     1     -14.950 -32.637 -15.120  1.00  0.00     0.068 A 
ATOM     13  C   UNL     1     -14.974 -33.989 -15.487  1.00  0.00     0.162 A 
ATOM     14  C   UNL     1     -15.122 -33.263 -12.791  1.00  0.00     0.068 A 
ATOM     15  C   UNL     1     -15.077 -34.986 -14.506  1.00  0.00     0.200 A 
ATOM     16  C   UNL     1     -15.148 -34.617 -13.142  1.00  0.00     0.162 A 
BRANCH  13  17
ATOM     17  O   UNL     1     -14.889 -34.351 -16.830  1.00  0.00    -0.504 OA
ATOM     18  H   UNL     1     -14.796 -35.319 -17.115  1.00  0.00     0.293 HD
ENDBRANCH  13  17
BRANCH  15  19
ATOM     19  O   UNL     1     -15.104 -36.318 -14.927  1.00  0.00    -0.502 OA
ATOM     20  H   UNL     1     -15.817 -36.709 -15.526  1.00  0.00     0.293 HD
ENDBRANCH  15  19
BRANCH  16  21
ATOM     21  O   UNL     1     -15.241 -35.555 -12.112  1.00  0.00    -0.504 OA
ATOM     22  H   UNL     1     -15.817 -36.383 -12.150  1.00  0.00     0.293 HD
ENDBRANCH  16  21
ENDBRANCH   1  11
BRANCH  10  23
ATOM     23  O   UNL     1     -15.579 -31.368 -11.051  1.00  0.00    -0.500 OA
ATOM     24  H   UNL     1     -16.138 -31.125 -10.242  1.00  0.00     0.294 HD
ENDBRANCH  10  23
BRANCH   5  25
ATOM     25  O   UNL     1     -13.776 -25.522 -15.827  1.00  0.00    -0.507 OA
ATOM     26  H   UNL     1     -13.919 -24.521 -15.760  1.00  0.00     0.293 HD
ENDBRANCH   5  25
BRANCH   7  27
ATOM     27  O   UNL     1     -15.092 -26.161 -11.238  1.00  0.00    -0.507 OA
ATOM     28  H   UNL     1     -15.616 -26.613 -10.504  1.00  0.00     0.293 HD
ENDBRANCH   7  27
TORSDOF 7
ENDMDL
MODEL 4
REMARK VINA RESULT:    -7.862      1.171      6.866
REMARK INTER + INTRA:          -9.315
REMARK INTER:                  -9.682
REMARK INTRA:                   0.367
REMARK UNBOUND:                 0.385
REMARK SMILES Oc1cc(O)c2cc(O)c(-c3cc(O)c(O)c(O)c3)[o+]c2c1
REMARK SMILES IDX 10 1 20 2 21 3 22 4 2 5 3 6 4 7 6 8 7 9 8 10 11 11 12 12
REMARK SMILES IDX 13 13 19 14 15 15 17 16 14 17 16 19 18 21 9 23 1 25 5 27
REMARK H PARENT 14 18 16 20 18 22 9 24 1 26 5 28
REMARK Flexibility Score: inf
ROOT
ATOM      1  C   UNL     1     -14.959 -30.851 -13.290  1.00  0.00     0.402 A 
ATOM      2  O   UNL     1     -14.646 -29.956 -14.223  1.00  0.00    -0.202 OA
ATOM      3  C   UNL     1     -14.601 -28.648 -13.994  1.00  0.00     0.368 A 
ATOM      4  C   UNL     1     -14.265 -27.786 -15.041  1.00  0.00     0.162 A 
ATOM      5  C   UNL     1     -14.213 -26.407 -14.830  1.00  0.00     0.128 A 
ATOM      6  C   UNL     1     -14.501 -25.884 -13.565  1.00  0.00     0.093 A 
ATOM      7  C   UNL     1     -14.842 -26.727 -12.500  1.00  0.00     0.136 A 
ATOM      8  C   UNL     1     -14.892 -28.130 -12.709  1.00  0.00     0.125 A 
ATOM      9  C   UNL     1     -15.211 -29.050 -11.698  1.00  0.00     0.078 A 
ATOM     10  C   UNL     1     -15.236 -30.419 -11.979  1.00  0.00     0.223 A 
ENDROOT
BRANCH   1  11
ATOM     11  C   UNL     1     -14.984 -32.282 -13.670  1.00  0.00     0.091 A 
ATOM     12  C   UNL     1     -15.075 -33.294 -12.703  1.00  0.00     0.068 A 
ATOM     13  C   UNL     1     -15.120 -34.641 -13.086  1.00  0.00     0.162 A 
ATOM     14  C   UNL     1     -14.973 -32.635 -15.027  1.00  0.00     0.068 A 
ATOM     15  C   UNL     1     -15.087 -34.992 -14.442  1.00  0.00     0.200 A 
ATOM     16  C   UNL     1     -15.017 -33.976 -15.424  1.00  0.00     0.162 A 
BRANCH  13  17
ATOM     17  O   UNL     1     -15.204 -35.640 -12.117  1.00  0.00    -0.504 OA
ATOM     18  H   UNL     1     -14.800 -36.558 -12.264  1.00  0.00     0.293 HD
ENDBRANCH  13  17
BRANCH  15  19
ATOM     19  O   UNL     1     -15.127 -36.350 -14.768  1.00  0.00    -0.502 OA
ATOM     20  H   UNL     1     -15.081 -36.708 -15.712  1.00  0.00     0.293 HD
ENDBRANCH  15  19
BRANCH  16  21
ATOM     21  O   UNL     1     -14.991 -34.250 -16.793  1.00  0.00    -0.504 OA
ATOM     22  H   UNL     1     -15.658 -33.884 -17.457  1.00  0.00     0.293 HD
ENDBRANCH  16  21
ENDBRANCH   1  11
BRANCH  10  23
ATOM     23  O   UNL     1     -15.504 -31.338 -10.963  1.00  0.00    -0.500 OA
ATOM     24  H   UNL     1     -15.563 -31.055  -9.992  1.00  0.00     0.294 HD
ENDBRANCH  10  23
BRANCH   5  25
ATOM     25  O   UNL     1     -13.875 -25.563 -15.887  1.00  0.00    -0.507 OA
ATOM     26  H   UNL     1     -13.471 -24.648 -15.725  1.00  0.00     0.293 HD
ENDBRANCH   5  25
BRANCH   7  27
ATOM     27  O   UNL     1     -15.119 -26.128 -11.268  1.00  0.00    -0.507 OA
ATOM     28  H   UNL     1     -15.788 -25.384 -11.133  1.00  0.00     0.293 HD
ENDBRANCH   7  27
TORSDOF 7
ENDMDL
MODEL 5
REMARK VINA RESULT:    -6.928      3.479      4.337
REMARK INTER + INTRA:          -8.163
REMARK INTER:                  -8.130
REMARK INTRA:                  -0.033
REMARK UNBOUND:                 0.385
REMARK SMILES Oc1cc(O)c2cc(O)c(-c3cc(O)c(O)c(O)c3)[o+]c2c1
REMARK SMILES IDX 10 1 20 2 21 3 22 4 2 5 3 6 4 7 6 8 7 9 8 10 11 11 12 12
REMARK SMILES IDX 13 13 19 14 15 15 17 16 14 17 16 19 18 21 9 23 1 25 5 27
REMARK H PARENT 14 18 16 20 18 22 9 24 1 26 5 28
REMARK Flexibility Score: inf
ROOT
ATOM      1  C   UNL     1     -14.256 -29.250 -12.700  1.00  0.00     0.402 A 
ATOM      2  O   UNL     1     -13.261 -29.658 -11.917  1.00  0.00    -0.202 OA
ATOM      3  C   UNL     1     -13.327 -30.748 -11.161  1.00  0.00     0.368 A 
ATOM      4  C   UNL     1     -12.228 -31.092 -10.368  1.00  0.00     0.162 A 
ATOM      5  C   UNL     1     -12.271 -32.230  -9.562  1.00  0.00     0.128 A 
ATOM      6  C   UNL     1     -13.418 -33.031  -9.545  1.00  0.00     0.093 A 
ATOM      7  C   UNL     1     -14.532 -32.706 -10.330  1.00  0.00     0.136 A 
ATOM      8  C   UNL     1     -14.492 -31.552 -11.153  1.00  0.00     0.125 A 
ATOM      9  C   UNL     1     -15.555 -31.157 -11.982  1.00  0.00     0.078 A 
ATOM     10  C   UNL     1     -15.440 -30.008 -12.770  1.00  0.00     0.223 A 
ENDROOT
BRANCH   1  11
ATOM     11  C   UNL     1     -14.066 -28.011 -13.489  1.00  0.00     0.091 A 
ATOM     12  C   UNL     1     -15.066 -27.030 -13.562  1.00  0.00     0.068 A 
ATOM     13  C   UNL     1     -14.856 -25.855 -14.296  1.00  0.00     0.162 A 
ATOM     14  C   UNL     1     -12.841 -27.785 -14.133  1.00  0.00     0.068 A 
ATOM     15  C   UNL     1     -13.639 -25.641 -14.957  1.00  0.00     0.200 A 
ATOM     16  C   UNL     1     -12.618 -26.617 -14.869  1.00  0.00     0.162 A 
BRANCH  13  17
ATOM     17  O   UNL     1     -15.858 -24.888 -14.368  1.00  0.00    -0.504 OA
ATOM     18  H   UNL     1     -15.793 -24.016 -13.857  1.00  0.00     0.293 HD
ENDBRANCH  13  17
BRANCH  15  19
ATOM     19  O   UNL     1     -13.486 -24.456 -15.680  1.00  0.00    -0.502 OA
ATOM     20  H   UNL     1     -13.154 -24.413 -16.633  1.00  0.00     0.293 HD
ENDBRANCH  15  19
BRANCH  16  21
ATOM     21  O   UNL     1     -11.377 -26.466 -15.492  1.00  0.00    -0.504 OA
ATOM     22  H   UNL     1     -10.584 -27.070 -15.328  1.00  0.00     0.293 HD
ENDBRANCH  16  21
ENDBRANCH   1  11
BRANCH  10  23
ATOM     23  O   UNL     1     -16.476 -29.643 -13.630  1.00  0.00    -0.500 OA
ATOM     24  H   UNL     1     -16.592 -30.078 -14.538  1.00  0.00     0.294 HD
ENDBRANCH  10  23
BRANCH   5  25
ATOM     25  O   UNL     1     -11.166 -32.558  -8.779  1.00  0.00    -0.507 OA
ATOM     26  H   UNL     1     -10.230 -32.268  -9.035  1.00  0.00     0.293 HD
ENDBRANCH   5  25
BRANCH   7  27
ATOM     27  O   UNL     1     -15.641 -33.554 -10.255  1.00  0.00    -0.507 OA
ATOM     28  H   UNL     1     -16.599 -33.238 -10.214  1.00  0.00     0.293 HD
ENDBRANCH   7  27
TORSDOF 7
ENDMDL
MODEL 6
REMARK VINA RESULT:    -6.625      3.632      5.188
REMARK INTER + INTRA:          -7.789
REMARK INTER:                  -7.447
REMARK INTRA:                  -0.342
REMARK UNBOUND:                 0.385
REMARK SMILES Oc1cc(O)c2cc(O)c(-c3cc(O)c(O)c(O)c3)[o+]c2c1
REMARK SMILES IDX 10 1 20 2 21 3 22 4 2 5 3 6 4 7 6 8 7 9 8 10 11 11 12 12
REMARK SMILES IDX 13 13 19 14 15 15 17 16 14 17 16 19 18 21 9 23 1 25 5 27
REMARK H PARENT 14 18 16 20 18 22 9 24 1 26 5 28
REMARK Flexibility Score: inf
ROOT
ATOM      1  C   UNL     1     -13.478 -29.831 -11.624  1.00  0.00     0.402 A 
ATOM      2  O   UNL     1     -12.277 -29.872 -11.054  1.00  0.00    -0.202 OA
ATOM      3  C   UNL     1     -11.880 -30.858 -10.257  1.00  0.00     0.368 A 
ATOM      4  C   UNL     1     -10.599 -30.810  -9.702  1.00  0.00     0.162 A 
ATOM      5  C   UNL     1     -10.157 -31.830  -8.859  1.00  0.00     0.128 A 
ATOM      6  C   UNL     1     -11.001 -32.907  -8.566  1.00  0.00     0.093 A 
ATOM      7  C   UNL     1     -12.290 -32.978  -9.109  1.00  0.00     0.136 A 
ATOM      8  C   UNL     1     -12.742 -31.944  -9.969  1.00  0.00     0.125 A 
ATOM      9  C   UNL     1     -14.012 -31.938 -10.569  1.00  0.00     0.078 A 
ATOM     10  C   UNL     1     -14.385 -30.886 -11.410  1.00  0.00     0.223 A 
ENDROOT
BRANCH   1  11
ATOM     11  C   UNL     1     -13.807 -28.672 -12.485  1.00  0.00     0.091 A 
ATOM     12  C   UNL     1     -13.749 -28.762 -13.884  1.00  0.00     0.068 A 
ATOM     13  C   UNL     1     -14.086 -27.660 -14.682  1.00  0.00     0.162 A 
ATOM     14  C   UNL     1     -14.240 -27.475 -11.897  1.00  0.00     0.068 A 
ATOM     15  C   UNL     1     -14.497 -26.457 -14.090  1.00  0.00     0.200 A 
ATOM     16  C   UNL     1     -14.579 -26.367 -12.680  1.00  0.00     0.162 A 
BRANCH  13  17
ATOM     17  O   UNL     1     -14.019 -27.757 -16.071  1.00  0.00    -0.504 OA
ATOM     18  H   UNL     1     -13.504 -28.499 -16.528  1.00  0.00     0.293 HD
ENDBRANCH  13  17
BRANCH  15  19
ATOM     19  O   UNL     1     -14.814 -25.389 -14.932  1.00  0.00    -0.502 OA
ATOM     20  H   UNL     1     -14.413 -24.465 -14.850  1.00  0.00     0.293 HD
ENDBRANCH  15  19
BRANCH  16  21
ATOM     21  O   UNL     1     -14.990 -25.206 -12.022  1.00  0.00    -0.504 OA
ATOM     22  H   UNL     1     -14.520 -24.315 -12.098  1.00  0.00     0.293 HD
ENDBRANCH  16  21
ENDBRANCH   1  11
BRANCH  10  23
ATOM     23  O   UNL     1     -15.627 -30.904 -12.045  1.00  0.00    -0.500 OA
ATOM     24  H   UNL     1     -15.869 -31.619 -12.721  1.00  0.00     0.294 HD
ENDBRANCH  10  23
BRANCH   5  25
ATOM     25  O   UNL     1      -8.875 -31.765  -8.316  1.00  0.00    -0.507 OA
ATOM     26  H   UNL     1      -8.277 -30.961  -8.463  1.00  0.00     0.293 HD
ENDBRANCH   5  25
BRANCH   7  27
ATOM     27  O   UNL     1     -13.073 -34.084  -8.766  1.00  0.00    -0.507 OA
ATOM     28  H   UNL     1     -12.717 -34.923  -8.334  1.00  0.00     0.293 HD
ENDBRANCH   7  27
TORSDOF 7
ENDMDL
MODEL 7
REMARK VINA RESULT:    -6.366      1.652      2.559
REMARK INTER + INTRA:          -7.469
REMARK INTER:                  -7.238
REMARK INTRA:                  -0.231
REMARK UNBOUND:                 0.385
REMARK SMILES Oc1cc(O)c2cc(O)c(-c3cc(O)c(O)c(O)c3)[o+]c2c1
REMARK SMILES IDX 10 1 20 2 21 3 22 4 2 5 3 6 4 7 6 8 7 9 8 10 11 11 12 12
REMARK SMILES IDX 13 13 19 14 15 15 17 16 14 17 16 19 18 21 9 23 1 25 5 27
REMARK H PARENT 14 18 16 20 18 22 9 24 1 26 5 28
REMARK Flexibility Score: inf
ROOT
ATOM      1  C   UNL     1     -14.616 -29.594 -13.117  1.00  0.00     0.402 A 
ATOM      2  O   UNL     1     -14.654 -30.675 -13.891  1.00  0.00    -0.202 OA
ATOM      3  C   UNL     1     -14.880 -31.898 -13.425  1.00  0.00     0.368 A 
ATOM      4  C   UNL     1     -14.898 -32.973 -14.318  1.00  0.00     0.162 A 
ATOM      5  C   UNL     1     -15.130 -34.269 -13.857  1.00  0.00     0.128 A 
ATOM      6  C   UNL     1     -15.346 -34.496 -12.493  1.00  0.00     0.093 A 
ATOM      7  C   UNL     1     -15.333 -33.436 -11.578  1.00  0.00     0.136 A 
ATOM      8  C   UNL     1     -15.100 -32.116 -12.044  1.00  0.00     0.125 A 
ATOM      9  C   UNL     1     -15.082 -30.992 -11.202  1.00  0.00     0.078 A 
ATOM     10  C   UNL     1     -14.851 -29.720 -11.735  1.00  0.00     0.223 A 
ENDROOT
BRANCH   1  11
ATOM     11  C   UNL     1     -14.345 -28.284 -13.753  1.00  0.00     0.091 A 
ATOM     12  C   UNL     1     -15.316 -27.272 -13.785  1.00  0.00     0.068 A 
ATOM     13  C   UNL     1     -15.031 -26.032 -14.372  1.00  0.00     0.162 A 
ATOM     14  C   UNL     1     -13.074 -28.026 -14.286  1.00  0.00     0.068 A 
ATOM     15  C   UNL     1     -13.766 -25.785 -14.925  1.00  0.00     0.200 A 
ATOM     16  C   UNL     1     -12.775 -26.793 -14.876  1.00  0.00     0.162 A 
BRANCH  13  17
ATOM     17  O   UNL     1     -16.004 -25.035 -14.406  1.00  0.00    -0.504 OA
ATOM     18  H   UNL     1     -16.190 -24.446 -13.602  1.00  0.00     0.293 HD
ENDBRANCH  13  17
BRANCH  15  19
ATOM     19  O   UNL     1     -13.538 -24.534 -15.504  1.00  0.00    -0.502 OA
ATOM     20  H   UNL     1     -12.969 -23.812 -15.086  1.00  0.00     0.293 HD
ENDBRANCH  15  19
BRANCH  16  21
ATOM     21  O   UNL     1     -11.491 -26.614 -15.396  1.00  0.00    -0.504 OA
ATOM     22  H   UNL     1     -10.726 -27.254 -15.246  1.00  0.00     0.293 HD
ENDBRANCH  16  21
ENDBRANCH   1  11
BRANCH  10  23
ATOM     23  O   UNL     1     -14.882 -28.598 -10.907  1.00  0.00    -0.500 OA
ATOM     24  H   UNL     1     -15.750 -28.248 -10.517  1.00  0.00     0.294 HD
ENDBRANCH  10  23
BRANCH   5  25
ATOM     25  O   UNL     1     -15.144 -35.328 -14.763  1.00  0.00    -0.507 OA
ATOM     26  H   UNL     1     -14.287 -35.767 -15.079  1.00  0.00     0.293 HD
ENDBRANCH   5  25
BRANCH   7  27
ATOM     27  O   UNL     1     -15.553 -33.744 -10.232  1.00  0.00    -0.507 OA
ATOM     28  H   UNL     1     -15.818 -34.656  -9.893  1.00  0.00     0.293 HD
ENDBRANCH   7  27
TORSDOF 7
ENDMDL
MODEL 8
REMARK VINA RESULT:    -6.108      1.873      7.158
REMARK INTER + INTRA:          -7.151
REMARK INTER:                  -6.800
REMARK INTRA:                  -0.351
REMARK UNBOUND:                 0.385
REMARK SMILES Oc1cc(O)c2cc(O)c(-c3cc(O)c(O)c(O)c3)[o+]c2c1
REMARK SMILES IDX 10 1 20 2 21 3 22 4 2 5 3 6 4 7 6 8 7 9 8 10 11 11 12 12
REMARK SMILES IDX 13 13 19 14 15 15 17 16 14 17 16 19 18 21 9 23 1 25 5 27
REMARK H PARENT 14 18 16 20 18 22 9 24 1 26 5 28
REMARK Flexibility Score: inf
ROOT
ATOM      1  C   UNL     1     -15.137 -29.953 -13.693  1.00  0.00     0.402 A 
ATOM      2  O   UNL     1     -13.987 -29.428 -14.109  1.00  0.00    -0.202 OA
ATOM      3  C   UNL     1     -13.840 -28.145 -14.417  1.00  0.00     0.368 A 
ATOM      4  C   UNL     1     -12.591 -27.688 -14.848  1.00  0.00     0.162 A 
ATOM      5  C   UNL     1     -12.408 -26.346 -15.182  1.00  0.00     0.128 A 
ATOM      6  C   UNL     1     -13.479 -25.451 -15.086  1.00  0.00     0.093 A 
ATOM      7  C   UNL     1     -14.741 -25.884 -14.657  1.00  0.00     0.136 A 
ATOM      8  C   UNL     1     -14.930 -27.248 -14.314  1.00  0.00     0.125 A 
ATOM      9  C   UNL     1     -16.154 -27.767 -13.863  1.00  0.00     0.078 A 
ATOM     10  C   UNL     1     -16.264 -29.123 -13.539  1.00  0.00     0.223 A 
ENDROOT
BRANCH   1  11
ATOM     11  C   UNL     1     -15.178 -31.401 -13.389  1.00  0.00     0.091 A 
ATOM     12  C   UNL     1     -15.293 -32.359 -14.407  1.00  0.00     0.068 A 
ATOM     13  C   UNL     1     -15.307 -33.726 -14.099  1.00  0.00     0.162 A 
ATOM     14  C   UNL     1     -15.043 -31.831 -12.061  1.00  0.00     0.068 A 
ATOM     15  C   UNL     1     -15.194 -34.153 -12.768  1.00  0.00     0.200 A 
ATOM     16  C   UNL     1     -15.056 -33.193 -11.738  1.00  0.00     0.162 A 
BRANCH  13  17
ATOM     17  O   UNL     1     -15.428 -34.671 -15.117  1.00  0.00    -0.504 OA
ATOM     18  H   UNL     1     -16.254 -34.719 -15.702  1.00  0.00     0.293 HD
ENDBRANCH  13  17
BRANCH  15  19
ATOM     19  O   UNL     1     -15.221 -35.526 -12.516  1.00  0.00    -0.502 OA
ATOM     20  H   UNL     1     -16.056 -36.042 -12.277  1.00  0.00     0.293 HD
ENDBRANCH  15  19
BRANCH  16  21
ATOM     21  O   UNL     1     -14.928 -33.544 -10.393  1.00  0.00    -0.504 OA
ATOM     22  H   UNL     1     -14.295 -33.094  -9.748  1.00  0.00     0.293 HD
ENDBRANCH  16  21
ENDBRANCH   1  11
BRANCH  10  23
ATOM     23  O   UNL     1     -17.465 -29.629 -13.043  1.00  0.00    -0.500 OA
ATOM     24  H   UNL     1     -17.617 -29.764 -12.050  1.00  0.00     0.294 HD
ENDBRANCH  10  23
BRANCH   5  25
ATOM     25  O   UNL     1     -11.155 -25.909 -15.609  1.00  0.00    -0.507 OA
ATOM     26  H   UNL     1     -10.871 -25.982 -16.579  1.00  0.00     0.293 HD
ENDBRANCH   5  25
BRANCH   7  27
ATOM     27  O   UNL     1     -15.760 -24.930 -14.592  1.00  0.00    -0.507 OA
ATOM     28  H   UNL     1     -15.906 -24.203 -15.276  1.00  0.00     0.293 HD
ENDBRANCH   7  27
TORSDOF 7
ENDMDL
MODEL 9
REMARK VINA RESULT:    -5.982      1.050      2.594
REMARK INTER + INTRA:          -6.996
REMARK INTER:                  -7.428
REMARK INTRA:                   0.433
REMARK UNBOUND:                 0.385
REMARK SMILES Oc1cc(O)c2cc(O)c(-c3cc(O)c(O)c(O)c3)[o+]c2c1
REMARK SMILES IDX 10 1 20 2 21 3 22 4 2 5 3 6 4 7 6 8 7 9 8 10 11 11 12 12
REMARK SMILES IDX 13 13 19 14 15 15 17 16 14 17 16 19 18 21 9 23 1 25 5 27
REMARK H PARENT 14 18 16 20 18 22 9 24 1 26 5 28
REMARK Flexibility Score: inf
ROOT
ATOM      1  C   UNL     1     -14.757 -30.930 -14.727  1.00  0.00     0.402 A 
ATOM      2  O   UNL     1     -14.950 -31.905 -13.843  1.00  0.00    -0.202 OA
ATOM      3  C   UNL     1     -14.958 -33.193 -14.167  1.00  0.00     0.368 A 
ATOM      4  C   UNL     1     -15.173 -34.145 -13.166  1.00  0.00     0.162 A 
ATOM      5  C   UNL     1     -15.190 -35.504 -13.479  1.00  0.00     0.128 A 
ATOM      6  C   UNL     1     -14.992 -35.919 -14.800  1.00  0.00     0.093 A 
ATOM      7  C   UNL     1     -14.775 -34.985 -15.821  1.00  0.00     0.136 A 
ATOM      8  C   UNL     1     -14.755 -33.601 -15.507  1.00  0.00     0.125 A 
ATOM      9  C   UNL     1     -14.532 -32.596 -16.462  1.00  0.00     0.078 A 
ATOM     10  C   UNL     1     -14.521 -31.252 -16.077  1.00  0.00     0.223 A 
ENDROOT
BRANCH   1  11
ATOM     11  C   UNL     1     -14.779 -29.530 -14.244  1.00  0.00     0.091 A 
ATOM     12  C   UNL     1     -15.217 -29.210 -12.950  1.00  0.00     0.068 A 
ATOM     13  C   UNL     1     -15.209 -27.882 -12.505  1.00  0.00     0.162 A 
ATOM     14  C   UNL     1     -14.301 -28.506 -15.074  1.00  0.00     0.068 A 
ATOM     15  C   UNL     1     -14.751 -26.857 -13.345  1.00  0.00     0.200 A 
ATOM     16  C   UNL     1     -14.287 -27.175 -14.643  1.00  0.00     0.162 A 
BRANCH  13  17
ATOM     17  O   UNL     1     -15.652 -27.573 -11.220  1.00  0.00    -0.504 OA
ATOM     18  H   UNL     1     -16.394 -26.902 -11.060  1.00  0.00     0.293 HD
ENDBRANCH  13  17
BRANCH  15  19
ATOM     19  O   UNL     1     -14.771 -25.549 -12.853  1.00  0.00    -0.502 OA
ATOM     20  H   UNL     1     -14.072 -25.166 -12.233  1.00  0.00     0.293 HD
ENDBRANCH  15  19
BRANCH  16  21
ATOM     21  O   UNL     1     -13.807 -26.208 -15.530  1.00  0.00    -0.504 OA
ATOM     22  H   UNL     1     -13.005 -26.338 -16.128  1.00  0.00     0.293 HD
ENDBRANCH  16  21
ENDBRANCH   1  11
BRANCH  10  23
ATOM     23  O   UNL     1     -14.250 -30.257 -17.015  1.00  0.00    -0.500 OA
ATOM     24  H   UNL     1     -13.499 -30.350 -17.689  1.00  0.00     0.294 HD
ENDBRANCH  10  23
BRANCH   5  25
ATOM     25  O   UNL     1     -15.405 -36.438 -12.467  1.00  0.00    -0.507 OA
ATOM     26  H   UNL     1     -15.052 -36.293 -11.528  1.00  0.00     0.293 HD
ENDBRANCH   5  25
BRANCH   7  27
ATOM     27  O   UNL     1     -14.590 -35.478 -17.116  1.00  0.00    -0.507 OA
ATOM     28  H   UNL     1     -13.706 -35.796 -17.483  1.00  0.00     0.293 HD
ENDBRANCH   7  27
TORSDOF 7
ENDMDL
