MODEL 1
REMARK VINA RESULT:    -5.708      0.000      0.000
REMARK INTER + INTRA:         -11.480
REMARK INTER:                 -10.713
REMARK INTRA:                  -0.767
REMARK UNBOUND:                -0.767
REMARK SMILES CCCCCCCCC=CCCCCCCCC(=O)[O-]
REMARK SMILES IDX 10 1 9 2 11 3 12 4 13 5 14 6 15 7 16 8 17 9 18 10 19 11
REMARK SMILES IDX 20 12 8 13 7 14 6 15 5 16 4 17 3 18 2 19 1 20
REMARK H PARENT
REMARK Flexibility Score: inf
ROOT
ATOM      1  C   UNL     1      29.403  16.418   7.339  1.00  0.00    -0.031 C 
ATOM      2  C   UNL     1      28.399  15.677   7.831  1.00  0.00    -0.031 C 
ENDROOT
BRANCH   1   3
ATOM      3  C   UNL     1      29.126  17.544   6.381  1.00  0.00     0.027 C 
BRANCH   3   4
ATOM      4  C   UNL     1      28.120  17.120   5.302  1.00  0.00     0.004 C 
BRANCH   4   5
ATOM      5  C   UNL     1      28.314  17.883   3.982  1.00  0.00     0.000 C 
BRANCH   5   6
ATOM      6  C   UNL     1      29.444  18.925   4.063  1.00  0.00     0.000 C 
BRANCH   6   7
ATOM      7  C   UNL     1      29.803  19.524   2.691  1.00  0.00     0.000 C 
BRANCH   7   8
ATOM      8  C   UNL     1      28.736  19.325   1.594  1.00  0.00     0.006 C 
BRANCH   8   9
ATOM      9  C   UNL     1      27.828  20.542   1.360  1.00  0.00     0.053 C 
BRANCH   9  10
ATOM     10  C   UNL     1      26.419  20.281   1.797  1.00  0.00     0.041 C 
ATOM     11  O   UNL     1      25.579  21.219   1.820  1.00  0.00    -0.550 OA
ATOM     12  O   UNL     1      26.026  18.996   2.146  1.00  0.00    -0.550 OA
ENDBRANCH   9  10
ENDBRANCH   8   9
ENDBRANCH   7   8
ENDBRANCH   6   7
ENDBRANCH   5   6
ENDBRANCH   4   5
ENDBRANCH   3   4
ENDBRANCH   1   3
BRANCH   2  13
ATOM     13  C   UNL     1      28.654  14.557   8.800  1.00  0.00     0.027 C 
BRANCH  13  14
ATOM     14  C   UNL     1      29.858  13.708   8.364  1.00  0.00     0.004 C 
BRANCH  14  15
ATOM     15  C   UNL     1      31.085  13.930   9.275  1.00  0.00     0.000 C 
BRANCH  15  16
ATOM     16  C   UNL     1      32.074  12.752   9.276  1.00  0.00     0.000 C 
BRANCH  16  17
ATOM     17  C   UNL     1      32.023  11.928   7.979  1.00  0.00    -0.000 C 
BRANCH  17  18
ATOM     18  C   UNL     1      32.736  12.617   6.802  1.00  0.00    -0.000 C 
BRANCH  18  19
ATOM     19  C   UNL     1      33.035  11.707   5.598  1.00  0.00    -0.003 C 
ATOM     20  C   UNL     1      31.776  11.230   4.878  1.00  0.00     0.004 C 
ENDBRANCH  18  19
ENDBRANCH  17  18
ENDBRANCH  16  17
ENDBRANCH  15  16
ENDBRANCH  14  15
ENDBRANCH  13  14
ENDBRANCH   2  13
TORSDOF 15
ENDMDL
MODEL 2
REMARK VINA RESULT:    -5.678      1.027      1.501
REMARK INTER + INTRA:         -11.424
REMARK INTER:                 -10.381
REMARK INTRA:                  -1.043
REMARK UNBOUND:                -0.767
REMARK SMILES CCCCCCCCC=CCCCCCCCC(=O)[O-]
REMARK SMILES IDX 10 1 9 2 11 3 12 4 13 5 14 6 15 7 16 8 17 9 18 10 19 11
REMARK SMILES IDX 20 12 8 13 7 14 6 15 5 16 4 17 3 18 2 19 1 20
REMARK H PARENT
REMARK Flexibility Score: inf
ROOT
ATOM      1  C   UNL     1      29.252  17.300   6.300  1.00  0.00    -0.031 C 
ATOM      2  C   UNL     1      28.605  16.259   6.843  1.00  0.00    -0.031 C 
ENDROOT
BRANCH   1   3
ATOM      3  C   UNL     1      28.492  18.404   5.617  1.00  0.00     0.027 C 
BRANCH   3   4
ATOM      4  C   UNL     1      27.495  17.841   4.596  1.00  0.00     0.004 C 
BRANCH   4   5
ATOM      5  C   UNL     1      27.924  18.105   3.143  1.00  0.00     0.000 C 
BRANCH   5   6
ATOM      6  C   UNL     1      29.166  19.009   3.051  1.00  0.00     0.000 C 
BRANCH   6   7
ATOM      7  C   UNL     1      28.969  20.198   2.093  1.00  0.00     0.000 C 
BRANCH   7   8
ATOM      8  C   UNL     1      27.676  20.148   1.252  1.00  0.00     0.006 C 
BRANCH   8   9
ATOM      9  C   UNL     1      26.528  21.012   1.796  1.00  0.00     0.053 C 
BRANCH   9  10
ATOM     10  C   UNL     1      25.186  20.469   1.409  1.00  0.00     0.041 C 
ATOM     11  O   UNL     1      24.539  19.749   2.214  1.00  0.00    -0.550 OA
ATOM     12  O   UNL     1      24.638  20.786   0.173  1.00  0.00    -0.550 OA
ENDBRANCH   9  10
ENDBRANCH   8   9
ENDBRANCH   7   8
ENDBRANCH   6   7
ENDBRANCH   5   6
ENDBRANCH   4   5
ENDBRANCH   3   4
ENDBRANCH   1   3
BRANCH   2  13
ATOM     13  C   UNL     1      29.345  15.154   7.543  1.00  0.00     0.027 C 
BRANCH  13  14
ATOM     14  C   UNL     1      29.573  15.488   9.025  1.00  0.00     0.004 C 
BRANCH  14  15
ATOM     15  C   UNL     1      30.413  14.409   9.741  1.00  0.00     0.000 C 
BRANCH  15  16
ATOM     16  C   UNL     1      30.743  13.195   8.856  1.00  0.00     0.000 C 
BRANCH  16  17
ATOM     17  C   UNL     1      32.064  12.512   9.248  1.00  0.00    -0.000 C 
BRANCH  17  18
ATOM     18  C   UNL     1      32.792  11.879   8.049  1.00  0.00    -0.000 C 
BRANCH  18  19
ATOM     19  C   UNL     1      32.656  12.650   6.723  1.00  0.00    -0.003 C 
ATOM     20  C   UNL     1      32.699  11.744   5.495  1.00  0.00     0.004 C 
ENDBRANCH  18  19
ENDBRANCH  17  18
ENDBRANCH  16  17
ENDBRANCH  15  16
ENDBRANCH  14  15
ENDBRANCH  13  14
ENDBRANCH   2  13
TORSDOF 15
ENDMDL
MODEL 3
REMARK VINA RESULT:    -5.629      3.801      8.875
REMARK INTER + INTRA:         -11.333
REMARK INTER:                 -10.000
REMARK INTRA:                  -1.333
REMARK UNBOUND:                -0.767
REMARK SMILES CCCCCCCCC=CCCCCCCCC(=O)[O-]
REMARK SMILES IDX 10 1 9 2 11 3 12 4 13 5 14 6 15 7 16 8 17 9 18 10 19 11
REMARK SMILES IDX 20 12 8 13 7 14 6 15 5 16 4 17 3 18 2 19 1 20
REMARK H PARENT
REMARK Flexibility Score: inf
ROOT
ATOM      1  C   UNL     1      27.705  17.771   5.008  1.00  0.00    -0.031 C 
ATOM      2  C   UNL     1      26.462  17.348   5.281  1.00  0.00    -0.031 C 
ENDROOT
BRANCH   1   3
ATOM      3  C   UNL     1      28.845  17.450   5.936  1.00  0.00     0.027 C 
BRANCH   3   4
ATOM      4  C   UNL     1      28.399  16.496   7.052  1.00  0.00     0.004 C 
BRANCH   4   5
ATOM      5  C   UNL     1      29.527  15.559   7.514  1.00  0.00     0.000 C 
BRANCH   5   6
ATOM      6  C   UNL     1      29.015  14.154   7.879  1.00  0.00     0.000 C 
BRANCH   6   7
ATOM      7  C   UNL     1      30.111  13.077   7.788  1.00  0.00     0.000 C 
BRANCH   7   8
ATOM      8  C   UNL     1      31.512  13.533   8.248  1.00  0.00     0.006 C 
BRANCH   8   9
ATOM      9  C   UNL     1      32.586  13.497   7.151  1.00  0.00     0.053 C 
BRANCH   9  10
ATOM     10  C   UNL     1      32.894  12.097   6.714  1.00  0.00     0.041 C 
ATOM     11  O   UNL     1      33.072  11.192   7.570  1.00  0.00    -0.550 OA
ATOM     12  O   UNL     1      32.951  11.788   5.361  1.00  0.00    -0.550 OA
ENDBRANCH   9  10
ENDBRANCH   8   9
ENDBRANCH   7   8
ENDBRANCH   6   7
ENDBRANCH   5   6
ENDBRANCH   4   5
ENDBRANCH   3   4
ENDBRANCH   1   3
BRANCH   2  13
ATOM     13  C   UNL     1      25.312  17.645   4.359  1.00  0.00     0.027 C 
BRANCH  13  14
ATOM     14  C   UNL     1      25.809  18.162   3.000  1.00  0.00     0.004 C 
BRANCH  14  15
ATOM     15  C   UNL     1      24.795  19.118   2.337  1.00  0.00     0.000 C 
BRANCH  15  16
ATOM     16  C   UNL     1      25.448  20.321   1.635  1.00  0.00     0.000 C 
BRANCH  16  17
ATOM     17  C   UNL     1      26.894  20.568   2.096  1.00  0.00    -0.000 C 
BRANCH  17  18
ATOM     18  C   UNL     1      27.934  20.236   1.012  1.00  0.00    -0.000 C 
BRANCH  18  19
ATOM     19  C   UNL     1      28.995  19.199   1.422  1.00  0.00    -0.003 C 
ATOM     20  C   UNL     1      29.848  19.648   2.606  1.00  0.00     0.004 C 
ENDBRANCH  18  19
ENDBRANCH  17  18
ENDBRANCH  16  17
ENDBRANCH  15  16
ENDBRANCH  14  15
ENDBRANCH  13  14
ENDBRANCH   2  13
TORSDOF 15
ENDMDL
MODEL 4
REMARK VINA RESULT:    -5.530      3.463      8.513
REMARK INTER + INTRA:         -11.146
REMARK INTER:                  -9.870
REMARK INTRA:                  -1.277
REMARK UNBOUND:                -0.767
REMARK SMILES CCCCCCCCC=CCCCCCCCC(=O)[O-]
REMARK SMILES IDX 10 1 9 2 11 3 12 4 13 5 14 6 15 7 16 8 17 9 18 10 19 11
REMARK SMILES IDX 20 12 8 13 7 14 6 15 5 16 4 17 3 18 2 19 1 20
REMARK H PARENT
REMARK Flexibility Score: inf
ROOT
ATOM      1  C   UNL     1      28.785  16.027   7.172  1.00  0.00    -0.031 C 
ATOM      2  C   UNL     1      29.074  17.071   6.382  1.00  0.00    -0.031 C 
ENDROOT
BRANCH   1   3
ATOM      3  C   UNL     1      29.430  15.887   8.524  1.00  0.00     0.027 C 
BRANCH   3   4
ATOM      4  C   UNL     1      28.808  14.729   9.317  1.00  0.00     0.004 C 
BRANCH   4   5
ATOM      5  C   UNL     1      29.262  13.352   8.806  1.00  0.00     0.000 C 
BRANCH   5   6
ATOM      6  C   UNL     1      30.352  12.724   9.692  1.00  0.00     0.000 C 
BRANCH   6   7
ATOM      7  C   UNL     1      31.737  13.360   9.478  1.00  0.00     0.000 C 
BRANCH   7   8
ATOM      8  C   UNL     1      32.201  13.428   8.008  1.00  0.00     0.006 C 
BRANCH   8   9
ATOM      9  C   UNL     1      32.657  12.083   7.420  1.00  0.00     0.053 C 
BRANCH   9  10
ATOM     10  C   UNL     1      31.813  11.667   6.255  1.00  0.00     0.041 C 
ATOM     11  O   UNL     1      30.559  11.753   6.318  1.00  0.00    -0.550 OA
ATOM     12  O   UNL     1      32.415  11.215   5.088  1.00  0.00    -0.550 OA
ENDBRANCH   9  10
ENDBRANCH   8   9
ENDBRANCH   7   8
ENDBRANCH   6   7
ENDBRANCH   5   6
ENDBRANCH   4   5
ENDBRANCH   3   4
ENDBRANCH   1   3
BRANCH   2  13
ATOM     13  C   UNL     1      28.429  17.236   5.034  1.00  0.00     0.027 C 
BRANCH  13  14
ATOM     14  C   UNL     1      27.048  17.901   5.157  1.00  0.00     0.004 C 
BRANCH  14  15
ATOM     15  C   UNL     1      26.131  17.557   3.964  1.00  0.00     0.000 C 
BRANCH  15  16
ATOM     16  C   UNL     1      26.724  17.940   2.598  1.00  0.00     0.000 C 
BRANCH  16  17
ATOM     17  C   UNL     1      26.390  19.383   2.185  1.00  0.00    -0.000 C 
BRANCH  17  18
ATOM     18  C   UNL     1      27.612  20.153   1.652  1.00  0.00    -0.000 C 
BRANCH  18  19
ATOM     19  C   UNL     1      28.913  19.334   1.570  1.00  0.00    -0.003 C 
ATOM     20  C   UNL     1      29.880  19.628   2.715  1.00  0.00     0.004 C 
ENDBRANCH  18  19
ENDBRANCH  17  18
ENDBRANCH  16  17
ENDBRANCH  15  16
ENDBRANCH  14  15
ENDBRANCH  13  14
ENDBRANCH   2  13
TORSDOF 15
ENDMDL
MODEL 5
REMARK VINA RESULT:    -5.491      1.655      2.140
REMARK INTER + INTRA:         -11.073
REMARK INTER:                 -10.060
REMARK INTRA:                  -1.013
REMARK UNBOUND:                -0.767
REMARK SMILES CCCCCCCCC=CCCCCCCCC(=O)[O-]
REMARK SMILES IDX 10 1 9 2 11 3 12 4 13 5 14 6 15 7 16 8 17 9 18 10 19 11
REMARK SMILES IDX 20 12 8 13 7 14 6 15 5 16 4 17 3 18 2 19 1 20
REMARK H PARENT
REMARK Flexibility Score: inf
ROOT
ATOM      1  C   UNL     1      29.264  16.852   7.063  1.00  0.00    -0.031 C 
ATOM      2  C   UNL     1      28.944  15.660   7.588  1.00  0.00    -0.031 C 
ENDROOT
BRANCH   1   3
ATOM      3  C   UNL     1      28.939  17.170   5.629  1.00  0.00     0.027 C 
BRANCH   3   4
ATOM      4  C   UNL     1      27.671  18.028   5.525  1.00  0.00     0.004 C 
BRANCH   4   5
ATOM      5  C   UNL     1      26.542  17.322   4.757  1.00  0.00     0.000 C 
BRANCH   5   6
ATOM      6  C   UNL     1      25.820  18.261   3.774  1.00  0.00     0.000 C 
BRANCH   6   7
ATOM      7  C   UNL     1      26.615  18.489   2.475  1.00  0.00     0.000 C 
BRANCH   7   8
ATOM      8  C   UNL     1      26.502  19.909   1.884  1.00  0.00     0.006 C 
BRANCH   8   9
ATOM      9  C   UNL     1      27.849  20.572   1.554  1.00  0.00     0.053 C 
BRANCH   9  10
ATOM     10  C   UNL     1      28.987  19.603   1.649  1.00  0.00     0.041 C 
ATOM     11  O   UNL     1      29.249  18.836   0.686  1.00  0.00    -0.550 OA
ATOM     12  O   UNL     1      29.780  19.572   2.790  1.00  0.00    -0.550 OA
ENDBRANCH   9  10
ENDBRANCH   8   9
ENDBRANCH   7   8
ENDBRANCH   6   7
ENDBRANCH   5   6
ENDBRANCH   4   5
ENDBRANCH   3   4
ENDBRANCH   1   3
BRANCH   2  13
ATOM     13  C   UNL     1      29.247  15.329   9.023  1.00  0.00     0.027 C 
BRANCH  13  14
ATOM     14  C   UNL     1      29.239  13.810   9.256  1.00  0.00     0.004 C 
BRANCH  14  15
ATOM     15  C   UNL     1      29.737  13.031   8.020  1.00  0.00     0.000 C 
BRANCH  15  16
ATOM     16  C   UNL     1      31.209  12.594   8.117  1.00  0.00     0.000 C 
BRANCH  16  17
ATOM     17  C   UNL     1      32.132  13.398   7.187  1.00  0.00    -0.000 C 
BRANCH  17  18
ATOM     18  C   UNL     1      33.133  12.512   6.422  1.00  0.00    -0.000 C 
BRANCH  18  19
ATOM     19  C   UNL     1      32.587  11.141   5.985  1.00  0.00    -0.003 C 
ATOM     20  C   UNL     1      31.637  11.226   4.792  1.00  0.00     0.004 C 
ENDBRANCH  18  19
ENDBRANCH  17  18
ENDBRANCH  16  17
ENDBRANCH  15  16
ENDBRANCH  14  15
ENDBRANCH  13  14
ENDBRANCH   2  13
TORSDOF 15
ENDMDL
MODEL 6
REMARK VINA RESULT:    -5.380      3.491      8.965
REMARK INTER + INTRA:         -10.864
REMARK INTER:                  -9.731
REMARK INTRA:                  -1.133
REMARK UNBOUND:                -0.767
REMARK SMILES CCCCCCCCC=CCCCCCCCC(=O)[O-]
REMARK SMILES IDX 10 1 9 2 11 3 12 4 13 5 14 6 15 7 16 8 17 9 18 10 19 11
REMARK SMILES IDX 20 12 8 13 7 14 6 15 5 16 4 17 3 18 2 19 1 20
REMARK H PARENT
REMARK Flexibility Score: inf
ROOT
ATOM      1  C   UNL     1      28.975  17.334   6.148  1.00  0.00    -0.031 C 
ATOM      2  C   UNL     1      27.679  17.293   5.810  1.00  0.00    -0.031 C 
ENDROOT
BRANCH   1   3
ATOM      3  C   UNL     1      29.464  16.654   7.398  1.00  0.00     0.027 C 
BRANCH   3   4
ATOM      4  C   UNL     1      28.685  15.359   7.664  1.00  0.00     0.004 C 
BRANCH   4   5
ATOM      5  C   UNL     1      28.885  14.833   9.095  1.00  0.00     0.000 C 
BRANCH   5   6
ATOM      6  C   UNL     1      29.764  13.571   9.143  1.00  0.00     0.000 C 
BRANCH   6   7
ATOM      7  C   UNL     1      31.269  13.890   9.099  1.00  0.00     0.000 C 
BRANCH   7   8
ATOM      8  C   UNL     1      32.162  12.746   8.575  1.00  0.00     0.006 C 
BRANCH   8   9
ATOM      9  C   UNL     1      32.788  13.006   7.196  1.00  0.00     0.053 C 
BRANCH   9  10
ATOM     10  C   UNL     1      32.190  12.134   6.136  1.00  0.00     0.041 C 
ATOM     11  O   UNL     1      32.885  11.766   5.152  1.00  0.00    -0.550 OA
ATOM     12  O   UNL     1      30.876  11.700   6.252  1.00  0.00    -0.550 OA
ENDBRANCH   9  10
ENDBRANCH   8   9
ENDBRANCH   7   8
ENDBRANCH   6   7
ENDBRANCH   5   6
ENDBRANCH   4   5
ENDBRANCH   3   4
ENDBRANCH   1   3
BRANCH   2  13
ATOM     13  C   UNL     1      27.173  17.953   4.557  1.00  0.00     0.027 C 
BRANCH  13  14
ATOM     14  C   UNL     1      28.160  17.767   3.394  1.00  0.00     0.004 C 
BRANCH  14  15
ATOM     15  C   UNL     1      28.763  19.109   2.925  1.00  0.00     0.000 C 
BRANCH  15  16
ATOM     16  C   UNL     1      28.888  19.228   1.397  1.00  0.00     0.000 C 
BRANCH  16  17
ATOM     17  C   UNL     1      27.777  20.088   0.772  1.00  0.00    -0.000 C 
BRANCH  17  18
ATOM     18  C   UNL     1      26.827  20.695   1.820  1.00  0.00    -0.000 C 
BRANCH  18  19
ATOM     19  C   UNL     1      25.349  20.291   1.672  1.00  0.00    -0.003 C 
ATOM     20  C   UNL     1      24.669  20.934   0.465  1.00  0.00     0.004 C 
ENDBRANCH  18  19
ENDBRANCH  17  18
ENDBRANCH  16  17
ENDBRANCH  15  16
ENDBRANCH  14  15
ENDBRANCH  13  14
ENDBRANCH   2  13
TORSDOF 15
ENDMDL
MODEL 7
REMARK VINA RESULT:    -5.286      3.727      9.353
REMARK INTER + INTRA:         -10.688
REMARK INTER:                  -9.316
REMARK INTRA:                  -1.372
REMARK UNBOUND:                -0.767
REMARK SMILES CCCCCCCCC=CCCCCCCCC(=O)[O-]
REMARK SMILES IDX 10 1 9 2 11 3 12 4 13 5 14 6 15 7 16 8 17 9 18 10 19 11
REMARK SMILES IDX 20 12 8 13 7 14 6 15 5 16 4 17 3 18 2 19 1 20
REMARK H PARENT
REMARK Flexibility Score: inf
ROOT
ATOM      1  C   UNL     1      28.818  17.984   4.524  1.00  0.00    -0.031 C 
ATOM      2  C   UNL     1      27.723  17.705   3.801  1.00  0.00    -0.031 C 
ENDROOT
BRANCH   1   3
ATOM      3  C   UNL     1      28.841  17.734   6.007  1.00  0.00     0.027 C 
BRANCH   3   4
ATOM      4  C   UNL     1      27.629  16.903   6.448  1.00  0.00     0.004 C 
BRANCH   4   5
ATOM      5  C   UNL     1      28.004  15.796   7.447  1.00  0.00     0.000 C 
BRANCH   5   6
ATOM      6  C   UNL     1      29.477  15.871   7.885  1.00  0.00     0.000 C 
BRANCH   6   7
ATOM      7  C   UNL     1      29.763  15.056   9.159  1.00  0.00     0.000 C 
BRANCH   7   8
ATOM      8  C   UNL     1      30.256  13.615   8.914  1.00  0.00     0.006 C 
BRANCH   8   9
ATOM      9  C   UNL     1      31.746  13.390   9.215  1.00  0.00     0.053 C 
BRANCH   9  10
ATOM     10  C   UNL     1      32.462  12.762   8.060  1.00  0.00     0.041 C 
ATOM     11  O   UNL     1      32.779  13.456   7.058  1.00  0.00    -0.550 OA
ATOM     12  O   UNL     1      32.809  11.418   8.105  1.00  0.00    -0.550 OA
ENDBRANCH   9  10
ENDBRANCH   8   9
ENDBRANCH   7   8
ENDBRANCH   6   7
ENDBRANCH   5   6
ENDBRANCH   4   5
ENDBRANCH   3   4
ENDBRANCH   1   3
BRANCH   2  13
ATOM     13  C   UNL     1      27.684  17.933   2.316  1.00  0.00     0.027 C 
BRANCH  13  14
ATOM     14  C   UNL     1      28.582  19.113   1.911  1.00  0.00     0.004 C 
BRANCH  14  15
ATOM     15  C   UNL     1      27.792  20.220   1.181  1.00  0.00     0.000 C 
BRANCH  15  16
ATOM     16  C   UNL     1      26.471  20.594   1.873  1.00  0.00     0.000 C 
BRANCH  16  17
ATOM     17  C   UNL     1      25.307  20.771   0.883  1.00  0.00    -0.000 C 
BRANCH  17  18
ATOM     18  C   UNL     1      23.988  20.165   1.393  1.00  0.00    -0.000 C 
BRANCH  18  19
ATOM     19  C   UNL     1      24.073  19.483   2.770  1.00  0.00    -0.003 C 
ATOM     20  C   UNL     1      23.971  17.961   2.694  1.00  0.00     0.004 C 
ENDBRANCH  18  19
ENDBRANCH  17  18
ENDBRANCH  16  17
ENDBRANCH  15  16
ENDBRANCH  14  15
ENDBRANCH  13  14
ENDBRANCH   2  13
TORSDOF 15
ENDMDL
MODEL 8
REMARK VINA RESULT:    -5.197      3.735      8.520
REMARK INTER + INTRA:         -10.522
REMARK INTER:                  -9.071
REMARK INTRA:                  -1.450
REMARK UNBOUND:                -0.767
REMARK SMILES CCCCCCCCC=CCCCCCCCC(=O)[O-]
REMARK SMILES IDX 10 1 9 2 11 3 12 4 13 5 14 6 15 7 16 8 17 9 18 10 19 11
REMARK SMILES IDX 20 12 8 13 7 14 6 15 5 16 4 17 3 18 2 19 1 20
REMARK H PARENT
REMARK Flexibility Score: inf
ROOT
ATOM      1  C   UNL     1      28.861  15.957   7.383  1.00  0.00    -0.031 C 
ATOM      2  C   UNL     1      29.138  16.947   6.521  1.00  0.00    -0.031 C 
ENDROOT
BRANCH   1   3
ATOM      3  C   UNL     1      29.684  15.774   8.629  1.00  0.00     0.027 C 
BRANCH   3   4
ATOM      4  C   UNL     1      28.889  15.032   9.713  1.00  0.00     0.004 C 
BRANCH   4   5
ATOM      5  C   UNL     1      27.610  14.379   9.164  1.00  0.00     0.000 C 
BRANCH   5   6
ATOM      6  C   UNL     1      27.666  12.841   9.213  1.00  0.00     0.000 C 
BRANCH   6   7
ATOM      7  C   UNL     1      28.449  12.235   8.035  1.00  0.00     0.000 C 
BRANCH   7   8
ATOM      8  C   UNL     1      29.891  11.799   8.366  1.00  0.00     0.006 C 
BRANCH   8   9
ATOM      9  C   UNL     1      30.926  12.139   7.282  1.00  0.00     0.053 C 
BRANCH   9  10
ATOM     10  C   UNL     1      32.096  12.888   7.840  1.00  0.00     0.041 C 
ATOM     11  O   UNL     1      32.363  12.822   9.069  1.00  0.00    -0.550 OA
ATOM     12  O   UNL     1      32.911  13.632   6.997  1.00  0.00    -0.550 OA
ENDBRANCH   9  10
ENDBRANCH   8   9
ENDBRANCH   7   8
ENDBRANCH   6   7
ENDBRANCH   5   6
ENDBRANCH   4   5
ENDBRANCH   3   4
ENDBRANCH   1   3
BRANCH   2  13
ATOM     13  C   UNL     1      28.319  17.156   5.278  1.00  0.00     0.027 C 
BRANCH  13  14
ATOM     14  C   UNL     1      26.815  17.139   5.594  1.00  0.00     0.004 C 
BRANCH  14  15
ATOM     15  C   UNL     1      25.983  17.827   4.491  1.00  0.00     0.000 C 
BRANCH  15  16
ATOM     16  C   UNL     1      26.748  18.022   3.171  1.00  0.00     0.000 C 
BRANCH  16  17
ATOM     17  C   UNL     1      26.186  19.173   2.319  1.00  0.00    -0.000 C 
BRANCH  17  18
ATOM     18  C   UNL     1      27.276  20.142   1.826  1.00  0.00    -0.000 C 
BRANCH  18  19
ATOM     19  C   UNL     1      28.708  19.578   1.848  1.00  0.00    -0.003 C 
ATOM     20  C   UNL     1      29.073  18.817   0.575  1.00  0.00     0.004 C 
ENDBRANCH  18  19
ENDBRANCH  17  18
ENDBRANCH  16  17
ENDBRANCH  15  16
ENDBRANCH  14  15
ENDBRANCH  13  14
ENDBRANCH   2  13
TORSDOF 15
ENDMDL
MODEL 9
REMARK VINA RESULT:    -5.118      1.761      2.806
REMARK INTER + INTRA:         -10.373
REMARK INTER:                  -8.968
REMARK INTRA:                  -1.405
REMARK UNBOUND:                -0.767
REMARK SMILES CCCCCCCCC=CCCCCCCCC(=O)[O-]
REMARK SMILES IDX 10 1 9 2 11 3 12 4 13 5 14 6 15 7 16 8 17 9 18 10 19 11
REMARK SMILES IDX 20 12 8 13 7 14 6 15 5 16 4 17 3 18 2 19 1 20
REMARK H PARENT
REMARK Flexibility Score: inf
ROOT
ATOM      1  C   UNL     1      28.915  14.611   9.769  1.00  0.00    -0.031 C 
ATOM      2  C   UNL     1      28.224  13.634   9.166  1.00  0.00    -0.031 C 
ENDROOT
BRANCH   1   3
ATOM      3  C   UNL     1      29.524  15.729   8.966  1.00  0.00     0.027 C 
BRANCH   3   4
ATOM      4  C   UNL     1      29.359  15.481   7.460  1.00  0.00     0.004 C 
BRANCH   4   5
ATOM      5  C   UNL     1      29.017  16.764   6.685  1.00  0.00     0.000 C 
BRANCH   5   6
ATOM      6  C   UNL     1      27.520  16.866   6.343  1.00  0.00     0.000 C 
BRANCH   6   7
ATOM      7  C   UNL     1      27.239  17.825   5.173  1.00  0.00     0.000 C 
BRANCH   7   8
ATOM      8  C   UNL     1      28.387  17.959   4.150  1.00  0.00     0.006 C 
BRANCH   8   9
ATOM      9  C   UNL     1      27.927  18.193   2.703  1.00  0.00     0.053 C 
BRANCH   9  10
ATOM     10  C   UNL     1      28.715  19.277   2.033  1.00  0.00     0.041 C 
ATOM     11  O   UNL     1      28.311  19.778   0.951  1.00  0.00    -0.550 OA
ATOM     12  O   UNL     1      29.879  19.755   2.622  1.00  0.00    -0.550 OA
ENDBRANCH   9  10
ENDBRANCH   8   9
ENDBRANCH   7   8
ENDBRANCH   6   7
ENDBRANCH   5   6
ENDBRANCH   4   5
ENDBRANCH   3   4
ENDBRANCH   1   3
BRANCH   2  13
ATOM     13  C   UNL     1      27.596  12.517   9.952  1.00  0.00     0.027 C 
BRANCH  13  14
ATOM     14  C   UNL     1      28.503  11.277   9.976  1.00  0.00     0.004 C 
BRANCH  14  15
ATOM     15  C   UNL     1      29.689  11.406   8.997  1.00  0.00     0.000 C 
BRANCH  15  16
ATOM     16  C   UNL     1      31.060  11.175   9.655  1.00  0.00     0.000 C 
BRANCH  16  17
ATOM     17  C   UNL     1      32.234  11.537   8.731  1.00  0.00    -0.000 C 
BRANCH  17  18
ATOM     18  C   UNL     1      32.023  12.868   7.986  1.00  0.00    -0.000 C 
BRANCH  18  19
ATOM     19  C   UNL     1      32.871  13.044   6.714  1.00  0.00    -0.003 C 
ATOM     20  C   UNL     1      32.836  11.825   5.795  1.00  0.00     0.004 C 
ENDBRANCH  18  19
ENDBRANCH  17  18
ENDBRANCH  16  17
ENDBRANCH  15  16
ENDBRANCH  14  15
ENDBRANCH  13  14
ENDBRANCH   2  13
TORSDOF 15
ENDMDL
