MODEL 1
REMARK VINA RESULT:    -4.002      0.000      0.000
REMARK INTER + INTRA:          -8.050
REMARK INTER:                  -6.809
REMARK INTRA:                  -1.241
REMARK UNBOUND:                -1.241
REMARK SMILES CCCCCCCCCCCCCC(=O)[O-]
REMARK SMILES IDX 8 1 9 2 10 3 11 4 12 5 13 6 14 7 15 8 16 9 7 10 6 11 5 12
REMARK SMILES IDX 4 13 3 14 2 15 1 16
REMARK H PARENT
REMARK Flexibility Score: inf
ROOT
ATOM      1  C   UNL     1    -101.666  31.696 -33.529  1.00  0.00     0.000 C 
ENDROOT
BRANCH   1   2
ATOM      2  C   UNL     1    -103.154  31.718 -33.922  1.00  0.00     0.000 C 
BRANCH   2   3
ATOM      3  C   UNL     1    -103.449  32.254 -35.338  1.00  0.00     0.000 C 
BRANCH   3   4
ATOM      4  C   UNL     1    -103.748  31.176 -36.396  1.00  0.00     0.000 C 
BRANCH   4   5
ATOM      5  C   UNL     1    -103.580  31.690 -37.835  1.00  0.00     0.006 C 
BRANCH   5   6
ATOM      6  C   UNL     1    -104.909  31.711 -38.601  1.00  0.00     0.053 C 
BRANCH   6   7
ATOM      7  C   UNL     1    -105.782  32.852 -38.175  1.00  0.00     0.041 C 
ATOM      8  O   UNL     1    -105.302  34.012 -38.071  1.00  0.00    -0.550 OA
ATOM      9  O   UNL     1    -107.117  32.628 -37.864  1.00  0.00    -0.550 OA
ENDBRANCH   6   7
ENDBRANCH   5   6
ENDBRANCH   4   5
ENDBRANCH   3   4
ENDBRANCH   2   3
ENDBRANCH   1   2
BRANCH   1  10
ATOM     10  C   UNL     1    -101.011  30.324 -33.750  1.00  0.00     0.000 C 
BRANCH  10  11
ATOM     11  C   UNL     1    -100.324  30.257 -35.119  1.00  0.00    -0.000 C 
BRANCH  11  12
ATOM     12  C   UNL     1     -99.567  31.560 -35.417  1.00  0.00    -0.000 C 
BRANCH  12  13
ATOM     13  C   UNL     1    -100.019  32.226 -36.728  1.00  0.00    -0.000 C 
BRANCH  13  14
ATOM     14  C   UNL     1     -99.095  31.974 -37.935  1.00  0.00    -0.000 C 
BRANCH  14  15
ATOM     15  C   UNL     1     -98.231  33.193 -38.323  1.00  0.00    -0.003 C 
ATOM     16  C   UNL     1     -97.142  32.840 -39.336  1.00  0.00     0.004 C 
ENDBRANCH  14  15
ENDBRANCH  13  14
ENDBRANCH  12  13
ENDBRANCH  11  12
ENDBRANCH  10  11
ENDBRANCH   1  10
TORSDOF 12
ENDMDL
MODEL 2
REMARK VINA RESULT:    -3.859      1.103      1.482
REMARK INTER + INTRA:          -7.807
REMARK INTER:                  -6.549
REMARK INTRA:                  -1.258
REMARK UNBOUND:                -1.241
REMARK SMILES CCCCCCCCCCCCCC(=O)[O-]
REMARK SMILES IDX 8 1 9 2 10 3 11 4 12 5 13 6 14 7 15 8 16 9 7 10 6 11 5 12
REMARK SMILES IDX 4 13 3 14 2 15 1 16
REMARK H PARENT
REMARK Flexibility Score: inf
ROOT
ATOM      1  C   UNL     1    -101.339  31.469 -33.839  1.00  0.00     0.000 C 
ENDROOT
BRANCH   1   2
ATOM      2  C   UNL     1    -102.668  30.695 -33.894  1.00  0.00     0.000 C 
BRANCH   2   3
ATOM      3  C   UNL     1    -103.307  30.591 -35.295  1.00  0.00     0.000 C 
BRANCH   3   4
ATOM      4  C   UNL     1    -103.104  31.819 -36.200  1.00  0.00     0.000 C 
BRANCH   4   5
ATOM      5  C   UNL     1    -104.129  32.933 -35.933  1.00  0.00     0.006 C 
BRANCH   5   6
ATOM      6  C   UNL     1    -105.573  32.446 -36.111  1.00  0.00     0.053 C 
BRANCH   6   7
ATOM      7  C   UNL     1    -106.136  32.838 -37.443  1.00  0.00     0.041 C 
ATOM      8  O   UNL     1    -107.276  33.367 -37.518  1.00  0.00    -0.550 OA
ATOM      9  O   UNL     1    -105.413  32.591 -38.603  1.00  0.00    -0.550 OA
ENDBRANCH   6   7
ENDBRANCH   5   6
ENDBRANCH   4   5
ENDBRANCH   3   4
ENDBRANCH   2   3
ENDBRANCH   1   2
BRANCH   1  10
ATOM     10  C   UNL     1    -100.114  30.566 -34.049  1.00  0.00     0.000 C 
BRANCH  10  11
ATOM     11  C   UNL     1     -99.251  31.072 -35.211  1.00  0.00    -0.000 C 
BRANCH  11  12
ATOM     12  C   UNL     1     -99.721  30.472 -36.545  1.00  0.00    -0.000 C 
BRANCH  12  13
ATOM     13  C   UNL     1     -99.595  31.458 -37.719  1.00  0.00    -0.000 C 
BRANCH  13  14
ATOM     14  C   UNL     1     -99.159  32.883 -37.326  1.00  0.00    -0.000 C 
BRANCH  14  15
ATOM     15  C   UNL     1     -98.412  33.637 -38.446  1.00  0.00    -0.003 C 
ATOM     16  C   UNL     1     -97.408  32.750 -39.181  1.00  0.00     0.004 C 
ENDBRANCH  14  15
ENDBRANCH  13  14
ENDBRANCH  12  13
ENDBRANCH  11  12
ENDBRANCH  10  11
ENDBRANCH   1  10
TORSDOF 12
ENDMDL
MODEL 3
REMARK VINA RESULT:    -3.846      2.831      5.530
REMARK INTER + INTRA:          -7.786
REMARK INTER:                  -6.505
REMARK INTRA:                  -1.281
REMARK UNBOUND:                -1.241
REMARK SMILES CCCCCCCCCCCCCC(=O)[O-]
REMARK SMILES IDX 8 1 9 2 10 3 11 4 12 5 13 6 14 7 15 8 16 9 7 10 6 11 5 12
REMARK SMILES IDX 4 13 3 14 2 15 1 16
REMARK H PARENT
REMARK Flexibility Score: inf
ROOT
ATOM      1  C   UNL     1    -101.603  31.691 -33.604  1.00  0.00     0.000 C 
ENDROOT
BRANCH   1   2
ATOM      2  C   UNL     1    -100.555  30.569 -33.493  1.00  0.00     0.000 C 
BRANCH   2   3
ATOM      3  C   UNL     1     -99.399  30.652 -34.511  1.00  0.00     0.000 C 
BRANCH   3   4
ATOM      4  C   UNL     1     -99.821  30.578 -35.989  1.00  0.00     0.000 C 
BRANCH   4   5
ATOM      5  C   UNL     1     -99.707  31.931 -36.711  1.00  0.00     0.006 C 
BRANCH   5   6
ATOM      6  C   UNL     1     -99.217  31.776 -38.157  1.00  0.00     0.053 C 
BRANCH   6   7
ATOM      7  C   UNL     1     -98.292  32.884 -38.556  1.00  0.00     0.041 C 
ATOM      8  O   UNL     1     -98.571  34.078 -38.266  1.00  0.00    -0.550 OA
ATOM      9  O   UNL     1     -97.136  32.602 -39.273  1.00  0.00    -0.550 OA
ENDBRANCH   6   7
ENDBRANCH   5   6
ENDBRANCH   4   5
ENDBRANCH   3   4
ENDBRANCH   2   3
ENDBRANCH   1   2
BRANCH   1  10
ATOM     10  C   UNL     1    -103.010  31.236 -33.186  1.00  0.00     0.000 C 
BRANCH  10  11
ATOM     11  C   UNL     1    -103.920  31.071 -34.409  1.00  0.00    -0.000 C 
BRANCH  11  12
ATOM     12  C   UNL     1    -103.348  31.818 -35.623  1.00  0.00    -0.000 C 
BRANCH  12  13
ATOM     13  C   UNL     1    -103.416  30.990 -36.918  1.00  0.00    -0.000 C 
BRANCH  13  14
ATOM     14  C   UNL     1    -103.742  31.798 -38.189  1.00  0.00    -0.000 C 
BRANCH  14  15
ATOM     15  C   UNL     1    -105.248  32.068 -38.386  1.00  0.00    -0.003 C 
ATOM     16  C   UNL     1    -105.638  33.503 -38.034  1.00  0.00     0.004 C 
ENDBRANCH  14  15
ENDBRANCH  13  14
ENDBRANCH  12  13
ENDBRANCH  11  12
ENDBRANCH  10  11
ENDBRANCH   1  10
TORSDOF 12
ENDMDL
MODEL 4
REMARK VINA RESULT:    -3.566      2.721      4.245
REMARK INTER + INTRA:          -7.310
REMARK INTER:                  -5.889
REMARK INTRA:                  -1.421
REMARK UNBOUND:                -1.241
REMARK SMILES CCCCCCCCCCCCCC(=O)[O-]
REMARK SMILES IDX 8 1 9 2 10 3 11 4 12 5 13 6 14 7 15 8 16 9 7 10 6 11 5 12
REMARK SMILES IDX 4 13 3 14 2 15 1 16
REMARK H PARENT
REMARK Flexibility Score: inf
ROOT
ATOM      1  C   UNL     1    -103.661  31.363 -38.913  1.00  0.00     0.000 C 
ENDROOT
BRANCH   1   2
ATOM      2  C   UNL     1    -104.716  31.480 -37.799  1.00  0.00     0.000 C 
BRANCH   2   3
ATOM      3  C   UNL     1    -104.700  30.340 -36.760  1.00  0.00     0.000 C 
BRANCH   3   4
ATOM      4  C   UNL     1    -103.913  30.638 -35.471  1.00  0.00     0.000 C 
BRANCH   4   5
ATOM      5  C   UNL     1    -103.683  32.142 -35.247  1.00  0.00     0.006 C 
BRANCH   5   6
ATOM      6  C   UNL     1    -102.192  32.493 -35.167  1.00  0.00     0.053 C 
BRANCH   6   7
ATOM      7  C   UNL     1    -101.518  31.811 -34.016  1.00  0.00     0.041 C 
ATOM      8  O   UNL     1    -101.973  31.938 -32.849  1.00  0.00    -0.550 OA
ATOM      9  O   UNL     1    -100.369  31.059 -34.229  1.00  0.00    -0.550 OA
ENDBRANCH   6   7
ENDBRANCH   5   6
ENDBRANCH   4   5
ENDBRANCH   3   4
ENDBRANCH   2   3
ENDBRANCH   1   2
BRANCH   1  10
ATOM     10  C   UNL     1    -103.058  29.953 -39.017  1.00  0.00     0.000 C 
BRANCH  10  11
ATOM     11  C   UNL     1    -101.527  30.003 -38.934  1.00  0.00    -0.000 C 
BRANCH  11  12
ATOM     12  C   UNL     1    -101.062  31.216 -38.115  1.00  0.00    -0.000 C 
BRANCH  12  13
ATOM     13  C   UNL     1     -99.535  31.257 -37.926  1.00  0.00    -0.000 C 
BRANCH  13  14
ATOM     14  C   UNL     1     -99.008  32.496 -37.177  1.00  0.00    -0.000 C 
BRANCH  14  15
ATOM     15  C   UNL     1     -97.910  33.266 -37.943  1.00  0.00    -0.003 C 
ATOM     16  C   UNL     1     -97.948  32.999 -39.447  1.00  0.00     0.004 C 
ENDBRANCH  14  15
ENDBRANCH  13  14
ENDBRANCH  12  13
ENDBRANCH  11  12
ENDBRANCH  10  11
ENDBRANCH   1  10
TORSDOF 12
ENDMDL
MODEL 5
REMARK VINA RESULT:    -3.431      1.539      2.356
REMARK INTER + INTRA:          -7.079
REMARK INTER:                  -6.159
REMARK INTRA:                  -0.921
REMARK UNBOUND:                -1.241
REMARK SMILES CCCCCCCCCCCCCC(=O)[O-]
REMARK SMILES IDX 8 1 9 2 10 3 11 4 12 5 13 6 14 7 15 8 16 9 7 10 6 11 5 12
REMARK SMILES IDX 4 13 3 14 2 15 1 16
REMARK H PARENT
REMARK Flexibility Score: inf
ROOT
ATOM      1  C   UNL     1    -103.439  32.121 -34.535  1.00  0.00     0.000 C 
ENDROOT
BRANCH   1   2
ATOM      2  C   UNL     1    -104.380  31.492 -35.577  1.00  0.00     0.000 C 
BRANCH   2   3
ATOM      3  C   UNL     1    -104.194  32.005 -37.020  1.00  0.00     0.000 C 
BRANCH   3   4
ATOM      4  C   UNL     1    -105.029  33.245 -37.388  1.00  0.00     0.000 C 
BRANCH   4   5
ATOM      5  C   UNL     1    -106.404  32.886 -37.975  1.00  0.00     0.006 C 
BRANCH   5   6
ATOM      6  C   UNL     1    -107.523  32.983 -36.930  1.00  0.00     0.053 C 
BRANCH   6   7
ATOM      7  C   UNL     1    -108.027  31.631 -36.526  1.00  0.00     0.041 C 
ATOM      8  O   UNL     1    -108.510  31.453 -35.376  1.00  0.00    -0.550 OA
ATOM      9  O   UNL     1    -107.938  30.562 -37.409  1.00  0.00    -0.550 OA
ENDBRANCH   6   7
ENDBRANCH   5   6
ENDBRANCH   4   5
ENDBRANCH   3   4
ENDBRANCH   2   3
ENDBRANCH   1   2
BRANCH   1  10
ATOM     10  C   UNL     1    -102.067  32.493 -35.117  1.00  0.00     0.000 C 
BRANCH  10  11
ATOM     11  C   UNL     1    -100.981  31.531 -34.621  1.00  0.00    -0.000 C 
BRANCH  11  12
ATOM     12  C   UNL     1     -99.871  31.368 -35.671  1.00  0.00    -0.000 C 
BRANCH  12  13
ATOM     13  C   UNL     1    -100.288  31.874 -37.063  1.00  0.00    -0.000 C 
BRANCH  13  14
ATOM     14  C   UNL     1     -99.196  31.771 -38.144  1.00  0.00    -0.000 C 
BRANCH  14  15
ATOM     15  C   UNL     1     -98.235  32.977 -38.176  1.00  0.00    -0.003 C 
ATOM     16  C   UNL     1     -97.218  32.887 -39.313  1.00  0.00     0.004 C 
ENDBRANCH  14  15
ENDBRANCH  13  14
ENDBRANCH  12  13
ENDBRANCH  11  12
ENDBRANCH  10  11
ENDBRANCH   1  10
TORSDOF 12
ENDMDL
MODEL 6
REMARK VINA RESULT:    -3.399      2.653      4.282
REMARK INTER + INTRA:          -7.025
REMARK INTER:                  -5.566
REMARK INTRA:                  -1.459
REMARK UNBOUND:                -1.241
REMARK SMILES CCCCCCCCCCCCCC(=O)[O-]
REMARK SMILES IDX 8 1 9 2 10 3 11 4 12 5 13 6 14 7 15 8 16 9 7 10 6 11 5 12
REMARK SMILES IDX 4 13 3 14 2 15 1 16
REMARK H PARENT
REMARK Flexibility Score: inf
ROOT
ATOM      1  C   UNL     1    -104.422  32.081 -38.506  1.00  0.00     0.000 C 
ENDROOT
BRANCH   1   2
ATOM      2  C   UNL     1    -105.305  33.046 -37.694  1.00  0.00     0.000 C 
BRANCH   2   3
ATOM      3  C   UNL     1    -106.358  32.369 -36.794  1.00  0.00     0.000 C 
BRANCH   3   4
ATOM      4  C   UNL     1    -106.206  32.645 -35.287  1.00  0.00     0.000 C 
BRANCH   4   5
ATOM      5  C   UNL     1    -104.738  32.753 -34.845  1.00  0.00     0.006 C 
BRANCH   5   6
ATOM      6  C   UNL     1    -104.217  31.443 -34.239  1.00  0.00     0.053 C 
BRANCH   6   7
ATOM      7  C   UNL     1    -103.472  31.677 -32.960  1.00  0.00     0.041 C 
ATOM      8  O   UNL     1    -102.499  30.939 -32.650  1.00  0.00    -0.550 OA
ATOM      9  O   UNL     1    -103.872  32.689 -32.097  1.00  0.00    -0.550 OA
ENDBRANCH   6   7
ENDBRANCH   5   6
ENDBRANCH   4   5
ENDBRANCH   3   4
ENDBRANCH   2   3
ENDBRANCH   1   2
BRANCH   1  10
ATOM     10  C   UNL     1    -104.489  30.636 -37.990  1.00  0.00     0.000 C 
BRANCH  10  11
ATOM     11  C   UNL     1    -103.137  30.195 -37.414  1.00  0.00    -0.000 C 
BRANCH  11  12
ATOM     12  C   UNL     1    -102.049  31.239 -37.709  1.00  0.00    -0.000 C 
BRANCH  12  13
ATOM     13  C   UNL     1    -101.283  31.673 -36.447  1.00  0.00    -0.000 C 
BRANCH  13  14
ATOM     14  C   UNL     1     -99.750  31.710 -36.600  1.00  0.00    -0.000 C 
BRANCH  14  15
ATOM     15  C   UNL     1     -99.275  31.924 -38.053  1.00  0.00    -0.003 C 
ATOM     16  C   UNL     1     -98.392  33.162 -38.204  1.00  0.00     0.004 C 
ENDBRANCH  14  15
ENDBRANCH  13  14
ENDBRANCH  12  13
ENDBRANCH  11  12
ENDBRANCH  10  11
ENDBRANCH   1  10
TORSDOF 12
ENDMDL
MODEL 7
REMARK VINA RESULT:    -3.347      2.597      4.097
REMARK INTER + INTRA:          -6.937
REMARK INTER:                  -5.884
REMARK INTRA:                  -1.052
REMARK UNBOUND:                -1.241
REMARK SMILES CCCCCCCCCCCCCC(=O)[O-]
REMARK SMILES IDX 8 1 9 2 10 3 11 4 12 5 13 6 14 7 15 8 16 9 7 10 6 11 5 12
REMARK SMILES IDX 4 13 3 14 2 15 1 16
REMARK H PARENT
REMARK Flexibility Score: inf
ROOT
ATOM      1  C   UNL     1    -104.202  32.310 -36.713  1.00  0.00     0.000 C 
ENDROOT
BRANCH   1   2
ATOM      2  C   UNL     1    -103.918  32.730 -35.260  1.00  0.00     0.000 C 
BRANCH   2   3
ATOM      3  C   UNL     1    -103.336  31.620 -34.360  1.00  0.00     0.000 C 
BRANCH   3   4
ATOM      4  C   UNL     1    -103.142  32.009 -32.884  1.00  0.00     0.000 C 
BRANCH   4   5
ATOM      5  C   UNL     1    -104.471  32.146 -32.123  1.00  0.00     0.006 C 
BRANCH   5   6
ATOM      6  C   UNL     1    -104.626  33.528 -31.474  1.00  0.00     0.053 C 
BRANCH   6   7
ATOM      7  C   UNL     1    -105.574  34.400 -32.238  1.00  0.00     0.041 C 
ATOM      8  O   UNL     1    -105.543  35.651 -32.092  1.00  0.00    -0.550 OA
ATOM      9  O   UNL     1    -106.514  33.830 -33.089  1.00  0.00    -0.550 OA
ENDBRANCH   6   7
ENDBRANCH   5   6
ENDBRANCH   4   5
ENDBRANCH   3   4
ENDBRANCH   2   3
ENDBRANCH   1   2
BRANCH   1  10
ATOM     10  C   UNL     1    -103.516  30.990 -37.098  1.00  0.00     0.000 C 
BRANCH  10  11
ATOM     11  C   UNL     1    -102.484  31.211 -38.210  1.00  0.00    -0.000 C 
BRANCH  11  12
ATOM     12  C   UNL     1    -101.077  30.812 -37.741  1.00  0.00    -0.000 C 
BRANCH  12  13
ATOM     13  C   UNL     1    -100.495  31.790 -36.706  1.00  0.00    -0.000 C 
BRANCH  13  14
ATOM     14  C   UNL     1     -99.227  32.537 -37.161  1.00  0.00    -0.000 C 
BRANCH  14  15
ATOM     15  C   UNL     1     -98.733  32.127 -38.565  1.00  0.00    -0.003 C 
ATOM     16  C   UNL     1     -97.911  33.224 -39.240  1.00  0.00     0.004 C 
ENDBRANCH  14  15
ENDBRANCH  13  14
ENDBRANCH  12  13
ENDBRANCH  11  12
ENDBRANCH  10  11
ENDBRANCH   1  10
TORSDOF 12
ENDMDL
MODEL 8
REMARK VINA RESULT:    -3.259     15.541     17.457
REMARK INTER + INTRA:          -6.787
REMARK INTER:                  -5.307
REMARK INTRA:                  -1.480
REMARK UNBOUND:                -1.241
REMARK SMILES CCCCCCCCCCCCCC(=O)[O-]
REMARK SMILES IDX 8 1 9 2 10 3 11 4 12 5 13 6 14 7 15 8 16 9 7 10 6 11 5 12
REMARK SMILES IDX 4 13 3 14 2 15 1 16
REMARK H PARENT
REMARK Flexibility Score: inf
ROOT
ATOM      1  C   UNL     1     -95.858  46.628 -39.582  1.00  0.00     0.000 C 
ENDROOT
BRANCH   1   2
ATOM      2  C   UNL     1     -96.247  45.627 -38.480  1.00  0.00     0.000 C 
BRANCH   2   3
ATOM      3  C   UNL     1     -95.522  45.823 -37.132  1.00  0.00     0.000 C 
BRANCH   3   4
ATOM      4  C   UNL     1     -96.264  46.704 -36.111  1.00  0.00     0.000 C 
BRANCH   4   5
ATOM      5  C   UNL     1     -97.735  46.945 -36.488  1.00  0.00     0.006 C 
BRANCH   5   6
ATOM      6  C   UNL     1     -98.096  48.436 -36.486  1.00  0.00     0.053 C 
BRANCH   6   7
ATOM      7  C   UNL     1     -98.996  48.792 -35.343  1.00  0.00     0.041 C 
ATOM      8  O   UNL     1     -98.621  48.596 -34.156  1.00  0.00    -0.550 OA
ATOM      9  O   UNL     1    -100.261  49.311 -35.588  1.00  0.00    -0.550 OA
ENDBRANCH   6   7
ENDBRANCH   5   6
ENDBRANCH   4   5
ENDBRANCH   3   4
ENDBRANCH   2   3
ENDBRANCH   1   2
BRANCH   1  10
ATOM     10  C   UNL     1     -94.648  47.494 -39.201  1.00  0.00     0.000 C 
BRANCH  10  11
ATOM     11  C   UNL     1     -94.937  48.980 -39.442  1.00  0.00    -0.000 C 
BRANCH  11  12
ATOM     12  C   UNL     1     -96.426  49.206 -39.748  1.00  0.00    -0.000 C 
BRANCH  12  13
ATOM     13  C   UNL     1     -96.660  49.867 -41.118  1.00  0.00    -0.000 C 
BRANCH  13  14
ATOM     14  C   UNL     1     -96.201  49.031 -42.327  1.00  0.00    -0.000 C 
BRANCH  14  15
ATOM     15  C   UNL     1     -97.226  47.967 -42.775  1.00  0.00    -0.003 C 
ATOM     16  C   UNL     1     -98.652  48.515 -42.828  1.00  0.00     0.004 C 
ENDBRANCH  14  15
ENDBRANCH  13  14
ENDBRANCH  12  13
ENDBRANCH  11  12
ENDBRANCH  10  11
ENDBRANCH   1  10
TORSDOF 12
ENDMDL
MODEL 9
REMARK VINA RESULT:    -3.144     13.956     16.532
REMARK INTER + INTRA:          -6.591
REMARK INTER:                  -4.774
REMARK INTRA:                  -1.818
REMARK UNBOUND:                -1.241
REMARK SMILES CCCCCCCCCCCCCC(=O)[O-]
REMARK SMILES IDX 8 1 9 2 10 3 11 4 12 5 13 6 14 7 15 8 16 9 7 10 6 11 5 12
REMARK SMILES IDX 4 13 3 14 2 15 1 16
REMARK H PARENT
REMARK Flexibility Score: inf
ROOT
ATOM      1  C   UNL     1    -110.094  46.445 -43.172  1.00  0.00     0.000 C 
ENDROOT
BRANCH   1   2
ATOM      2  C   UNL     1    -108.932  45.761 -43.914  1.00  0.00     0.000 C 
BRANCH   2   3
ATOM      3  C   UNL     1    -108.878  46.028 -45.433  1.00  0.00     0.000 C 
BRANCH   3   4
ATOM      4  C   UNL     1    -108.906  44.770 -46.319  1.00  0.00     0.000 C 
BRANCH   4   5
ATOM      5  C   UNL     1    -109.183  43.484 -45.523  1.00  0.00     0.006 C 
BRANCH   5   6
ATOM      6  C   UNL     1    -110.540  42.863 -45.879  1.00  0.00     0.053 C 
BRANCH   6   7
ATOM      7  C   UNL     1    -111.652  43.444 -45.061  1.00  0.00     0.041 C 
ATOM      8  O   UNL     1    -112.283  44.452 -45.476  1.00  0.00    -0.550 OA
ATOM      9  O   UNL     1    -111.971  42.891 -43.828  1.00  0.00    -0.550 OA
ENDBRANCH   6   7
ENDBRANCH   5   6
ENDBRANCH   4   5
ENDBRANCH   3   4
ENDBRANCH   2   3
ENDBRANCH   1   2
BRANCH   1  10
ATOM     10  C   UNL     1    -109.656  47.104 -41.856  1.00  0.00     0.000 C 
BRANCH  10  11
ATOM     11  C   UNL     1    -108.223  46.699 -41.488  1.00  0.00    -0.000 C 
BRANCH  11  12
ATOM     12  C   UNL     1    -108.172  46.079 -40.084  1.00  0.00    -0.000 C 
BRANCH  12  13
ATOM     13  C   UNL     1    -107.938  44.559 -40.112  1.00  0.00    -0.000 C 
BRANCH  13  14
ATOM     14  C   UNL     1    -109.209  43.711 -40.311  1.00  0.00    -0.000 C 
BRANCH  14  15
ATOM     15  C   UNL     1    -109.248  42.953 -41.655  1.00  0.00    -0.003 C 
ATOM     16  C   UNL     1    -107.852  42.617 -42.178  1.00  0.00     0.004 C 
ENDBRANCH  14  15
ENDBRANCH  13  14
ENDBRANCH  12  13
ENDBRANCH  11  12
ENDBRANCH  10  11
ENDBRANCH   1  10
TORSDOF 12
ENDMDL
