MODEL 1
REMARK VINA RESULT:    -4.828      0.000      0.000
REMARK INTER + INTRA:          -8.827
REMARK INTER:                  -7.086
REMARK INTRA:                  -1.741
REMARK UNBOUND:                -1.741
REMARK SMILES O=c1c(O[C@H]2O[C@H](CO)[C@@H](O)[C@H](O)[C@@H]2O)c(-c2ccc(O)c(O)c2)oc2cc(O)cc(O)c12
REMARK SMILES IDX 4 1 3 2 16 3 25 4 2 5 26 6 1 7 33 8 27 9 31 10 28 11 30 12
REMARK SMILES IDX 17 13 18 14 19 15 20 16 24 17 22 18 21 19 23 21 32 23 29 25
REMARK SMILES IDX 5 27 14 28 6 29 12 30 7 31 10 32 15 33 13 35 8 37 9 38 11 40
REMARK H PARENT 21 20 23 22 32 24 29 26 15 34 13 36 9 39 11 41
REMARK Flexibility Score: inf
ROOT
ATOM      1  O   UNL     1      18.802   5.667  11.032  1.00  0.00    -0.454 OA
ENDROOT
BRANCH   1   2
ATOM      2  C   UNL     1      17.566   6.320  10.930  1.00  0.00     0.214 A 
ATOM      3  C   UNL     1      16.372   5.615  11.167  1.00  0.00     0.180 A 
ATOM      4  O   UNL     1      15.209   6.253  11.144  1.00  0.00    -0.452 OA
ATOM      5  C   UNL     1      17.490   7.682  10.589  1.00  0.00     0.239 A 
ATOM      6  C   UNL     1      15.092   7.546  10.865  1.00  0.00     0.146 A 
ATOM      7  O   UNL     1      18.543   8.309  10.297  1.00  0.00    -0.285 OA
ATOM      8  C   UNL     1      16.235   8.322  10.560  1.00  0.00     0.111 A 
ATOM      9  C   UNL     1      13.824   8.131  10.868  1.00  0.00     0.094 A 
ATOM     10  C   UNL     1      16.075   9.692  10.246  1.00  0.00     0.134 A 
ATOM     11  C   UNL     1      13.672   9.489  10.565  1.00  0.00     0.123 A 
ATOM     12  C   UNL     1      14.792  10.260  10.252  1.00  0.00     0.093 A 
BRANCH   3  13
ATOM     13  C   UNL     1      16.371   4.169  11.468  1.00  0.00     0.025 A 
ATOM     14  C   UNL     1      16.589   3.244  10.437  1.00  0.00     0.016 A 
ATOM     15  C   UNL     1      16.601   1.872  10.707  1.00  0.00     0.051 A 
ATOM     16  C   UNL     1      16.409   1.409  12.010  1.00  0.00     0.157 A 
ATOM     17  C   UNL     1      16.198   3.703  12.783  1.00  0.00     0.062 A 
ATOM     18  C   UNL     1      16.204   2.328  13.056  1.00  0.00     0.158 A 
BRANCH  16  19
ATOM     19  O   UNL     1      16.428   0.035  12.250  1.00  0.00    -0.504 OA
ATOM     20  H   UNL     1      17.294  -0.492  12.288  1.00  0.00     0.293 HD
ENDBRANCH  16  19
BRANCH  18  21
ATOM     21  O   UNL     1      16.005   1.871  14.357  1.00  0.00    -0.504 OA
ATOM     22  H   UNL     1      15.849   0.891  14.559  1.00  0.00     0.293 HD
ENDBRANCH  18  21
ENDBRANCH   3  13
BRANCH  10  23
ATOM     23  O   UNL     1      17.174  10.490   9.930  1.00  0.00    -0.507 OA
ATOM     24  H   UNL     1      17.307  10.868   9.000  1.00  0.00     0.293 HD
ENDBRANCH  10  23
BRANCH  11  25
ATOM     25  O   UNL     1      12.411  10.080  10.574  1.00  0.00    -0.508 OA
ATOM     26  H   UNL     1      11.649   9.695  11.120  1.00  0.00     0.293 HD
ENDBRANCH  11  25
ENDBRANCH   1   2
BRANCH   1  27
ATOM     27  C   UNL     1      19.552   5.589  12.250  1.00  0.00     0.339 C 
ATOM     28  C   UNL     1      20.971   6.148  12.052  1.00  0.00     0.214 C 
ATOM     29  O   UNL     1      19.581   4.259  12.741  1.00  0.00    -0.332 OA
ATOM     30  C   UNL     1      21.789   5.221  11.139  1.00  0.00     0.180 C 
ATOM     31  C   UNL     1      20.229   3.376  11.839  1.00  0.00     0.179 C 
ATOM     32  C   UNL     1      21.711   3.772  11.649  1.00  0.00     0.177 C 
BRANCH  28  33
ATOM     33  O   UNL     1      21.593   6.270  13.306  1.00  0.00    -0.384 OA
ATOM     34  H   UNL     1      21.616   5.362  13.710  1.00  0.00     0.211 HD
ENDBRANCH  28  33
BRANCH  30  35
ATOM     35  O   UNL     1      23.125   5.654  11.107  1.00  0.00    -0.387 OA
ATOM     36  H   UNL     1      23.154   6.536  11.566  1.00  0.00     0.211 HD
ENDBRANCH  30  35
BRANCH  31  37
ATOM     37  C   UNL     1      20.106   1.950  12.383  1.00  0.00     0.191 C 
BRANCH  37  38
ATOM     38  O   UNL     1      19.933   1.058  11.320  1.00  0.00    -0.394 OA
ATOM     39  H   UNL     1      19.842   0.156  11.729  1.00  0.00     0.210 HD
ENDBRANCH  37  38
ENDBRANCH  31  37
BRANCH  32  40
ATOM     40  O   UNL     1      22.321   2.923  10.705  1.00  0.00    -0.387 OA
ATOM     41  H   UNL     1      21.643   2.246  10.440  1.00  0.00     0.211 HD
ENDBRANCH  32  40
ENDBRANCH   1  27
TORSDOF 12
ENDMDL
MODEL 2
REMARK VINA RESULT:    -4.523      2.699      8.259
REMARK INTER + INTRA:          -8.379
REMARK INTER:                  -7.928
REMARK INTRA:                  -0.451
REMARK UNBOUND:                -1.741
REMARK SMILES O=c1c(O[C@H]2O[C@H](CO)[C@@H](O)[C@H](O)[C@@H]2O)c(-c2ccc(O)c(O)c2)oc2cc(O)cc(O)c12
REMARK SMILES IDX 4 1 3 2 16 3 25 4 2 5 26 6 1 7 33 8 27 9 31 10 28 11 30 12
REMARK SMILES IDX 17 13 18 14 19 15 20 16 24 17 22 18 21 19 23 21 32 23 29 25
REMARK SMILES IDX 5 27 14 28 6 29 12 30 7 31 10 32 15 33 13 35 8 37 9 38 11 40
REMARK H PARENT 21 20 23 22 32 24 29 26 15 34 13 36 9 39 11 41
REMARK Flexibility Score: inf
ROOT
ATOM      1  O   UNL     1      17.368   2.497  11.075  1.00  0.00    -0.454 OA
ENDROOT
BRANCH   1   2
ATOM      2  C   UNL     1      18.182   1.365  11.218  1.00  0.00     0.214 A 
ATOM      3  C   UNL     1      19.442   1.473  11.833  1.00  0.00     0.180 A 
ATOM      4  O   UNL     1      20.178   0.387  12.035  1.00  0.00    -0.452 OA
ATOM      5  C   UNL     1      17.764   0.106  10.753  1.00  0.00     0.239 A 
ATOM      6  C   UNL     1      19.806  -0.827  11.647  1.00  0.00     0.146 A 
ATOM      7  O   UNL     1      16.673   0.005  10.130  1.00  0.00    -0.285 OA
ATOM      8  C   UNL     1      18.579  -1.023  10.972  1.00  0.00     0.111 A 
ATOM      9  C   UNL     1      20.648  -1.912  11.907  1.00  0.00     0.094 A 
ATOM     10  C   UNL     1      18.222  -2.326  10.552  1.00  0.00     0.134 A 
ATOM     11  C   UNL     1      20.286  -3.200  11.498  1.00  0.00     0.123 A 
ATOM     12  C   UNL     1      19.082  -3.401  10.820  1.00  0.00     0.093 A 
BRANCH   3  13
ATOM     13  C   UNL     1      19.975   2.773  12.290  1.00  0.00     0.025 A 
ATOM     14  C   UNL     1      21.063   2.806  13.173  1.00  0.00     0.016 A 
ATOM     15  C   UNL     1      21.586   4.029  13.606  1.00  0.00     0.051 A 
ATOM     16  C   UNL     1      21.037   5.230  13.154  1.00  0.00     0.157 A 
ATOM     17  C   UNL     1      19.435   3.983  11.819  1.00  0.00     0.062 A 
ATOM     18  C   UNL     1      19.953   5.209  12.257  1.00  0.00     0.158 A 
BRANCH  16  19
ATOM     19  O   UNL     1      21.580   6.434  13.602  1.00  0.00    -0.504 OA
ATOM     20  H   UNL     1      22.541   6.506  13.917  1.00  0.00     0.293 HD
ENDBRANCH  16  19
BRANCH  18  21
ATOM     21  O   UNL     1      19.396   6.405  11.808  1.00  0.00    -0.504 OA
ATOM     22  H   UNL     1      18.404   6.493  11.623  1.00  0.00     0.293 HD
ENDBRANCH  18  21
ENDBRANCH   3  13
BRANCH  10  23
ATOM     23  O   UNL     1      17.025  -2.560   9.875  1.00  0.00    -0.507 OA
ATOM     24  H   UNL     1      16.266  -1.890   9.889  1.00  0.00     0.293 HD
ENDBRANCH  10  23
BRANCH  11  25
ATOM     25  O   UNL     1      21.115  -4.287  11.760  1.00  0.00    -0.508 OA
ATOM     26  H   UNL     1      21.137  -4.728  12.672  1.00  0.00     0.293 HD
ENDBRANCH  11  25
ENDBRANCH   1   2
BRANCH   1  27
ATOM     27  C   UNL     1      16.032   2.575  11.587  1.00  0.00     0.339 C 
ATOM     28  C   UNL     1      15.321   3.834  11.064  1.00  0.00     0.214 C 
ATOM     29  O   UNL     1      16.032   2.528  13.004  1.00  0.00    -0.332 OA
ATOM     30  C   UNL     1      15.949   5.096  11.676  1.00  0.00     0.180 C 
ATOM     31  C   UNL     1      16.720   3.632  13.570  1.00  0.00     0.179 C 
ATOM     32  C   UNL     1      16.022   4.962  13.206  1.00  0.00     0.177 C 
BRANCH  28  33
ATOM     33  O   UNL     1      13.958   3.759  11.393  1.00  0.00    -0.384 OA
ATOM     34  H   UNL     1      13.837   4.250  12.249  1.00  0.00     0.211 HD
ENDBRANCH  28  33
BRANCH  30  35
ATOM     35  O   UNL     1      15.183   6.219  11.322  1.00  0.00    -0.387 OA
ATOM     36  H   UNL     1      15.480   6.498  10.415  1.00  0.00     0.211 HD
ENDBRANCH  30  35
BRANCH  31  37
ATOM     37  C   UNL     1      16.781   3.440  15.088  1.00  0.00     0.191 C 
BRANCH  37  38
ATOM     38  O   UNL     1      17.600   2.347  15.388  1.00  0.00    -0.394 OA
ATOM     39  H   UNL     1      18.316   2.341  14.697  1.00  0.00     0.210 HD
ENDBRANCH  37  38
ENDBRANCH  31  37
BRANCH  32  40
ATOM     40  O   UNL     1      16.753   6.049  13.725  1.00  0.00    -0.387 OA
ATOM     41  H   UNL     1      17.387   6.340  13.017  1.00  0.00     0.211 HD
ENDBRANCH  32  40
ENDBRANCH   1  27
TORSDOF 12
ENDMDL
MODEL 3
REMARK VINA RESULT:    -4.454      3.778      6.768
REMARK INTER + INTRA:          -8.277
REMARK INTER:                  -6.573
REMARK INTRA:                  -1.704
REMARK UNBOUND:                -1.741
REMARK SMILES O=c1c(O[C@H]2O[C@H](CO)[C@@H](O)[C@H](O)[C@@H]2O)c(-c2ccc(O)c(O)c2)oc2cc(O)cc(O)c12
REMARK SMILES IDX 4 1 3 2 16 3 25 4 2 5 26 6 1 7 33 8 27 9 31 10 28 11 30 12
REMARK SMILES IDX 17 13 18 14 19 15 20 16 24 17 22 18 21 19 23 21 32 23 29 25
REMARK SMILES IDX 5 27 14 28 6 29 12 30 7 31 10 32 15 33 13 35 8 37 9 38 11 40
REMARK H PARENT 21 20 23 22 32 24 29 26 15 34 13 36 9 39 11 41
REMARK Flexibility Score: inf
ROOT
ATOM      1  O   UNL     1      18.717  -0.397  12.637  1.00  0.00    -0.454 OA
ENDROOT
BRANCH   1   2
ATOM      2  C   UNL     1      18.285   0.917  12.867  1.00  0.00     0.214 A 
ATOM      3  C   UNL     1      18.897   1.697  13.864  1.00  0.00     0.180 A 
ATOM      4  O   UNL     1      18.537   2.964  14.029  1.00  0.00    -0.452 OA
ATOM      5  C   UNL     1      17.239   1.480  12.115  1.00  0.00     0.239 A 
ATOM      6  C   UNL     1      17.582   3.549  13.316  1.00  0.00     0.146 A 
ATOM      7  O   UNL     1      16.629   0.770  11.271  1.00  0.00    -0.285 OA
ATOM      8  C   UNL     1      16.875   2.824  12.328  1.00  0.00     0.111 A 
ATOM      9  C   UNL     1      17.276   4.891  13.559  1.00  0.00     0.094 A 
ATOM     10  C   UNL     1      15.848   3.470  11.600  1.00  0.00     0.134 A 
ATOM     11  C   UNL     1      16.265   5.527  12.831  1.00  0.00     0.123 A 
ATOM     12  C   UNL     1      15.554   4.817  11.862  1.00  0.00     0.093 A 
BRANCH   3  13
ATOM     13  C   UNL     1      19.959   1.153  14.735  1.00  0.00     0.025 A 
ATOM     14  C   UNL     1      21.277   1.605  14.588  1.00  0.00     0.016 A 
ATOM     15  C   UNL     1      22.292   1.107  15.412  1.00  0.00     0.051 A 
ATOM     16  C   UNL     1      21.999   0.164  16.399  1.00  0.00     0.157 A 
ATOM     17  C   UNL     1      19.660   0.218  15.742  1.00  0.00     0.062 A 
ATOM     18  C   UNL     1      20.677  -0.286  16.565  1.00  0.00     0.158 A 
BRANCH  16  19
ATOM     19  O   UNL     1      23.031  -0.313  17.207  1.00  0.00    -0.504 OA
ATOM     20  H   UNL     1      23.905  -0.652  16.819  1.00  0.00     0.293 HD
ENDBRANCH  16  19
BRANCH  18  21
ATOM     21  O   UNL     1      20.380  -1.233  17.544  1.00  0.00    -0.504 OA
ATOM     22  H   UNL     1      19.756  -1.023  18.314  1.00  0.00     0.293 HD
ENDBRANCH  18  21
ENDBRANCH   3  13
BRANCH  10  23
ATOM     23  O   UNL     1      15.121   2.788  10.625  1.00  0.00    -0.507 OA
ATOM     24  H   UNL     1      14.396   3.245  10.086  1.00  0.00     0.293 HD
ENDBRANCH  10  23
BRANCH  11  25
ATOM     25  O   UNL     1      15.960   6.866  13.062  1.00  0.00    -0.508 OA
ATOM     26  H   UNL     1      16.652   7.512  13.423  1.00  0.00     0.293 HD
ENDBRANCH  11  25
ENDBRANCH   1   2
BRANCH   1  27
ATOM     27  C   UNL     1      19.898  -0.718  11.891  1.00  0.00     0.339 C 
ATOM     28  C   UNL     1      19.561  -1.644  10.711  1.00  0.00     0.214 C 
ATOM     29  O   UNL     1      20.887  -1.286  12.733  1.00  0.00    -0.332 OA
ATOM     30  C   UNL     1      19.145  -3.033  11.222  1.00  0.00     0.180 C 
ATOM     31  C   UNL     1      20.455  -2.511  13.305  1.00  0.00     0.179 C 
ATOM     32  C   UNL     1      20.195  -3.569  12.209  1.00  0.00     0.177 C 
BRANCH  28  33
ATOM     33  O   UNL     1      20.687  -1.749   9.877  1.00  0.00    -0.384 OA
ATOM     34  H   UNL     1      21.029  -0.826   9.732  1.00  0.00     0.211 HD
ENDBRANCH  28  33
BRANCH  30  35
ATOM     35  O   UNL     1      19.007  -3.910  10.134  1.00  0.00    -0.387 OA
ATOM     36  H   UNL     1      19.132  -3.370   9.308  1.00  0.00     0.211 HD
ENDBRANCH  30  35
BRANCH  31  37
ATOM     37  C   UNL     1      21.524  -2.990  14.291  1.00  0.00     0.191 C 
BRANCH  37  38
ATOM     38  O   UNL     1      20.907  -3.516  15.430  1.00  0.00    -0.394 OA
ATOM     39  H   UNL     1      19.968  -3.717  15.168  1.00  0.00     0.210 HD
ENDBRANCH  37  38
ENDBRANCH  31  37
BRANCH  32  40
ATOM     40  O   UNL     1      19.709  -4.757  12.791  1.00  0.00    -0.387 OA
ATOM     41  H   UNL     1      20.353  -5.479  12.562  1.00  0.00     0.211 HD
ENDBRANCH  32  40
ENDBRANCH   1  27
TORSDOF 12
ENDMDL
MODEL 4
REMARK VINA RESULT:    -4.238      4.253      6.532
REMARK INTER + INTRA:          -7.960
REMARK INTER:                  -6.543
REMARK INTRA:                  -1.417
REMARK UNBOUND:                -1.741
REMARK SMILES O=c1c(O[C@H]2O[C@H](CO)[C@@H](O)[C@H](O)[C@@H]2O)c(-c2ccc(O)c(O)c2)oc2cc(O)cc(O)c12
REMARK SMILES IDX 4 1 3 2 16 3 25 4 2 5 26 6 1 7 33 8 27 9 31 10 28 11 30 12
REMARK SMILES IDX 17 13 18 14 19 15 20 16 24 17 22 18 21 19 23 21 32 23 29 25
REMARK SMILES IDX 5 27 14 28 6 29 12 30 7 31 10 32 15 33 13 35 8 37 9 38 11 40
REMARK H PARENT 21 20 23 22 32 24 29 26 15 34 13 36 9 39 11 41
REMARK Flexibility Score: inf
ROOT
ATOM      1  O   UNL     1      19.333   0.115  14.328  1.00  0.00    -0.454 OA
ENDROOT
BRANCH   1   2
ATOM      2  C   UNL     1      18.474   0.812  13.467  1.00  0.00     0.214 A 
ATOM      3  C   UNL     1      18.409   0.470  12.104  1.00  0.00     0.180 A 
ATOM      4  O   UNL     1      17.541   1.081  11.307  1.00  0.00    -0.452 OA
ATOM      5  C   UNL     1      17.666   1.861  13.939  1.00  0.00     0.239 A 
ATOM      6  C   UNL     1      16.732   2.051  11.718  1.00  0.00     0.146 A 
ATOM      7  O   UNL     1      17.769   2.232  15.139  1.00  0.00    -0.285 OA
ATOM      8  C   UNL     1      16.767   2.497  13.060  1.00  0.00     0.111 A 
ATOM      9  C   UNL     1      15.848   2.633  10.806  1.00  0.00     0.094 A 
ATOM     10  C   UNL     1      15.908   3.547  13.461  1.00  0.00     0.134 A 
ATOM     11  C   UNL     1      14.994   3.664  11.210  1.00  0.00     0.123 A 
ATOM     12  C   UNL     1      15.030   4.119  12.529  1.00  0.00     0.093 A 
BRANCH   3  13
ATOM     13  C   UNL     1      19.273  -0.578  11.524  1.00  0.00     0.025 A 
ATOM     14  C   UNL     1      20.408  -0.214  10.787  1.00  0.00     0.016 A 
ATOM     15  C   UNL     1      21.242  -1.194  10.240  1.00  0.00     0.051 A 
ATOM     16  C   UNL     1      20.959  -2.548  10.434  1.00  0.00     0.157 A 
ATOM     17  C   UNL     1      18.999  -1.941  11.736  1.00  0.00     0.062 A 
ATOM     18  C   UNL     1      19.830  -2.926  11.183  1.00  0.00     0.158 A 
BRANCH  16  19
ATOM     19  O   UNL     1      21.809  -3.504   9.878  1.00  0.00    -0.504 OA
ATOM     20  H   UNL     1      21.671  -4.497  10.028  1.00  0.00     0.293 HD
ENDBRANCH  16  19
BRANCH  18  21
ATOM     21  O   UNL     1      19.539  -4.275  11.374  1.00  0.00    -0.504 OA
ATOM     22  H   UNL     1      18.926  -4.586  12.119  1.00  0.00     0.293 HD
ENDBRANCH  18  21
ENDBRANCH   3  13
BRANCH  10  23
ATOM     23  O   UNL     1      15.918   4.022  14.772  1.00  0.00    -0.507 OA
ATOM     24  H   UNL     1      16.783   4.214  15.261  1.00  0.00     0.293 HD
ENDBRANCH  10  23
BRANCH  11  25
ATOM     25  O   UNL     1      14.106   4.243  10.307  1.00  0.00    -0.508 OA
ATOM     26  H   UNL     1      14.086   5.244  10.152  1.00  0.00     0.293 HD
ENDBRANCH  11  25
ENDBRANCH   1   2
BRANCH   1  27
ATOM     27  C   UNL     1      20.581   0.645  14.793  1.00  0.00     0.339 C 
ATOM     28  C   UNL     1      21.748   0.113  13.944  1.00  0.00     0.214 C 
ATOM     29  O   UNL     1      20.767   0.362  16.169  1.00  0.00    -0.332 OA
ATOM     30  C   UNL     1      21.951  -1.389  14.194  1.00  0.00     0.180 C 
ATOM     31  C   UNL     1      20.831  -1.033  16.419  1.00  0.00     0.179 C 
ATOM     32  C   UNL     1      22.047  -1.666  15.704  1.00  0.00     0.177 C 
BRANCH  28  33
ATOM     33  O   UNL     1      22.913   0.824  14.274  1.00  0.00    -0.384 OA
ATOM     34  H   UNL     1      23.680   0.207  14.138  1.00  0.00     0.211 HD
ENDBRANCH  28  33
BRANCH  30  35
ATOM     35  O   UNL     1      23.120  -1.819  13.545  1.00  0.00    -0.387 OA
ATOM     36  H   UNL     1      23.874  -1.665  14.176  1.00  0.00     0.211 HD
ENDBRANCH  30  35
BRANCH  31  37
ATOM     37  C   UNL     1      20.907  -1.254  17.932  1.00  0.00     0.191 C 
BRANCH  37  38
ATOM     38  O   UNL     1      20.206  -2.416  18.271  1.00  0.00    -0.394 OA
ATOM     39  H   UNL     1      19.427  -2.120  18.815  1.00  0.00     0.210 HD
ENDBRANCH  37  38
ENDBRANCH  31  37
BRANCH  32  40
ATOM     40  O   UNL     1      22.059  -3.059  15.913  1.00  0.00    -0.387 OA
ATOM     41  H   UNL     1      22.964  -3.297  16.249  1.00  0.00     0.211 HD
ENDBRANCH  32  40
ENDBRANCH   1  27
TORSDOF 12
ENDMDL
MODEL 5
REMARK VINA RESULT:    -4.010      4.445      9.548
REMARK INTER + INTRA:          -7.626
REMARK INTER:                  -6.396
REMARK INTRA:                  -1.230
REMARK UNBOUND:                -1.741
REMARK SMILES O=c1c(O[C@H]2O[C@H](CO)[C@@H](O)[C@H](O)[C@@H]2O)c(-c2ccc(O)c(O)c2)oc2cc(O)cc(O)c12
REMARK SMILES IDX 4 1 3 2 16 3 25 4 2 5 26 6 1 7 33 8 27 9 31 10 28 11 30 12
REMARK SMILES IDX 17 13 18 14 19 15 20 16 24 17 22 18 21 19 23 21 32 23 29 25
REMARK SMILES IDX 5 27 14 28 6 29 12 30 7 31 10 32 15 33 13 35 8 37 9 38 11 40
REMARK H PARENT 21 20 23 22 32 24 29 26 15 34 13 36 9 39 11 41
REMARK Flexibility Score: inf
ROOT
ATOM      1  O   UNL     1      18.861  -0.814  13.113  1.00  0.00    -0.454 OA
ENDROOT
BRANCH   1   2
ATOM      2  C   UNL     1      19.646  -0.801  14.274  1.00  0.00     0.214 A 
ATOM      3  C   UNL     1      19.815   0.393  14.999  1.00  0.00     0.180 A 
ATOM      4  O   UNL     1      20.496   0.387  16.138  1.00  0.00    -0.452 OA
ATOM      5  C   UNL     1      20.280  -1.967  14.737  1.00  0.00     0.239 A 
ATOM      6  C   UNL     1      21.079  -0.699  16.633  1.00  0.00     0.146 A 
ATOM      7  O   UNL     1      20.203  -3.026  14.059  1.00  0.00    -0.285 OA
ATOM      8  C   UNL     1      21.007  -1.932  15.943  1.00  0.00     0.111 A 
ATOM      9  C   UNL     1      21.772  -0.607  17.843  1.00  0.00     0.094 A 
ATOM     10  C   UNL     1      21.657  -3.065  16.486  1.00  0.00     0.134 A 
ATOM     11  C   UNL     1      22.405  -1.733  18.380  1.00  0.00     0.123 A 
ATOM     12  C   UNL     1      22.351  -2.951  17.701  1.00  0.00     0.093 A 
BRANCH   3  13
ATOM     13  C   UNL     1      19.231   1.670  14.539  1.00  0.00     0.025 A 
ATOM     14  C   UNL     1      19.963   2.497  13.676  1.00  0.00     0.016 A 
ATOM     15  C   UNL     1      19.421   3.705  13.224  1.00  0.00     0.051 A 
ATOM     16  C   UNL     1      18.139   4.092  13.617  1.00  0.00     0.157 A 
ATOM     17  C   UNL     1      17.932   2.051  14.919  1.00  0.00     0.062 A 
ATOM     18  C   UNL     1      17.389   3.264  14.471  1.00  0.00     0.158 A 
BRANCH  16  19
ATOM     19  O   UNL     1      17.623   5.301  13.149  1.00  0.00    -0.504 OA
ATOM     20  H   UNL     1      17.741   6.169  13.660  1.00  0.00     0.293 HD
ENDBRANCH  16  19
BRANCH  18  21
ATOM     21  O   UNL     1      16.112   3.648  14.873  1.00  0.00    -0.504 OA
ATOM     22  H   UNL     1      15.941   4.057  15.784  1.00  0.00     0.293 HD
ENDBRANCH  18  21
ENDBRANCH   3  13
BRANCH  10  23
ATOM     23  O   UNL     1      21.619  -4.296  15.833  1.00  0.00    -0.507 OA
ATOM     24  H   UNL     1      21.541  -4.362  14.826  1.00  0.00     0.293 HD
ENDBRANCH  10  23
BRANCH  11  25
ATOM     25  O   UNL     1      23.092  -1.651  19.588  1.00  0.00    -0.508 OA
ATOM     26  H   UNL     1      23.315  -2.479  20.128  1.00  0.00     0.293 HD
ENDBRANCH  11  25
ENDBRANCH   1   2
BRANCH   1  27
ATOM     27  C   UNL     1      19.391  -0.574  11.803  1.00  0.00     0.339 C 
ATOM     28  C   UNL     1      18.607   0.544  11.095  1.00  0.00     0.214 C 
ATOM     29  O   UNL     1      19.401  -1.767  11.037  1.00  0.00    -0.332 OA
ATOM     30  C   UNL     1      17.184   0.070  10.759  1.00  0.00     0.180 C 
ATOM     31  C   UNL     1      18.093  -2.274  10.830  1.00  0.00     0.179 C 
ATOM     32  C   UNL     1      17.236  -1.276  10.018  1.00  0.00     0.177 C 
BRANCH  28  33
ATOM     33  O   UNL     1      19.290   0.908   9.923  1.00  0.00    -0.384 OA
ATOM     34  H   UNL     1      19.714   0.084   9.564  1.00  0.00     0.211 HD
ENDBRANCH  28  33
BRANCH  30  35
ATOM     35  O   UNL     1      16.543   1.037   9.968  1.00  0.00    -0.387 OA
ATOM     36  H   UNL     1      16.185   1.727  10.588  1.00  0.00     0.211 HD
ENDBRANCH  30  35
BRANCH  31  37
ATOM     37  C   UNL     1      18.202  -3.620  10.107  1.00  0.00     0.191 C 
BRANCH  37  38
ATOM     38  O   UNL     1      19.106  -4.443  10.786  1.00  0.00    -0.394 OA
ATOM     39  H   UNL     1      18.781  -4.495  11.725  1.00  0.00     0.210 HD
ENDBRANCH  37  38
ENDBRANCH  31  37
BRANCH  32  40
ATOM     40  O   UNL     1      15.924  -1.769   9.875  1.00  0.00    -0.387 OA
ATOM     41  H   UNL     1      15.324  -1.149  10.367  1.00  0.00     0.211 HD
ENDBRANCH  32  40
ENDBRANCH   1  27
TORSDOF 12
ENDMDL
MODEL 6
REMARK VINA RESULT:    -3.891      3.286      8.949
REMARK INTER + INTRA:          -7.452
REMARK INTER:                  -5.795
REMARK INTRA:                  -1.657
REMARK UNBOUND:                -1.741
REMARK SMILES O=c1c(O[C@H]2O[C@H](CO)[C@@H](O)[C@H](O)[C@@H]2O)c(-c2ccc(O)c(O)c2)oc2cc(O)cc(O)c12
REMARK SMILES IDX 4 1 3 2 16 3 25 4 2 5 26 6 1 7 33 8 27 9 31 10 28 11 30 12
REMARK SMILES IDX 17 13 18 14 19 15 20 16 24 17 22 18 21 19 23 21 32 23 29 25
REMARK SMILES IDX 5 27 14 28 6 29 12 30 7 31 10 32 15 33 13 35 8 37 9 38 11 40
REMARK H PARENT 21 20 23 22 32 24 29 26 15 34 13 36 9 39 11 41
REMARK Flexibility Score: inf
ROOT
ATOM      1  O   UNL     1      18.322   1.306  11.472  1.00  0.00    -0.454 OA
ENDROOT
BRANCH   1   2
ATOM      2  C   UNL     1      19.102   0.180  11.176  1.00  0.00     0.214 A 
ATOM      3  C   UNL     1      20.502   0.236  11.307  1.00  0.00     0.180 A 
ATOM      4  O   UNL     1      21.232  -0.853  11.098  1.00  0.00    -0.452 OA
ATOM      5  C   UNL     1      18.512  -1.021  10.744  1.00  0.00     0.239 A 
ATOM      6  C   UNL     1      20.714  -2.018  10.726  1.00  0.00     0.146 A 
ATOM      7  O   UNL     1      17.268  -1.066  10.546  1.00  0.00    -0.285 OA
ATOM      8  C   UNL     1      19.321  -2.152  10.518  1.00  0.00     0.111 A 
ATOM      9  C   UNL     1      21.563  -3.110  10.535  1.00  0.00     0.094 A 
ATOM     10  C   UNL     1      18.803  -3.401  10.101  1.00  0.00     0.134 A 
ATOM     11  C   UNL     1      21.045  -4.345  10.131  1.00  0.00     0.123 A 
ATOM     12  C   UNL     1      19.674  -4.485   9.911  1.00  0.00     0.093 A 
BRANCH   3  13
ATOM     13  C   UNL     1      21.197   1.480  11.696  1.00  0.00     0.025 A 
ATOM     14  C   UNL     1      21.327   2.522  10.767  1.00  0.00     0.016 A 
ATOM     15  C   UNL     1      21.973   3.710  11.122  1.00  0.00     0.051 A 
ATOM     16  C   UNL     1      22.483   3.877  12.411  1.00  0.00     0.157 A 
ATOM     17  C   UNL     1      21.692   1.655  12.999  1.00  0.00     0.062 A 
ATOM     18  C   UNL     1      22.345   2.844  13.356  1.00  0.00     0.158 A 
BRANCH  16  19
ATOM     19  O   UNL     1      23.121   5.073  12.738  1.00  0.00    -0.504 OA
ATOM     20  H   UNL     1      22.681   5.975  12.587  1.00  0.00     0.293 HD
ENDBRANCH  16  19
BRANCH  18  21
ATOM     21  O   UNL     1      22.858   3.001  14.642  1.00  0.00    -0.504 OA
ATOM     22  H   UNL     1      23.776   3.399  14.804  1.00  0.00     0.293 HD
ENDBRANCH  18  21
ENDBRANCH   3  13
BRANCH  10  23
ATOM     23  O   UNL     1      17.438  -3.572   9.875  1.00  0.00    -0.507 OA
ATOM     24  H   UNL     1      16.879  -2.857   9.427  1.00  0.00     0.293 HD
ENDBRANCH  10  23
BRANCH  11  25
ATOM     25  O   UNL     1      21.885  -5.440   9.945  1.00  0.00    -0.508 OA
ATOM     26  H   UNL     1      22.098  -6.078  10.702  1.00  0.00     0.293 HD
ENDBRANCH  11  25
ENDBRANCH   1   2
BRANCH   1  27
ATOM     27  C   UNL     1      17.869   1.623  12.794  1.00  0.00     0.339 C 
ATOM     28  C   UNL     1      16.346   1.831  12.813  1.00  0.00     0.214 C 
ATOM     29  O   UNL     1      18.555   2.755  13.303  1.00  0.00    -0.332 OA
ATOM     30  C   UNL     1      15.971   3.113  12.053  1.00  0.00     0.180 C 
ATOM     31  C   UNL     1      18.307   3.917  12.528  1.00  0.00     0.179 C 
ATOM     32  C   UNL     1      16.810   4.297  12.567  1.00  0.00     0.177 C 
BRANCH  28  33
ATOM     33  O   UNL     1      15.912   1.910  14.147  1.00  0.00    -0.384 OA
ATOM     34  H   UNL     1      14.972   1.587  14.167  1.00  0.00     0.211 HD
ENDBRANCH  28  33
BRANCH  30  35
ATOM     35  O   UNL     1      14.602   3.377  12.225  1.00  0.00    -0.387 OA
ATOM     36  H   UNL     1      14.533   4.219  12.751  1.00  0.00     0.211 HD
ENDBRANCH  30  35
BRANCH  31  37
ATOM     37  C   UNL     1      19.177   5.056  13.067  1.00  0.00     0.191 C 
BRANCH  37  38
ATOM     38  O   UNL     1      19.353   6.021  12.070  1.00  0.00    -0.394 OA
ATOM     39  H   UNL     1      20.012   6.674  12.431  1.00  0.00     0.210 HD
ENDBRANCH  37  38
ENDBRANCH  31  37
BRANCH  32  40
ATOM     40  O   UNL     1      16.573   5.415  11.743  1.00  0.00    -0.387 OA
ATOM     41  H   UNL     1      15.968   6.024  12.244  1.00  0.00     0.211 HD
ENDBRANCH  32  40
ENDBRANCH   1  27
TORSDOF 12
ENDMDL
MODEL 7
REMARK VINA RESULT:    -3.867      1.437      4.526
REMARK INTER + INTRA:          -7.416
REMARK INTER:                  -6.527
REMARK INTRA:                  -0.888
REMARK UNBOUND:                -1.741
REMARK SMILES O=c1c(O[C@H]2O[C@H](CO)[C@@H](O)[C@H](O)[C@@H]2O)c(-c2ccc(O)c(O)c2)oc2cc(O)cc(O)c12
REMARK SMILES IDX 4 1 3 2 16 3 25 4 2 5 26 6 1 7 33 8 27 9 31 10 28 11 30 12
REMARK SMILES IDX 17 13 18 14 19 15 20 16 24 17 22 18 21 19 23 21 32 23 29 25
REMARK SMILES IDX 5 27 14 28 6 29 12 30 7 31 10 32 15 33 13 35 8 37 9 38 11 40
REMARK H PARENT 21 20 23 22 32 24 29 26 15 34 13 36 9 39 11 41
REMARK Flexibility Score: inf
ROOT
ATOM      1  O   UNL     1      16.968   4.276  10.783  1.00  0.00    -0.454 OA
ENDROOT
BRANCH   1   2
ATOM      2  C   UNL     1      17.081   5.671  10.706  1.00  0.00     0.214 A 
ATOM      3  C   UNL     1      18.347   6.282  10.774  1.00  0.00     0.180 A 
ATOM      4  O   UNL     1      18.458   7.596  10.625  1.00  0.00    -0.452 OA
ATOM      5  C   UNL     1      15.945   6.486  10.562  1.00  0.00     0.239 A 
ATOM      6  C   UNL     1      17.416   8.400  10.449  1.00  0.00     0.146 A 
ATOM      7  O   UNL     1      14.799   5.962  10.577  1.00  0.00    -0.285 OA
ATOM      8  C   UNL     1      16.101   7.879  10.421  1.00  0.00     0.111 A 
ATOM      9  C   UNL     1      17.633   9.772  10.297  1.00  0.00     0.094 A 
ATOM     10  C   UNL     1      15.011   8.765  10.253  1.00  0.00     0.134 A 
ATOM     11  C   UNL     1      16.552  10.643  10.122  1.00  0.00     0.123 A 
ATOM     12  C   UNL     1      15.250  10.139  10.105  1.00  0.00     0.093 A 
BRANCH   3  13
ATOM     13  C   UNL     1      19.579   5.496  10.988  1.00  0.00     0.025 A 
ATOM     14  C   UNL     1      20.338   5.081   9.885  1.00  0.00     0.016 A 
ATOM     15  C   UNL     1      21.513   4.345  10.071  1.00  0.00     0.051 A 
ATOM     16  C   UNL     1      21.949   4.027  11.358  1.00  0.00     0.157 A 
ATOM     17  C   UNL     1      20.028   5.193  12.285  1.00  0.00     0.062 A 
ATOM     18  C   UNL     1      21.203   4.450  12.473  1.00  0.00     0.158 A 
BRANCH  16  19
ATOM     19  O   UNL     1      23.125   3.294  11.513  1.00  0.00    -0.504 OA
ATOM     20  H   UNL     1      23.226   2.355  11.142  1.00  0.00     0.293 HD
ENDBRANCH  16  19
BRANCH  18  21
ATOM     21  O   UNL     1      21.628   4.129  13.761  1.00  0.00    -0.504 OA
ATOM     22  H   UNL     1      22.483   4.511  14.149  1.00  0.00     0.293 HD
ENDBRANCH  18  21
ENDBRANCH   3  13
BRANCH  10  23
ATOM     23  O   UNL     1      13.699   8.293  10.230  1.00  0.00    -0.507 OA
ATOM     24  H   UNL     1      13.000   8.695   9.618  1.00  0.00     0.293 HD
ENDBRANCH  10  23
BRANCH  11  25
ATOM     25  O   UNL     1      16.762  12.010   9.963  1.00  0.00    -0.508 OA
ATOM     26  H   UNL     1      16.542  12.482   9.094  1.00  0.00     0.293 HD
ENDBRANCH  11  25
ENDBRANCH   1   2
BRANCH   1  27
ATOM     27  C   UNL     1      15.886   3.611  11.447  1.00  0.00     0.339 C 
ATOM     28  C   UNL     1      16.031   3.723  12.973  1.00  0.00     0.214 C 
ATOM     29  O   UNL     1      15.795   2.258  11.031  1.00  0.00    -0.332 OA
ATOM     30  C   UNL     1      17.232   2.897  13.459  1.00  0.00     0.180 C 
ATOM     31  C   UNL     1      16.958   1.521  11.371  1.00  0.00     0.179 C 
ATOM     32  C   UNL     1      17.147   1.465  12.903  1.00  0.00     0.177 C 
BRANCH  28  33
ATOM     33  O   UNL     1      14.849   3.269  13.580  1.00  0.00    -0.384 OA
ATOM     34  H   UNL     1      14.880   2.275  13.571  1.00  0.00     0.211 HD
ENDBRANCH  28  33
BRANCH  30  35
ATOM     35  O   UNL     1      17.248   2.873  14.863  1.00  0.00    -0.387 OA
ATOM     36  H   UNL     1      16.320   2.669  15.160  1.00  0.00     0.211 HD
ENDBRANCH  30  35
BRANCH  31  37
ATOM     37  C   UNL     1      16.832   0.114  10.780  1.00  0.00     0.191 C 
BRANCH  37  38
ATOM     38  O   UNL     1      16.372  -0.767  11.765  1.00  0.00    -0.394 OA
ATOM     39  H   UNL     1      16.643  -1.677  11.468  1.00  0.00     0.210 HD
ENDBRANCH  37  38
ENDBRANCH  31  37
BRANCH  32  40
ATOM     40  O   UNL     1      18.339   0.782  13.219  1.00  0.00    -0.387 OA
ATOM     41  H   UNL     1      18.438   0.808  14.207  1.00  0.00     0.211 HD
ENDBRANCH  32  40
ENDBRANCH   1  27
TORSDOF 12
ENDMDL
MODEL 8
REMARK VINA RESULT:    -3.465      4.706      7.327
REMARK INTER + INTRA:          -6.826
REMARK INTER:                  -5.282
REMARK INTRA:                  -1.544
REMARK UNBOUND:                -1.741
REMARK SMILES O=c1c(O[C@H]2O[C@H](CO)[C@@H](O)[C@H](O)[C@@H]2O)c(-c2ccc(O)c(O)c2)oc2cc(O)cc(O)c12
REMARK SMILES IDX 4 1 3 2 16 3 25 4 2 5 26 6 1 7 33 8 27 9 31 10 28 11 30 12
REMARK SMILES IDX 17 13 18 14 19 15 20 16 24 17 22 18 21 19 23 21 32 23 29 25
REMARK SMILES IDX 5 27 14 28 6 29 12 30 7 31 10 32 15 33 13 35 8 37 9 38 11 40
REMARK H PARENT 21 20 23 22 32 24 29 26 15 34 13 36 9 39 11 41
REMARK Flexibility Score: inf
ROOT
ATOM      1  O   UNL     1      20.056  -0.312  14.580  1.00  0.00    -0.454 OA
ENDROOT
BRANCH   1   2
ATOM      2  C   UNL     1      19.066   0.376  13.865  1.00  0.00     0.214 A 
ATOM      3  C   UNL     1      18.777   0.016  12.536  1.00  0.00     0.180 A 
ATOM      4  O   UNL     1      17.789   0.618  11.885  1.00  0.00    -0.452 OA
ATOM      5  C   UNL     1      18.346   1.432  14.450  1.00  0.00     0.239 A 
ATOM      6  C   UNL     1      17.057   1.594  12.412  1.00  0.00     0.146 A 
ATOM      7  O   UNL     1      18.645   1.818  15.612  1.00  0.00    -0.285 OA
ATOM      8  C   UNL     1      17.313   2.057  13.724  1.00  0.00     0.111 A 
ATOM      9  C   UNL     1      16.034   2.164  11.651  1.00  0.00     0.094 A 
ATOM     10  C   UNL     1      16.531   3.112  14.248  1.00  0.00     0.134 A 
ATOM     11  C   UNL     1      15.257   3.202  12.177  1.00  0.00     0.123 A 
ATOM     12  C   UNL     1      15.510   3.674  13.466  1.00  0.00     0.093 A 
BRANCH   3  13
ATOM     13  C   UNL     1      19.534  -1.041  11.834  1.00  0.00     0.025 A 
ATOM     14  C   UNL     1      20.867  -0.811  11.465  1.00  0.00     0.016 A 
ATOM     15  C   UNL     1      21.600  -1.805  10.809  1.00  0.00     0.051 A 
ATOM     16  C   UNL     1      21.017  -3.042  10.528  1.00  0.00     0.157 A 
ATOM     17  C   UNL     1      18.953  -2.293  11.569  1.00  0.00     0.062 A 
ATOM     18  C   UNL     1      19.685  -3.289  10.907  1.00  0.00     0.158 A 
BRANCH  16  19
ATOM     19  O   UNL     1      21.773  -4.015   9.875  1.00  0.00    -0.504 OA
ATOM     20  H   UNL     1      22.740  -4.198  10.120  1.00  0.00     0.293 HD
ENDBRANCH  16  19
BRANCH  18  21
ATOM     21  O   UNL     1      19.094  -4.519  10.623  1.00  0.00    -0.504 OA
ATOM     22  H   UNL     1      19.644  -5.365  10.533  1.00  0.00     0.293 HD
ENDBRANCH  18  21
ENDBRANCH   3  13
BRANCH  10  23
ATOM     23  O   UNL     1      16.757   3.605  15.533  1.00  0.00    -0.507 OA
ATOM     24  H   UNL     1      17.598   3.377  16.049  1.00  0.00     0.293 HD
ENDBRANCH  10  23
BRANCH  11  25
ATOM     25  O   UNL     1      14.232   3.770  11.427  1.00  0.00    -0.508 OA
ATOM     26  H   UNL     1      14.017   3.445  10.491  1.00  0.00     0.293 HD
ENDBRANCH  11  25
ENDBRANCH   1   2
BRANCH   1  27
ATOM     27  C   UNL     1      19.773  -1.143  15.713  1.00  0.00     0.339 C 
ATOM     28  C   UNL     1      20.869  -0.998  16.782  1.00  0.00     0.214 C 
ATOM     29  O   UNL     1      19.608  -2.494  15.318  1.00  0.00    -0.332 OA
ATOM     30  C   UNL     1      22.187  -1.611  16.283  1.00  0.00     0.180 C 
ATOM     31  C   UNL     1      20.790  -3.026  14.743  1.00  0.00     0.179 C 
ATOM     32  C   UNL     1      21.945  -3.041  15.770  1.00  0.00     0.177 C 
BRANCH  28  33
ATOM     33  O   UNL     1      20.448  -1.639  17.958  1.00  0.00    -0.384 OA
ATOM     34  H   UNL     1      21.240  -1.702  18.556  1.00  0.00     0.211 HD
ENDBRANCH  28  33
BRANCH  30  35
ATOM     35  O   UNL     1      23.124  -1.623  17.330  1.00  0.00    -0.387 OA
ATOM     36  H   UNL     1      23.394  -2.571  17.466  1.00  0.00     0.211 HD
ENDBRANCH  30  35
BRANCH  31  37
ATOM     37  C   UNL     1      20.490  -4.438  14.232  1.00  0.00     0.191 C 
BRANCH  37  38
ATOM     38  O   UNL     1      21.520  -4.858  13.384  1.00  0.00    -0.394 OA
ATOM     39  H   UNL     1      22.111  -5.439  13.935  1.00  0.00     0.210 HD
ENDBRANCH  37  38
ENDBRANCH  31  37
BRANCH  32  40
ATOM     40  O   UNL     1      23.125  -3.514  15.164  1.00  0.00    -0.387 OA
ATOM     41  H   UNL     1      23.805  -3.609  15.882  1.00  0.00     0.211 HD
ENDBRANCH  32  40
ENDBRANCH   1  27
TORSDOF 12
ENDMDL
