MODEL 1
REMARK VINA RESULT:    -4.212      0.000      0.000
REMARK INTER + INTRA:          -9.344
REMARK INTER:                  -7.660
REMARK INTRA:                  -1.684
REMARK UNBOUND:                -1.684
REMARK SMILES CCCCCCCCCCCCCCCC(=O)[O-]
REMARK SMILES IDX 9 1 10 2 11 3 12 4 13 5 14 6 15 7 16 8 17 9 18 10 8 11 7 12
REMARK SMILES IDX 6 13 5 14 4 15 3 16 2 17 1 18
REMARK H PARENT
REMARK Flexibility Score: inf
ROOT
ATOM      1  C   UNL     1      75.868  80.252  79.361  1.00  0.00     0.000 C 
ENDROOT
BRANCH   1   2
ATOM      2  C   UNL     1      75.098  81.274  78.499  1.00  0.00     0.000 C 
BRANCH   2   3
ATOM      3  C   UNL     1      74.021  80.604  77.626  1.00  0.00     0.000 C 
BRANCH   3   4
ATOM      4  C   UNL     1      74.521  80.275  76.211  1.00  0.00     0.000 C 
BRANCH   4   5
ATOM      5  C   UNL     1      74.351  81.451  75.234  1.00  0.00     0.000 C 
BRANCH   5   6
ATOM      6  C   UNL     1      75.681  82.164  74.926  1.00  0.00     0.006 C 
BRANCH   6   7
ATOM      7  C   UNL     1      75.867  83.504  75.656  1.00  0.00     0.053 C 
BRANCH   7   8
ATOM      8  C   UNL     1      76.867  84.382  74.968  1.00  0.00     0.041 C 
ATOM      9  O   UNL     1      76.612  85.599  74.770  1.00  0.00    -0.550 OA
ATOM     10  O   UNL     1      78.094  83.862  74.574  1.00  0.00    -0.550 OA
ENDBRANCH   7   8
ENDBRANCH   6   7
ENDBRANCH   5   6
ENDBRANCH   4   5
ENDBRANCH   3   4
ENDBRANCH   2   3
ENDBRANCH   1   2
BRANCH   1  11
ATOM     11  C   UNL     1      77.386  80.258  79.111  1.00  0.00     0.000 C 
BRANCH  11  12
ATOM     12  C   UNL     1      77.876  81.554  78.447  1.00  0.00    -0.000 C 
BRANCH  12  13
ATOM     13  C   UNL     1      78.508  81.314  77.065  1.00  0.00    -0.000 C 
BRANCH  13  14
ATOM     14  C   UNL     1      79.943  81.869  76.940  1.00  0.00    -0.000 C 
BRANCH  14  15
ATOM     15  C   UNL     1      80.999  80.750  76.923  1.00  0.00    -0.000 C 
BRANCH  15  16
ATOM     16  C   UNL     1      82.080  80.931  78.004  1.00  0.00    -0.000 C 
BRANCH  16  17
ATOM     17  C   UNL     1      81.551  80.952  79.448  1.00  0.00    -0.003 C 
ATOM     18  C   UNL     1      82.644  81.216  80.482  1.00  0.00     0.004 C 
ENDBRANCH  16  17
ENDBRANCH  15  16
ENDBRANCH  14  15
ENDBRANCH  13  14
ENDBRANCH  12  13
ENDBRANCH  11  12
ENDBRANCH   1  11
TORSDOF 14
ENDMDL
MODEL 2
REMARK VINA RESULT:    -4.188      2.294      5.715
REMARK INTER + INTRA:          -9.299
REMARK INTER:                  -6.716
REMARK INTRA:                  -2.582
REMARK UNBOUND:                -1.684
REMARK SMILES CCCCCCCCCCCCCCCC(=O)[O-]
REMARK SMILES IDX 9 1 10 2 11 3 12 4 13 5 14 6 15 7 16 8 17 9 18 10 8 11 7 12
REMARK SMILES IDX 6 13 5 14 4 15 3 16 2 17 1 18
REMARK H PARENT
REMARK Flexibility Score: inf
ROOT
ATOM      1  C   UNL     1      75.048  80.135  78.702  1.00  0.00     0.000 C 
ENDROOT
BRANCH   1   2
ATOM      2  C   UNL     1      75.131  81.673  78.792  1.00  0.00     0.000 C 
BRANCH   2   3
ATOM      3  C   UNL     1      76.188  82.255  77.837  1.00  0.00     0.000 C 
BRANCH   3   4
ATOM      4  C   UNL     1      77.567  81.595  77.999  1.00  0.00     0.000 C 
BRANCH   4   5
ATOM      5  C   UNL     1      78.373  81.579  76.689  1.00  0.00     0.000 C 
BRANCH   5   6
ATOM      6  C   UNL     1      77.497  81.287  75.456  1.00  0.00     0.006 C 
BRANCH   6   7
ATOM      7  C   UNL     1      77.692  82.272  74.292  1.00  0.00     0.053 C 
BRANCH   7   8
ATOM      8  C   UNL     1      77.386  83.682  74.694  1.00  0.00     0.041 C 
ATOM      9  O   UNL     1      78.322  84.492  74.928  1.00  0.00    -0.550 OA
ATOM     10  O   UNL     1      76.067  84.110  74.777  1.00  0.00    -0.550 OA
ENDBRANCH   7   8
ENDBRANCH   6   7
ENDBRANCH   5   6
ENDBRANCH   4   5
ENDBRANCH   3   4
ENDBRANCH   2   3
ENDBRANCH   1   2
BRANCH   1  11
ATOM     11  C   UNL     1      73.958  79.634  77.740  1.00  0.00     0.000 C 
BRANCH  11  12
ATOM     12  C   UNL     1      74.521  79.178  76.385  1.00  0.00    -0.000 C 
BRANCH  12  13
ATOM     13  C   UNL     1      73.700  79.695  75.192  1.00  0.00    -0.000 C 
BRANCH  13  14
ATOM     14  C   UNL     1      74.069  81.132  74.766  1.00  0.00    -0.000 C 
BRANCH  14  15
ATOM     15  C   UNL     1      72.868  82.090  74.851  1.00  0.00    -0.000 C 
BRANCH  15  16
ATOM     16  C   UNL     1      72.927  83.017  76.078  1.00  0.00    -0.000 C 
BRANCH  16  17
ATOM     17  C   UNL     1      71.891  82.704  77.172  1.00  0.00    -0.003 C 
ATOM     18  C   UNL     1      70.746  81.822  76.677  1.00  0.00     0.004 C 
ENDBRANCH  16  17
ENDBRANCH  15  16
ENDBRANCH  14  15
ENDBRANCH  13  14
ENDBRANCH  12  13
ENDBRANCH  11  12
ENDBRANCH   1  11
TORSDOF 14
ENDMDL
MODEL 3
REMARK VINA RESULT:    -4.074      1.551      4.818
REMARK INTER + INTRA:          -9.092
REMARK INTER:                  -7.170
REMARK INTRA:                  -1.923
REMARK UNBOUND:                -1.684
REMARK SMILES CCCCCCCCCCCCCCCC(=O)[O-]
REMARK SMILES IDX 9 1 10 2 11 3 12 4 13 5 14 6 15 7 16 8 17 9 18 10 8 11 7 12
REMARK SMILES IDX 6 13 5 14 4 15 3 16 2 17 1 18
REMARK H PARENT
REMARK Flexibility Score: inf
ROOT
ATOM      1  C   UNL     1      80.902  81.019  78.217  1.00  0.00     0.000 C 
ENDROOT
BRANCH   1   2
ATOM      2  C   UNL     1      81.531  81.478  76.885  1.00  0.00     0.000 C 
BRANCH   2   3
ATOM      3  C   UNL     1      80.790  82.683  76.276  1.00  0.00     0.000 C 
BRANCH   3   4
ATOM      4  C   UNL     1      80.355  82.442  74.822  1.00  0.00     0.000 C 
BRANCH   4   5
ATOM      5  C   UNL     1      79.062  81.614  74.721  1.00  0.00     0.000 C 
BRANCH   5   6
ATOM      6  C   UNL     1      77.962  82.327  73.913  1.00  0.00     0.006 C 
BRANCH   6   7
ATOM      7  C   UNL     1      76.664  82.584  74.697  1.00  0.00     0.053 C 
BRANCH   7   8
ATOM      8  C   UNL     1      76.516  84.025  75.078  1.00  0.00     0.041 C 
ATOM      9  O   UNL     1      77.411  84.856  74.775  1.00  0.00    -0.550 OA
ATOM     10  O   UNL     1      75.373  84.454  75.742  1.00  0.00    -0.550 OA
ENDBRANCH   7   8
ENDBRANCH   6   7
ENDBRANCH   5   6
ENDBRANCH   4   5
ENDBRANCH   3   4
ENDBRANCH   2   3
ENDBRANCH   1   2
BRANCH   1  11
ATOM     11  C   UNL     1      79.720  80.051  78.037  1.00  0.00     0.000 C 
BRANCH  11  12
ATOM     12  C   UNL     1      78.457  80.507  78.783  1.00  0.00    -0.000 C 
BRANCH  12  13
ATOM     13  C   UNL     1      77.873  81.817  78.224  1.00  0.00    -0.000 C 
BRANCH  13  14
ATOM     14  C   UNL     1      76.333  81.889  78.307  1.00  0.00    -0.000 C 
BRANCH  14  15
ATOM     15  C   UNL     1      75.665  80.584  77.841  1.00  0.00    -0.000 C 
BRANCH  15  16
ATOM     16  C   UNL     1      74.577  80.089  78.811  1.00  0.00    -0.000 C 
BRANCH  16  17
ATOM     17  C   UNL     1      75.057  79.059  79.848  1.00  0.00    -0.003 C 
ATOM     18  C   UNL     1      75.475  79.694  81.173  1.00  0.00     0.004 C 
ENDBRANCH  16  17
ENDBRANCH  15  16
ENDBRANCH  14  15
ENDBRANCH  13  14
ENDBRANCH  12  13
ENDBRANCH  11  12
ENDBRANCH   1  11
TORSDOF 14
ENDMDL
MODEL 4
REMARK VINA RESULT:    -4.013      1.575      2.953
REMARK INTER + INTRA:          -8.981
REMARK INTER:                  -6.774
REMARK INTRA:                  -2.207
REMARK UNBOUND:                -1.684
REMARK SMILES CCCCCCCCCCCCCCCC(=O)[O-]
REMARK SMILES IDX 9 1 10 2 11 3 12 4 13 5 14 6 15 7 16 8 17 9 18 10 8 11 7 12
REMARK SMILES IDX 6 13 5 14 4 15 3 16 2 17 1 18
REMARK H PARENT
REMARK Flexibility Score: inf
ROOT
ATOM      1  C   UNL     1      77.850  78.983  77.491  1.00  0.00     0.000 C 
ENDROOT
BRANCH   1   2
ATOM      2  C   UNL     1      77.134  79.191  78.841  1.00  0.00     0.000 C 
BRANCH   2   3
ATOM      3  C   UNL     1      75.701  79.724  78.663  1.00  0.00     0.000 C 
BRANCH   3   4
ATOM      4  C   UNL     1      75.544  81.179  79.132  1.00  0.00     0.000 C 
BRANCH   4   5
ATOM      5  C   UNL     1      75.695  82.191  77.983  1.00  0.00     0.000 C 
BRANCH   5   6
ATOM      6  C   UNL     1      75.313  81.597  76.614  1.00  0.00     0.006 C 
BRANCH   6   7
ATOM      7  C   UNL     1      76.105  82.172  75.429  1.00  0.00     0.053 C 
BRANCH   7   8
ATOM      8  C   UNL     1      75.533  83.471  74.951  1.00  0.00     0.041 C 
ATOM      9  O   UNL     1      74.325  83.543  74.604  1.00  0.00    -0.550 OA
ATOM     10  O   UNL     1      76.328  84.610  74.919  1.00  0.00    -0.550 OA
ENDBRANCH   7   8
ENDBRANCH   6   7
ENDBRANCH   5   6
ENDBRANCH   4   5
ENDBRANCH   3   4
ENDBRANCH   2   3
ENDBRANCH   1   2
BRANCH   1  11
ATOM     11  C   UNL     1      78.848  80.102  77.146  1.00  0.00     0.000 C 
BRANCH  11  12
ATOM     12  C   UNL     1      79.219  80.965  78.362  1.00  0.00    -0.000 C 
BRANCH  12  13
ATOM     13  C   UNL     1      80.731  80.976  78.647  1.00  0.00    -0.000 C 
BRANCH  13  14
ATOM     14  C   UNL     1      81.584  80.461  77.468  1.00  0.00    -0.000 C 
BRANCH  14  15
ATOM     15  C   UNL     1      82.464  81.568  76.861  1.00  0.00    -0.000 C 
BRANCH  15  16
ATOM     16  C   UNL     1      81.880  82.152  75.562  1.00  0.00    -0.000 C 
BRANCH  16  17
ATOM     17  C   UNL     1      80.893  83.315  75.764  1.00  0.00    -0.003 C 
ATOM     18  C   UNL     1      79.563  83.102  75.043  1.00  0.00     0.004 C 
ENDBRANCH  16  17
ENDBRANCH  15  16
ENDBRANCH  14  15
ENDBRANCH  13  14
ENDBRANCH  12  13
ENDBRANCH  11  12
ENDBRANCH   1  11
TORSDOF 14
ENDMDL
MODEL 5
REMARK VINA RESULT:    -3.992      1.824      4.999
REMARK INTER + INTRA:          -8.943
REMARK INTER:                  -6.826
REMARK INTRA:                  -2.117
REMARK UNBOUND:                -1.684
REMARK SMILES CCCCCCCCCCCCCCCC(=O)[O-]
REMARK SMILES IDX 9 1 10 2 11 3 12 4 13 5 14 6 15 7 16 8 17 9 18 10 8 11 7 12
REMARK SMILES IDX 6 13 5 14 4 15 3 16 2 17 1 18
REMARK H PARENT
REMARK Flexibility Score: inf
ROOT
ATOM      1  C   UNL     1      78.270  80.066  77.668  1.00  0.00     0.000 C 
ENDROOT
BRANCH   1   2
ATOM      2  C   UNL     1      79.160  81.013  78.499  1.00  0.00     0.000 C 
BRANCH   2   3
ATOM      3  C   UNL     1      80.659  80.787  78.230  1.00  0.00     0.000 C 
BRANCH   3   4
ATOM      4  C   UNL     1      81.225  81.743  77.168  1.00  0.00     0.000 C 
BRANCH   4   5
ATOM      5  C   UNL     1      81.196  81.140  75.754  1.00  0.00     0.000 C 
BRANCH   5   6
ATOM      6  C   UNL     1      80.508  82.061  74.729  1.00  0.00     0.006 C 
BRANCH   6   7
ATOM      7  C   UNL     1      79.708  83.217  75.350  1.00  0.00     0.053 C 
BRANCH   7   8
ATOM      8  C   UNL     1      78.460  83.514  74.576  1.00  0.00     0.041 C 
ATOM      9  O   UNL     1      78.087  82.742  73.655  1.00  0.00    -0.550 OA
ATOM     10  O   UNL     1      77.694  84.628  74.895  1.00  0.00    -0.550 OA
ENDBRANCH   7   8
ENDBRANCH   6   7
ENDBRANCH   5   6
ENDBRANCH   4   5
ENDBRANCH   3   4
ENDBRANCH   2   3
ENDBRANCH   1   2
BRANCH   1  11
ATOM     11  C   UNL     1      77.200  80.798  76.841  1.00  0.00     0.000 C 
BRANCH  11  12
ATOM     12  C   UNL     1      76.644  82.041  77.552  1.00  0.00    -0.000 C 
BRANCH  12  13
ATOM     13  C   UNL     1      75.531  81.705  78.559  1.00  0.00    -0.000 C 
BRANCH  13  14
ATOM     14  C   UNL     1      74.665  80.498  78.140  1.00  0.00    -0.000 C 
BRANCH  14  15
ATOM     15  C   UNL     1      74.721  79.356  79.169  1.00  0.00    -0.000 C 
BRANCH  15  16
ATOM     16  C   UNL     1      75.374  79.779  80.497  1.00  0.00    -0.000 C 
BRANCH  16  17
ATOM     17  C   UNL     1      76.216  78.686  81.179  1.00  0.00    -0.003 C 
ATOM     18  C   UNL     1      76.917  77.764  80.183  1.00  0.00     0.004 C 
ENDBRANCH  16  17
ENDBRANCH  15  16
ENDBRANCH  14  15
ENDBRANCH  13  14
ENDBRANCH  12  13
ENDBRANCH  11  12
ENDBRANCH   1  11
TORSDOF 14
ENDMDL
MODEL 6
REMARK VINA RESULT:    -3.977      1.695      5.445
REMARK INTER + INTRA:          -8.915
REMARK INTER:                  -7.287
REMARK INTRA:                  -1.628
REMARK UNBOUND:                -1.684
REMARK SMILES CCCCCCCCCCCCCCCC(=O)[O-]
REMARK SMILES IDX 9 1 10 2 11 3 12 4 13 5 14 6 15 7 16 8 17 9 18 10 8 11 7 12
REMARK SMILES IDX 6 13 5 14 4 15 3 16 2 17 1 18
REMARK H PARENT
REMARK Flexibility Score: inf
ROOT
ATOM      1  C   UNL     1      80.146  81.267  77.620  1.00  0.00     0.000 C 
ENDROOT
BRANCH   1   2
ATOM      2  C   UNL     1      80.488  82.316  76.541  1.00  0.00     0.000 C 
BRANCH   2   3
ATOM      3  C   UNL     1      80.230  81.790  75.117  1.00  0.00     0.000 C 
BRANCH   3   4
ATOM      4  C   UNL     1      79.403  82.764  74.264  1.00  0.00     0.000 C 
BRANCH   4   5
ATOM      5  C   UNL     1      78.154  82.103  73.655  1.00  0.00     0.000 C 
BRANCH   5   6
ATOM      6  C   UNL     1      77.094  81.750  74.714  1.00  0.00     0.006 C 
BRANCH   6   7
ATOM      7  C   UNL     1      76.774  82.887  75.698  1.00  0.00     0.053 C 
BRANCH   7   8
ATOM      8  C   UNL     1      76.078  84.031  75.025  1.00  0.00     0.041 C 
ATOM      9  O   UNL     1      76.671  85.130  74.869  1.00  0.00    -0.550 OA
ATOM     10  O   UNL     1      74.786  83.870  74.542  1.00  0.00    -0.550 OA
ENDBRANCH   7   8
ENDBRANCH   6   7
ENDBRANCH   5   6
ENDBRANCH   4   5
ENDBRANCH   3   4
ENDBRANCH   2   3
ENDBRANCH   1   2
BRANCH   1  11
ATOM     11  C   UNL     1      78.664  81.275  78.035  1.00  0.00     0.000 C 
BRANCH  11  12
ATOM     12  C   UNL     1      78.085  79.862  78.203  1.00  0.00    -0.000 C 
BRANCH  12  13
ATOM     13  C   UNL     1      76.562  79.811  77.988  1.00  0.00    -0.000 C 
BRANCH  13  14
ATOM     14  C   UNL     1      75.765  80.612  79.040  1.00  0.00    -0.000 C 
BRANCH  14  15
ATOM     15  C   UNL     1      74.945  81.749  78.406  1.00  0.00    -0.000 C 
BRANCH  15  16
ATOM     16  C   UNL     1      73.743  81.239  77.592  1.00  0.00    -0.000 C 
BRANCH  16  17
ATOM     17  C   UNL     1      72.982  82.327  76.814  1.00  0.00    -0.003 C 
ATOM     18  C   UNL     1      71.529  82.475  77.260  1.00  0.00     0.004 C 
ENDBRANCH  16  17
ENDBRANCH  15  16
ENDBRANCH  14  15
ENDBRANCH  13  14
ENDBRANCH  12  13
ENDBRANCH  11  12
ENDBRANCH   1  11
TORSDOF 14
ENDMDL
MODEL 7
REMARK VINA RESULT:    -3.902      1.114      2.271
REMARK INTER + INTRA:          -8.780
REMARK INTER:                  -6.956
REMARK INTRA:                  -1.823
REMARK UNBOUND:                -1.684
REMARK SMILES CCCCCCCCCCCCCCCC(=O)[O-]
REMARK SMILES IDX 9 1 10 2 11 3 12 4 13 5 14 6 15 7 16 8 17 9 18 10 8 11 7 12
REMARK SMILES IDX 6 13 5 14 4 15 3 16 2 17 1 18
REMARK H PARENT
REMARK Flexibility Score: inf
ROOT
ATOM      1  C   UNL     1      74.201  79.959  77.269  1.00  0.00     0.000 C 
ENDROOT
BRANCH   1   2
ATOM      2  C   UNL     1      73.118  81.041  77.076  1.00  0.00     0.000 C 
BRANCH   2   3
ATOM      3  C   UNL     1      72.810  81.297  75.590  1.00  0.00     0.000 C 
BRANCH   3   4
ATOM      4  C   UNL     1      74.038  81.781  74.801  1.00  0.00     0.000 C 
BRANCH   4   5
ATOM      5  C   UNL     1      74.293  83.288  74.970  1.00  0.00     0.000 C 
BRANCH   5   6
ATOM      6  C   UNL     1      75.784  83.619  75.170  1.00  0.00     0.006 C 
BRANCH   6   7
ATOM      7  C   UNL     1      76.745  82.489  74.768  1.00  0.00     0.053 C 
BRANCH   7   8
ATOM      8  C   UNL     1      78.012  83.018  74.169  1.00  0.00     0.041 C 
ATOM      9  O   UNL     1      78.445  82.547  73.085  1.00  0.00    -0.550 OA
ATOM     10  O   UNL     1      78.697  84.053  74.794  1.00  0.00    -0.550 OA
ENDBRANCH   7   8
ENDBRANCH   6   7
ENDBRANCH   5   6
ENDBRANCH   4   5
ENDBRANCH   3   4
ENDBRANCH   2   3
ENDBRANCH   1   2
BRANCH   1  11
ATOM     11  C   UNL     1      75.081  80.187  78.510  1.00  0.00     0.000 C 
BRANCH  11  12
ATOM     12  C   UNL     1      75.362  81.673  78.777  1.00  0.00    -0.000 C 
BRANCH  12  13
ATOM     13  C   UNL     1      76.786  82.094  78.376  1.00  0.00    -0.000 C 
BRANCH  13  14
ATOM     14  C   UNL     1      77.840  80.988  78.598  1.00  0.00    -0.000 C 
BRANCH  14  15
ATOM     15  C   UNL     1      78.731  80.777  77.361  1.00  0.00    -0.000 C 
BRANCH  15  16
ATOM     16  C   UNL     1      80.012  81.631  77.394  1.00  0.00    -0.000 C 
BRANCH  16  17
ATOM     17  C   UNL     1      81.271  80.886  77.871  1.00  0.00    -0.003 C 
ATOM     18  C   UNL     1      81.479  80.971  79.383  1.00  0.00     0.004 C 
ENDBRANCH  16  17
ENDBRANCH  15  16
ENDBRANCH  14  15
ENDBRANCH  13  14
ENDBRANCH  12  13
ENDBRANCH  11  12
ENDBRANCH   1  11
TORSDOF 14
ENDMDL
MODEL 8
REMARK VINA RESULT:    -3.887      1.960      5.533
REMARK INTER + INTRA:          -8.752
REMARK INTER:                  -6.763
REMARK INTRA:                  -1.989
REMARK UNBOUND:                -1.684
REMARK SMILES CCCCCCCCCCCCCCCC(=O)[O-]
REMARK SMILES IDX 9 1 10 2 11 3 12 4 13 5 14 6 15 7 16 8 17 9 18 10 8 11 7 12
REMARK SMILES IDX 6 13 5 14 4 15 3 16 2 17 1 18
REMARK H PARENT
REMARK Flexibility Score: inf
ROOT
ATOM      1  C   UNL     1      76.302  81.717  78.304  1.00  0.00     0.000 C 
ENDROOT
BRANCH   1   2
ATOM      2  C   UNL     1      77.772  81.875  78.746  1.00  0.00     0.000 C 
BRANCH   2   3
ATOM      3  C   UNL     1      78.748  81.183  77.777  1.00  0.00     0.000 C 
BRANCH   3   4
ATOM      4  C   UNL     1      79.265  82.126  76.679  1.00  0.00     0.000 C 
BRANCH   4   5
ATOM      5  C   UNL     1      78.965  81.606  75.263  1.00  0.00     0.000 C 
BRANCH   5   6
ATOM      6  C   UNL     1      78.213  82.635  74.399  1.00  0.00     0.006 C 
BRANCH   6   7
ATOM      7  C   UNL     1      76.705  82.725  74.686  1.00  0.00     0.053 C 
BRANCH   7   8
ATOM      8  C   UNL     1      76.309  84.083  75.179  1.00  0.00     0.041 C 
ATOM      9  O   UNL     1      76.929  85.106  74.785  1.00  0.00    -0.550 OA
ATOM     10  O   UNL     1      75.235  84.220  76.049  1.00  0.00    -0.550 OA
ENDBRANCH   7   8
ENDBRANCH   6   7
ENDBRANCH   5   6
ENDBRANCH   4   5
ENDBRANCH   3   4
ENDBRANCH   2   3
ENDBRANCH   1   2
BRANCH   1  11
ATOM     11  C   UNL     1      75.552  80.604  79.056  1.00  0.00     0.000 C 
BRANCH  11  12
ATOM     12  C   UNL     1      75.263  79.379  78.175  1.00  0.00    -0.000 C 
BRANCH  12  13
ATOM     13  C   UNL     1      75.656  79.597  76.703  1.00  0.00    -0.000 C 
BRANCH  13  14
ATOM     14  C   UNL     1      74.470  79.464  75.724  1.00  0.00    -0.000 C 
BRANCH  14  15
ATOM     15  C   UNL     1      73.121  79.358  76.455  1.00  0.00    -0.000 C 
BRANCH  15  16
ATOM     16  C   UNL     1      72.191  80.551  76.172  1.00  0.00    -0.000 C 
BRANCH  16  17
ATOM     17  C   UNL     1      72.715  81.910  76.669  1.00  0.00    -0.003 C 
ATOM     18  C   UNL     1      71.631  82.768  77.318  1.00  0.00     0.004 C 
ENDBRANCH  16  17
ENDBRANCH  15  16
ENDBRANCH  14  15
ENDBRANCH  13  14
ENDBRANCH  12  13
ENDBRANCH  11  12
ENDBRANCH   1  11
TORSDOF 14
ENDMDL
MODEL 9
REMARK VINA RESULT:    -3.833      2.791      4.820
REMARK INTER + INTRA:          -8.653
REMARK INTER:                  -6.462
REMARK INTRA:                  -2.191
REMARK UNBOUND:                -1.684
REMARK SMILES CCCCCCCCCCCCCCCC(=O)[O-]
REMARK SMILES IDX 9 1 10 2 11 3 12 4 13 5 14 6 15 7 16 8 17 9 18 10 8 11 7 12
REMARK SMILES IDX 6 13 5 14 4 15 3 16 2 17 1 18
REMARK H PARENT
REMARK Flexibility Score: inf
ROOT
ATOM      1  C   UNL     1      79.059  80.102  77.470  1.00  0.00     0.000 C 
ENDROOT
BRANCH   1   2
ATOM      2  C   UNL     1      77.629  80.264  78.024  1.00  0.00     0.000 C 
BRANCH   2   3
ATOM      3  C   UNL     1      77.365  81.688  78.547  1.00  0.00     0.000 C 
BRANCH   3   4
ATOM      4  C   UNL     1      75.914  82.144  78.329  1.00  0.00     0.000 C 
BRANCH   4   5
ATOM      5  C   UNL     1      74.924  80.968  78.292  1.00  0.00     0.000 C 
BRANCH   5   6
ATOM      6  C   UNL     1      74.017  80.993  77.047  1.00  0.00     0.006 C 
BRANCH   6   7
ATOM      7  C   UNL     1      73.073  82.205  76.973  1.00  0.00     0.053 C 
BRANCH   7   8
ATOM      8  C   UNL     1      71.702  81.819  76.511  1.00  0.00     0.041 C 
ATOM      9  O   UNL     1      71.062  82.569  75.729  1.00  0.00    -0.550 OA
ATOM     10  O   UNL     1      71.144  80.615  76.922  1.00  0.00    -0.550 OA
ENDBRANCH   7   8
ENDBRANCH   6   7
ENDBRANCH   5   6
ENDBRANCH   4   5
ENDBRANCH   3   4
ENDBRANCH   2   3
ENDBRANCH   1   2
BRANCH   1  11
ATOM     11  C   UNL     1      80.041  81.169  77.984  1.00  0.00     0.000 C 
BRANCH  11  12
ATOM     12  C   UNL     1      81.208  81.421  77.017  1.00  0.00    -0.000 C 
BRANCH  12  13
ATOM     13  C   UNL     1      80.739  81.826  75.608  1.00  0.00    -0.000 C 
BRANCH  13  14
ATOM     14  C   UNL     1      80.352  83.316  75.493  1.00  0.00    -0.000 C 
BRANCH  14  15
ATOM     15  C   UNL     1      78.910  83.504  74.990  1.00  0.00    -0.000 C 
BRANCH  15  16
ATOM     16  C   UNL     1      78.268  82.191  74.508  1.00  0.00    -0.000 C 
BRANCH  16  17
ATOM     17  C   UNL     1      76.745  82.105  74.710  1.00  0.00    -0.003 C 
ATOM     18  C   UNL     1      76.102  83.463  74.988  1.00  0.00     0.004 C 
ENDBRANCH  16  17
ENDBRANCH  15  16
ENDBRANCH  14  15
ENDBRANCH  13  14
ENDBRANCH  12  13
ENDBRANCH  11  12
ENDBRANCH   1  11
TORSDOF 14
ENDMDL
