MODEL 1
REMARK VINA RESULT:    -2.969      0.000      0.000
REMARK INTER + INTRA:         -13.921
REMARK INTER:                  -7.830
REMARK INTRA:                  -6.091
REMARK UNBOUND:                -6.091
REMARK SMILES CCCCCCCCCCCCCCCCCCCCCCCCCCCCCC(=O)[O-]
REMARK SMILES IDX 16 1 17 2 18 3 19 4 20 5 21 6 22 7 23 8 24 9 25 10 26 11
REMARK SMILES IDX 27 12 28 13 29 14 30 15 31 16 32 17 15 18 14 19 13 20 12 21
REMARK SMILES IDX 11 22 10 23 9 24 8 25 7 26 6 27 5 28 4 29 3 30 2 31 1 32
REMARK H PARENT
REMARK Flexibility Score: inf
ROOT
ATOM      1  C   UNL     1    -103.119 -29.426 -12.048  1.00  0.00     0.000 C 
ENDROOT
BRANCH   1   2
ATOM      2  C   UNL     1    -103.063 -30.744 -12.836  1.00  0.00     0.000 C 
BRANCH   2   3
ATOM      3  C   UNL     1    -103.484 -30.582 -14.307  1.00  0.00     0.000 C 
BRANCH   3   4
ATOM      4  C   UNL     1    -102.367 -30.849 -15.337  1.00  0.00     0.000 C 
BRANCH   4   5
ATOM      5  C   UNL     1    -101.904 -29.617 -16.142  1.00  0.00     0.000 C 
BRANCH   5   6
ATOM      6  C   UNL     1    -102.977 -28.532 -16.350  1.00  0.00     0.000 C 
BRANCH   6   7
ATOM      7  C   UNL     1    -102.456 -27.114 -16.060  1.00  0.00     0.000 C 
BRANCH   7   8
ATOM      8  C   UNL     1    -103.375 -26.333 -15.106  1.00  0.00     0.000 C 
BRANCH   8   9
ATOM      9  C   UNL     1    -104.645 -27.113 -14.731  1.00  0.00     0.000 C 
BRANCH   9  10
ATOM     10  C   UNL     1    -105.173 -26.673 -13.360  1.00  0.00     0.000 C 
BRANCH  10  11
ATOM     11  C   UNL     1    -104.513 -25.363 -12.908  1.00  0.00     0.000 C 
BRANCH  11  12
ATOM     12  C   UNL     1    -104.101 -25.380 -11.424  1.00  0.00     0.000 C 
BRANCH  12  13
ATOM     13  C   UNL     1    -104.504 -24.128 -10.620  1.00  0.00     0.006 C 
BRANCH  13  14
ATOM     14  C   UNL     1    -104.444 -22.815 -11.415  1.00  0.00     0.053 C 
BRANCH  14  15
ATOM     15  C   UNL     1    -104.005 -21.663 -10.564  1.00  0.00     0.041 C 
ATOM     16  O   UNL     1    -103.030 -20.950 -10.918  1.00  0.00    -0.550 OA
ATOM     17  O   UNL     1    -104.647 -21.401  -9.362  1.00  0.00    -0.550 OA
ENDBRANCH  14  15
ENDBRANCH  13  14
ENDBRANCH  12  13
ENDBRANCH  11  12
ENDBRANCH  10  11
ENDBRANCH   9  10
ENDBRANCH   8   9
ENDBRANCH   7   8
ENDBRANCH   6   7
ENDBRANCH   5   6
ENDBRANCH   4   5
ENDBRANCH   3   4
ENDBRANCH   2   3
ENDBRANCH   1   2
BRANCH   1  18
ATOM     18  C   UNL     1    -101.704 -28.940 -11.701  1.00  0.00     0.000 C 
BRANCH  18  19
ATOM     19  C   UNL     1    -101.341 -27.622 -12.405  1.00  0.00     0.000 C 
BRANCH  19  20
ATOM     20  C   UNL     1    -100.168 -27.788 -13.388  1.00  0.00     0.000 C 
BRANCH  20  21
ATOM     21  C   UNL     1     -99.188 -28.900 -12.973  1.00  0.00     0.000 C 
BRANCH  21  22
ATOM     22  C   UNL     1     -98.980 -30.017 -14.014  1.00  0.00     0.000 C 
BRANCH  22  23
ATOM     23  C   UNL     1     -97.646 -30.762 -13.838  1.00  0.00     0.000 C 
BRANCH  23  24
ATOM     24  C   UNL     1     -96.760 -30.134 -12.751  1.00  0.00    -0.000 C 
BRANCH  24  25
ATOM     25  C   UNL     1     -96.058 -31.189 -11.877  1.00  0.00    -0.000 C 
BRANCH  25  26
ATOM     26  C   UNL     1     -96.471 -31.085 -10.393  1.00  0.00    -0.000 C 
BRANCH  26  27
ATOM     27  C   UNL     1     -97.502 -29.977 -10.117  1.00  0.00    -0.000 C 
BRANCH  27  28
ATOM     28  C   UNL     1     -98.827 -30.518  -9.562  1.00  0.00    -0.000 C 
BRANCH  28  29
ATOM     29  C   UNL     1     -99.098 -31.975  -9.973  1.00  0.00    -0.000 C 
BRANCH  29  30
ATOM     30  C   UNL     1    -100.007 -32.108 -11.214  1.00  0.00    -0.000 C 
BRANCH  30  31
ATOM     31  C   UNL     1     -99.782 -33.430 -11.962  1.00  0.00    -0.003 C 
ATOM     32  C   UNL     1    -100.400 -33.386 -13.356  1.00  0.00     0.004 C 
ENDBRANCH  30  31
ENDBRANCH  29  30
ENDBRANCH  28  29
ENDBRANCH  27  28
ENDBRANCH  26  27
ENDBRANCH  25  26
ENDBRANCH  24  25
ENDBRANCH  23  24
ENDBRANCH  22  23
ENDBRANCH  21  22
ENDBRANCH  20  21
ENDBRANCH  19  20
ENDBRANCH  18  19
ENDBRANCH   1  18
TORSDOF 28
ENDMDL
MODEL 2
REMARK VINA RESULT:    -2.847      2.830      5.588
REMARK INTER + INTRA:         -13.598
REMARK INTER:                  -8.799
REMARK INTRA:                  -4.800
REMARK UNBOUND:                -6.091
REMARK SMILES CCCCCCCCCCCCCCCCCCCCCCCCCCCCCC(=O)[O-]
REMARK SMILES IDX 16 1 17 2 18 3 19 4 20 5 21 6 22 7 23 8 24 9 25 10 26 11
REMARK SMILES IDX 27 12 28 13 29 14 30 15 31 16 32 17 15 18 14 19 13 20 12 21
REMARK SMILES IDX 11 22 10 23 9 24 8 25 7 26 6 27 5 28 4 29 3 30 2 31 1 32
REMARK H PARENT
REMARK Flexibility Score: inf
ROOT
ATOM      1  C   UNL     1    -102.850 -27.390 -16.362  1.00  0.00     0.000 C 
ENDROOT
BRANCH   1   2
ATOM      2  C   UNL     1    -103.449 -26.028 -16.747  1.00  0.00     0.000 C 
BRANCH   2   3
ATOM      3  C   UNL     1    -104.977 -26.073 -16.922  1.00  0.00     0.000 C 
BRANCH   3   4
ATOM      4  C   UNL     1    -105.763 -25.091 -16.029  1.00  0.00     0.000 C 
BRANCH   4   5
ATOM      5  C   UNL     1    -104.971 -23.858 -15.548  1.00  0.00     0.000 C 
BRANCH   5   6
ATOM      6  C   UNL     1    -105.169 -23.490 -14.066  1.00  0.00     0.000 C 
BRANCH   6   7
ATOM      7  C   UNL     1    -105.561 -24.697 -13.197  1.00  0.00     0.000 C 
BRANCH   7   8
ATOM      8  C   UNL     1    -104.360 -25.296 -12.446  1.00  0.00     0.000 C 
BRANCH   8   9
ATOM      9  C   UNL     1    -104.688 -25.657 -10.990  1.00  0.00     0.000 C 
BRANCH   9  10
ATOM     10  C   UNL     1    -103.406 -25.887 -10.179  1.00  0.00     0.000 C 
BRANCH  10  11
ATOM     11  C   UNL     1    -103.502 -25.228  -8.796  1.00  0.00     0.000 C 
BRANCH  11  12
ATOM     12  C   UNL     1    -102.774 -23.873  -8.726  1.00  0.00     0.000 C 
BRANCH  12  13
ATOM     13  C   UNL     1    -102.054 -23.588  -7.392  1.00  0.00     0.006 C 
BRANCH  13  14
ATOM     14  C   UNL     1    -102.656 -24.307  -6.177  1.00  0.00     0.053 C 
BRANCH  14  15
ATOM     15  C   UNL     1    -101.726 -25.340  -5.618  1.00  0.00     0.041 C 
ATOM     16  O   UNL     1    -101.813 -26.539  -5.993  1.00  0.00    -0.550 OA
ATOM     17  O   UNL     1    -100.790 -24.987  -4.656  1.00  0.00    -0.550 OA
ENDBRANCH  14  15
ENDBRANCH  13  14
ENDBRANCH  12  13
ENDBRANCH  11  12
ENDBRANCH  10  11
ENDBRANCH   9  10
ENDBRANCH   8   9
ENDBRANCH   7   8
ENDBRANCH   6   7
ENDBRANCH   5   6
ENDBRANCH   4   5
ENDBRANCH   3   4
ENDBRANCH   2   3
ENDBRANCH   1   2
BRANCH   1  18
ATOM     18  C   UNL     1    -101.948 -27.257 -15.126  1.00  0.00     0.000 C 
BRANCH  18  19
ATOM     19  C   UNL     1    -102.553 -27.918 -13.877  1.00  0.00     0.000 C 
BRANCH  19  20
ATOM     20  C   UNL     1    -101.504 -28.165 -12.779  1.00  0.00     0.000 C 
BRANCH  20  21
ATOM     21  C   UNL     1    -100.057 -28.001 -13.280  1.00  0.00     0.000 C 
BRANCH  21  22
ATOM     22  C   UNL     1     -99.083 -29.116 -12.855  1.00  0.00     0.000 C 
BRANCH  22  23
ATOM     23  C   UNL     1     -98.758 -30.098 -13.994  1.00  0.00     0.000 C 
BRANCH  23  24
ATOM     24  C   UNL     1     -99.572 -31.398 -13.900  1.00  0.00    -0.000 C 
BRANCH  24  25
ATOM     25  C   UNL     1    -100.929 -31.301 -14.620  1.00  0.00    -0.000 C 
BRANCH  25  26
ATOM     26  C   UNL     1    -100.802 -30.666 -16.020  1.00  0.00    -0.000 C 
BRANCH  26  27
ATOM     27  C   UNL     1    -102.032 -30.898 -16.915  1.00  0.00    -0.000 C 
BRANCH  27  28
ATOM     28  C   UNL     1    -103.237 -31.455 -16.143  1.00  0.00    -0.000 C 
BRANCH  28  29
ATOM     29  C   UNL     1    -104.508 -30.609 -16.326  1.00  0.00    -0.000 C 
BRANCH  29  30
ATOM     30  C   UNL     1    -105.223 -30.275 -15.000  1.00  0.00    -0.000 C 
BRANCH  30  31
ATOM     31  C   UNL     1    -106.016 -28.961 -15.081  1.00  0.00    -0.003 C 
ATOM     32  C   UNL     1    -106.214 -28.353 -13.696  1.00  0.00     0.004 C 
ENDBRANCH  30  31
ENDBRANCH  29  30
ENDBRANCH  28  29
ENDBRANCH  27  28
ENDBRANCH  26  27
ENDBRANCH  25  26
ENDBRANCH  24  25
ENDBRANCH  23  24
ENDBRANCH  22  23
ENDBRANCH  21  22
ENDBRANCH  20  21
ENDBRANCH  19  20
ENDBRANCH  18  19
ENDBRANCH   1  18
TORSDOF 28
ENDMDL
MODEL 3
REMARK VINA RESULT:    -2.845      2.053      4.244
REMARK INTER + INTRA:         -13.593
REMARK INTER:                  -8.929
REMARK INTRA:                  -4.664
REMARK UNBOUND:                -6.091
REMARK SMILES CCCCCCCCCCCCCCCCCCCCCCCCCCCCCC(=O)[O-]
REMARK SMILES IDX 16 1 17 2 18 3 19 4 20 5 21 6 22 7 23 8 24 9 25 10 26 11
REMARK SMILES IDX 27 12 28 13 29 14 30 15 31 16 32 17 15 18 14 19 13 20 12 21
REMARK SMILES IDX 11 22 10 23 9 24 8 25 7 26 6 27 5 28 4 29 3 30 2 31 1 32
REMARK H PARENT
REMARK Flexibility Score: inf
ROOT
ATOM      1  C   UNL     1    -101.158 -27.405 -14.358  1.00  0.00     0.000 C 
ENDROOT
BRANCH   1   2
ATOM      2  C   UNL     1    -101.623 -28.048 -15.673  1.00  0.00     0.000 C 
BRANCH   2   3
ATOM      3  C   UNL     1    -102.877 -27.376 -16.258  1.00  0.00     0.000 C 
BRANCH   3   4
ATOM      4  C   UNL     1    -103.623 -26.434 -15.290  1.00  0.00     0.000 C 
BRANCH   4   5
ATOM      5  C   UNL     1    -103.924 -25.026 -15.841  1.00  0.00     0.000 C 
BRANCH   5   6
ATOM      6  C   UNL     1    -104.575 -24.056 -14.838  1.00  0.00     0.000 C 
BRANCH   6   7
ATOM      7  C   UNL     1    -105.096 -24.763 -13.575  1.00  0.00     0.000 C 
BRANCH   7   8
ATOM      8  C   UNL     1    -104.581 -24.112 -12.281  1.00  0.00     0.000 C 
BRANCH   8   9
ATOM      9  C   UNL     1    -104.918 -22.616 -12.190  1.00  0.00     0.000 C 
BRANCH   9  10
ATOM     10  C   UNL     1    -104.115 -21.938 -11.073  1.00  0.00     0.000 C 
BRANCH  10  11
ATOM     11  C   UNL     1    -104.897 -21.941  -9.751  1.00  0.00     0.000 C 
BRANCH  11  12
ATOM     12  C   UNL     1    -104.064 -22.456  -8.564  1.00  0.00     0.000 C 
BRANCH  12  13
ATOM     13  C   UNL     1    -103.136 -23.645  -8.884  1.00  0.00     0.006 C 
BRANCH  13  14
ATOM     14  C   UNL     1    -103.702 -25.018  -8.493  1.00  0.00     0.053 C 
BRANCH  14  15
ATOM     15  C   UNL     1    -103.082 -25.543  -7.235  1.00  0.00     0.041 C 
ATOM     16  O   UNL     1    -102.510 -24.758  -6.435  1.00  0.00    -0.550 OA
ATOM     17  O   UNL     1    -103.100 -26.905  -6.965  1.00  0.00    -0.550 OA
ENDBRANCH  14  15
ENDBRANCH  13  14
ENDBRANCH  12  13
ENDBRANCH  11  12
ENDBRANCH  10  11
ENDBRANCH   9  10
ENDBRANCH   8   9
ENDBRANCH   7   8
ENDBRANCH   6   7
ENDBRANCH   5   6
ENDBRANCH   4   5
ENDBRANCH   3   4
ENDBRANCH   2   3
ENDBRANCH   1   2
BRANCH   1  18
ATOM     18  C   UNL     1    -100.394 -28.422 -13.497  1.00  0.00     0.000 C 
BRANCH  18  19
ATOM     19  C   UNL     1    -100.260 -29.794 -14.178  1.00  0.00     0.000 C 
BRANCH  19  20
ATOM     20  C   UNL     1     -98.826 -30.347 -14.105  1.00  0.00     0.000 C 
BRANCH  20  21
ATOM     21  C   UNL     1     -97.899 -29.501 -13.212  1.00  0.00     0.000 C 
BRANCH  21  22
ATOM     22  C   UNL     1     -96.582 -30.183 -12.797  1.00  0.00     0.000 C 
BRANCH  22  23
ATOM     23  C   UNL     1     -96.656 -30.839 -11.408  1.00  0.00     0.000 C 
BRANCH  23  24
ATOM     24  C   UNL     1     -97.326 -29.933 -10.363  1.00  0.00    -0.000 C 
BRANCH  24  25
ATOM     25  C   UNL     1     -98.460 -30.645  -9.603  1.00  0.00    -0.000 C 
BRANCH  25  26
ATOM     26  C   UNL     1     -99.399 -31.423 -10.548  1.00  0.00    -0.000 C 
BRANCH  26  27
ATOM     27  C   UNL     1    -100.847 -30.906 -10.541  1.00  0.00    -0.000 C 
BRANCH  27  28
ATOM     28  C   UNL     1    -100.947 -29.413 -10.197  1.00  0.00    -0.000 C 
BRANCH  28  29
ATOM     29  C   UNL     1    -102.400 -28.917 -10.098  1.00  0.00    -0.000 C 
BRANCH  29  30
ATOM     30  C   UNL     1    -102.650 -27.586 -10.837  1.00  0.00    -0.000 C 
BRANCH  30  31
ATOM     31  C   UNL     1    -103.858 -27.663 -11.783  1.00  0.00    -0.003 C 
ATOM     32  C   UNL     1    -103.917 -29.013 -12.490  1.00  0.00     0.004 C 
ENDBRANCH  30  31
ENDBRANCH  29  30
ENDBRANCH  28  29
ENDBRANCH  27  28
ENDBRANCH  26  27
ENDBRANCH  25  26
ENDBRANCH  24  25
ENDBRANCH  23  24
ENDBRANCH  22  23
ENDBRANCH  21  22
ENDBRANCH  20  21
ENDBRANCH  19  20
ENDBRANCH  18  19
ENDBRANCH   1  18
TORSDOF 28
ENDMDL
MODEL 4
REMARK VINA RESULT:    -2.829      2.608      7.310
REMARK INTER + INTRA:         -13.551
REMARK INTER:                  -7.331
REMARK INTRA:                  -6.219
REMARK UNBOUND:                -6.091
REMARK SMILES CCCCCCCCCCCCCCCCCCCCCCCCCCCCCC(=O)[O-]
REMARK SMILES IDX 16 1 17 2 18 3 19 4 20 5 21 6 22 7 23 8 24 9 25 10 26 11
REMARK SMILES IDX 27 12 28 13 29 14 30 15 31 16 32 17 15 18 14 19 13 20 12 21
REMARK SMILES IDX 11 22 10 23 9 24 8 25 7 26 6 27 5 28 4 29 3 30 2 31 1 32
REMARK H PARENT
REMARK Flexibility Score: inf
ROOT
ATOM      1  C   UNL     1    -102.115 -27.923 -13.448  1.00  0.00     0.000 C 
ENDROOT
BRANCH   1   2
ATOM      2  C   UNL     1    -101.291 -28.013 -12.155  1.00  0.00     0.000 C 
BRANCH   2   3
ATOM      3  C   UNL     1    -101.340 -29.408 -11.508  1.00  0.00     0.000 C 
BRANCH   3   4
ATOM      4  C   UNL     1    -100.015 -30.196 -11.557  1.00  0.00     0.000 C 
BRANCH   4   5
ATOM      5  C   UNL     1     -98.815 -29.430 -12.150  1.00  0.00     0.000 C 
BRANCH   5   6
ATOM      6  C   UNL     1     -98.446 -29.809 -13.596  1.00  0.00     0.000 C 
BRANCH   6   7
ATOM      7  C   UNL     1     -99.190 -31.060 -14.094  1.00  0.00     0.000 C 
BRANCH   7   8
ATOM      8  C   UNL     1     -99.596 -30.955 -15.573  1.00  0.00     0.000 C 
BRANCH   8   9
ATOM      9  C   UNL     1    -101.101 -31.166 -15.795  1.00  0.00     0.000 C 
BRANCH   9  10
ATOM     10  C   UNL     1    -101.792 -31.596 -14.494  1.00  0.00     0.000 C 
BRANCH  10  11
ATOM     11  C   UNL     1    -103.319 -31.482 -14.617  1.00  0.00     0.000 C 
BRANCH  11  12
ATOM     12  C   UNL     1    -104.004 -31.147 -13.280  1.00  0.00     0.000 C 
BRANCH  12  13
ATOM     13  C   UNL     1    -105.304 -30.326 -13.401  1.00  0.00     0.006 C 
BRANCH  13  14
ATOM     14  C   UNL     1    -105.343 -29.065 -12.526  1.00  0.00     0.053 C 
BRANCH  14  15
ATOM     15  C   UNL     1    -106.552 -28.226 -12.805  1.00  0.00     0.041 C 
ATOM     16  O   UNL     1    -107.190 -27.699 -11.856  1.00  0.00    -0.550 OA
ATOM     17  O   UNL     1    -106.997 -28.057 -14.109  1.00  0.00    -0.550 OA
ENDBRANCH  14  15
ENDBRANCH  13  14
ENDBRANCH  12  13
ENDBRANCH  11  12
ENDBRANCH  10  11
ENDBRANCH   9  10
ENDBRANCH   8   9
ENDBRANCH   7   8
ENDBRANCH   6   7
ENDBRANCH   5   6
ENDBRANCH   4   5
ENDBRANCH   3   4
ENDBRANCH   2   3
ENDBRANCH   1   2
BRANCH   1  18
ATOM     18  C   UNL     1    -101.206 -27.639 -14.653  1.00  0.00     0.000 C 
BRANCH  18  19
ATOM     19  C   UNL     1    -101.959 -27.710 -15.992  1.00  0.00     0.000 C 
BRANCH  19  20
ATOM     20  C   UNL     1    -103.419 -28.166 -15.819  1.00  0.00     0.000 C 
BRANCH  20  21
ATOM     21  C   UNL     1    -104.438 -27.096 -16.252  1.00  0.00     0.000 C 
BRANCH  21  22
ATOM     22  C   UNL     1    -103.846 -25.707 -16.559  1.00  0.00     0.000 C 
BRANCH  22  23
ATOM     23  C   UNL     1    -104.430 -24.595 -15.672  1.00  0.00     0.000 C 
BRANCH  23  24
ATOM     24  C   UNL     1    -104.248 -24.881 -14.173  1.00  0.00    -0.000 C 
BRANCH  24  25
ATOM     25  C   UNL     1    -105.503 -24.542 -13.349  1.00  0.00    -0.000 C 
BRANCH  25  26
ATOM     26  C   UNL     1    -105.277 -24.738 -11.835  1.00  0.00    -0.000 C 
BRANCH  26  27
ATOM     27  C   UNL     1    -104.095 -25.665 -11.503  1.00  0.00    -0.000 C 
BRANCH  27  28
ATOM     28  C   UNL     1    -104.193 -26.280 -10.100  1.00  0.00    -0.000 C 
BRANCH  28  29
ATOM     29  C   UNL     1    -104.332 -25.224  -8.991  1.00  0.00    -0.000 C 
BRANCH  29  30
ATOM     30  C   UNL     1    -103.134 -24.254  -8.909  1.00  0.00    -0.000 C 
BRANCH  30  31
ATOM     31  C   UNL     1    -103.562 -22.832  -8.519  1.00  0.00    -0.003 C 
ATOM     32  C   UNL     1    -103.728 -21.950  -9.753  1.00  0.00     0.004 C 
ENDBRANCH  30  31
ENDBRANCH  29  30
ENDBRANCH  28  29
ENDBRANCH  27  28
ENDBRANCH  26  27
ENDBRANCH  25  26
ENDBRANCH  24  25
ENDBRANCH  23  24
ENDBRANCH  22  23
ENDBRANCH  21  22
ENDBRANCH  20  21
ENDBRANCH  19  20
ENDBRANCH  18  19
ENDBRANCH   1  18
TORSDOF 28
ENDMDL
MODEL 5
REMARK VINA RESULT:    -2.797      2.011      4.568
REMARK INTER + INTRA:         -13.466
REMARK INTER:                  -7.851
REMARK INTRA:                  -5.615
REMARK UNBOUND:                -6.091
REMARK SMILES CCCCCCCCCCCCCCCCCCCCCCCCCCCCCC(=O)[O-]
REMARK SMILES IDX 16 1 17 2 18 3 19 4 20 5 21 6 22 7 23 8 24 9 25 10 26 11
REMARK SMILES IDX 27 12 28 13 29 14 30 15 31 16 32 17 15 18 14 19 13 20 12 21
REMARK SMILES IDX 11 22 10 23 9 24 8 25 7 26 6 27 5 28 4 29 3 30 2 31 1 32
REMARK H PARENT
REMARK Flexibility Score: inf
ROOT
ATOM      1  C   UNL     1    -105.833 -29.434 -13.118  1.00  0.00     0.000 C 
ENDROOT
BRANCH   1   2
ATOM      2  C   UNL     1    -104.801 -30.404 -12.523  1.00  0.00     0.000 C 
BRANCH   2   3
ATOM      3  C   UNL     1    -103.350 -29.943 -12.741  1.00  0.00     0.000 C 
BRANCH   3   4
ATOM      4  C   UNL     1    -102.400 -30.195 -11.552  1.00  0.00     0.000 C 
BRANCH   4   5
ATOM      5  C   UNL     1    -102.030 -28.946 -10.727  1.00  0.00     0.000 C 
BRANCH   5   6
ATOM      6  C   UNL     1    -101.942 -27.635 -11.530  1.00  0.00     0.000 C 
BRANCH   6   7
ATOM      7  C   UNL     1    -102.851 -26.528 -10.969  1.00  0.00     0.000 C 
BRANCH   7   8
ATOM      8  C   UNL     1    -104.254 -27.043 -10.611  1.00  0.00     0.000 C 
BRANCH   8   9
ATOM      9  C   UNL     1    -105.376 -26.221 -11.265  1.00  0.00     0.000 C 
BRANCH   9  10
ATOM     10  C   UNL     1    -104.813 -24.962 -11.937  1.00  0.00     0.000 C 
BRANCH  10  11
ATOM     11  C   UNL     1    -105.238 -23.696 -11.181  1.00  0.00     0.000 C 
BRANCH  11  12
ATOM     12  C   UNL     1    -104.082 -23.053 -10.392  1.00  0.00     0.000 C 
BRANCH  12  13
ATOM     13  C   UNL     1    -104.048 -23.397  -8.889  1.00  0.00     0.006 C 
BRANCH  13  14
ATOM     14  C   UNL     1    -102.675 -23.849  -8.370  1.00  0.00     0.053 C 
BRANCH  14  15
ATOM     15  C   UNL     1    -102.743 -24.346  -6.959  1.00  0.00     0.041 C 
ATOM     16  O   UNL     1    -102.903 -23.535  -6.009  1.00  0.00    -0.550 OA
ATOM     17  O   UNL     1    -102.591 -25.699  -6.689  1.00  0.00    -0.550 OA
ENDBRANCH  14  15
ENDBRANCH  13  14
ENDBRANCH  12  13
ENDBRANCH  11  12
ENDBRANCH  10  11
ENDBRANCH   9  10
ENDBRANCH   8   9
ENDBRANCH   7   8
ENDBRANCH   6   7
ENDBRANCH   5   6
ENDBRANCH   4   5
ENDBRANCH   3   4
ENDBRANCH   2   3
ENDBRANCH   1   2
BRANCH   1  18
ATOM     18  C   UNL     1    -105.376 -28.932 -14.496  1.00  0.00     0.000 C 
BRANCH  18  19
ATOM     19  C   UNL     1    -105.552 -27.413 -14.660  1.00  0.00     0.000 C 
BRANCH  19  20
ATOM     20  C   UNL     1    -104.514 -26.804 -15.619  1.00  0.00     0.000 C 
BRANCH  20  21
ATOM     21  C   UNL     1    -103.212 -26.387 -14.911  1.00  0.00     0.000 C 
BRANCH  21  22
ATOM     22  C   UNL     1    -102.017 -27.338 -15.114  1.00  0.00     0.000 C 
BRANCH  22  23
ATOM     23  C   UNL     1    -102.049 -28.062 -16.471  1.00  0.00     0.000 C 
BRANCH  23  24
ATOM     24  C   UNL     1    -102.193 -29.585 -16.322  1.00  0.00    -0.000 C 
BRANCH  24  25
ATOM     25  C   UNL     1    -100.835 -30.300 -16.213  1.00  0.00    -0.000 C 
BRANCH  25  26
ATOM     26  C   UNL     1    -100.822 -31.360 -15.090  1.00  0.00    -0.000 C 
BRANCH  26  27
ATOM     27  C   UNL     1     -99.802 -31.065 -13.977  1.00  0.00    -0.000 C 
BRANCH  27  28
ATOM     28  C   UNL     1     -99.407 -29.583 -13.905  1.00  0.00    -0.000 C 
BRANCH  28  29
ATOM     29  C   UNL     1     -98.807 -29.189 -12.546  1.00  0.00    -0.000 C 
BRANCH  29  30
ATOM     30  C   UNL     1     -97.790 -30.213 -11.999  1.00  0.00    -0.000 C 
BRANCH  30  31
ATOM     31  C   UNL     1     -96.342 -29.841 -12.352  1.00  0.00    -0.003 C 
ATOM     32  C   UNL     1     -95.462 -29.811 -11.107  1.00  0.00     0.004 C 
ENDBRANCH  30  31
ENDBRANCH  29  30
ENDBRANCH  28  29
ENDBRANCH  27  28
ENDBRANCH  26  27
ENDBRANCH  25  26
ENDBRANCH  24  25
ENDBRANCH  23  24
ENDBRANCH  22  23
ENDBRANCH  21  22
ENDBRANCH  20  21
ENDBRANCH  19  20
ENDBRANCH  18  19
ENDBRANCH   1  18
TORSDOF 28
ENDMDL
MODEL 6
REMARK VINA RESULT:    -2.776      1.712      3.760
REMARK INTER + INTRA:         -13.411
REMARK INTER:                  -7.764
REMARK INTRA:                  -5.647
REMARK UNBOUND:                -6.091
REMARK SMILES CCCCCCCCCCCCCCCCCCCCCCCCCCCCCC(=O)[O-]
REMARK SMILES IDX 16 1 17 2 18 3 19 4 20 5 21 6 22 7 23 8 24 9 25 10 26 11
REMARK SMILES IDX 27 12 28 13 29 14 30 15 31 16 32 17 15 18 14 19 13 20 12 21
REMARK SMILES IDX 11 22 10 23 9 24 8 25 7 26 6 27 5 28 4 29 3 30 2 31 1 32
REMARK H PARENT
REMARK Flexibility Score: inf
ROOT
ATOM      1  C   UNL     1    -101.271 -27.703 -12.617  1.00  0.00     0.000 C 
ENDROOT
BRANCH   1   2
ATOM      2  C   UNL     1    -100.000 -28.297 -13.241  1.00  0.00     0.000 C 
BRANCH   2   3
ATOM      3  C   UNL     1    -100.104 -29.813 -13.488  1.00  0.00     0.000 C 
BRANCH   3   4
ATOM      4  C   UNL     1     -99.849 -30.255 -14.943  1.00  0.00     0.000 C 
BRANCH   4   5
ATOM      5  C   UNL     1    -100.942 -31.151 -15.561  1.00  0.00     0.000 C 
BRANCH   5   6
ATOM      6  C   UNL     1    -101.941 -30.425 -16.480  1.00  0.00     0.000 C 
BRANCH   6   7
ATOM      7  C   UNL     1    -101.730 -28.901 -16.507  1.00  0.00     0.000 C 
BRANCH   7   8
ATOM      8  C   UNL     1    -103.053 -28.122 -16.413  1.00  0.00     0.000 C 
BRANCH   8   9
ATOM      9  C   UNL     1    -102.901 -26.776 -15.689  1.00  0.00     0.000 C 
BRANCH   9  10
ATOM     10  C   UNL     1    -103.581 -25.649 -16.477  1.00  0.00     0.000 C 
BRANCH  10  11
ATOM     11  C   UNL     1    -104.440 -24.772 -15.554  1.00  0.00     0.000 C 
BRANCH  11  12
ATOM     12  C   UNL     1    -104.267 -25.120 -14.065  1.00  0.00     0.000 C 
BRANCH  12  13
ATOM     13  C   UNL     1    -105.193 -24.349 -13.102  1.00  0.00     0.006 C 
BRANCH  13  14
ATOM     14  C   UNL     1    -104.587 -24.075 -11.718  1.00  0.00     0.053 C 
BRANCH  14  15
ATOM     15  C   UNL     1    -104.465 -25.324 -10.901  1.00  0.00     0.041 C 
ATOM     16  O   UNL     1    -105.439 -26.116 -10.806  1.00  0.00    -0.550 OA
ATOM     17  O   UNL     1    -103.290 -25.594 -10.212  1.00  0.00    -0.550 OA
ENDBRANCH  14  15
ENDBRANCH  13  14
ENDBRANCH  12  13
ENDBRANCH  11  12
ENDBRANCH  10  11
ENDBRANCH   9  10
ENDBRANCH   8   9
ENDBRANCH   7   8
ENDBRANCH   6   7
ENDBRANCH   5   6
ENDBRANCH   4   5
ENDBRANCH   3   4
ENDBRANCH   2   3
ENDBRANCH   1   2
BRANCH   1  18
ATOM     18  C   UNL     1    -101.719 -28.531 -11.403  1.00  0.00     0.000 C 
BRANCH  18  19
ATOM     19  C   UNL     1    -103.224 -28.841 -11.421  1.00  0.00     0.000 C 
BRANCH  19  20
ATOM     20  C   UNL     1    -103.776 -28.985 -12.851  1.00  0.00     0.000 C 
BRANCH  20  21
ATOM     21  C   UNL     1    -103.886 -30.451 -13.309  1.00  0.00     0.000 C 
BRANCH  21  22
ATOM     22  C   UNL     1    -103.667 -31.504 -12.206  1.00  0.00     0.000 C 
BRANCH  22  23
ATOM     23  C   UNL     1    -102.402 -32.352 -12.425  1.00  0.00     0.000 C 
BRANCH  23  24
ATOM     24  C   UNL     1    -101.608 -32.572 -11.128  1.00  0.00    -0.000 C 
BRANCH  24  25
ATOM     25  C   UNL     1    -102.292 -31.942  -9.901  1.00  0.00    -0.000 C 
BRANCH  25  26
ATOM     26  C   UNL     1    -101.273 -31.488  -8.834  1.00  0.00    -0.000 C 
BRANCH  26  27
ATOM     27  C   UNL     1     -99.809 -31.617  -9.287  1.00  0.00    -0.000 C 
BRANCH  27  28
ATOM     28  C   UNL     1     -99.122 -30.258  -9.485  1.00  0.00    -0.000 C 
BRANCH  28  29
ATOM     29  C   UNL     1     -98.150 -30.246 -10.677  1.00  0.00    -0.000 C 
BRANCH  29  30
ATOM     30  C   UNL     1     -96.668 -30.125 -10.264  1.00  0.00    -0.000 C 
BRANCH  30  31
ATOM     31  C   UNL     1     -95.739 -29.947 -11.474  1.00  0.00    -0.003 C 
ATOM     32  C   UNL     1     -96.535 -29.876 -12.773  1.00  0.00     0.004 C 
ENDBRANCH  30  31
ENDBRANCH  29  30
ENDBRANCH  28  29
ENDBRANCH  27  28
ENDBRANCH  26  27
ENDBRANCH  25  26
ENDBRANCH  24  25
ENDBRANCH  23  24
ENDBRANCH  22  23
ENDBRANCH  21  22
ENDBRANCH  20  21
ENDBRANCH  19  20
ENDBRANCH  18  19
ENDBRANCH   1  18
TORSDOF 28
ENDMDL
MODEL 7
REMARK VINA RESULT:    -2.772      2.783      7.710
REMARK INTER + INTRA:         -13.401
REMARK INTER:                  -7.778
REMARK INTRA:                  -5.623
REMARK UNBOUND:                -6.091
REMARK SMILES CCCCCCCCCCCCCCCCCCCCCCCCCCCCCC(=O)[O-]
REMARK SMILES IDX 16 1 17 2 18 3 19 4 20 5 21 6 22 7 23 8 24 9 25 10 26 11
REMARK SMILES IDX 27 12 28 13 29 14 30 15 31 16 32 17 15 18 14 19 13 20 12 21
REMARK SMILES IDX 11 22 10 23 9 24 8 25 7 26 6 27 5 28 4 29 3 30 2 31 1 32
REMARK H PARENT
REMARK Flexibility Score: inf
ROOT
ATOM      1  C   UNL     1    -103.532 -28.402 -11.403  1.00  0.00     0.000 C 
ENDROOT
BRANCH   1   2
ATOM      2  C   UNL     1    -104.400 -28.917 -12.560  1.00  0.00     0.000 C 
BRANCH   2   3
ATOM      3  C   UNL     1    -104.258 -30.432 -12.789  1.00  0.00     0.000 C 
BRANCH   3   4
ATOM      4  C   UNL     1    -103.378 -30.828 -13.993  1.00  0.00     0.000 C 
BRANCH   4   5
ATOM      5  C   UNL     1    -102.045 -31.516 -13.635  1.00  0.00     0.000 C 
BRANCH   5   6
ATOM      6  C   UNL     1    -100.909 -31.312 -14.655  1.00  0.00     0.000 C 
BRANCH   6   7
ATOM      7  C   UNL     1     -99.543 -31.791 -14.134  1.00  0.00     0.000 C 
BRANCH   7   8
ATOM      8  C   UNL     1     -98.409 -30.807 -14.464  1.00  0.00     0.000 C 
BRANCH   8   9
ATOM      9  C   UNL     1     -97.032 -31.485 -14.526  1.00  0.00     0.000 C 
BRANCH   9  10
ATOM     10  C   UNL     1     -96.268 -31.298 -13.208  1.00  0.00     0.000 C 
BRANCH  10  11
ATOM     11  C   UNL     1     -96.698 -30.005 -12.500  1.00  0.00     0.000 C 
BRANCH  11  12
ATOM     12  C   UNL     1     -96.950 -30.202 -10.995  1.00  0.00     0.000 C 
BRANCH  12  13
ATOM     13  C   UNL     1     -98.385 -29.884 -10.526  1.00  0.00     0.006 C 
BRANCH  13  14
ATOM     14  C   UNL     1     -99.354 -31.073 -10.592  1.00  0.00     0.053 C 
BRANCH  14  15
ATOM     15  C   UNL     1    -100.637 -30.793  -9.872  1.00  0.00     0.041 C 
ATOM     16  O   UNL     1    -101.637 -31.537 -10.047  1.00  0.00    -0.550 OA
ATOM     17  O   UNL     1    -100.740 -29.687  -9.038  1.00  0.00    -0.550 OA
ENDBRANCH  14  15
ENDBRANCH  13  14
ENDBRANCH  12  13
ENDBRANCH  11  12
ENDBRANCH  10  11
ENDBRANCH   9  10
ENDBRANCH   8   9
ENDBRANCH   7   8
ENDBRANCH   6   7
ENDBRANCH   5   6
ENDBRANCH   4   5
ENDBRANCH   3   4
ENDBRANCH   2   3
ENDBRANCH   1   2
BRANCH   1  18
ATOM     18  C   UNL     1    -102.438 -27.457 -11.922  1.00  0.00     0.000 C 
BRANCH  18  19
ATOM     19  C   UNL     1    -101.108 -28.179 -12.188  1.00  0.00     0.000 C 
BRANCH  19  20
ATOM     20  C   UNL     1    -100.543 -27.871 -13.586  1.00  0.00     0.000 C 
BRANCH  20  21
ATOM     21  C   UNL     1    -101.610 -27.347 -14.565  1.00  0.00     0.000 C 
BRANCH  21  22
ATOM     22  C   UNL     1    -101.672 -28.073 -15.922  1.00  0.00     0.000 C 
BRANCH  22  23
ATOM     23  C   UNL     1    -102.889 -27.663 -16.769  1.00  0.00     0.000 C 
BRANCH  23  24
ATOM     24  C   UNL     1    -104.193 -27.649 -15.956  1.00  0.00    -0.000 C 
BRANCH  24  25
ATOM     25  C   UNL     1    -105.021 -26.373 -16.187  1.00  0.00    -0.000 C 
BRANCH  25  26
ATOM     26  C   UNL     1    -104.189 -25.091 -15.975  1.00  0.00    -0.000 C 
BRANCH  26  27
ATOM     27  C   UNL     1    -104.672 -24.232 -14.794  1.00  0.00    -0.000 C 
BRANCH  27  28
ATOM     28  C   UNL     1    -104.512 -24.934 -13.438  1.00  0.00    -0.000 C 
BRANCH  28  29
ATOM     29  C   UNL     1    -105.591 -24.526 -12.421  1.00  0.00    -0.000 C 
BRANCH  29  30
ATOM     30  C   UNL     1    -105.416 -25.185 -11.037  1.00  0.00    -0.000 C 
BRANCH  30  31
ATOM     31  C   UNL     1    -104.201 -24.632 -10.277  1.00  0.00    -0.003 C 
ATOM     32  C   UNL     1    -104.257 -23.110 -10.185  1.00  0.00     0.004 C 
ENDBRANCH  30  31
ENDBRANCH  29  30
ENDBRANCH  28  29
ENDBRANCH  27  28
ENDBRANCH  26  27
ENDBRANCH  25  26
ENDBRANCH  24  25
ENDBRANCH  23  24
ENDBRANCH  22  23
ENDBRANCH  21  22
ENDBRANCH  20  21
ENDBRANCH  19  20
ENDBRANCH  18  19
ENDBRANCH   1  18
TORSDOF 28
ENDMDL
MODEL 8
REMARK VINA RESULT:    -2.770      3.359      7.020
REMARK INTER + INTRA:         -13.396
REMARK INTER:                  -7.229
REMARK INTRA:                  -6.167
REMARK UNBOUND:                -6.091
REMARK SMILES CCCCCCCCCCCCCCCCCCCCCCCCCCCCCC(=O)[O-]
REMARK SMILES IDX 16 1 17 2 18 3 19 4 20 5 21 6 22 7 23 8 24 9 25 10 26 11
REMARK SMILES IDX 27 12 28 13 29 14 30 15 31 16 32 17 15 18 14 19 13 20 12 21
REMARK SMILES IDX 11 22 10 23 9 24 8 25 7 26 6 27 5 28 4 29 3 30 2 31 1 32
REMARK H PARENT
REMARK Flexibility Score: inf
ROOT
ATOM      1  C   UNL     1    -104.102 -30.680 -15.685  1.00  0.00     0.000 C 
ENDROOT
BRANCH   1   2
ATOM      2  C   UNL     1    -103.448 -30.710 -14.295  1.00  0.00     0.000 C 
BRANCH   2   3
ATOM      3  C   UNL     1    -102.000 -31.227 -14.325  1.00  0.00     0.000 C 
BRANCH   3   4
ATOM      4  C   UNL     1    -101.423 -31.469 -15.735  1.00  0.00     0.000 C 
BRANCH   4   5
ATOM      5  C   UNL     1    -100.085 -30.762 -16.030  1.00  0.00     0.000 C 
BRANCH   5   6
ATOM      6  C   UNL     1     -99.043 -30.836 -14.899  1.00  0.00     0.000 C 
BRANCH   6   7
ATOM      7  C   UNL     1     -97.768 -31.594 -15.309  1.00  0.00     0.000 C 
BRANCH   7   8
ATOM      8  C   UNL     1     -96.624 -31.411 -14.298  1.00  0.00     0.000 C 
BRANCH   8   9
ATOM      9  C   UNL     1     -97.085 -31.572 -12.841  1.00  0.00     0.000 C 
BRANCH   9  10
ATOM     10  C   UNL     1     -96.983 -30.242 -12.083  1.00  0.00     0.000 C 
BRANCH  10  11
ATOM     11  C   UNL     1     -98.316 -29.887 -11.410  1.00  0.00     0.000 C 
BRANCH  11  12
ATOM     12  C   UNL     1     -99.220 -31.113 -11.186  1.00  0.00     0.000 C 
BRANCH  12  13
ATOM     13  C   UNL     1    -100.507 -30.837 -10.382  1.00  0.00     0.006 C 
BRANCH  13  14
ATOM     14  C   UNL     1    -100.383 -29.704  -9.353  1.00  0.00     0.053 C 
BRANCH  14  15
ATOM     15  C   UNL     1     -99.880 -30.197  -8.032  1.00  0.00     0.041 C 
ATOM     16  O   UNL     1     -98.644 -30.347  -7.840  1.00  0.00    -0.550 OA
ATOM     17  O   UNL     1    -100.776 -30.530  -7.025  1.00  0.00    -0.550 OA
ENDBRANCH  14  15
ENDBRANCH  13  14
ENDBRANCH  12  13
ENDBRANCH  11  12
ENDBRANCH  10  11
ENDBRANCH   9  10
ENDBRANCH   8   9
ENDBRANCH   7   8
ENDBRANCH   6   7
ENDBRANCH   5   6
ENDBRANCH   4   5
ENDBRANCH   3   4
ENDBRANCH   2   3
ENDBRANCH   1   2
BRANCH   1  18
ATOM     18  C   UNL     1    -105.185 -29.593 -15.753  1.00  0.00     0.000 C 
BRANCH  18  19
ATOM     19  C   UNL     1    -105.421 -28.906 -14.398  1.00  0.00     0.000 C 
BRANCH  19  20
ATOM     20  C   UNL     1    -105.765 -27.414 -14.549  1.00  0.00     0.000 C 
BRANCH  20  21
ATOM     21  C   UNL     1    -106.131 -27.024 -15.993  1.00  0.00     0.000 C 
BRANCH  21  22
ATOM     22  C   UNL     1    -105.411 -25.778 -16.541  1.00  0.00     0.000 C 
BRANCH  22  23
ATOM     23  C   UNL     1    -103.891 -25.809 -16.306  1.00  0.00     0.000 C 
BRANCH  23  24
ATOM     24  C   UNL     1    -103.191 -26.905 -17.125  1.00  0.00    -0.000 C 
BRANCH  24  25
ATOM     25  C   UNL     1    -102.094 -27.631 -16.326  1.00  0.00    -0.000 C 
BRANCH  25  26
ATOM     26  C   UNL     1    -102.090 -27.225 -14.837  1.00  0.00    -0.000 C 
BRANCH  26  27
ATOM     27  C   UNL     1    -100.880 -27.765 -14.055  1.00  0.00    -0.000 C 
BRANCH  27  28
ATOM     28  C   UNL     1    -101.114 -27.795 -12.538  1.00  0.00    -0.000 C 
BRANCH  28  29
ATOM     29  C   UNL     1    -102.605 -27.800 -12.162  1.00  0.00    -0.000 C 
BRANCH  29  30
ATOM     30  C   UNL     1    -102.872 -27.423 -10.689  1.00  0.00    -0.000 C 
BRANCH  30  31
ATOM     31  C   UNL     1    -103.976 -28.285 -10.059  1.00  0.00    -0.003 C 
ATOM     32  C   UNL     1    -104.082 -29.639 -10.754  1.00  0.00     0.004 C 
ENDBRANCH  30  31
ENDBRANCH  29  30
ENDBRANCH  28  29
ENDBRANCH  27  28
ENDBRANCH  26  27
ENDBRANCH  25  26
ENDBRANCH  24  25
ENDBRANCH  23  24
ENDBRANCH  22  23
ENDBRANCH  21  22
ENDBRANCH  20  21
ENDBRANCH  19  20
ENDBRANCH  18  19
ENDBRANCH   1  18
TORSDOF 28
ENDMDL
MODEL 9
REMARK VINA RESULT:    -2.729      2.065      3.663
REMARK INTER + INTRA:         -13.289
REMARK INTER:                  -7.229
REMARK INTRA:                  -6.059
REMARK UNBOUND:                -6.091
REMARK SMILES CCCCCCCCCCCCCCCCCCCCCCCCCCCCCC(=O)[O-]
REMARK SMILES IDX 16 1 17 2 18 3 19 4 20 5 21 6 22 7 23 8 24 9 25 10 26 11
REMARK SMILES IDX 27 12 28 13 29 14 30 15 31 16 32 17 15 18 14 19 13 20 12 21
REMARK SMILES IDX 11 22 10 23 9 24 8 25 7 26 6 27 5 28 4 29 3 30 2 31 1 32
REMARK H PARENT
REMARK Flexibility Score: inf
ROOT
ATOM      1  C   UNL     1    -102.482 -27.636 -13.800  1.00  0.00     0.000 C 
ENDROOT
BRANCH   1   2
ATOM      2  C   UNL     1    -102.438 -28.653 -12.650  1.00  0.00     0.000 C 
BRANCH   2   3
ATOM      3  C   UNL     1    -103.629 -29.628 -12.665  1.00  0.00     0.000 C 
BRANCH   3   4
ATOM      4  C   UNL     1    -104.906 -29.085 -13.339  1.00  0.00     0.000 C 
BRANCH   4   5
ATOM      5  C   UNL     1    -105.558 -30.028 -14.371  1.00  0.00     0.000 C 
BRANCH   5   6
ATOM      6  C   UNL     1    -106.448 -29.336 -15.420  1.00  0.00     0.000 C 
BRANCH   6   7
ATOM      7  C   UNL     1    -106.249 -27.811 -15.459  1.00  0.00     0.000 C 
BRANCH   7   8
ATOM      8  C   UNL     1    -105.357 -27.363 -16.628  1.00  0.00     0.000 C 
BRANCH   8   9
ATOM      9  C   UNL     1    -105.363 -25.841 -16.833  1.00  0.00     0.000 C 
BRANCH   9  10
ATOM     10  C   UNL     1    -104.290 -25.166 -15.969  1.00  0.00     0.000 C 
BRANCH  10  11
ATOM     11  C   UNL     1    -104.771 -23.800 -15.459  1.00  0.00     0.000 C 
BRANCH  11  12
ATOM     12  C   UNL     1    -105.057 -23.792 -13.946  1.00  0.00     0.000 C 
BRANCH  12  13
ATOM     13  C   UNL     1    -104.415 -24.950 -13.155  1.00  0.00     0.006 C 
BRANCH  13  14
ATOM     14  C   UNL     1    -105.373 -25.676 -12.199  1.00  0.00     0.053 C 
BRANCH  14  15
ATOM     15  C   UNL     1    -104.713 -26.028 -10.902  1.00  0.00     0.041 C 
ATOM     16  O   UNL     1    -104.936 -27.142 -10.360  1.00  0.00    -0.550 OA
ATOM     17  O   UNL     1    -103.882 -25.111 -10.272  1.00  0.00    -0.550 OA
ENDBRANCH  14  15
ENDBRANCH  13  14
ENDBRANCH  12  13
ENDBRANCH  11  12
ENDBRANCH  10  11
ENDBRANCH   9  10
ENDBRANCH   8   9
ENDBRANCH   7   8
ENDBRANCH   6   7
ENDBRANCH   5   6
ENDBRANCH   4   5
ENDBRANCH   3   4
ENDBRANCH   2   3
ENDBRANCH   1   2
BRANCH   1  18
ATOM     18  C   UNL     1    -101.263 -27.800 -14.719  1.00  0.00     0.000 C 
BRANCH  18  19
ATOM     19  C   UNL     1    -101.655 -28.019 -16.189  1.00  0.00     0.000 C 
BRANCH  19  20
ATOM     20  C   UNL     1    -102.651 -29.179 -16.363  1.00  0.00     0.000 C 
BRANCH  20  21
ATOM     21  C   UNL     1    -101.962 -30.535 -16.598  1.00  0.00     0.000 C 
BRANCH  21  22
ATOM     22  C   UNL     1    -101.916 -31.471 -15.375  1.00  0.00     0.000 C 
BRANCH  22  23
ATOM     23  C   UNL     1    -100.531 -31.522 -14.707  1.00  0.00     0.000 C 
BRANCH  23  24
ATOM     24  C   UNL     1     -99.415 -30.999 -15.626  1.00  0.00    -0.000 C 
BRANCH  24  25
ATOM     25  C   UNL     1     -98.274 -32.015 -15.810  1.00  0.00    -0.000 C 
BRANCH  25  26
ATOM     26  C   UNL     1     -97.547 -32.323 -14.483  1.00  0.00    -0.000 C 
BRANCH  26  27
ATOM     27  C   UNL     1     -96.476 -31.283 -14.113  1.00  0.00    -0.000 C 
BRANCH  27  28
ATOM     28  C   UNL     1     -96.770 -30.569 -12.785  1.00  0.00    -0.000 C 
BRANCH  28  29
ATOM     29  C   UNL     1     -97.817 -29.452 -12.926  1.00  0.00    -0.000 C 
BRANCH  29  30
ATOM     30  C   UNL     1     -99.004 -29.592 -11.949  1.00  0.00    -0.000 C 
BRANCH  30  31
ATOM     31  C   UNL     1     -99.050 -30.975 -11.283  1.00  0.00    -0.003 C 
ATOM     32  C   UNL     1    -100.487 -31.407 -11.011  1.00  0.00     0.004 C 
ENDBRANCH  30  31
ENDBRANCH  29  30
ENDBRANCH  28  29
ENDBRANCH  27  28
ENDBRANCH  26  27
ENDBRANCH  25  26
ENDBRANCH  24  25
ENDBRANCH  23  24
ENDBRANCH  22  23
ENDBRANCH  21  22
ENDBRANCH  20  21
ENDBRANCH  19  20
ENDBRANCH  18  19
ENDBRANCH   1  18
TORSDOF 28
ENDMDL
