MODEL 1
REMARK VINA RESULT:    -4.641      0.000      0.000
REMARK INTER + INTRA:          -9.191
REMARK INTER:                  -7.897
REMARK INTRA:                  -1.294
REMARK UNBOUND:                -1.294
REMARK SMILES CCCCCCCCCCCCCC(=O)[O-]
REMARK SMILES IDX 8 1 9 2 10 3 11 4 12 5 13 6 14 7 15 8 16 9 7 10 6 11 5 12
REMARK SMILES IDX 4 13 3 14 2 15 1 16
REMARK H PARENT
REMARK Flexibility Score: inf
ROOT
ATOM      1  C   UNL     1      62.882 -25.875  -2.741  1.00  0.00     0.000 C 
ENDROOT
BRANCH   1   2
ATOM      2  C   UNL     1      61.560 -25.760  -3.522  1.00  0.00     0.000 C 
BRANCH   2   3
ATOM      3  C   UNL     1      60.325 -26.029  -2.648  1.00  0.00     0.000 C 
BRANCH   3   4
ATOM      4  C   UNL     1      59.302 -26.895  -3.395  1.00  0.00     0.000 C 
BRANCH   4   5
ATOM      5  C   UNL     1      58.593 -26.145  -4.536  1.00  0.00     0.006 C 
BRANCH   5   6
ATOM      6  C   UNL     1      57.850 -24.876  -4.082  1.00  0.00     0.053 C 
BRANCH   6   7
ATOM      7  C   UNL     1      58.218 -23.668  -4.890  1.00  0.00     0.041 C 
ATOM      8  O   UNL     1      57.348 -23.071  -5.576  1.00  0.00    -0.550 OA
ATOM      9  O   UNL     1      59.535 -23.222  -4.911  1.00  0.00    -0.550 OA
ENDBRANCH   6   7
ENDBRANCH   5   6
ENDBRANCH   4   5
ENDBRANCH   3   4
ENDBRANCH   2   3
ENDBRANCH   1   2
BRANCH   1  10
ATOM     10  C   UNL     1      63.464 -27.301  -2.654  1.00  0.00     0.000 C 
BRANCH  10  11
ATOM     11  C   UNL     1      63.358 -27.963  -1.266  1.00  0.00    -0.000 C 
BRANCH  11  12
ATOM     12  C   UNL     1      62.360 -29.135  -1.175  1.00  0.00    -0.000 C 
BRANCH  12  13
ATOM     13  C   UNL     1      61.198 -28.927  -0.187  1.00  0.00    -0.000 C 
BRANCH  13  14
ATOM     14  C   UNL     1      59.833 -29.320  -0.777  1.00  0.00    -0.000 C 
BRANCH  14  15
ATOM     15  C   UNL     1      58.661 -28.639  -0.056  1.00  0.00    -0.003 C 
ATOM     16  C   UNL     1      58.609 -28.972   1.436  1.00  0.00     0.004 C 
ENDBRANCH  14  15
ENDBRANCH  13  14
ENDBRANCH  12  13
ENDBRANCH  11  12
ENDBRANCH  10  11
ENDBRANCH   1  10
TORSDOF 12
ENDMDL
MODEL 2
REMARK VINA RESULT:    -4.615      3.369      5.247
REMARK INTER + INTRA:          -9.146
REMARK INTER:                  -7.809
REMARK INTRA:                  -1.337
REMARK UNBOUND:                -1.294
REMARK SMILES CCCCCCCCCCCCCC(=O)[O-]
REMARK SMILES IDX 8 1 9 2 10 3 11 4 12 5 13 6 14 7 15 8 16 9 7 10 6 11 5 12
REMARK SMILES IDX 4 13 3 14 2 15 1 16
REMARK H PARENT
REMARK Flexibility Score: inf
ROOT
ATOM      1  C   UNL     1      63.668 -26.925  -2.019  1.00  0.00     0.000 C 
ENDROOT
BRANCH   1   2
ATOM      2  C   UNL     1      63.188 -28.387  -1.965  1.00  0.00     0.000 C 
BRANCH   2   3
ATOM      3  C   UNL     1      63.015 -28.907  -0.530  1.00  0.00     0.000 C 
BRANCH   3   4
ATOM      4  C   UNL     1      61.531 -28.985  -0.148  1.00  0.00     0.000 C 
BRANCH   4   5
ATOM      5  C   UNL     1      60.588 -28.867  -1.359  1.00  0.00     0.006 C 
BRANCH   5   6
ATOM      6  C   UNL     1      59.124 -28.576  -0.984  1.00  0.00     0.053 C 
BRANCH   6   7
ATOM      7  C   UNL     1      58.654 -29.384   0.187  1.00  0.00     0.041 C 
ATOM      8  O   UNL     1      58.359 -28.820   1.273  1.00  0.00    -0.550 OA
ATOM      9  O   UNL     1      58.575 -30.769   0.089  1.00  0.00    -0.550 OA
ENDBRANCH   6   7
ENDBRANCH   5   6
ENDBRANCH   4   5
ENDBRANCH   3   4
ENDBRANCH   2   3
ENDBRANCH   1   2
BRANCH   1  10
ATOM     10  C   UNL     1      63.036 -26.074  -3.139  1.00  0.00     0.000 C 
BRANCH  10  11
ATOM     11  C   UNL     1      61.562 -25.685  -2.909  1.00  0.00    -0.000 C 
BRANCH  11  12
ATOM     12  C   UNL     1      60.651 -25.818  -4.146  1.00  0.00    -0.000 C 
BRANCH  12  13
ATOM     13  C   UNL     1      59.143 -25.885  -3.841  1.00  0.00    -0.000 C 
BRANCH  13  14
ATOM     14  C   UNL     1      58.801 -25.429  -2.413  1.00  0.00    -0.000 C 
BRANCH  14  15
ATOM     15  C   UNL     1      57.289 -25.423  -2.143  1.00  0.00    -0.003 C 
ATOM     16  C   UNL     1      56.953 -25.462  -0.652  1.00  0.00     0.004 C 
ENDBRANCH  14  15
ENDBRANCH  13  14
ENDBRANCH  12  13
ENDBRANCH  11  12
ENDBRANCH  10  11
ENDBRANCH   1  10
TORSDOF 12
ENDMDL
MODEL 3
REMARK VINA RESULT:    -4.614      3.528      6.184
REMARK INTER + INTRA:          -9.144
REMARK INTER:                  -8.188
REMARK INTRA:                  -0.956
REMARK UNBOUND:                -1.294
REMARK SMILES CCCCCCCCCCCCCC(=O)[O-]
REMARK SMILES IDX 8 1 9 2 10 3 11 4 12 5 13 6 14 7 15 8 16 9 7 10 6 11 5 12
REMARK SMILES IDX 4 13 3 14 2 15 1 16
REMARK H PARENT
REMARK Flexibility Score: inf
ROOT
ATOM      1  C   UNL     1      63.645 -26.929  -2.083  1.00  0.00     0.000 C 
ENDROOT
BRANCH   1   2
ATOM      2  C   UNL     1      63.010 -28.328  -1.987  1.00  0.00     0.000 C 
BRANCH   2   3
ATOM      3  C   UNL     1      62.932 -28.851  -0.545  1.00  0.00     0.000 C 
BRANCH   3   4
ATOM      4  C   UNL     1      61.477 -29.118  -0.136  1.00  0.00     0.000 C 
BRANCH   4   5
ATOM      5  C   UNL     1      60.470 -28.837  -1.265  1.00  0.00     0.006 C 
BRANCH   5   6
ATOM      6  C   UNL     1      59.031 -28.596  -0.774  1.00  0.00     0.053 C 
BRANCH   6   7
ATOM      7  C   UNL     1      58.656 -29.480   0.377  1.00  0.00     0.041 C 
ATOM      8  O   UNL     1      58.349 -30.685   0.181  1.00  0.00    -0.550 OA
ATOM      9  O   UNL     1      58.614 -28.961   1.666  1.00  0.00    -0.550 OA
ENDBRANCH   6   7
ENDBRANCH   5   6
ENDBRANCH   4   5
ENDBRANCH   3   4
ENDBRANCH   2   3
ENDBRANCH   1   2
BRANCH   1  10
ATOM     10  C   UNL     1      62.915 -25.946  -3.021  1.00  0.00     0.000 C 
BRANCH  10  11
ATOM     11  C   UNL     1      61.402 -25.806  -2.766  1.00  0.00    -0.000 C 
BRANCH  11  12
ATOM     12  C   UNL     1      60.616 -25.079  -3.877  1.00  0.00    -0.000 C 
BRANCH  12  13
ATOM     13  C   UNL     1      59.547 -25.930  -4.585  1.00  0.00    -0.000 C 
BRANCH  13  14
ATOM     14  C   UNL     1      59.340 -25.529  -6.055  1.00  0.00    -0.000 C 
BRANCH  14  15
ATOM     15  C   UNL     1      60.628 -25.006  -6.709  1.00  0.00    -0.003 C 
ATOM     16  C   UNL     1      60.931 -25.683  -8.047  1.00  0.00     0.004 C 
ENDBRANCH  14  15
ENDBRANCH  13  14
ENDBRANCH  12  13
ENDBRANCH  11  12
ENDBRANCH  10  11
ENDBRANCH   1  10
TORSDOF 12
ENDMDL
MODEL 4
REMARK VINA RESULT:    -4.593      2.414      5.319
REMARK INTER + INTRA:          -9.108
REMARK INTER:                  -7.734
REMARK INTRA:                  -1.374
REMARK UNBOUND:                -1.294
REMARK SMILES CCCCCCCCCCCCCC(=O)[O-]
REMARK SMILES IDX 8 1 9 2 10 3 11 4 12 5 13 6 14 7 15 8 16 9 7 10 6 11 5 12
REMARK SMILES IDX 4 13 3 14 2 15 1 16
REMARK H PARENT
REMARK Flexibility Score: inf
ROOT
ATOM      1  C   UNL     1      63.575 -26.895  -1.984  1.00  0.00     0.000 C 
ENDROOT
BRANCH   1   2
ATOM      2  C   UNL     1      62.920 -28.288  -1.988  1.00  0.00     0.000 C 
BRANCH   2   3
ATOM      3  C   UNL     1      62.901 -28.943  -0.599  1.00  0.00     0.000 C 
BRANCH   3   4
ATOM      4  C   UNL     1      61.465 -29.066  -0.069  1.00  0.00     0.000 C 
BRANCH   4   5
ATOM      5  C   UNL     1      60.400 -28.907  -1.168  1.00  0.00     0.006 C 
BRANCH   5   6
ATOM      6  C   UNL     1      58.952 -28.964  -0.648  1.00  0.00     0.053 C 
BRANCH   6   7
ATOM      7  C   UNL     1      58.046 -28.000  -1.351  1.00  0.00     0.041 C 
ATOM      8  O   UNL     1      57.665 -28.228  -2.530  1.00  0.00    -0.550 OA
ATOM      9  O   UNL     1      57.648 -26.830  -0.715  1.00  0.00    -0.550 OA
ENDBRANCH   6   7
ENDBRANCH   5   6
ENDBRANCH   4   5
ENDBRANCH   3   4
ENDBRANCH   2   3
ENDBRANCH   1   2
BRANCH   1  10
ATOM     10  C   UNL     1      62.896 -25.855  -2.900  1.00  0.00     0.000 C 
BRANCH  10  11
ATOM     11  C   UNL     1      61.468 -26.218  -3.351  1.00  0.00    -0.000 C 
BRANCH  11  12
ATOM     12  C   UNL     1      60.343 -25.421  -2.660  1.00  0.00    -0.000 C 
BRANCH  12  13
ATOM     13  C   UNL     1      59.135 -25.087  -3.556  1.00  0.00    -0.000 C 
BRANCH  13  14
ATOM     14  C   UNL     1      59.469 -24.059  -4.650  1.00  0.00    -0.000 C 
BRANCH  14  15
ATOM     15  C   UNL     1      59.368 -24.650  -6.064  1.00  0.00    -0.003 C 
ATOM     16  C   UNL     1      60.735 -24.878  -6.710  1.00  0.00     0.004 C 
ENDBRANCH  14  15
ENDBRANCH  13  14
ENDBRANCH  12  13
ENDBRANCH  11  12
ENDBRANCH  10  11
ENDBRANCH   1  10
TORSDOF 12
ENDMDL
MODEL 5
REMARK VINA RESULT:    -4.588      1.624      3.118
REMARK INTER + INTRA:          -9.101
REMARK INTER:                  -7.763
REMARK INTRA:                  -1.338
REMARK UNBOUND:                -1.294
REMARK SMILES CCCCCCCCCCCCCC(=O)[O-]
REMARK SMILES IDX 8 1 9 2 10 3 11 4 12 5 13 6 14 7 15 8 16 9 7 10 6 11 5 12
REMARK SMILES IDX 4 13 3 14 2 15 1 16
REMARK H PARENT
REMARK Flexibility Score: inf
ROOT
ATOM      1  C   UNL     1      63.185 -28.631  -0.826  1.00  0.00     0.000 C 
ENDROOT
BRANCH   1   2
ATOM      2  C   UNL     1      63.184 -28.069  -2.259  1.00  0.00     0.000 C 
BRANCH   2   3
ATOM      3  C   UNL     1      63.664 -26.611  -2.329  1.00  0.00     0.000 C 
BRANCH   3   4
ATOM      4  C   UNL     1      62.785 -25.789  -3.282  1.00  0.00     0.000 C 
BRANCH   4   5
ATOM      5  C   UNL     1      61.336 -25.636  -2.787  1.00  0.00     0.006 C 
BRANCH   5   6
ATOM      6  C   UNL     1      60.280 -26.160  -3.777  1.00  0.00     0.053 C 
BRANCH   6   7
ATOM      7  C   UNL     1      58.877 -25.881  -3.329  1.00  0.00     0.041 C 
ATOM      8  O   UNL     1      57.916 -26.003  -4.132  1.00  0.00    -0.550 OA
ATOM      9  O   UNL     1      58.636 -25.452  -2.029  1.00  0.00    -0.550 OA
ENDBRANCH   6   7
ENDBRANCH   5   6
ENDBRANCH   4   5
ENDBRANCH   3   4
ENDBRANCH   2   3
ENDBRANCH   1   2
BRANCH   1  10
ATOM     10  C   UNL     1      61.798 -29.028  -0.282  1.00  0.00     0.000 C 
BRANCH  10  11
ATOM     11  C   UNL     1      60.640 -28.895  -1.291  1.00  0.00    -0.000 C 
BRANCH  11  12
ATOM     12  C   UNL     1      59.233 -28.812  -0.665  1.00  0.00    -0.000 C 
BRANCH  12  13
ATOM     13  C   UNL     1      58.958 -29.828   0.460  1.00  0.00    -0.000 C 
BRANCH  13  14
ATOM     14  C   UNL     1      58.103 -29.243   1.596  1.00  0.00    -0.000 C 
BRANCH  14  15
ATOM     15  C   UNL     1      58.948 -28.792   2.797  1.00  0.00    -0.003 C 
ATOM     16  C   UNL     1      60.203 -29.644   2.991  1.00  0.00     0.004 C 
ENDBRANCH  14  15
ENDBRANCH  13  14
ENDBRANCH  12  13
ENDBRANCH  11  12
ENDBRANCH  10  11
ENDBRANCH   1  10
TORSDOF 12
ENDMDL
MODEL 6
REMARK VINA RESULT:    -4.555      1.426      3.247
REMARK INTER + INTRA:          -9.044
REMARK INTER:                  -7.961
REMARK INTRA:                  -1.083
REMARK UNBOUND:                -1.294
REMARK SMILES CCCCCCCCCCCCCC(=O)[O-]
REMARK SMILES IDX 8 1 9 2 10 3 11 4 12 5 13 6 14 7 15 8 16 9 7 10 6 11 5 12
REMARK SMILES IDX 4 13 3 14 2 15 1 16
REMARK H PARENT
REMARK Flexibility Score: inf
ROOT
ATOM      1  C   UNL     1      62.563 -28.848  -0.575  1.00  0.00     0.000 C 
ENDROOT
BRANCH   1   2
ATOM      2  C   UNL     1      62.933 -28.369  -1.991  1.00  0.00     0.000 C 
BRANCH   2   3
ATOM      3  C   UNL     1      63.642 -27.006  -1.995  1.00  0.00     0.000 C 
BRANCH   3   4
ATOM      4  C   UNL     1      62.809 -25.956  -2.742  1.00  0.00     0.000 C 
BRANCH   4   5
ATOM      5  C   UNL     1      61.347 -26.385  -2.958  1.00  0.00     0.006 C 
BRANCH   5   6
ATOM      6  C   UNL     1      60.357 -25.210  -3.046  1.00  0.00     0.053 C 
BRANCH   6   7
ATOM      7  C   UNL     1      60.104 -24.770  -4.456  1.00  0.00     0.041 C 
ATOM      8  O   UNL     1      60.472 -25.487  -5.422  1.00  0.00    -0.550 OA
ATOM      9  O   UNL     1      59.489 -23.547  -4.702  1.00  0.00    -0.550 OA
ENDBRANCH   6   7
ENDBRANCH   5   6
ENDBRANCH   4   5
ENDBRANCH   3   4
ENDBRANCH   2   3
ENDBRANCH   1   2
BRANCH   1  10
ATOM     10  C   UNL     1      61.062 -29.126  -0.355  1.00  0.00     0.000 C 
BRANCH  10  11
ATOM     11  C   UNL     1      60.629 -29.228   1.121  1.00  0.00    -0.000 C 
BRANCH  11  12
ATOM     12  C   UNL     1      59.207 -29.780   1.348  1.00  0.00    -0.000 C 
BRANCH  12  13
ATOM     13  C   UNL     1      58.417 -30.097   0.065  1.00  0.00    -0.000 C 
BRANCH  13  14
ATOM     14  C   UNL     1      57.227 -29.147  -0.154  1.00  0.00    -0.000 C 
BRANCH  14  15
ATOM     15  C   UNL     1      57.671 -27.715  -0.488  1.00  0.00    -0.003 C 
ATOM     16  C   UNL     1      57.480 -27.365  -1.965  1.00  0.00     0.004 C 
ENDBRANCH  14  15
ENDBRANCH  13  14
ENDBRANCH  12  13
ENDBRANCH  11  12
ENDBRANCH  10  11
ENDBRANCH   1  10
TORSDOF 12
ENDMDL
MODEL 7
REMARK VINA RESULT:    -4.528      2.890      5.244
REMARK INTER + INTRA:          -8.999
REMARK INTER:                  -7.645
REMARK INTRA:                  -1.354
REMARK UNBOUND:                -1.294
REMARK SMILES CCCCCCCCCCCCCC(=O)[O-]
REMARK SMILES IDX 8 1 9 2 10 3 11 4 12 5 13 6 14 7 15 8 16 9 7 10 6 11 5 12
REMARK SMILES IDX 4 13 3 14 2 15 1 16
REMARK H PARENT
REMARK Flexibility Score: inf
ROOT
ATOM      1  C   UNL     1      62.518 -28.460  -1.862  1.00  0.00     0.000 C 
ENDROOT
BRANCH   1   2
ATOM      2  C   UNL     1      62.237 -28.973  -0.438  1.00  0.00     0.000 C 
BRANCH   2   3
ATOM      3  C   UNL     1      60.753 -29.290  -0.199  1.00  0.00     0.000 C 
BRANCH   3   4
ATOM      4  C   UNL     1      60.415 -29.248   1.298  1.00  0.00     0.000 C 
BRANCH   4   5
ATOM      5  C   UNL     1      58.953 -29.620   1.599  1.00  0.00     0.006 C 
BRANCH   5   6
ATOM      6  C   UNL     1      58.108 -29.900   0.343  1.00  0.00     0.053 C 
BRANCH   6   7
ATOM      7  C   UNL     1      57.140 -28.798   0.039  1.00  0.00     0.041 C 
ATOM      8  O   UNL     1      56.141 -29.013  -0.696  1.00  0.00    -0.550 OA
ATOM      9  O   UNL     1      57.361 -27.521   0.541  1.00  0.00    -0.550 OA
ENDBRANCH   6   7
ENDBRANCH   5   6
ENDBRANCH   4   5
ENDBRANCH   3   4
ENDBRANCH   2   3
ENDBRANCH   1   2
BRANCH   1  10
ATOM     10  C   UNL     1      63.744 -27.534  -1.989  1.00  0.00     0.000 C 
BRANCH  10  11
ATOM     11  C   UNL     1      63.598 -26.397  -3.019  1.00  0.00    -0.000 C 
BRANCH  11  12
ATOM     12  C   UNL     1      62.297 -25.576  -2.905  1.00  0.00    -0.000 C 
BRANCH  12  13
ATOM     13  C   UNL     1      61.401 -25.595  -4.157  1.00  0.00    -0.000 C 
BRANCH  13  14
ATOM     14  C   UNL     1      59.901 -25.555  -3.819  1.00  0.00    -0.000 C 
BRANCH  14  15
ATOM     15  C   UNL     1      59.536 -26.482  -2.650  1.00  0.00    -0.003 C 
ATOM     16  C   UNL     1      58.851 -27.770  -3.107  1.00  0.00     0.004 C 
ENDBRANCH  14  15
ENDBRANCH  13  14
ENDBRANCH  12  13
ENDBRANCH  11  12
ENDBRANCH  10  11
ENDBRANCH   1  10
TORSDOF 12
ENDMDL
MODEL 8
REMARK VINA RESULT:    -4.525      3.624      5.867
REMARK INTER + INTRA:          -8.993
REMARK INTER:                  -7.713
REMARK INTRA:                  -1.280
REMARK UNBOUND:                -1.294
REMARK SMILES CCCCCCCCCCCCCC(=O)[O-]
REMARK SMILES IDX 8 1 9 2 10 3 11 4 12 5 13 6 14 7 15 8 16 9 7 10 6 11 5 12
REMARK SMILES IDX 4 13 3 14 2 15 1 16
REMARK H PARENT
REMARK Flexibility Score: inf
ROOT
ATOM      1  C   UNL     1      62.874 -29.164  -0.969  1.00  0.00     0.000 C 
ENDROOT
BRANCH   1   2
ATOM      2  C   UNL     1      61.507 -28.986  -0.283  1.00  0.00     0.000 C 
BRANCH   2   3
ATOM      3  C   UNL     1      60.340 -28.934  -1.282  1.00  0.00     0.000 C 
BRANCH   3   4
ATOM      4  C   UNL     1      59.025 -28.586  -0.572  1.00  0.00     0.000 C 
BRANCH   4   5
ATOM      5  C   UNL     1      58.428 -29.770   0.210  1.00  0.00     0.006 C 
BRANCH   5   6
ATOM      6  C   UNL     1      57.934 -29.402   1.621  1.00  0.00     0.053 C 
BRANCH   6   7
ATOM      7  C   UNL     1      59.057 -29.127   2.574  1.00  0.00     0.041 C 
ATOM      8  O   UNL     1      59.087 -28.052   3.229  1.00  0.00    -0.550 OA
ATOM      9  O   UNL     1      60.090 -30.046   2.714  1.00  0.00    -0.550 OA
ENDBRANCH   6   7
ENDBRANCH   5   6
ENDBRANCH   4   5
ENDBRANCH   3   4
ENDBRANCH   2   3
ENDBRANCH   1   2
BRANCH   1  10
ATOM     10  C   UNL     1      63.598 -27.850  -1.326  1.00  0.00     0.000 C 
BRANCH  10  11
ATOM     11  C   UNL     1      63.296 -27.302  -2.735  1.00  0.00    -0.000 C 
BRANCH  11  12
ATOM     12  C   UNL     1      62.755 -25.858  -2.773  1.00  0.00    -0.000 C 
BRANCH  12  13
ATOM     13  C   UNL     1      61.549 -25.637  -3.703  1.00  0.00    -0.000 C 
BRANCH  13  14
ATOM     14  C   UNL     1      60.200 -25.834  -2.990  1.00  0.00    -0.000 C 
BRANCH  14  15
ATOM     15  C   UNL     1      59.076 -26.232  -3.958  1.00  0.00    -0.003 C 
ATOM     16  C   UNL     1      57.721 -26.376  -3.264  1.00  0.00     0.004 C 
ENDBRANCH  14  15
ENDBRANCH  13  14
ENDBRANCH  12  13
ENDBRANCH  11  12
ENDBRANCH  10  11
ENDBRANCH   1  10
TORSDOF 12
ENDMDL
MODEL 9
REMARK VINA RESULT:    -4.514      1.986      4.521
REMARK INTER + INTRA:          -8.975
REMARK INTER:                  -7.719
REMARK INTRA:                  -1.256
REMARK UNBOUND:                -1.294
REMARK SMILES CCCCCCCCCCCCCC(=O)[O-]
REMARK SMILES IDX 8 1 9 2 10 3 11 4 12 5 13 6 14 7 15 8 16 9 7 10 6 11 5 12
REMARK SMILES IDX 4 13 3 14 2 15 1 16
REMARK H PARENT
REMARK Flexibility Score: inf
ROOT
ATOM      1  C   UNL     1      62.791 -29.089  -1.219  1.00  0.00     0.000 C 
ENDROOT
BRANCH   1   2
ATOM      2  C   UNL     1      61.493 -28.913  -0.411  1.00  0.00     0.000 C 
BRANCH   2   3
ATOM      3  C   UNL     1      60.232 -28.955  -1.288  1.00  0.00     0.000 C 
BRANCH   3   4
ATOM      4  C   UNL     1      58.982 -29.228  -0.441  1.00  0.00     0.000 C 
BRANCH   4   5
ATOM      5  C   UNL     1      57.688 -28.698  -1.085  1.00  0.00     0.006 C 
BRANCH   5   6
ATOM      6  C   UNL     1      57.912 -27.938  -2.404  1.00  0.00     0.053 C 
BRANCH   6   7
ATOM      7  C   UNL     1      57.358 -26.547  -2.373  1.00  0.00     0.041 C 
ATOM      8  O   UNL     1      57.610 -25.783  -1.404  1.00  0.00    -0.550 OA
ATOM      9  O   UNL     1      56.533 -26.104  -3.401  1.00  0.00    -0.550 OA
ENDBRANCH   6   7
ENDBRANCH   5   6
ENDBRANCH   4   5
ENDBRANCH   3   4
ENDBRANCH   2   3
ENDBRANCH   1   2
BRANCH   1  10
ATOM     10  C   UNL     1      63.626 -27.804  -1.396  1.00  0.00     0.000 C 
BRANCH  10  11
ATOM     11  C   UNL     1      63.451 -27.095  -2.753  1.00  0.00    -0.000 C 
BRANCH  11  12
ATOM     12  C   UNL     1      62.525 -25.862  -2.732  1.00  0.00    -0.000 C 
BRANCH  12  13
ATOM     13  C   UNL     1      61.113 -26.095  -3.300  1.00  0.00    -0.000 C 
BRANCH  13  14
ATOM     14  C   UNL     1      60.331 -24.788  -3.510  1.00  0.00    -0.000 C 
BRANCH  14  15
ATOM     15  C   UNL     1      59.751 -24.671  -4.928  1.00  0.00    -0.003 C 
ATOM     16  C   UNL     1      60.711 -25.178  -6.005  1.00  0.00     0.004 C 
ENDBRANCH  14  15
ENDBRANCH  13  14
ENDBRANCH  12  13
ENDBRANCH  11  12
ENDBRANCH  10  11
ENDBRANCH   1  10
TORSDOF 12
ENDMDL
