MODEL 1
REMARK VINA RESULT:    -3.619      0.000      0.000
REMARK INTER + INTRA:          -9.725
REMARK INTER:                  -6.793
REMARK INTRA:                  -2.932
REMARK UNBOUND:                -2.932
REMARK SMILES CCCCCCCCC=CCCCCCCCC(=O)[O-]
REMARK SMILES IDX 10 1 9 2 11 3 12 4 13 5 14 6 15 7 16 8 17 9 18 10 19 11
REMARK SMILES IDX 20 12 8 13 7 14 6 15 5 16 4 17 3 18 2 19 1 20
REMARK H PARENT
REMARK Flexibility Score: inf
ROOT
ATOM      1  C   UNL     1     164.449 152.548 163.699  1.00  0.00    -0.031 C 
ATOM      2  C   UNL     1     163.143 152.477 163.382  1.00  0.00    -0.031 C 
ENDROOT
BRANCH   1   3
ATOM      3  C   UNL     1     165.031 153.502 164.711  1.00  0.00     0.027 C 
BRANCH   3   4
ATOM      4  C   UNL     1     165.420 154.829 164.043  1.00  0.00     0.004 C 
BRANCH   4   5
ATOM      5  C   UNL     1     164.816 156.048 164.760  1.00  0.00     0.000 C 
BRANCH   5   6
ATOM      6  C   UNL     1     164.019 155.653 166.016  1.00  0.00     0.000 C 
BRANCH   6   7
ATOM      7  C   UNL     1     162.870 156.629 166.318  1.00  0.00     0.000 C 
BRANCH   7   8
ATOM      8  C   UNL     1     162.672 157.668 165.204  1.00  0.00     0.006 C 
BRANCH   8   9
ATOM      9  C   UNL     1     161.293 157.519 164.556  1.00  0.00     0.053 C 
BRANCH   9  10
ATOM     10  C   UNL     1     160.438 158.708 164.865  1.00  0.00     0.041 C 
ATOM     11  O   UNL     1     160.967 159.794 165.221  1.00  0.00    -0.550 OA
ATOM     12  O   UNL     1     159.054 158.603 164.808  1.00  0.00    -0.550 OA
ENDBRANCH   9  10
ENDBRANCH   8   9
ENDBRANCH   7   8
ENDBRANCH   6   7
ENDBRANCH   5   6
ENDBRANCH   4   5
ENDBRANCH   3   4
ENDBRANCH   1   3
BRANCH   2  13
ATOM     13  C   UNL     1     162.078 153.400 163.923  1.00  0.00     0.027 C 
BRANCH  13  14
ATOM     14  C   UNL     1     161.312 154.110 162.797  1.00  0.00     0.004 C 
BRANCH  14  15
ATOM     15  C   UNL     1     162.193 155.117 162.042  1.00  0.00     0.000 C 
BRANCH  15  16
ATOM     16  C   UNL     1     162.365 154.706 160.576  1.00  0.00     0.000 C 
BRANCH  16  17
ATOM     17  C   UNL     1     163.820 154.887 160.119  1.00  0.00    -0.000 C 
BRANCH  17  18
ATOM     18  C   UNL     1     164.581 153.555 159.992  1.00  0.00    -0.000 C 
BRANCH  18  19
ATOM     19  C   UNL     1     166.013 153.571 160.554  1.00  0.00    -0.003 C 
ATOM     20  C   UNL     1     166.668 154.950 160.482  1.00  0.00     0.004 C 
ENDBRANCH  18  19
ENDBRANCH  17  18
ENDBRANCH  16  17
ENDBRANCH  15  16
ENDBRANCH  14  15
ENDBRANCH  13  14
ENDBRANCH   2  13
TORSDOF 15
ENDMDL
MODEL 2
REMARK VINA RESULT:    -3.488      1.007      2.086
REMARK INTER + INTRA:          -9.479
REMARK INTER:                  -6.557
REMARK INTRA:                  -2.922
REMARK UNBOUND:                -2.932
REMARK SMILES CCCCCCCCC=CCCCCCCCC(=O)[O-]
REMARK SMILES IDX 10 1 9 2 11 3 12 4 13 5 14 6 15 7 16 8 17 9 18 10 19 11
REMARK SMILES IDX 20 12 8 13 7 14 6 15 5 16 4 17 3 18 2 19 1 20
REMARK H PARENT
REMARK Flexibility Score: inf
ROOT
ATOM      1  C   UNL     1     165.656 152.831 164.532  1.00  0.00    -0.031 C 
ATOM      2  C   UNL     1     164.535 152.093 164.428  1.00  0.00    -0.031 C 
ENDROOT
BRANCH   1   3
ATOM      3  C   UNL     1     166.332 153.523 163.376  1.00  0.00     0.027 C 
BRANCH   3   4
ATOM      4  C   UNL     1     165.929 155.004 163.320  1.00  0.00     0.004 C 
BRANCH   4   5
ATOM      5  C   UNL     1     165.795 155.629 164.719  1.00  0.00     0.000 C 
BRANCH   5   6
ATOM      6  C   UNL     1     164.452 156.356 164.910  1.00  0.00     0.000 C 
BRANCH   6   7
ATOM      7  C   UNL     1     163.708 155.899 166.175  1.00  0.00     0.000 C 
BRANCH   7   8
ATOM      8  C   UNL     1     162.443 156.728 166.445  1.00  0.00     0.006 C 
BRANCH   8   9
ATOM      9  C   UNL     1     162.569 158.131 165.846  1.00  0.00     0.053 C 
BRANCH   9  10
ATOM     10  C   UNL     1     161.316 158.503 165.117  1.00  0.00     0.041 C 
ATOM     11  O   UNL     1     160.750 157.669 164.363  1.00  0.00    -0.550 OA
ATOM     12  O   UNL     1     160.802 159.788 165.230  1.00  0.00    -0.550 OA
ENDBRANCH   9  10
ENDBRANCH   8   9
ENDBRANCH   7   8
ENDBRANCH   6   7
ENDBRANCH   5   6
ENDBRANCH   4   5
ENDBRANCH   3   4
ENDBRANCH   1   3
BRANCH   2  13
ATOM     13  C   UNL     1     163.838 151.770 163.128  1.00  0.00     0.027 C 
BRANCH  13  14
ATOM     14  C   UNL     1     162.348 152.139 163.171  1.00  0.00     0.004 C 
BRANCH  14  15
ATOM     15  C   UNL     1     162.087 153.396 164.014  1.00  0.00     0.000 C 
BRANCH  15  16
ATOM     16  C   UNL     1     161.342 154.459 163.199  1.00  0.00     0.000 C 
BRANCH  16  17
ATOM     17  C   UNL     1     162.301 155.202 162.255  1.00  0.00    -0.000 C 
BRANCH  17  18
ATOM     18  C   UNL     1     162.190 154.730 160.794  1.00  0.00    -0.000 C 
BRANCH  18  19
ATOM     19  C   UNL     1     163.460 154.936 159.950  1.00  0.00    -0.003 C 
ATOM     20  C   UNL     1     164.468 153.798 160.099  1.00  0.00     0.004 C 
ENDBRANCH  18  19
ENDBRANCH  17  18
ENDBRANCH  16  17
ENDBRANCH  15  16
ENDBRANCH  14  15
ENDBRANCH  13  14
ENDBRANCH   2  13
TORSDOF 15
ENDMDL
MODEL 3
REMARK VINA RESULT:    -3.412      9.498     12.476
REMARK INTER + INTRA:          -9.336
REMARK INTER:                  -7.965
REMARK INTRA:                  -1.371
REMARK UNBOUND:                -2.932
REMARK SMILES CCCCCCCCC=CCCCCCCCC(=O)[O-]
REMARK SMILES IDX 10 1 9 2 11 3 12 4 13 5 14 6 15 7 16 8 17 9 18 10 19 11
REMARK SMILES IDX 20 12 8 13 7 14 6 15 5 16 4 17 3 18 2 19 1 20
REMARK H PARENT
REMARK Flexibility Score: inf
ROOT
ATOM      1  C   UNL     1     158.401 156.984 149.879  1.00  0.00    -0.031 C 
ATOM      2  C   UNL     1     159.734 156.821 149.966  1.00  0.00    -0.031 C 
ENDROOT
BRANCH   1   3
ATOM      3  C   UNL     1     157.612 158.004 150.661  1.00  0.00     0.027 C 
BRANCH   3   4
ATOM      4  C   UNL     1     157.272 157.468 152.059  1.00  0.00     0.004 C 
BRANCH   4   5
ATOM      5  C   UNL     1     157.071 155.944 152.072  1.00  0.00     0.000 C 
BRANCH   5   6
ATOM      6  C   UNL     1     157.930 155.248 153.142  1.00  0.00     0.000 C 
BRANCH   6   7
ATOM      7  C   UNL     1     159.021 154.353 152.534  1.00  0.00     0.000 C 
BRANCH   7   8
ATOM      8  C   UNL     1     160.286 154.291 153.403  1.00  0.00     0.006 C 
BRANCH   8   9
ATOM      9  C   UNL     1     159.926 154.256 154.891  1.00  0.00     0.053 C 
BRANCH   9  10
ATOM     10  C   UNL     1     161.139 154.511 155.730  1.00  0.00     0.041 C 
ATOM     11  O   UNL     1     161.083 154.384 156.981  1.00  0.00    -0.550 OA
ATOM     12  O   UNL     1     162.318 154.938 155.134  1.00  0.00    -0.550 OA
ENDBRANCH   9  10
ENDBRANCH   8   9
ENDBRANCH   7   8
ENDBRANCH   6   7
ENDBRANCH   5   6
ENDBRANCH   4   5
ENDBRANCH   3   4
ENDBRANCH   1   3
BRANCH   2  13
ATOM     13  C   UNL     1     160.628 157.569 150.926  1.00  0.00     0.027 C 
BRANCH  13  14
ATOM     14  C   UNL     1     161.218 158.835 150.289  1.00  0.00     0.004 C 
BRANCH  14  15
ATOM     15  C   UNL     1     162.747 158.760 150.159  1.00  0.00     0.000 C 
BRANCH  15  16
ATOM     16  C   UNL     1     163.426 159.021 151.508  1.00  0.00     0.000 C 
BRANCH  16  17
ATOM     17  C   UNL     1     164.680 159.892 151.335  1.00  0.00    -0.000 C 
BRANCH  17  18
ATOM     18  C   UNL     1     165.664 159.769 152.512  1.00  0.00    -0.000 C 
BRANCH  18  19
ATOM     19  C   UNL     1     166.140 158.337 152.810  1.00  0.00    -0.003 C 
ATOM     20  C   UNL     1     166.239 158.039 154.306  1.00  0.00     0.004 C 
ENDBRANCH  18  19
ENDBRANCH  17  18
ENDBRANCH  16  17
ENDBRANCH  15  16
ENDBRANCH  14  15
ENDBRANCH  13  14
ENDBRANCH   2  13
TORSDOF 15
ENDMDL
MODEL 4
REMARK VINA RESULT:    -3.385      3.189      5.949
REMARK INTER + INTRA:          -9.286
REMARK INTER:                  -6.618
REMARK INTRA:                  -2.668
REMARK UNBOUND:                -2.932
REMARK SMILES CCCCCCCCC=CCCCCCCCC(=O)[O-]
REMARK SMILES IDX 10 1 9 2 11 3 12 4 13 5 14 6 15 7 16 8 17 9 18 10 19 11
REMARK SMILES IDX 20 12 8 13 7 14 6 15 5 16 4 17 3 18 2 19 1 20
REMARK H PARENT
REMARK Flexibility Score: inf
ROOT
ATOM      1  C   UNL     1     164.745 152.238 164.472  1.00  0.00    -0.031 C 
ATOM      2  C   UNL     1     165.512 153.296 164.794  1.00  0.00    -0.031 C 
ENDROOT
BRANCH   1   3
ATOM      3  C   UNL     1     163.865 152.162 163.250  1.00  0.00     0.027 C 
BRANCH   3   4
ATOM      4  C   UNL     1     162.383 152.125 163.651  1.00  0.00     0.004 C 
BRANCH   4   5
ATOM      5  C   UNL     1     161.851 153.509 164.060  1.00  0.00     0.000 C 
BRANCH   5   6
ATOM      6  C   UNL     1     161.152 154.235 162.897  1.00  0.00     0.000 C 
BRANCH   6   7
ATOM      7  C   UNL     1     162.008 155.366 162.307  1.00  0.00     0.000 C 
BRANCH   7   8
ATOM      8  C   UNL     1     162.777 154.929 161.051  1.00  0.00     0.006 C 
BRANCH   8   9
ATOM      9  C   UNL     1     161.821 154.394 159.982  1.00  0.00     0.053 C 
BRANCH   9  10
ATOM     10  C   UNL     1     162.260 153.041 159.517  1.00  0.00     0.041 C 
ATOM     11  O   UNL     1     163.033 152.930 158.528  1.00  0.00    -0.550 OA
ATOM     12  O   UNL     1     161.778 151.900 160.143  1.00  0.00    -0.550 OA
ENDBRANCH   9  10
ENDBRANCH   8   9
ENDBRANCH   7   8
ENDBRANCH   6   7
ENDBRANCH   5   6
ENDBRANCH   4   5
ENDBRANCH   3   4
ENDBRANCH   1   3
BRANCH   2  13
ATOM     13  C   UNL     1     165.539 154.599 164.032  1.00  0.00     0.027 C 
BRANCH  13  14
ATOM     14  C   UNL     1     164.781 155.710 164.773  1.00  0.00     0.004 C 
BRANCH  14  15
ATOM     15  C   UNL     1     164.423 155.307 166.211  1.00  0.00     0.000 C 
BRANCH  15  16
ATOM     16  C   UNL     1     163.294 156.185 166.764  1.00  0.00     0.000 C 
BRANCH  16  17
ATOM     17  C   UNL     1     162.511 156.857 165.625  1.00  0.00    -0.000 C 
BRANCH  17  18
ATOM     18  C   UNL     1     162.531 158.394 165.708  1.00  0.00    -0.000 C 
BRANCH  18  19
ATOM     19  C   UNL     1     161.248 159.085 165.214  1.00  0.00    -0.003 C 
ATOM     20  C   UNL     1     160.334 158.153 164.421  1.00  0.00     0.004 C 
ENDBRANCH  18  19
ENDBRANCH  17  18
ENDBRANCH  16  17
ENDBRANCH  15  16
ENDBRANCH  14  15
ENDBRANCH  13  14
ENDBRANCH   2  13
TORSDOF 15
ENDMDL
MODEL 5
REMARK VINA RESULT:    -3.326      1.439      3.236
REMARK INTER + INTRA:          -9.174
REMARK INTER:                  -6.109
REMARK INTRA:                  -3.065
REMARK UNBOUND:                -2.932
REMARK SMILES CCCCCCCCC=CCCCCCCCC(=O)[O-]
REMARK SMILES IDX 10 1 9 2 11 3 12 4 13 5 14 6 15 7 16 8 17 9 18 10 19 11
REMARK SMILES IDX 20 12 8 13 7 14 6 15 5 16 4 17 3 18 2 19 1 20
REMARK H PARENT
REMARK Flexibility Score: inf
ROOT
ATOM      1  C   UNL     1     164.641 154.159 161.251  1.00  0.00    -0.031 C 
ATOM      2  C   UNL     1     163.322 154.398 161.135  1.00  0.00    -0.031 C 
ENDROOT
BRANCH   1   3
ATOM      3  C   UNL     1     165.461 154.478 162.476  1.00  0.00     0.027 C 
BRANCH   3   4
ATOM      4  C   UNL     1     165.468 153.289 163.447  1.00  0.00     0.004 C 
BRANCH   4   5
ATOM      5  C   UNL     1     165.186 153.713 164.898  1.00  0.00     0.000 C 
BRANCH   5   6
ATOM      6  C   UNL     1     165.124 155.242 165.060  1.00  0.00     0.000 C 
BRANCH   6   7
ATOM      7  C   UNL     1     163.922 155.699 165.901  1.00  0.00     0.000 C 
BRANCH   7   8
ATOM      8  C   UNL     1     163.322 157.023 165.402  1.00  0.00     0.006 C 
BRANCH   8   9
ATOM      9  C   UNL     1     161.794 156.942 165.338  1.00  0.00     0.053 C 
BRANCH   9  10
ATOM     10  C   UNL     1     161.221 158.235 164.850  1.00  0.00     0.041 C 
ATOM     11  O   UNL     1     161.791 159.324 165.124  1.00  0.00    -0.550 OA
ATOM     12  O   UNL     1     160.030 158.243 164.136  1.00  0.00    -0.550 OA
ENDBRANCH   9  10
ENDBRANCH   8   9
ENDBRANCH   7   8
ENDBRANCH   6   7
ENDBRANCH   5   6
ENDBRANCH   4   5
ENDBRANCH   3   4
ENDBRANCH   1   3
BRANCH   2  13
ATOM     13  C   UNL     1     162.483 155.104 162.173  1.00  0.00     0.027 C 
BRANCH  13  14
ATOM     14  C   UNL     1     161.349 154.211 162.696  1.00  0.00     0.004 C 
BRANCH  14  15
ATOM     15  C   UNL     1     161.768 153.411 163.939  1.00  0.00     0.000 C 
BRANCH  15  16
ATOM     16  C   UNL     1     161.430 151.925 163.775  1.00  0.00     0.000 C 
BRANCH  16  17
ATOM     17  C   UNL     1     162.272 151.287 162.660  1.00  0.00    -0.000 C 
BRANCH  17  18
ATOM     18  C   UNL     1     163.353 150.331 163.195  1.00  0.00    -0.000 C 
BRANCH  18  19
ATOM     19  C   UNL     1     163.178 149.915 164.667  1.00  0.00    -0.003 C 
ATOM     20  C   UNL     1     164.460 150.060 165.485  1.00  0.00     0.004 C 
ENDBRANCH  18  19
ENDBRANCH  17  18
ENDBRANCH  16  17
ENDBRANCH  15  16
ENDBRANCH  14  15
ENDBRANCH  13  14
ENDBRANCH   2  13
TORSDOF 15
ENDMDL
MODEL 6
REMARK VINA RESULT:    -3.321      1.712      3.569
REMARK INTER + INTRA:          -9.165
REMARK INTER:                  -6.395
REMARK INTRA:                  -2.770
REMARK UNBOUND:                -2.932
REMARK SMILES CCCCCCCCC=CCCCCCCCC(=O)[O-]
REMARK SMILES IDX 10 1 9 2 11 3 12 4 13 5 14 6 15 7 16 8 17 9 18 10 19 11
REMARK SMILES IDX 20 12 8 13 7 14 6 15 5 16 4 17 3 18 2 19 1 20
REMARK H PARENT
REMARK Flexibility Score: inf
ROOT
ATOM      1  C   UNL     1     162.504 153.177 163.788  1.00  0.00    -0.031 C 
ATOM      2  C   UNL     1     161.749 154.191 163.325  1.00  0.00    -0.031 C 
ENDROOT
BRANCH   1   3
ATOM      3  C   UNL     1     163.972 153.002 163.493  1.00  0.00     0.027 C 
BRANCH   3   4
ATOM      4  C   UNL     1     164.825 153.519 164.660  1.00  0.00     0.004 C 
BRANCH   4   5
ATOM      5  C   UNL     1     165.574 154.815 164.311  1.00  0.00     0.000 C 
BRANCH   5   6
ATOM      6  C   UNL     1     164.895 156.063 164.903  1.00  0.00     0.000 C 
BRANCH   6   7
ATOM      7  C   UNL     1     164.017 155.736 166.121  1.00  0.00     0.000 C 
BRANCH   7   8
ATOM      8  C   UNL     1     162.710 156.543 166.139  1.00  0.00     0.006 C 
BRANCH   8   9
ATOM      9  C   UNL     1     162.767 157.700 165.137  1.00  0.00     0.053 C 
BRANCH   9  10
ATOM     10  C   UNL     1     161.395 158.239 164.881  1.00  0.00     0.041 C 
ATOM     11  O   UNL     1     161.149 159.460 165.062  1.00  0.00    -0.550 OA
ATOM     12  O   UNL     1     160.374 157.383 164.489  1.00  0.00    -0.550 OA
ENDBRANCH   9  10
ENDBRANCH   8   9
ENDBRANCH   7   8
ENDBRANCH   6   7
ENDBRANCH   5   6
ENDBRANCH   4   5
ENDBRANCH   3   4
ENDBRANCH   1   3
BRANCH   2  13
ATOM     13  C   UNL     1     162.234 155.253 162.367  1.00  0.00     0.027 C 
BRANCH  13  14
ATOM     14  C   UNL     1     162.387 154.708 160.940  1.00  0.00     0.004 C 
BRANCH  14  15
ATOM     15  C   UNL     1     161.086 154.080 160.417  1.00  0.00     0.000 C 
BRANCH  15  16
ATOM     16  C   UNL     1     161.278 152.590 160.113  1.00  0.00     0.000 C 
BRANCH  16  17
ATOM     17  C   UNL     1     160.009 151.792 160.446  1.00  0.00    -0.000 C 
BRANCH  17  18
ATOM     18  C   UNL     1     159.064 152.538 161.404  1.00  0.00    -0.000 C 
BRANCH  18  19
ATOM     19  C   UNL     1     158.961 151.932 162.815  1.00  0.00    -0.003 C 
ATOM     20  C   UNL     1     158.180 152.812 163.789  1.00  0.00     0.004 C 
ENDBRANCH  18  19
ENDBRANCH  17  18
ENDBRANCH  16  17
ENDBRANCH  15  16
ENDBRANCH  14  15
ENDBRANCH  13  14
ENDBRANCH   2  13
TORSDOF 15
ENDMDL
MODEL 7
REMARK VINA RESULT:    -3.311      1.222      3.026
REMARK INTER + INTRA:          -9.146
REMARK INTER:                  -6.740
REMARK INTRA:                  -2.406
REMARK UNBOUND:                -2.932
REMARK SMILES CCCCCCCCC=CCCCCCCCC(=O)[O-]
REMARK SMILES IDX 10 1 9 2 11 3 12 4 13 5 14 6 15 7 16 8 17 9 18 10 19 11
REMARK SMILES IDX 20 12 8 13 7 14 6 15 5 16 4 17 3 18 2 19 1 20
REMARK H PARENT
REMARK Flexibility Score: inf
ROOT
ATOM      1  C   UNL     1     165.132 153.615 164.754  1.00  0.00    -0.031 C 
ATOM      2  C   UNL     1     165.229 152.584 163.895  1.00  0.00    -0.031 C 
ENDROOT
BRANCH   1   3
ATOM      3  C   UNL     1     165.574 155.025 164.450  1.00  0.00     0.027 C 
BRANCH   3   4
ATOM      4  C   UNL     1     164.660 156.041 165.149  1.00  0.00     0.004 C 
BRANCH   4   5
ATOM      5  C   UNL     1     164.119 155.519 166.491  1.00  0.00     0.000 C 
BRANCH   5   6
ATOM      6  C   UNL     1     163.051 156.449 167.094  1.00  0.00     0.000 C 
BRANCH   6   7
ATOM      7  C   UNL     1     162.155 157.093 166.025  1.00  0.00     0.000 C 
BRANCH   7   8
ATOM      8  C   UNL     1     162.244 158.627 166.027  1.00  0.00     0.006 C 
BRANCH   8   9
ATOM      9  C   UNL     1     161.462 159.222 164.853  1.00  0.00     0.053 C 
BRANCH   9  10
ATOM     10  C   UNL     1     159.991 159.173 165.124  1.00  0.00     0.041 C 
ATOM     11  O   UNL     1     159.274 158.298 164.573  1.00  0.00    -0.550 OA
ATOM     12  O   UNL     1     159.404 160.125 165.948  1.00  0.00    -0.550 OA
ENDBRANCH   9  10
ENDBRANCH   8   9
ENDBRANCH   7   8
ENDBRANCH   6   7
ENDBRANCH   5   6
ENDBRANCH   4   5
ENDBRANCH   3   4
ENDBRANCH   1   3
BRANCH   2  13
ATOM     13  C   UNL     1     165.876 152.661 162.532  1.00  0.00     0.027 C 
BRANCH  13  14
ATOM     14  C   UNL     1     164.835 152.809 161.413  1.00  0.00     0.004 C 
BRANCH  14  15
ATOM     15  C   UNL     1     164.274 154.237 161.330  1.00  0.00     0.000 C 
BRANCH  15  16
ATOM     16  C   UNL     1     162.746 154.221 161.215  1.00  0.00     0.000 C 
BRANCH  16  17
ATOM     17  C   UNL     1     162.105 155.150 162.256  1.00  0.00    -0.000 C 
BRANCH  17  18
ATOM     18  C   UNL     1     161.754 154.428 163.570  1.00  0.00    -0.000 C 
BRANCH  18  19
ATOM     19  C   UNL     1     160.909 153.153 163.402  1.00  0.00    -0.003 C 
ATOM     20  C   UNL     1     161.670 151.880 163.766  1.00  0.00     0.004 C 
ENDBRANCH  18  19
ENDBRANCH  17  18
ENDBRANCH  16  17
ENDBRANCH  15  16
ENDBRANCH  14  15
ENDBRANCH  13  14
ENDBRANCH   2  13
TORSDOF 15
ENDMDL
MODEL 8
REMARK VINA RESULT:    -3.265     10.293     13.158
REMARK INTER + INTRA:          -9.061
REMARK INTER:                  -6.145
REMARK INTRA:                  -2.915
REMARK UNBOUND:                -2.932
REMARK SMILES CCCCCCCCC=CCCCCCCCC(=O)[O-]
REMARK SMILES IDX 10 1 9 2 11 3 12 4 13 5 14 6 15 7 16 8 17 9 18 10 19 11
REMARK SMILES IDX 20 12 8 13 7 14 6 15 5 16 4 17 3 18 2 19 1 20
REMARK H PARENT
REMARK Flexibility Score: inf
ROOT
ATOM      1  C   UNL     1     158.198 158.490 151.124  1.00  0.00    -0.031 C 
ATOM      2  C   UNL     1     156.902 158.136 151.200  1.00  0.00    -0.031 C 
ENDROOT
BRANCH   1   3
ATOM      3  C   UNL     1     159.125 158.096 150.001  1.00  0.00     0.027 C 
BRANCH   3   4
ATOM      4  C   UNL     1     160.193 157.113 150.501  1.00  0.00     0.004 C 
BRANCH   4   5
ATOM      5  C   UNL     1     159.623 155.709 150.762  1.00  0.00     0.000 C 
BRANCH   5   6
ATOM      6  C   UNL     1     159.855 155.241 152.209  1.00  0.00     0.000 C 
BRANCH   6   7
ATOM      7  C   UNL     1     158.610 155.410 153.093  1.00  0.00     0.000 C 
BRANCH   7   8
ATOM      8  C   UNL     1     158.268 154.136 153.881  1.00  0.00     0.006 C 
BRANCH   8   9
ATOM      9  C   UNL     1     159.538 153.454 154.397  1.00  0.00     0.053 C 
BRANCH   9  10
ATOM     10  C   UNL     1     159.939 154.026 155.720  1.00  0.00     0.041 C 
ATOM     11  O   UNL     1     161.028 154.648 155.838  1.00  0.00    -0.550 OA
ATOM     12  O   UNL     1     159.135 153.829 156.835  1.00  0.00    -0.550 OA
ENDBRANCH   9  10
ENDBRANCH   8   9
ENDBRANCH   7   8
ENDBRANCH   6   7
ENDBRANCH   5   6
ENDBRANCH   4   5
ENDBRANCH   3   4
ENDBRANCH   1   3
BRANCH   2  13
ATOM     13  C   UNL     1     156.204 157.218 150.225  1.00  0.00     0.027 C 
BRANCH  13  14
ATOM     14  C   UNL     1     155.732 155.922 150.898  1.00  0.00     0.004 C 
BRANCH  14  15
ATOM     15  C   UNL     1     156.123 154.675 150.092  1.00  0.00     0.000 C 
BRANCH  15  16
ATOM     16  C   UNL     1     156.184 153.435 150.991  1.00  0.00     0.000 C 
BRANCH  16  17
ATOM     17  C   UNL     1     156.896 152.273 150.282  1.00  0.00    -0.000 C 
BRANCH  17  18
ATOM     18  C   UNL     1     158.399 152.202 150.607  1.00  0.00    -0.000 C 
BRANCH  18  19
ATOM     19  C   UNL     1     158.799 151.078 151.579  1.00  0.00    -0.003 C 
ATOM     20  C   UNL     1     157.642 150.613 152.463  1.00  0.00     0.004 C 
ENDBRANCH  18  19
ENDBRANCH  17  18
ENDBRANCH  16  17
ENDBRANCH  15  16
ENDBRANCH  14  15
ENDBRANCH  13  14
ENDBRANCH   2  13
TORSDOF 15
ENDMDL
MODEL 9
REMARK VINA RESULT:    -3.164      1.190      3.451
REMARK INTER + INTRA:          -8.870
REMARK INTER:                  -6.760
REMARK INTRA:                  -2.110
REMARK UNBOUND:                -2.932
REMARK SMILES CCCCCCCCC=CCCCCCCCC(=O)[O-]
REMARK SMILES IDX 10 1 9 2 11 3 12 4 13 5 14 6 15 7 16 8 17 9 18 10 19 11
REMARK SMILES IDX 20 12 8 13 7 14 6 15 5 16 4 17 3 18 2 19 1 20
REMARK H PARENT
REMARK Flexibility Score: inf
ROOT
ATOM      1  C   UNL     1     166.729 154.609 162.507  1.00  0.00    -0.031 C 
ATOM      2  C   UNL     1     166.325 154.800 161.238  1.00  0.00    -0.031 C 
ENDROOT
BRANCH   1   3
ATOM      3  C   UNL     1     166.239 153.498 163.400  1.00  0.00     0.027 C 
BRANCH   3   4
ATOM      4  C   UNL     1     165.315 154.051 164.495  1.00  0.00     0.004 C 
BRANCH   4   5
ATOM      5  C   UNL     1     165.659 155.500 164.877  1.00  0.00     0.000 C 
BRANCH   5   6
ATOM      6  C   UNL     1     164.428 156.424 164.838  1.00  0.00     0.000 C 
BRANCH   6   7
ATOM      7  C   UNL     1     163.504 156.228 166.050  1.00  0.00     0.000 C 
BRANCH   7   8
ATOM      8  C   UNL     1     162.827 157.535 166.492  1.00  0.00     0.006 C 
BRANCH   8   9
ATOM      9  C   UNL     1     162.762 158.536 165.336  1.00  0.00     0.053 C 
BRANCH   9  10
ATOM     10  C   UNL     1     161.350 158.967 165.094  1.00  0.00     0.041 C 
ATOM     11  O   UNL     1     160.937 160.068 165.544  1.00  0.00    -0.550 OA
ATOM     12  O   UNL     1     160.475 158.130 164.415  1.00  0.00    -0.550 OA
ENDBRANCH   9  10
ENDBRANCH   8   9
ENDBRANCH   7   8
ENDBRANCH   6   7
ENDBRANCH   5   6
ENDBRANCH   4   5
ENDBRANCH   3   4
ENDBRANCH   1   3
BRANCH   2  13
ATOM     13  C   UNL     1     165.254 153.990 160.547  1.00  0.00     0.027 C 
BRANCH  13  14
ATOM     14  C   UNL     1     164.090 154.870 160.069  1.00  0.00     0.004 C 
BRANCH  14  15
ATOM     15  C   UNL     1     162.752 154.450 160.697  1.00  0.00     0.000 C 
BRANCH  15  16
ATOM     16  C   UNL     1     162.853 154.404 162.225  1.00  0.00     0.000 C 
BRANCH  16  17
ATOM     17  C   UNL     1     161.728 155.222 162.877  1.00  0.00    -0.000 C 
BRANCH  17  18
ATOM     18  C   UNL     1     161.068 154.497 164.064  1.00  0.00    -0.000 C 
BRANCH  18  19
ATOM     19  C   UNL     1     159.849 153.632 163.697  1.00  0.00    -0.003 C 
ATOM     20  C   UNL     1     160.221 152.191 163.351  1.00  0.00     0.004 C 
ENDBRANCH  18  19
ENDBRANCH  17  18
ENDBRANCH  16  17
ENDBRANCH  15  16
ENDBRANCH  14  15
ENDBRANCH  13  14
ENDBRANCH   2  13
TORSDOF 15
ENDMDL
