MODEL 1
REMARK VINA RESULT:    -6.831      0.000      0.000
REMARK INTER + INTRA:          -8.383
REMARK INTER:                  -8.229
REMARK INTRA:                  -0.153
REMARK UNBOUND:                -0.153
REMARK SMILES O=c1c(O)c(-c2ccc(O)c(O)c2)oc2cc(O)cc(O)c12
REMARK SMILES IDX 5 1 3 2 2 3 1 4 22 5 20 6 19 7 17 8 16 9 15 10 14 11 6 12
REMARK SMILES IDX 7 13 8 14 9 15 13 16 11 17 10 18 12 20 4 22 21 24 18 26
REMARK H PARENT 10 19 12 21 4 23 21 25 18 27
REMARK Flexibility Score: inf
ROOT
ATOM      1  C   UNL     1      15.260 -24.010 -28.502  1.00  0.00     0.180 A 
ATOM      2  C   UNL     1      16.505 -23.583 -28.009  1.00  0.00     0.208 A 
ATOM      3  C   UNL     1      17.560 -24.507 -27.934  1.00  0.00     0.238 A 
ATOM      4  O   UNL     1      18.688 -24.106 -27.544  1.00  0.00    -0.285 OA
ATOM      5  C   UNL     1      17.352 -25.849 -28.334  1.00  0.00     0.111 A 
ATOM      6  C   UNL     1      18.338 -26.878 -28.262  1.00  0.00     0.134 A 
ATOM      7  C   UNL     1      18.062 -28.138 -28.809  1.00  0.00     0.093 A 
ATOM      8  C   UNL     1      16.813 -28.424 -29.365  1.00  0.00     0.123 A 
ATOM      9  C   UNL     1      15.825 -27.443 -29.386  1.00  0.00     0.094 A 
ATOM     10  C   UNL     1      16.081 -26.166 -28.882  1.00  0.00     0.146 A 
ATOM     11  O   UNL     1      15.115 -25.258 -28.931  1.00  0.00    -0.452 OA
ENDROOT
BRANCH   1  12
ATOM     12  C   UNL     1      14.093 -23.101 -28.589  1.00  0.00     0.025 A 
ATOM     13  C   UNL     1      13.544 -22.732 -29.827  1.00  0.00     0.016 A 
ATOM     14  C   UNL     1      12.459 -21.856 -29.885  1.00  0.00     0.051 A 
ATOM     15  C   UNL     1      11.909 -21.322 -28.714  1.00  0.00     0.157 A 
ATOM     16  C   UNL     1      13.558 -22.549 -27.415  1.00  0.00     0.062 A 
ATOM     17  C   UNL     1      12.469 -21.670 -27.463  1.00  0.00     0.158 A 
BRANCH  15  18
ATOM     18  O   UNL     1      10.821 -20.455 -28.841  1.00  0.00    -0.504 OA
ATOM     19  H   UNL     1      10.519 -20.053 -29.716  1.00  0.00     0.293 HD
ENDBRANCH  15  18
BRANCH  17  20
ATOM     20  O   UNL     1      11.980 -21.170 -26.253  1.00  0.00    -0.504 OA
ATOM     21  H   UNL     1      12.251 -21.522 -25.346  1.00  0.00     0.293 HD
ENDBRANCH  17  20
ENDBRANCH   1  12
BRANCH   2  22
ATOM     22  O   UNL     1      16.695 -22.249 -27.640  1.00  0.00    -0.502 OA
ATOM     23  H   UNL     1      17.580 -21.772 -27.761  1.00  0.00     0.293 HD
ENDBRANCH   2  22
BRANCH   6  24
ATOM     24  O   UNL     1      19.583 -26.724 -27.645  1.00  0.00    -0.507 OA
ATOM     25  H   UNL     1      19.773 -26.926 -26.676  1.00  0.00     0.293 HD
ENDBRANCH   6  24
BRANCH   8  26
ATOM     26  O   UNL     1      16.542 -29.685 -29.892  1.00  0.00    -0.508 OA
ATOM     27  H   UNL     1      16.969 -30.002 -30.754  1.00  0.00     0.293 HD
ENDBRANCH   8  26
TORSDOF 6
ENDMDL
MODEL 2
REMARK VINA RESULT:    -6.703      2.127      4.116
REMARK INTER + INTRA:          -8.228
REMARK INTER:                  -7.937
REMARK INTRA:                  -0.291
REMARK UNBOUND:                -0.153
REMARK SMILES O=c1c(O)c(-c2ccc(O)c(O)c2)oc2cc(O)cc(O)c12
REMARK SMILES IDX 5 1 3 2 2 3 1 4 22 5 20 6 19 7 17 8 16 9 15 10 14 11 6 12
REMARK SMILES IDX 7 13 8 14 9 15 13 16 11 17 10 18 12 20 4 22 21 24 18 26
REMARK H PARENT 10 19 12 21 4 23 21 25 18 27
REMARK Flexibility Score: inf
ROOT
ATOM      1  C   UNL     1      15.507 -23.415 -28.132  1.00  0.00     0.180 A 
ATOM      2  C   UNL     1      16.254 -24.505 -28.611  1.00  0.00     0.208 A 
ATOM      3  C   UNL     1      17.622 -24.580 -28.305  1.00  0.00     0.238 A 
ATOM      4  O   UNL     1      18.272 -25.587 -28.689  1.00  0.00    -0.285 OA
ATOM      5  C   UNL     1      18.230 -23.557 -27.539  1.00  0.00     0.111 A 
ATOM      6  C   UNL     1      19.616 -23.510 -27.204  1.00  0.00     0.134 A 
ATOM      7  C   UNL     1      20.083 -22.519 -26.331  1.00  0.00     0.093 A 
ATOM      8  C   UNL     1      19.225 -21.535 -25.835  1.00  0.00     0.123 A 
ATOM      9  C   UNL     1      17.882 -21.538 -26.203  1.00  0.00     0.094 A 
ATOM     10  C   UNL     1      17.379 -22.534 -27.043  1.00  0.00     0.146 A 
ATOM     11  O   UNL     1      16.091 -22.505 -27.362  1.00  0.00    -0.452 OA
ENDROOT
BRANCH   1  12
ATOM     12  C   UNL     1      14.066 -23.253 -28.434  1.00  0.00     0.025 A 
ATOM     13  C   UNL     1      13.628 -22.803 -29.690  1.00  0.00     0.016 A 
ATOM     14  C   UNL     1      12.265 -22.635 -29.944  1.00  0.00     0.051 A 
ATOM     15  C   UNL     1      11.316 -22.900 -28.951  1.00  0.00     0.157 A 
ATOM     16  C   UNL     1      13.117 -23.498 -27.430  1.00  0.00     0.062 A 
ATOM     17  C   UNL     1      11.747 -23.333 -27.675  1.00  0.00     0.158 A 
BRANCH  15  18
ATOM     18  O   UNL     1       9.969 -22.717 -29.271  1.00  0.00    -0.504 OA
ATOM     19  H   UNL     1       9.567 -21.829 -29.534  1.00  0.00     0.293 HD
ENDBRANCH  15  18
BRANCH  17  20
ATOM     20  O   UNL     1      10.860 -23.607 -26.632  1.00  0.00    -0.504 OA
ATOM     21  H   UNL     1      10.445 -22.900 -26.043  1.00  0.00     0.293 HD
ENDBRANCH  17  20
ENDBRANCH   1  12
BRANCH   2  22
ATOM     22  O   UNL     1      15.629 -25.516 -29.347  1.00  0.00    -0.502 OA
ATOM     23  H   UNL     1      14.625 -25.648 -29.346  1.00  0.00     0.293 HD
ENDBRANCH   2  22
BRANCH   6  24
ATOM     24  O   UNL     1      20.573 -24.390 -27.719  1.00  0.00    -0.507 OA
ATOM     25  H   UNL     1      20.990 -25.151 -27.206  1.00  0.00     0.293 HD
ENDBRANCH   6  24
BRANCH   8  26
ATOM     26  O   UNL     1      19.701 -20.543 -24.979  1.00  0.00    -0.508 OA
ATOM     27  H   UNL     1      19.534 -20.579 -23.981  1.00  0.00     0.293 HD
ENDBRANCH   8  26
TORSDOF 6
ENDMDL
MODEL 3
REMARK VINA RESULT:    -6.447      2.133      4.485
REMARK INTER + INTRA:          -7.920
REMARK INTER:                  -7.628
REMARK INTRA:                  -0.292
REMARK UNBOUND:                -0.153
REMARK SMILES O=c1c(O)c(-c2ccc(O)c(O)c2)oc2cc(O)cc(O)c12
REMARK SMILES IDX 5 1 3 2 2 3 1 4 22 5 20 6 19 7 17 8 16 9 15 10 14 11 6 12
REMARK SMILES IDX 7 13 8 14 9 15 13 16 11 17 10 18 12 20 4 22 21 24 18 26
REMARK H PARENT 10 19 12 21 4 23 21 25 18 27
REMARK Flexibility Score: inf
ROOT
ATOM      1  C   UNL     1      12.924 -21.851 -27.804  1.00  0.00     0.180 A 
ATOM      2  C   UNL     1      12.234 -23.004 -28.217  1.00  0.00     0.208 A 
ATOM      3  C   UNL     1      12.968 -24.151 -28.558  1.00  0.00     0.238 A 
ATOM      4  O   UNL     1      12.341 -25.197 -28.872  1.00  0.00    -0.285 OA
ATOM      5  C   UNL     1      14.381 -24.127 -28.499  1.00  0.00     0.111 A 
ATOM      6  C   UNL     1      15.226 -25.219 -28.860  1.00  0.00     0.134 A 
ATOM      7  C   UNL     1      16.606 -25.127 -28.638  1.00  0.00     0.093 A 
ATOM      8  C   UNL     1      17.178 -23.959 -28.128  1.00  0.00     0.123 A 
ATOM      9  C   UNL     1      16.368 -22.867 -27.828  1.00  0.00     0.094 A 
ATOM     10  C   UNL     1      14.984 -22.940 -28.005  1.00  0.00     0.146 A 
ATOM     11  O   UNL     1      14.247 -21.880 -27.696  1.00  0.00    -0.452 OA
ENDROOT
BRANCH   1  12
ATOM     12  C   UNL     1      12.223 -20.595 -27.453  1.00  0.00     0.025 A 
ATOM     13  C   UNL     1      11.975 -20.245 -26.116  1.00  0.00     0.016 A 
ATOM     14  C   UNL     1      11.291 -19.067 -25.809  1.00  0.00     0.051 A 
ATOM     15  C   UNL     1      10.830 -18.223 -26.826  1.00  0.00     0.157 A 
ATOM     16  C   UNL     1      11.742 -19.762 -28.475  1.00  0.00     0.062 A 
ATOM     17  C   UNL     1      11.055 -18.578 -28.177  1.00  0.00     0.158 A 
BRANCH  15  18
ATOM     18  O   UNL     1      10.158 -17.058 -26.453  1.00  0.00    -0.504 OA
ATOM     19  H   UNL     1      10.583 -16.143 -26.431  1.00  0.00     0.293 HD
ENDBRANCH  15  18
BRANCH  17  20
ATOM     20  O   UNL     1      10.618 -17.792 -29.246  1.00  0.00    -0.504 OA
ATOM     21  H   UNL     1       9.654 -17.723 -29.539  1.00  0.00     0.293 HD
ENDBRANCH  17  20
ENDBRANCH   1  12
BRANCH   2  22
ATOM     22  O   UNL     1      10.837 -23.013 -28.247  1.00  0.00    -0.502 OA
ATOM     23  H   UNL     1      10.310 -22.889 -29.103  1.00  0.00     0.293 HD
ENDBRANCH   2  22
BRANCH   6  24
ATOM     24  O   UNL     1      14.767 -26.395 -29.461  1.00  0.00    -0.507 OA
ATOM     25  H   UNL     1      15.199 -27.300 -29.358  1.00  0.00     0.293 HD
ENDBRANCH   6  24
BRANCH   8  26
ATOM     26  O   UNL     1      18.553 -23.871 -27.925  1.00  0.00    -0.508 OA
ATOM     27  H   UNL     1      18.942 -23.668 -27.012  1.00  0.00     0.293 HD
ENDBRANCH   8  26
TORSDOF 6
ENDMDL
MODEL 4
REMARK VINA RESULT:    -6.385      2.976      3.783
REMARK INTER + INTRA:          -7.845
REMARK INTER:                  -7.530
REMARK INTRA:                  -0.315
REMARK UNBOUND:                -0.153
REMARK SMILES O=c1c(O)c(-c2ccc(O)c(O)c2)oc2cc(O)cc(O)c12
REMARK SMILES IDX 5 1 3 2 2 3 1 4 22 5 20 6 19 7 17 8 16 9 15 10 14 11 6 12
REMARK SMILES IDX 7 13 8 14 9 15 13 16 11 17 10 18 12 20 4 22 21 24 18 26
REMARK H PARENT 10 19 12 21 4 23 21 25 18 27
REMARK Flexibility Score: inf
ROOT
ATOM      1  C   UNL     1      15.170 -23.247 -27.920  1.00  0.00     0.180 A 
ATOM      2  C   UNL     1      16.157 -23.149 -28.915  1.00  0.00     0.208 A 
ATOM      3  C   UNL     1      17.509 -23.195 -28.540  1.00  0.00     0.238 A 
ATOM      4  O   UNL     1      18.387 -23.163 -29.441  1.00  0.00    -0.285 OA
ATOM      5  C   UNL     1      17.857 -23.322 -27.174  1.00  0.00     0.111 A 
ATOM      6  C   UNL     1      19.195 -23.340 -26.677  1.00  0.00     0.134 A 
ATOM      7  C   UNL     1      19.424 -23.602 -25.320  1.00  0.00     0.093 A 
ATOM      8  C   UNL     1      18.362 -23.782 -24.432  1.00  0.00     0.123 A 
ATOM      9  C   UNL     1      17.051 -23.709 -24.897  1.00  0.00     0.094 A 
ATOM     10  C   UNL     1      16.791 -23.485 -26.251  1.00  0.00     0.146 A 
ATOM     11  O   UNL     1      15.527 -23.432 -26.654  1.00  0.00    -0.452 OA
ENDROOT
BRANCH   1  12
ATOM     12  C   UNL     1      13.724 -23.181 -28.234  1.00  0.00     0.025 A 
ATOM     13  C   UNL     1      12.968 -24.344 -28.449  1.00  0.00     0.016 A 
ATOM     14  C   UNL     1      11.611 -24.256 -28.766  1.00  0.00     0.051 A 
ATOM     15  C   UNL     1      10.986 -23.010 -28.889  1.00  0.00     0.157 A 
ATOM     16  C   UNL     1      13.104 -21.930 -28.378  1.00  0.00     0.062 A 
ATOM     17  C   UNL     1      11.743 -21.831 -28.697  1.00  0.00     0.158 A 
BRANCH  15  18
ATOM     18  O   UNL     1       9.626 -22.992 -29.204  1.00  0.00    -0.504 OA
ATOM     19  H   UNL     1       9.159 -23.714 -29.732  1.00  0.00     0.293 HD
ENDBRANCH  15  18
BRANCH  17  20
ATOM     20  O   UNL     1      11.192 -20.554 -28.811  1.00  0.00    -0.504 OA
ATOM     21  H   UNL     1      10.651 -20.241 -29.605  1.00  0.00     0.293 HD
ENDBRANCH  17  20
ENDBRANCH   1  12
BRANCH   2  22
ATOM     22  O   UNL     1      15.791 -23.045 -30.260  1.00  0.00    -0.502 OA
ATOM     23  H   UNL     1      16.448 -23.196 -31.015  1.00  0.00     0.293 HD
ENDBRANCH   2  22
BRANCH   6  24
ATOM     24  O   UNL     1      20.322 -23.080 -27.462  1.00  0.00    -0.507 OA
ATOM     25  H   UNL     1      20.375 -22.370 -28.176  1.00  0.00     0.293 HD
ENDBRANCH   6  24
BRANCH   8  26
ATOM     26  O   UNL     1      18.599 -24.027 -23.081  1.00  0.00    -0.508 OA
ATOM     27  H   UNL     1      18.582 -23.281 -22.396  1.00  0.00     0.293 HD
ENDBRANCH   8  26
TORSDOF 6
ENDMDL
MODEL 5
REMARK VINA RESULT:    -6.361      4.132      6.650
REMARK INTER + INTRA:          -7.816
REMARK INTER:                  -7.728
REMARK INTRA:                  -0.088
REMARK UNBOUND:                -0.153
REMARK SMILES O=c1c(O)c(-c2ccc(O)c(O)c2)oc2cc(O)cc(O)c12
REMARK SMILES IDX 5 1 3 2 2 3 1 4 22 5 20 6 19 7 17 8 16 9 15 10 14 11 6 12
REMARK SMILES IDX 7 13 8 14 9 15 13 16 11 17 10 18 12 20 4 22 21 24 18 26
REMARK H PARENT 10 19 12 21 4 23 21 25 18 27
REMARK Flexibility Score: inf
ROOT
ATOM      1  C   UNL     1      18.827 -25.228 -28.388  1.00  0.00     0.180 A 
ATOM      2  C   UNL     1      18.327 -24.489 -27.302  1.00  0.00     0.208 A 
ATOM      3  C   UNL     1      19.088 -23.423 -26.797  1.00  0.00     0.238 A 
ATOM      4  O   UNL     1      18.610 -22.730 -25.861  1.00  0.00    -0.285 OA
ATOM      5  C   UNL     1      20.346 -23.120 -27.372  1.00  0.00     0.111 A 
ATOM      6  C   UNL     1      21.218 -22.088 -26.914  1.00  0.00     0.134 A 
ATOM      7  C   UNL     1      22.379 -21.792 -27.640  1.00  0.00     0.093 A 
ATOM      8  C   UNL     1      22.731 -22.535 -28.770  1.00  0.00     0.123 A 
ATOM      9  C   UNL     1      21.915 -23.582 -29.189  1.00  0.00     0.094 A 
ATOM     10  C   UNL     1      20.733 -23.879 -28.508  1.00  0.00     0.146 A 
ATOM     11  O   UNL     1      19.979 -24.879 -28.947  1.00  0.00    -0.452 OA
ENDROOT
BRANCH   1  12
ATOM     12  C   UNL     1      18.095 -26.382 -28.960  1.00  0.00     0.025 A 
ATOM     13  C   UNL     1      17.672 -26.389 -30.299  1.00  0.00     0.016 A 
ATOM     14  C   UNL     1      16.963 -27.478 -30.810  1.00  0.00     0.051 A 
ATOM     15  C   UNL     1      16.652 -28.573 -29.996  1.00  0.00     0.157 A 
ATOM     16  C   UNL     1      17.765 -27.469 -28.136  1.00  0.00     0.062 A 
ATOM     17  C   UNL     1      17.054 -28.566 -28.640  1.00  0.00     0.158 A 
BRANCH  15  18
ATOM     18  O   UNL     1      15.945 -29.632 -30.569  1.00  0.00    -0.504 OA
ATOM     19  H   UNL     1      15.024 -29.542 -30.974  1.00  0.00     0.293 HD
ENDBRANCH  15  18
BRANCH  17  20
ATOM     20  O   UNL     1      16.772 -29.618 -27.764  1.00  0.00    -0.504 OA
ATOM     21  H   UNL     1      15.881 -29.749 -27.307  1.00  0.00     0.293 HD
ENDBRANCH  17  20
ENDBRANCH   1  12
BRANCH   2  22
ATOM     22  O   UNL     1      17.074 -24.792 -26.764  1.00  0.00    -0.502 OA
ATOM     23  H   UNL     1      16.728 -24.360 -25.915  1.00  0.00     0.293 HD
ENDBRANCH   2  22
BRANCH   6  24
ATOM     24  O   UNL     1      21.007 -21.348 -25.746  1.00  0.00    -0.507 OA
ATOM     25  H   UNL     1      21.738 -21.004 -25.144  1.00  0.00     0.293 HD
ENDBRANCH   6  24
BRANCH   8  26
ATOM     26  O   UNL     1      23.895 -22.244 -29.477  1.00  0.00    -0.508 OA
ATOM     27  H   UNL     1      23.883 -22.089 -30.478  1.00  0.00     0.293 HD
ENDBRANCH   8  26
TORSDOF 6
ENDMDL
MODEL 6
REMARK VINA RESULT:    -6.349      3.754      5.407
REMARK INTER + INTRA:          -7.802
REMARK INTER:                  -7.485
REMARK INTRA:                  -0.317
REMARK UNBOUND:                -0.153
REMARK SMILES O=c1c(O)c(-c2ccc(O)c(O)c2)oc2cc(O)cc(O)c12
REMARK SMILES IDX 5 1 3 2 2 3 1 4 22 5 20 6 19 7 17 8 16 9 15 10 14 11 6 12
REMARK SMILES IDX 7 13 8 14 9 15 13 16 11 17 10 18 12 20 4 22 21 24 18 26
REMARK H PARENT 10 19 12 21 4 23 21 25 18 27
REMARK Flexibility Score: inf
ROOT
ATOM      1  C   UNL     1      18.239 -24.031 -27.876  1.00  0.00     0.180 A 
ATOM      2  C   UNL     1      17.811 -23.776 -29.190  1.00  0.00     0.208 A 
ATOM      3  C   UNL     1      17.225 -24.817 -29.929  1.00  0.00     0.238 A 
ATOM      4  O   UNL     1      16.792 -24.568 -31.084  1.00  0.00    -0.285 OA
ATOM      5  C   UNL     1      17.090 -26.102 -29.352  1.00  0.00     0.111 A 
ATOM      6  C   UNL     1      16.549 -27.239 -30.023  1.00  0.00     0.134 A 
ATOM      7  C   UNL     1      16.343 -28.428 -29.311  1.00  0.00     0.093 A 
ATOM      8  C   UNL     1      16.721 -28.540 -27.971  1.00  0.00     0.123 A 
ATOM      9  C   UNL     1      17.304 -27.454 -27.324  1.00  0.00     0.094 A 
ATOM     10  C   UNL     1      17.490 -26.243 -27.996  1.00  0.00     0.146 A 
ATOM     11  O   UNL     1      18.040 -25.229 -27.340  1.00  0.00    -0.452 OA
ENDROOT
BRANCH   1  12
ATOM     12  C   UNL     1      18.889 -22.993 -27.043  1.00  0.00     0.025 A 
ATOM     13  C   UNL     1      18.133 -22.078 -26.293  1.00  0.00     0.016 A 
ATOM     14  C   UNL     1      18.767 -21.094 -25.533  1.00  0.00     0.051 A 
ATOM     15  C   UNL     1      20.163 -20.993 -25.516  1.00  0.00     0.157 A 
ATOM     16  C   UNL     1      20.288 -22.880 -27.045  1.00  0.00     0.062 A 
ATOM     17  C   UNL     1      20.933 -21.895 -26.286  1.00  0.00     0.158 A 
BRANCH  15  18
ATOM     18  O   UNL     1      20.735 -19.988 -24.733  1.00  0.00    -0.504 OA
ATOM     19  H   UNL     1      21.037 -20.120 -23.778  1.00  0.00     0.293 HD
ENDBRANCH  15  18
BRANCH  17  20
ATOM     20  O   UNL     1      22.329 -21.851 -26.327  1.00  0.00    -0.504 OA
ATOM     21  H   UNL     1      22.873 -21.020 -26.144  1.00  0.00     0.293 HD
ENDBRANCH  17  20
ENDBRANCH   1  12
BRANCH   2  22
ATOM     22  O   UNL     1      17.933 -22.495 -29.732  1.00  0.00    -0.502 OA
ATOM     23  H   UNL     1      18.782 -22.173 -30.182  1.00  0.00     0.293 HD
ENDBRANCH   2  22
BRANCH   6  24
ATOM     24  O   UNL     1      16.224 -27.261 -31.382  1.00  0.00    -0.507 OA
ATOM     25  H   UNL     1      16.118 -28.098 -31.935  1.00  0.00     0.293 HD
ENDBRANCH   6  24
BRANCH   8  26
ATOM     26  O   UNL     1      16.527 -29.731 -27.275  1.00  0.00    -0.508 OA
ATOM     27  H   UNL     1      16.818 -30.622 -27.659  1.00  0.00     0.293 HD
ENDBRANCH   8  26
TORSDOF 6
ENDMDL
MODEL 7
REMARK VINA RESULT:    -6.333      3.300      5.846
REMARK INTER + INTRA:          -7.782
REMARK INTER:                  -7.461
REMARK INTRA:                  -0.321
REMARK UNBOUND:                -0.153
REMARK SMILES O=c1c(O)c(-c2ccc(O)c(O)c2)oc2cc(O)cc(O)c12
REMARK SMILES IDX 5 1 3 2 2 3 1 4 22 5 20 6 19 7 17 8 16 9 15 10 14 11 6 12
REMARK SMILES IDX 7 13 8 14 9 15 13 16 11 17 10 18 12 20 4 22 21 24 18 26
REMARK H PARENT 10 19 12 21 4 23 21 25 18 27
REMARK Flexibility Score: inf
ROOT
ATOM      1  C   UNL     1      17.053 -26.763 -30.010  1.00  0.00     0.180 A 
ATOM      2  C   UNL     1      16.300 -27.950 -29.998  1.00  0.00     0.208 A 
ATOM      3  C   UNL     1      16.253 -28.738 -31.158  1.00  0.00     0.238 A 
ATOM      4  O   UNL     1      15.623 -29.827 -31.123  1.00  0.00    -0.285 OA
ATOM      5  C   UNL     1      16.944 -28.323 -32.321  1.00  0.00     0.111 A 
ATOM      6  C   UNL     1      16.933 -29.023 -33.564  1.00  0.00     0.134 A 
ATOM      7  C   UNL     1      17.759 -28.590 -34.609  1.00  0.00     0.093 A 
ATOM      8  C   UNL     1      18.546 -27.443 -34.477  1.00  0.00     0.123 A 
ATOM      9  C   UNL     1      18.519 -26.720 -33.287  1.00  0.00     0.094 A 
ATOM     10  C   UNL     1      17.733 -27.147 -32.214  1.00  0.00     0.146 A 
ATOM     11  O   UNL     1      17.744 -26.434 -31.095  1.00  0.00    -0.452 OA
ENDROOT
BRANCH   1  12
ATOM     12  C   UNL     1      17.131 -25.866 -28.834  1.00  0.00     0.025 A 
ATOM     13  C   UNL     1      16.275 -24.761 -28.699  1.00  0.00     0.016 A 
ATOM     14  C   UNL     1      16.383 -23.916 -27.593  1.00  0.00     0.051 A 
ATOM     15  C   UNL     1      17.351 -24.146 -26.609  1.00  0.00     0.157 A 
ATOM     16  C   UNL     1      18.117 -26.086 -27.860  1.00  0.00     0.062 A 
ATOM     17  C   UNL     1      18.233 -25.244 -26.747  1.00  0.00     0.158 A 
BRANCH  15  18
ATOM     18  O   UNL     1      17.402 -23.267 -25.526  1.00  0.00    -0.504 OA
ATOM     19  H   UNL     1      16.891 -23.400 -24.666  1.00  0.00     0.293 HD
ENDBRANCH  15  18
BRANCH  17  20
ATOM     20  O   UNL     1      19.229 -25.532 -25.812  1.00  0.00    -0.504 OA
ATOM     21  H   UNL     1      19.047 -25.768 -24.847  1.00  0.00     0.293 HD
ENDBRANCH  17  20
ENDBRANCH   1  12
BRANCH   2  22
ATOM     22  O   UNL     1      15.643 -28.352 -28.832  1.00  0.00    -0.502 OA
ATOM     23  H   UNL     1      14.737 -28.805 -28.847  1.00  0.00     0.293 HD
ENDBRANCH   2  22
BRANCH   6  24
ATOM     24  O   UNL     1      16.115 -30.125 -33.832  1.00  0.00    -0.507 OA
ATOM     25  H   UNL     1      15.285 -30.365 -33.311  1.00  0.00     0.293 HD
ENDBRANCH   6  24
BRANCH   8  26
ATOM     26  O   UNL     1      19.353 -27.010 -35.527  1.00  0.00    -0.508 OA
ATOM     27  H   UNL     1      19.874 -27.664 -36.099  1.00  0.00     0.293 HD
ENDBRANCH   8  26
TORSDOF 6
ENDMDL
MODEL 8
REMARK VINA RESULT:    -6.204      4.823      6.671
REMARK INTER + INTRA:          -7.626
REMARK INTER:                  -7.414
REMARK INTRA:                  -0.212
REMARK UNBOUND:                -0.153
REMARK SMILES O=c1c(O)c(-c2ccc(O)c(O)c2)oc2cc(O)cc(O)c12
REMARK SMILES IDX 5 1 3 2 2 3 1 4 22 5 20 6 19 7 17 8 16 9 15 10 14 11 6 12
REMARK SMILES IDX 7 13 8 14 9 15 13 16 11 17 10 18 12 20 4 22 21 24 18 26
REMARK H PARENT 10 19 12 21 4 23 21 25 18 27
REMARK Flexibility Score: inf
ROOT
ATOM      1  C   UNL     1      19.374 -24.860 -29.779  1.00  0.00     0.180 A 
ATOM      2  C   UNL     1      18.690 -24.805 -31.005  1.00  0.00     0.208 A 
ATOM      3  C   UNL     1      17.705 -25.767 -31.279  1.00  0.00     0.238 A 
ATOM      4  O   UNL     1      17.057 -25.679 -32.355  1.00  0.00    -0.285 OA
ATOM      5  C   UNL     1      17.430 -26.783 -30.332  1.00  0.00     0.111 A 
ATOM      6  C   UNL     1      16.481 -27.832 -30.522  1.00  0.00     0.134 A 
ATOM      7  C   UNL     1      16.197 -28.705 -29.465  1.00  0.00     0.093 A 
ATOM      8  C   UNL     1      16.873 -28.607 -28.247  1.00  0.00     0.123 A 
ATOM      9  C   UNL     1      17.843 -27.622 -28.072  1.00  0.00     0.094 A 
ATOM     10  C   UNL     1      18.124 -26.714 -29.095  1.00  0.00     0.146 A 
ATOM     11  O   UNL     1      19.048 -25.785 -28.884  1.00  0.00    -0.452 OA
ENDROOT
BRANCH   1  12
ATOM     12  C   UNL     1      20.443 -23.896 -29.428  1.00  0.00     0.025 A 
ATOM     13  C   UNL     1      20.244 -22.907 -28.451  1.00  0.00     0.016 A 
ATOM     14  C   UNL     1      21.258 -21.995 -28.153  1.00  0.00     0.051 A 
ATOM     15  C   UNL     1      22.481 -22.041 -28.830  1.00  0.00     0.157 A 
ATOM     16  C   UNL     1      21.661 -23.929 -30.124  1.00  0.00     0.062 A 
ATOM     17  C   UNL     1      22.684 -23.018 -29.833  1.00  0.00     0.158 A 
BRANCH  15  18
ATOM     18  O   UNL     1      23.455 -21.102 -28.482  1.00  0.00    -0.504 OA
ATOM     19  H   UNL     1      23.324 -20.103 -28.545  1.00  0.00     0.293 HD
ENDBRANCH  15  18
BRANCH  17  20
ATOM     20  O   UNL     1      23.874 -23.120 -30.557  1.00  0.00    -0.504 OA
ATOM     21  H   UNL     1      24.709 -22.593 -30.347  1.00  0.00     0.293 HD
ENDBRANCH  17  20
ENDBRANCH   1  12
BRANCH   2  22
ATOM     22  O   UNL     1      18.963 -23.781 -31.916  1.00  0.00    -0.502 OA
ATOM     23  H   UNL     1      18.624 -22.835 -31.789  1.00  0.00     0.293 HD
ENDBRANCH   2  22
BRANCH   6  24
ATOM     24  O   UNL     1      15.818 -28.075 -31.729  1.00  0.00    -0.507 OA
ATOM     25  H   UNL     1      15.920 -27.518 -32.563  1.00  0.00     0.293 HD
ENDBRANCH   6  24
BRANCH   8  26
ATOM     26  O   UNL     1      16.595 -29.490 -27.206  1.00  0.00    -0.508 OA
ATOM     27  H   UNL     1      16.641 -29.198 -26.237  1.00  0.00     0.293 HD
ENDBRANCH   8  26
TORSDOF 6
ENDMDL
MODEL 9
REMARK VINA RESULT:    -6.172      4.045      5.671
REMARK INTER + INTRA:          -7.588
REMARK INTER:                  -7.256
REMARK INTRA:                  -0.331
REMARK UNBOUND:                -0.153
REMARK SMILES O=c1c(O)c(-c2ccc(O)c(O)c2)oc2cc(O)cc(O)c12
REMARK SMILES IDX 5 1 3 2 2 3 1 4 22 5 20 6 19 7 17 8 16 9 15 10 14 11 6 12
REMARK SMILES IDX 7 13 8 14 9 15 13 16 11 17 10 18 12 20 4 22 21 24 18 26
REMARK H PARENT 10 19 12 21 4 23 21 25 18 27
REMARK Flexibility Score: inf
ROOT
ATOM      1  C   UNL     1      17.985 -25.844 -29.277  1.00  0.00     0.180 A 
ATOM      2  C   UNL     1      17.415 -26.926 -28.586  1.00  0.00     0.208 A 
ATOM      3  C   UNL     1      16.921 -28.017 -29.319  1.00  0.00     0.238 A 
ATOM      4  O   UNL     1      16.462 -29.008 -28.692  1.00  0.00    -0.285 OA
ATOM      5  C   UNL     1      16.987 -28.005 -30.732  1.00  0.00     0.111 A 
ATOM      6  C   UNL     1      16.481 -29.038 -31.576  1.00  0.00     0.134 A 
ATOM      7  C   UNL     1      16.719 -28.981 -32.956  1.00  0.00     0.093 A 
ATOM      8  C   UNL     1      17.387 -27.896 -33.528  1.00  0.00     0.123 A 
ATOM      9  C   UNL     1      17.833 -26.855 -32.718  1.00  0.00     0.094 A 
ATOM     10  C   UNL     1      17.643 -26.899 -31.335  1.00  0.00     0.146 A 
ATOM     11  O   UNL     1      18.093 -25.890 -30.599  1.00  0.00    -0.452 OA
ENDROOT
BRANCH   1  12
ATOM     12  C   UNL     1      18.505 -24.646 -28.576  1.00  0.00     0.025 A 
ATOM     13  C   UNL     1      17.663 -23.576 -28.236  1.00  0.00     0.016 A 
ATOM     14  C   UNL     1      18.179 -22.447 -27.596  1.00  0.00     0.051 A 
ATOM     15  C   UNL     1      19.543 -22.358 -27.295  1.00  0.00     0.157 A 
ATOM     16  C   UNL     1      19.876 -24.550 -28.296  1.00  0.00     0.062 A 
ATOM     17  C   UNL     1      20.404 -23.422 -27.654  1.00  0.00     0.158 A 
BRANCH  15  18
ATOM     18  O   UNL     1      19.995 -21.205 -26.651  1.00  0.00    -0.504 OA
ATOM     19  H   UNL     1      20.878 -21.139 -26.164  1.00  0.00     0.293 HD
ENDBRANCH  15  18
BRANCH  17  20
ATOM     20  O   UNL     1      21.776 -23.401 -27.396  1.00  0.00    -0.504 OA
ATOM     21  H   UNL     1      22.403 -24.164 -27.609  1.00  0.00     0.293 HD
ENDBRANCH  17  20
ENDBRANCH   1  12
BRANCH   2  22
ATOM     22  O   UNL     1      17.379 -26.928 -27.189  1.00  0.00    -0.502 OA
ATOM     23  H   UNL     1      17.981 -27.521 -26.630  1.00  0.00     0.293 HD
ENDBRANCH   2  22
BRANCH   6  24
ATOM     24  O   UNL     1      15.722 -30.118 -31.118  1.00  0.00    -0.507 OA
ATOM     25  H   UNL     1      14.873 -30.450 -31.550  1.00  0.00     0.293 HD
ENDBRANCH   6  24
BRANCH   8  26
ATOM     26  O   UNL     1      17.606 -27.841 -34.902  1.00  0.00    -0.508 OA
ATOM     27  H   UNL     1      18.428 -28.253 -35.326  1.00  0.00     0.293 HD
ENDBRANCH   8  26
TORSDOF 6
ENDMDL
