MODEL 1
REMARK VINA RESULT:     4.677      0.000      0.000
REMARK INTER + INTRA:           5.339
REMARK INTER:                   5.498
REMARK INTRA:                  -0.159
REMARK UNBOUND:                -0.159
REMARK SMILES O=c1c(O)c(-c2ccc(O)cc2)oc2cc(O)cc(O)c12
REMARK SMILES IDX 5 1 3 2 2 3 1 4 21 5 19 6 18 7 16 8 15 9 14 10 13 11 6 12
REMARK SMILES IDX 7 13 8 14 9 15 12 16 11 17 10 18 4 20 20 22 17 24
REMARK H PARENT 10 19 4 21 20 23 17 25
REMARK Flexibility Score: inf
ROOT
ATOM      1  C   UNL     1     -30.727  -0.208 -24.241  1.00  0.00     0.180 A 
ATOM      2  C   UNL     1     -31.106  -1.060 -25.293  1.00  0.00     0.208 A 
ATOM      3  C   UNL     1     -31.513  -0.497 -26.513  1.00  0.00     0.238 A 
ATOM      4  O   UNL     1     -31.922  -1.263 -27.424  1.00  0.00    -0.285 OA
ATOM      5  C   UNL     1     -31.484   0.908 -26.687  1.00  0.00     0.111 A 
ATOM      6  C   UNL     1     -31.833   1.585 -27.894  1.00  0.00     0.134 A 
ATOM      7  C   UNL     1     -31.867   2.985 -27.916  1.00  0.00     0.093 A 
ATOM      8  C   UNL     1     -31.504   3.732 -26.793  1.00  0.00     0.123 A 
ATOM      9  C   UNL     1     -31.111   3.082 -25.627  1.00  0.00     0.094 A 
ATOM     10  C   UNL     1     -31.102   1.686 -25.562  1.00  0.00     0.146 A 
ATOM     11  O   UNL     1     -30.741   1.107 -24.423  1.00  0.00    -0.452 OA
ENDROOT
BRANCH   1  12
ATOM     12  C   UNL     1     -30.299  -0.726 -22.922  1.00  0.00     0.021 A 
ATOM     13  C   UNL     1     -31.060  -0.493 -21.761  1.00  0.00     0.016 A 
ATOM     14  C   UNL     1     -30.622  -0.971 -20.523  1.00  0.00     0.047 A 
ATOM     15  C   UNL     1     -29.414  -1.674 -20.425  1.00  0.00     0.115 A 
ATOM     16  C   UNL     1     -29.079  -1.412 -22.812  1.00  0.00     0.016 A 
ATOM     17  C   UNL     1     -28.643  -1.890 -21.572  1.00  0.00     0.047 A 
BRANCH  15  18
ATOM     18  O   UNL     1     -28.968  -2.156 -19.196  1.00  0.00    -0.508 OA
ATOM     19  H   UNL     1     -28.725  -3.131 -19.067  1.00  0.00     0.293 HD
ENDBRANCH  15  18
ENDBRANCH   1  12
BRANCH   2  20
ATOM     20  O   UNL     1     -31.055  -2.447 -25.128  1.00  0.00    -0.502 OA
ATOM     21  H   UNL     1     -31.819  -3.055 -25.396  1.00  0.00     0.293 HD
ENDBRANCH   2  20
BRANCH   6  22
ATOM     22  O   UNL     1     -32.125   0.938 -29.099  1.00  0.00    -0.507 OA
ATOM     23  H   UNL     1     -31.627   1.075 -29.965  1.00  0.00     0.293 HD
ENDBRANCH   6  22
BRANCH   8  24
ATOM     24  O   UNL     1     -31.526   5.125 -26.829  1.00  0.00    -0.508 OA
ATOM     25  H   UNL     1     -30.722   5.660 -27.135  1.00  0.00     0.293 HD
ENDBRANCH   8  24
TORSDOF 5
ENDMDL
MODEL 2
REMARK VINA RESULT:     6.037      1.478      3.374
REMARK INTER + INTRA:           6.937
REMARK INTER:                   7.045
REMARK INTRA:                  -0.108
REMARK UNBOUND:                -0.159
REMARK SMILES O=c1c(O)c(-c2ccc(O)cc2)oc2cc(O)cc(O)c12
REMARK SMILES IDX 5 1 3 2 2 3 1 4 21 5 19 6 18 7 16 8 15 9 14 10 13 11 6 12
REMARK SMILES IDX 7 13 8 14 9 15 12 16 11 17 10 18 4 20 20 22 17 24
REMARK H PARENT 10 19 4 21 20 23 17 25
REMARK Flexibility Score: inf
ROOT
ATOM      1  C   UNL     1     -30.699  -0.573 -24.180  1.00  0.00     0.180 A 
ATOM      2  C   UNL     1     -30.780   0.745 -24.663  1.00  0.00     0.208 A 
ATOM      3  C   UNL     1     -31.132   0.957 -26.006  1.00  0.00     0.238 A 
ATOM      4  O   UNL     1     -31.130   2.134 -26.450  1.00  0.00    -0.285 OA
ATOM      5  C   UNL     1     -31.450  -0.146 -26.835  1.00  0.00     0.111 A 
ATOM      6  C   UNL     1     -31.862  -0.046 -28.198  1.00  0.00     0.134 A 
ATOM      7  C   UNL     1     -32.049  -1.212 -28.951  1.00  0.00     0.093 A 
ATOM      8  C   UNL     1     -31.902  -2.474 -28.372  1.00  0.00     0.123 A 
ATOM      9  C   UNL     1     -31.553  -2.583 -27.029  1.00  0.00     0.094 A 
ATOM     10  C   UNL     1     -31.323  -1.438 -26.261  1.00  0.00     0.146 A 
ATOM     11  O   UNL     1     -30.971  -1.589 -24.989  1.00  0.00    -0.452 OA
ENDROOT
BRANCH   1  12
ATOM     12  C   UNL     1     -30.321  -0.878 -22.781  1.00  0.00     0.021 A 
ATOM     13  C   UNL     1     -31.105  -0.438 -21.698  1.00  0.00     0.016 A 
ATOM     14  C   UNL     1     -30.714  -0.717 -20.385  1.00  0.00     0.047 A 
ATOM     15  C   UNL     1     -29.530  -1.426 -20.137  1.00  0.00     0.115 A 
ATOM     16  C   UNL     1     -29.126  -1.568 -22.523  1.00  0.00     0.016 A 
ATOM     17  C   UNL     1     -28.738  -1.847 -21.209  1.00  0.00     0.047 A 
BRANCH  15  18
ATOM     18  O   UNL     1     -29.132  -1.711 -18.833  1.00  0.00    -0.508 OA
ATOM     19  H   UNL     1     -28.371  -2.351 -18.640  1.00  0.00     0.293 HD
ENDBRANCH  15  18
ENDBRANCH   1  12
BRANCH   2  20
ATOM     20  O   UNL     1     -30.537   1.824 -23.809  1.00  0.00    -0.502 OA
ATOM     21  H   UNL     1     -29.731   2.427 -23.911  1.00  0.00     0.293 HD
ENDBRANCH   2  20
BRANCH   6  22
ATOM     22  O   UNL     1     -32.125   1.163 -28.850  1.00  0.00    -0.507 OA
ATOM     23  H   UNL     1     -32.189   2.062 -28.397  1.00  0.00     0.293 HD
ENDBRANCH   6  22
BRANCH   8  24
ATOM     24  O   UNL     1     -32.107  -3.629 -29.125  1.00  0.00    -0.508 OA
ATOM     25  H   UNL     1     -32.832  -4.295 -28.887  1.00  0.00     0.293 HD
ENDBRANCH   8  24
TORSDOF 5
ENDMDL
