MODEL 1
REMARK VINA RESULT:    -4.646      0.000      0.000
REMARK INTER + INTRA:         -13.889
REMARK INTER:                 -10.621
REMARK INTRA:                  -3.268
REMARK UNBOUND:                -3.268
REMARK SMILES CCCCCCCCCCCCCCCCCCCCCCCC(=O)[O-]
REMARK SMILES IDX 13 1 14 2 15 3 16 4 17 5 18 6 19 7 20 8 21 9 22 10 23 11
REMARK SMILES IDX 24 12 25 13 26 14 12 15 11 16 10 17 9 18 8 19 7 20 6 21 5 22
REMARK SMILES IDX 4 23 3 24 2 25 1 26
REMARK H PARENT
REMARK Flexibility Score: inf
ROOT
ATOM      1  C   UNL     1      97.757  85.081  83.455  1.00  0.00     0.000 C 
ENDROOT
BRANCH   1   2
ATOM      2  C   UNL     1      97.619  84.085  82.292  1.00  0.00     0.000 C 
BRANCH   2   3
ATOM      3  C   UNL     1      98.956  83.428  81.919  1.00  0.00     0.000 C 
BRANCH   3   4
ATOM      4  C   UNL     1     100.011  83.674  83.004  1.00  0.00     0.000 C 
BRANCH   4   5
ATOM      5  C   UNL     1     101.386  83.966  82.380  1.00  0.00     0.000 C 
BRANCH   5   6
ATOM      6  C   UNL     1     102.222  84.939  83.225  1.00  0.00     0.000 C 
BRANCH   6   7
ATOM      7  C   UNL     1     101.389  85.660  84.300  1.00  0.00     0.000 C 
BRANCH   7   8
ATOM      8  C   UNL     1     101.786  87.144  84.447  1.00  0.00     0.000 C 
BRANCH   8   9
ATOM      9  C   UNL     1     103.260  87.429  84.094  1.00  0.00     0.000 C 
BRANCH   9  10
ATOM     10  C   UNL     1     103.471  88.233  82.797  1.00  0.00     0.006 C 
BRANCH  10  11
ATOM     11  C   UNL     1     102.160  88.764  82.206  1.00  0.00     0.053 C 
BRANCH  11  12
ATOM     12  C   UNL     1     102.336  90.171  81.732  1.00  0.00     0.041 C 
ATOM     13  O   UNL     1     103.484  90.603  81.443  1.00  0.00    -0.550 OA
ATOM     14  O   UNL     1     101.244  91.030  81.685  1.00  0.00    -0.550 OA
ENDBRANCH  11  12
ENDBRANCH  10  11
ENDBRANCH   9  10
ENDBRANCH   8   9
ENDBRANCH   7   8
ENDBRANCH   6   7
ENDBRANCH   5   6
ENDBRANCH   4   5
ENDBRANCH   3   4
ENDBRANCH   2   3
ENDBRANCH   1   2
BRANCH   1  15
ATOM     15  C   UNL     1      97.502  86.533  83.022  1.00  0.00     0.000 C 
BRANCH  15  16
ATOM     16  C   UNL     1      98.684  87.075  82.203  1.00  0.00     0.000 C 
BRANCH  16  17
ATOM     17  C   UNL     1      98.321  87.317  80.728  1.00  0.00     0.000 C 
BRANCH  17  18
ATOM     18  C   UNL     1      96.803  87.430  80.509  1.00  0.00    -0.000 C 
BRANCH  18  19
ATOM     19  C   UNL     1      96.252  86.324  79.594  1.00  0.00    -0.000 C 
BRANCH  19  20
ATOM     20  C   UNL     1      95.004  85.638  80.176  1.00  0.00    -0.000 C 
BRANCH  20  21
ATOM     21  C   UNL     1      94.862  84.177  79.720  1.00  0.00    -0.000 C 
BRANCH  21  22
ATOM     22  C   UNL     1      93.438  83.594  79.821  1.00  0.00    -0.000 C 
BRANCH  22  23
ATOM     23  C   UNL     1      92.495  84.403  80.737  1.00  0.00    -0.000 C 
BRANCH  23  24
ATOM     24  C   UNL     1      91.259  84.929  79.984  1.00  0.00    -0.000 C 
BRANCH  24  25
ATOM     25  C   UNL     1      91.420  86.391  79.538  1.00  0.00    -0.003 C 
ATOM     26  C   UNL     1      91.950  86.518  78.108  1.00  0.00     0.004 C 
ENDBRANCH  24  25
ENDBRANCH  23  24
ENDBRANCH  22  23
ENDBRANCH  21  22
ENDBRANCH  20  21
ENDBRANCH  19  20
ENDBRANCH  18  19
ENDBRANCH  17  18
ENDBRANCH  16  17
ENDBRANCH  15  16
ENDBRANCH   1  15
TORSDOF 22
ENDMDL
MODEL 2
REMARK VINA RESULT:    -4.520      3.509      8.441
REMARK INTER + INTRA:         -13.602
REMARK INTER:                  -9.924
REMARK INTRA:                  -3.678
REMARK UNBOUND:                -3.268
REMARK SMILES CCCCCCCCCCCCCCCCCCCCCCCC(=O)[O-]
REMARK SMILES IDX 13 1 14 2 15 3 16 4 17 5 18 6 19 7 20 8 21 9 22 10 23 11
REMARK SMILES IDX 24 12 25 13 26 14 12 15 11 16 10 17 9 18 8 19 7 20 6 21 5 22
REMARK SMILES IDX 4 23 3 24 2 25 1 26
REMARK H PARENT
REMARK Flexibility Score: inf
ROOT
ATOM      1  C   UNL     1      98.400  83.834  82.247  1.00  0.00     0.000 C 
ENDROOT
BRANCH   1   2
ATOM      2  C   UNL     1      97.405  84.877  81.713  1.00  0.00     0.000 C 
BRANCH   2   3
ATOM      3  C   UNL     1      98.035  85.811  80.670  1.00  0.00     0.000 C 
BRANCH   3   4
ATOM      4  C   UNL     1      97.114  86.999  80.367  1.00  0.00     0.000 C 
BRANCH   4   5
ATOM      5  C   UNL     1      95.646  86.549  80.277  1.00  0.00     0.000 C 
BRANCH   5   6
ATOM      6  C   UNL     1      95.336  85.808  78.967  1.00  0.00     0.000 C 
BRANCH   6   7
ATOM      7  C   UNL     1      94.653  84.449  79.201  1.00  0.00     0.000 C 
BRANCH   7   8
ATOM      8  C   UNL     1      93.776  84.449  80.471  1.00  0.00     0.000 C 
BRANCH   8   9
ATOM      9  C   UNL     1      92.279  84.203  80.191  1.00  0.00     0.000 C 
BRANCH   9  10
ATOM     10  C   UNL     1      91.735  84.896  78.928  1.00  0.00     0.006 C 
BRANCH  10  11
ATOM     11  C   UNL     1      91.503  86.399  79.126  1.00  0.00     0.053 C 
BRANCH  11  12
ATOM     12  C   UNL     1      90.669  86.639  80.344  1.00  0.00     0.041 C 
ATOM     13  O   UNL     1      89.454  86.305  80.356  1.00  0.00    -0.550 OA
ATOM     14  O   UNL     1      91.211  87.304  81.437  1.00  0.00    -0.550 OA
ENDBRANCH  11  12
ENDBRANCH  10  11
ENDBRANCH   9  10
ENDBRANCH   8   9
ENDBRANCH   7   8
ENDBRANCH   6   7
ENDBRANCH   5   6
ENDBRANCH   4   5
ENDBRANCH   3   4
ENDBRANCH   2   3
ENDBRANCH   1   2
BRANCH   1  15
ATOM     15  C   UNL     1      99.755  83.888  81.524  1.00  0.00     0.000 C 
BRANCH  15  16
ATOM     16  C   UNL     1     100.914  83.772  82.526  1.00  0.00     0.000 C 
BRANCH  16  17
ATOM     17  C   UNL     1     100.468  84.014  83.979  1.00  0.00     0.000 C 
BRANCH  17  18
ATOM     18  C   UNL     1     101.331  85.072  84.688  1.00  0.00    -0.000 C 
BRANCH  18  19
ATOM     19  C   UNL     1     102.288  85.797  83.729  1.00  0.00    -0.000 C 
BRANCH  19  20
ATOM     20  C   UNL     1     101.904  87.270  83.508  1.00  0.00    -0.000 C 
BRANCH  20  21
ATOM     21  C   UNL     1     100.597  87.657  84.219  1.00  0.00    -0.000 C 
BRANCH  21  22
ATOM     22  C   UNL     1      99.408  87.960  83.286  1.00  0.00    -0.000 C 
BRANCH  22  23
ATOM     23  C   UNL     1      98.028  87.747  83.942  1.00  0.00    -0.000 C 
BRANCH  23  24
ATOM     24  C   UNL     1      98.037  86.591  84.959  1.00  0.00    -0.000 C 
BRANCH  24  25
ATOM     25  C   UNL     1      96.656  85.931  85.110  1.00  0.00    -0.003 C 
ATOM     26  C   UNL     1      96.546  85.076  86.375  1.00  0.00     0.004 C 
ENDBRANCH  24  25
ENDBRANCH  23  24
ENDBRANCH  22  23
ENDBRANCH  21  22
ENDBRANCH  20  21
ENDBRANCH  19  20
ENDBRANCH  18  19
ENDBRANCH  17  18
ENDBRANCH  16  17
ENDBRANCH  15  16
ENDBRANCH   1  15
TORSDOF 22
ENDMDL
MODEL 3
REMARK VINA RESULT:    -4.484      3.086      4.678
REMARK INTER + INTRA:         -13.520
REMARK INTER:                 -10.371
REMARK INTRA:                  -3.149
REMARK UNBOUND:                -3.268
REMARK SMILES CCCCCCCCCCCCCCCCCCCCCCCC(=O)[O-]
REMARK SMILES IDX 13 1 14 2 15 3 16 4 17 5 18 6 19 7 20 8 21 9 22 10 23 11
REMARK SMILES IDX 24 12 25 13 26 14 12 15 11 16 10 17 9 18 8 19 7 20 6 21 5 22
REMARK SMILES IDX 4 23 3 24 2 25 1 26
REMARK H PARENT
REMARK Flexibility Score: inf
ROOT
ATOM      1  C   UNL     1      97.755  87.005  81.281  1.00  0.00     0.000 C 
ENDROOT
BRANCH   1   2
ATOM      2  C   UNL     1      98.230  85.593  80.902  1.00  0.00     0.000 C 
BRANCH   2   3
ATOM      3  C   UNL     1      97.923  84.557  81.993  1.00  0.00     0.000 C 
BRANCH   3   4
ATOM      4  C   UNL     1      98.857  83.346  81.879  1.00  0.00     0.000 C 
BRANCH   4   5
ATOM      5  C   UNL     1     100.331  83.775  81.969  1.00  0.00     0.000 C 
BRANCH   5   6
ATOM      6  C   UNL     1     100.755  84.129  83.402  1.00  0.00     0.000 C 
BRANCH   6   7
ATOM      7  C   UNL     1     101.484  85.482  83.489  1.00  0.00     0.000 C 
BRANCH   7   8
ATOM      8  C   UNL     1     100.548  86.620  83.947  1.00  0.00     0.000 C 
BRANCH   8   9
ATOM      9  C   UNL     1      99.470  86.169  84.954  1.00  0.00     0.000 C 
BRANCH   9  10
ATOM     10  C   UNL     1      98.181  87.011  84.942  1.00  0.00     0.006 C 
BRANCH  10  11
ATOM     11  C   UNL     1      97.152  86.539  85.977  1.00  0.00     0.053 C 
BRANCH  11  12
ATOM     12  C   UNL     1      96.195  85.572  85.355  1.00  0.00     0.041 C 
ATOM     13  O   UNL     1      95.628  85.854  84.266  1.00  0.00    -0.550 OA
ATOM     14  O   UNL     1      95.868  84.396  86.019  1.00  0.00    -0.550 OA
ENDBRANCH  11  12
ENDBRANCH  10  11
ENDBRANCH   9  10
ENDBRANCH   8   9
ENDBRANCH   7   8
ENDBRANCH   6   7
ENDBRANCH   5   6
ENDBRANCH   4   5
ENDBRANCH   3   4
ENDBRANCH   2   3
ENDBRANCH   1   2
BRANCH   1  15
ATOM     15  C   UNL     1      96.520  87.447  80.481  1.00  0.00     0.000 C 
BRANCH  15  16
ATOM     16  C   UNL     1      96.238  86.472  79.327  1.00  0.00     0.000 C 
BRANCH  16  17
ATOM     17  C   UNL     1      94.765  86.033  79.270  1.00  0.00     0.000 C 
BRANCH  17  18
ATOM     18  C   UNL     1      94.400  85.056  80.400  1.00  0.00    -0.000 C 
BRANCH  18  19
ATOM     19  C   UNL     1      93.501  83.904  79.921  1.00  0.00    -0.000 C 
BRANCH  19  20
ATOM     20  C   UNL     1      92.417  84.368  78.933  1.00  0.00    -0.000 C 
BRANCH  20  21
ATOM     21  C   UNL     1      91.150  84.879  79.638  1.00  0.00    -0.000 C 
BRANCH  21  22
ATOM     22  C   UNL     1      90.772  84.129  80.931  1.00  0.00    -0.000 C 
BRANCH  22  23
ATOM     23  C   UNL     1      90.449  85.057  82.121  1.00  0.00    -0.000 C 
BRANCH  23  24
ATOM     24  C   UNL     1      91.683  85.325  83.003  1.00  0.00    -0.000 C 
BRANCH  24  25
ATOM     25  C   UNL     1      91.404  85.074  84.494  1.00  0.00    -0.003 C 
ATOM     26  C   UNL     1      92.278  85.932  85.411  1.00  0.00     0.004 C 
ENDBRANCH  24  25
ENDBRANCH  23  24
ENDBRANCH  22  23
ENDBRANCH  21  22
ENDBRANCH  20  21
ENDBRANCH  19  20
ENDBRANCH  18  19
ENDBRANCH  17  18
ENDBRANCH  16  17
ENDBRANCH  15  16
ENDBRANCH   1  15
TORSDOF 22
ENDMDL
MODEL 4
REMARK VINA RESULT:    -4.470      3.433      5.903
REMARK INTER + INTRA:         -13.487
REMARK INTER:                 -10.210
REMARK INTRA:                  -3.277
REMARK UNBOUND:                -3.268
REMARK SMILES CCCCCCCCCCCCCCCCCCCCCCCC(=O)[O-]
REMARK SMILES IDX 13 1 14 2 15 3 16 4 17 5 18 6 19 7 20 8 21 9 22 10 23 11
REMARK SMILES IDX 24 12 25 13 26 14 12 15 11 16 10 17 9 18 8 19 7 20 6 21 5 22
REMARK SMILES IDX 4 23 3 24 2 25 1 26
REMARK H PARENT
REMARK Flexibility Score: inf
ROOT
ATOM      1  C   UNL     1      93.999  84.470  79.335  1.00  0.00     0.000 C 
ENDROOT
BRANCH   1   2
ATOM      2  C   UNL     1      95.262  84.368  80.205  1.00  0.00     0.000 C 
BRANCH   2   3
ATOM      3  C   UNL     1      96.094  85.659  80.186  1.00  0.00     0.000 C 
BRANCH   3   4
ATOM      4  C   UNL     1      97.441  85.455  80.890  1.00  0.00     0.000 C 
BRANCH   4   5
ATOM      5  C   UNL     1      97.390  84.247  81.839  1.00  0.00     0.000 C 
BRANCH   5   6
ATOM      6  C   UNL     1      98.715  83.469  81.874  1.00  0.00     0.000 C 
BRANCH   6   7
ATOM      7  C   UNL     1      99.942  84.391  81.992  1.00  0.00     0.000 C 
BRANCH   7   8
ATOM      8  C   UNL     1     100.926  83.914  83.081  1.00  0.00     0.000 C 
BRANCH   8   9
ATOM      9  C   UNL     1     100.832  84.713  84.397  1.00  0.00     0.000 C 
BRANCH   9  10
ATOM     10  C   UNL     1     100.366  83.898  85.617  1.00  0.00     0.006 C 
BRANCH  10  11
ATOM     11  C   UNL     1     101.056  84.326  86.918  1.00  0.00     0.053 C 
BRANCH  11  12
ATOM     12  C   UNL     1     100.089  85.037  87.810  1.00  0.00     0.041 C 
ATOM     13  O   UNL     1      98.859  85.043  87.534  1.00  0.00    -0.550 OA
ATOM     14  O   UNL     1     100.554  85.761  88.901  1.00  0.00    -0.550 OA
ENDBRANCH  11  12
ENDBRANCH  10  11
ENDBRANCH   9  10
ENDBRANCH   8   9
ENDBRANCH   7   8
ENDBRANCH   6   7
ENDBRANCH   5   6
ENDBRANCH   4   5
ENDBRANCH   3   4
ENDBRANCH   2   3
ENDBRANCH   1   2
BRANCH   1  15
ATOM     15  C   UNL     1      93.675  85.916  78.931  1.00  0.00     0.000 C 
BRANCH  15  16
ATOM     16  C   UNL     1      92.165  86.100  78.716  1.00  0.00     0.000 C 
BRANCH  16  17
ATOM     17  C   UNL     1      91.376  84.793  78.909  1.00  0.00     0.000 C 
BRANCH  17  18
ATOM     18  C   UNL     1      90.378  84.878  80.077  1.00  0.00    -0.000 C 
BRANCH  18  19
ATOM     19  C   UNL     1      90.803  84.025  81.283  1.00  0.00    -0.000 C 
BRANCH  19  20
ATOM     20  C   UNL     1      90.979  84.855  82.566  1.00  0.00    -0.000 C 
BRANCH  20  21
ATOM     21  C   UNL     1      91.156  86.356  82.282  1.00  0.00    -0.000 C 
BRANCH  21  22
ATOM     22  C   UNL     1      92.605  86.873  82.370  1.00  0.00    -0.000 C 
BRANCH  22  23
ATOM     23  C   UNL     1      93.588  85.875  83.017  1.00  0.00    -0.000 C 
BRANCH  23  24
ATOM     24  C   UNL     1      94.806  86.578  83.644  1.00  0.00    -0.000 C 
BRANCH  24  25
ATOM     25  C   UNL     1      95.138  86.040  85.045  1.00  0.00    -0.003 C 
ATOM     26  C   UNL     1      96.424  85.211  85.071  1.00  0.00     0.004 C 
ENDBRANCH  24  25
ENDBRANCH  23  24
ENDBRANCH  22  23
ENDBRANCH  21  22
ENDBRANCH  20  21
ENDBRANCH  19  20
ENDBRANCH  18  19
ENDBRANCH  17  18
ENDBRANCH  16  17
ENDBRANCH  15  16
ENDBRANCH   1  15
TORSDOF 22
ENDMDL
MODEL 5
REMARK VINA RESULT:    -4.442      4.886      9.166
REMARK INTER + INTRA:         -13.423
REMARK INTER:                  -9.977
REMARK INTRA:                  -3.446
REMARK UNBOUND:                -3.268
REMARK SMILES CCCCCCCCCCCCCCCCCCCCCCCC(=O)[O-]
REMARK SMILES IDX 13 1 14 2 15 3 16 4 17 5 18 6 19 7 20 8 21 9 22 10 23 11
REMARK SMILES IDX 24 12 25 13 26 14 12 15 11 16 10 17 9 18 8 19 7 20 6 21 5 22
REMARK SMILES IDX 4 23 3 24 2 25 1 26
REMARK H PARENT
REMARK Flexibility Score: inf
ROOT
ATOM      1  C   UNL     1      97.521  84.951  81.139  1.00  0.00     0.000 C 
ENDROOT
BRANCH   1   2
ATOM      2  C   UNL     1      96.560  85.881  81.896  1.00  0.00     0.000 C 
BRANCH   2   3
ATOM      3  C   UNL     1      95.906  86.924  80.977  1.00  0.00     0.000 C 
BRANCH   3   4
ATOM      4  C   UNL     1      95.844  86.420  79.530  1.00  0.00     0.000 C 
BRANCH   4   5
ATOM      5  C   UNL     1      94.446  85.874  79.195  1.00  0.00     0.000 C 
BRANCH   5   6
ATOM      6  C   UNL     1      94.381  84.340  79.264  1.00  0.00     0.000 C 
BRANCH   6   7
ATOM      7  C   UNL     1      93.327  83.836  80.267  1.00  0.00     0.000 C 
BRANCH   7   8
ATOM      8  C   UNL     1      92.900  84.932  81.265  1.00  0.00     0.000 C 
BRANCH   8   9
ATOM      9  C   UNL     1      91.387  85.234  81.246  1.00  0.00     0.000 C 
BRANCH   9  10
ATOM     10  C   UNL     1      90.501  84.068  80.770  1.00  0.00     0.006 C 
BRANCH  10  11
ATOM     11  C   UNL     1      89.716  84.399  79.495  1.00  0.00     0.053 C 
BRANCH  11  12
ATOM     12  C   UNL     1      88.276  84.031  79.662  1.00  0.00     0.041 C 
ATOM     13  O   UNL     1      87.722  83.252  78.840  1.00  0.00    -0.550 OA
ATOM     14  O   UNL     1      87.525  84.610  80.677  1.00  0.00    -0.550 OA
ENDBRANCH  11  12
ENDBRANCH  10  11
ENDBRANCH   9  10
ENDBRANCH   8   9
ENDBRANCH   7   8
ENDBRANCH   6   7
ENDBRANCH   5   6
ENDBRANCH   4   5
ENDBRANCH   3   4
ENDBRANCH   2   3
ENDBRANCH   1   2
BRANCH   1  15
ATOM     15  C   UNL     1      97.588  83.545  81.755  1.00  0.00     0.000 C 
BRANCH  15  16
ATOM     16  C   UNL     1      98.805  83.412  82.683  1.00  0.00     0.000 C 
BRANCH  16  17
ATOM     17  C   UNL     1     100.132  83.719  81.968  1.00  0.00     0.000 C 
BRANCH  17  18
ATOM     18  C   UNL     1     101.224  84.200  82.939  1.00  0.00    -0.000 C 
BRANCH  18  19
ATOM     19  C   UNL     1     101.155  85.712  83.207  1.00  0.00    -0.000 C 
BRANCH  19  20
ATOM     20  C   UNL     1     100.381  86.053  84.492  1.00  0.00    -0.000 C 
BRANCH  20  21
ATOM     21  C   UNL     1      99.219  87.029  84.244  1.00  0.00    -0.000 C 
BRANCH  21  22
ATOM     22  C   UNL     1      97.989  86.828  85.152  1.00  0.00    -0.000 C 
BRANCH  22  23
ATOM     23  C   UNL     1      97.882  85.412  85.755  1.00  0.00    -0.000 C 
BRANCH  23  24
ATOM     24  C   UNL     1      96.519  84.756  85.467  1.00  0.00    -0.000 C 
BRANCH  24  25
ATOM     25  C   UNL     1      95.341  85.599  85.981  1.00  0.00    -0.003 C 
ATOM     26  C   UNL     1      94.332  85.937  84.881  1.00  0.00     0.004 C 
ENDBRANCH  24  25
ENDBRANCH  23  24
ENDBRANCH  22  23
ENDBRANCH  21  22
ENDBRANCH  20  21
ENDBRANCH  19  20
ENDBRANCH  18  19
ENDBRANCH  17  18
ENDBRANCH  16  17
ENDBRANCH  15  16
ENDBRANCH   1  15
TORSDOF 22
ENDMDL
MODEL 6
REMARK VINA RESULT:    -4.437      3.327      4.987
REMARK INTER + INTRA:         -13.411
REMARK INTER:                  -9.499
REMARK INTRA:                  -3.912
REMARK UNBOUND:                -3.268
REMARK SMILES CCCCCCCCCCCCCCCCCCCCCCCC(=O)[O-]
REMARK SMILES IDX 13 1 14 2 15 3 16 4 17 5 18 6 19 7 20 8 21 9 22 10 23 11
REMARK SMILES IDX 24 12 25 13 26 14 12 15 11 16 10 17 9 18 8 19 7 20 6 21 5 22
REMARK SMILES IDX 4 23 3 24 2 25 1 26
REMARK H PARENT
REMARK Flexibility Score: inf
ROOT
ATOM      1  C   UNL     1      98.431  83.335  81.968  1.00  0.00     0.000 C 
ENDROOT
BRANCH   1   2
ATOM      2  C   UNL     1      99.815  83.980  81.787  1.00  0.00     0.000 C 
BRANCH   2   3
ATOM      3  C   UNL     1     100.705  83.818  83.028  1.00  0.00     0.000 C 
BRANCH   3   4
ATOM      4  C   UNL     1     101.497  85.101  83.308  1.00  0.00     0.000 C 
BRANCH   4   5
ATOM      5  C   UNL     1     100.795  85.962  84.371  1.00  0.00     0.000 C 
BRANCH   5   6
ATOM      6  C   UNL     1      99.889  87.038  83.753  1.00  0.00     0.000 C 
BRANCH   6   7
ATOM      7  C   UNL     1      98.411  86.870  84.149  1.00  0.00     0.000 C 
BRANCH   7   8
ATOM      8  C   UNL     1      98.195  85.671  85.096  1.00  0.00     0.000 C 
BRANCH   8   9
ATOM      9  C   UNL     1      96.764  85.096  85.052  1.00  0.00     0.000 C 
BRANCH   9  10
ATOM     10  C   UNL     1      95.687  86.080  84.560  1.00  0.00     0.006 C 
BRANCH  10  11
ATOM     11  C   UNL     1      94.316  85.830  85.201  1.00  0.00     0.053 C 
BRANCH  11  12
ATOM     12  C   UNL     1      93.855  87.050  85.935  1.00  0.00     0.041 C 
ATOM     13  O   UNL     1      93.706  87.017  87.186  1.00  0.00    -0.550 OA
ATOM     14  O   UNL     1      93.515  88.197  85.229  1.00  0.00    -0.550 OA
ENDBRANCH  11  12
ENDBRANCH  10  11
ENDBRANCH   9  10
ENDBRANCH   8   9
ENDBRANCH   7   8
ENDBRANCH   6   7
ENDBRANCH   5   6
ENDBRANCH   4   5
ENDBRANCH   3   4
ENDBRANCH   2   3
ENDBRANCH   1   2
BRANCH   1  15
ATOM     15  C   UNL     1      97.283  84.296  81.626  1.00  0.00     0.000 C 
BRANCH  15  16
ATOM     16  C   UNL     1      97.800  85.506  80.831  1.00  0.00     0.000 C 
BRANCH  16  17
ATOM     17  C   UNL     1      96.790  86.665  80.794  1.00  0.00     0.000 C 
BRANCH  17  18
ATOM     18  C   UNL     1      95.332  86.173  80.786  1.00  0.00    -0.000 C 
BRANCH  18  19
ATOM     19  C   UNL     1      94.842  85.794  79.379  1.00  0.00    -0.000 C 
BRANCH  19  20
ATOM     20  C   UNL     1      94.611  84.282  79.218  1.00  0.00    -0.000 C 
BRANCH  20  21
ATOM     21  C   UNL     1      93.445  83.764  80.077  1.00  0.00    -0.000 C 
BRANCH  21  22
ATOM     22  C   UNL     1      92.069  84.379  79.755  1.00  0.00    -0.000 C 
BRANCH  22  23
ATOM     23  C   UNL     1      91.199  84.653  80.999  1.00  0.00    -0.000 C 
BRANCH  23  24
ATOM     24  C   UNL     1      92.030  85.159  82.193  1.00  0.00    -0.000 C 
BRANCH  24  25
ATOM     25  C   UNL     1      91.677  86.603  82.585  1.00  0.00    -0.003 C 
ATOM     26  C   UNL     1      90.231  86.971  82.245  1.00  0.00     0.004 C 
ENDBRANCH  24  25
ENDBRANCH  23  24
ENDBRANCH  22  23
ENDBRANCH  21  22
ENDBRANCH  20  21
ENDBRANCH  19  20
ENDBRANCH  18  19
ENDBRANCH  17  18
ENDBRANCH  16  17
ENDBRANCH  15  16
ENDBRANCH   1  15
TORSDOF 22
ENDMDL
MODEL 7
REMARK VINA RESULT:    -4.406      3.013      8.345
REMARK INTER + INTRA:         -13.340
REMARK INTER:                  -9.937
REMARK INTRA:                  -3.404
REMARK UNBOUND:                -3.268
REMARK SMILES CCCCCCCCCCCCCCCCCCCCCCCC(=O)[O-]
REMARK SMILES IDX 13 1 14 2 15 3 16 4 17 5 18 6 19 7 20 8 21 9 22 10 23 11
REMARK SMILES IDX 24 12 25 13 26 14 12 15 11 16 10 17 9 18 8 19 7 20 6 21 5 22
REMARK SMILES IDX 4 23 3 24 2 25 1 26
REMARK H PARENT
REMARK Flexibility Score: inf
ROOT
ATOM      1  C   UNL     1      95.906  86.715  80.279  1.00  0.00     0.000 C 
ENDROOT
BRANCH   1   2
ATOM      2  C   UNL     1      95.305  85.739  79.254  1.00  0.00     0.000 C 
BRANCH   2   3
ATOM      3  C   UNL     1      95.022  84.355  79.857  1.00  0.00     0.000 C 
BRANCH   3   4
ATOM      4  C   UNL     1      93.741  83.751  79.270  1.00  0.00     0.000 C 
BRANCH   4   5
ATOM      5  C   UNL     1      92.554  83.938  80.229  1.00  0.00     0.000 C 
BRANCH   5   6
ATOM      6  C   UNL     1      91.481  84.881  79.663  1.00  0.00     0.000 C 
BRANCH   6   7
ATOM      7  C   UNL     1      91.678  86.341  80.107  1.00  0.00     0.000 C 
BRANCH   7   8
ATOM      8  C   UNL     1      91.215  86.575  81.561  1.00  0.00     0.000 C 
BRANCH   8   9
ATOM      9  C   UNL     1      92.319  87.137  82.480  1.00  0.00     0.000 C 
BRANCH   9  10
ATOM     10  C   UNL     1      93.500  86.182  82.731  1.00  0.00     0.006 C 
BRANCH  10  11
ATOM     11  C   UNL     1      94.547  86.767  83.688  1.00  0.00     0.053 C 
BRANCH  11  12
ATOM     12  C   UNL     1      94.591  85.976  84.956  1.00  0.00     0.041 C 
ATOM     13  O   UNL     1      95.695  85.577  85.416  1.00  0.00    -0.550 OA
ATOM     14  O   UNL     1      93.409  85.609  85.588  1.00  0.00    -0.550 OA
ENDBRANCH  11  12
ENDBRANCH  10  11
ENDBRANCH   9  10
ENDBRANCH   8   9
ENDBRANCH   7   8
ENDBRANCH   6   7
ENDBRANCH   5   6
ENDBRANCH   4   5
ENDBRANCH   3   4
ENDBRANCH   2   3
ENDBRANCH   1   2
BRANCH   1  15
ATOM     15  C   UNL     1      97.391  87.005  80.016  1.00  0.00     0.000 C 
BRANCH  15  16
ATOM     16  C   UNL     1      98.286  86.018  80.782  1.00  0.00     0.000 C 
BRANCH  16  17
ATOM     17  C   UNL     1      97.718  85.654  82.164  1.00  0.00     0.000 C 
BRANCH  17  18
ATOM     18  C   UNL     1      97.681  84.135  82.402  1.00  0.00    -0.000 C 
BRANCH  18  19
ATOM     19  C   UNL     1      99.014  83.449  82.060  1.00  0.00    -0.000 C 
BRANCH  19  20
ATOM     20  C   UNL     1     100.096  83.687  83.127  1.00  0.00    -0.000 C 
BRANCH  20  21
ATOM     21  C   UNL     1     101.478  83.976  82.519  1.00  0.00    -0.000 C 
BRANCH  21  22
ATOM     22  C   UNL     1     102.249  85.143  83.167  1.00  0.00    -0.000 C 
BRANCH  22  23
ATOM     23  C   UNL     1     101.545  85.749  84.399  1.00  0.00    -0.000 C 
BRANCH  23  24
ATOM     24  C   UNL     1     101.279  87.257  84.236  1.00  0.00    -0.000 C 
BRANCH  24  25
ATOM     25  C   UNL     1     100.839  87.625  82.810  1.00  0.00    -0.003 C 
ATOM     26  C   UNL     1     101.622  88.808  82.236  1.00  0.00     0.004 C 
ENDBRANCH  24  25
ENDBRANCH  23  24
ENDBRANCH  22  23
ENDBRANCH  21  22
ENDBRANCH  20  21
ENDBRANCH  19  20
ENDBRANCH  18  19
ENDBRANCH  17  18
ENDBRANCH  16  17
ENDBRANCH  15  16
ENDBRANCH   1  15
TORSDOF 22
ENDMDL
MODEL 8
REMARK VINA RESULT:    -4.353      1.597      3.041
REMARK INTER + INTRA:         -13.221
REMARK INTER:                  -9.793
REMARK INTRA:                  -3.427
REMARK UNBOUND:                -3.268
REMARK SMILES CCCCCCCCCCCCCCCCCCCCCCCC(=O)[O-]
REMARK SMILES IDX 13 1 14 2 15 3 16 4 17 5 18 6 19 7 20 8 21 9 22 10 23 11
REMARK SMILES IDX 24 12 25 13 26 14 12 15 11 16 10 17 9 18 8 19 7 20 6 21 5 22
REMARK SMILES IDX 4 23 3 24 2 25 1 26
REMARK H PARENT
REMARK Flexibility Score: inf
ROOT
ATOM      1  C   UNL     1      96.594  86.766  83.997  1.00  0.00     0.000 C 
ENDROOT
BRANCH   1   2
ATOM      2  C   UNL     1      98.023  86.441  83.532  1.00  0.00     0.000 C 
BRANCH   2   3
ATOM      3  C   UNL     1      98.328  87.002  82.135  1.00  0.00     0.000 C 
BRANCH   3   4
ATOM      4  C   UNL     1      98.420  85.876  81.099  1.00  0.00     0.000 C 
BRANCH   4   5
ATOM      5  C   UNL     1      98.185  84.504  81.753  1.00  0.00     0.000 C 
BRANCH   5   6
ATOM      6  C   UNL     1      99.444  83.623  81.744  1.00  0.00     0.000 C 
BRANCH   6   7
ATOM      7  C   UNL     1     100.191  83.643  83.089  1.00  0.00     0.000 C 
BRANCH   7   8
ATOM      8  C   UNL     1     101.554  84.359  82.988  1.00  0.00     0.000 C 
BRANCH   8   9
ATOM      9  C   UNL     1     101.719  85.523  83.987  1.00  0.00     0.000 C 
BRANCH   9  10
ATOM     10  C   UNL     1     102.114  86.869  83.353  1.00  0.00     0.006 C 
BRANCH  10  11
ATOM     11  C   UNL     1     103.294  87.540  84.067  1.00  0.00     0.053 C 
BRANCH  11  12
ATOM     12  C   UNL     1     103.667  88.811  83.371  1.00  0.00     0.041 C 
ATOM     13  O   UNL     1     102.844  89.378  82.604  1.00  0.00    -0.550 OA
ATOM     14  O   UNL     1     104.950  89.326  83.507  1.00  0.00    -0.550 OA
ENDBRANCH  11  12
ENDBRANCH  10  11
ENDBRANCH   9  10
ENDBRANCH   8   9
ENDBRANCH   7   8
ENDBRANCH   6   7
ENDBRANCH   5   6
ENDBRANCH   4   5
ENDBRANCH   3   4
ENDBRANCH   2   3
ENDBRANCH   1   2
BRANCH   1  15
ATOM     15  C   UNL     1      95.925  87.847  83.135  1.00  0.00     0.000 C 
BRANCH  15  16
ATOM     16  C   UNL     1      94.570  87.359  82.600  1.00  0.00     0.000 C 
BRANCH  16  17
ATOM     17  C   UNL     1      94.621  85.907  82.094  1.00  0.00     0.000 C 
BRANCH  17  18
ATOM     18  C   UNL     1      94.751  85.823  80.564  1.00  0.00    -0.000 C 
BRANCH  18  19
ATOM     19  C   UNL     1      94.862  84.377  80.056  1.00  0.00    -0.000 C 
BRANCH  19  20
ATOM     20  C   UNL     1      93.616  83.924  79.275  1.00  0.00    -0.000 C 
BRANCH  20  21
ATOM     21  C   UNL     1      92.636  85.076  78.999  1.00  0.00    -0.000 C 
BRANCH  21  22
ATOM     22  C   UNL     1      91.156  84.762  79.293  1.00  0.00    -0.000 C 
BRANCH  22  23
ATOM     23  C   UNL     1      90.661  85.296  80.653  1.00  0.00    -0.000 C 
BRANCH  23  24
ATOM     24  C   UNL     1      90.910  84.297  81.798  1.00  0.00    -0.000 C 
BRANCH  24  25
ATOM     25  C   UNL     1      91.103  84.994  83.155  1.00  0.00    -0.003 C 
ATOM     26  C   UNL     1      90.937  86.513  83.067  1.00  0.00     0.004 C 
ENDBRANCH  24  25
ENDBRANCH  23  24
ENDBRANCH  22  23
ENDBRANCH  21  22
ENDBRANCH  20  21
ENDBRANCH  19  20
ENDBRANCH  18  19
ENDBRANCH  17  18
ENDBRANCH  16  17
ENDBRANCH  15  16
ENDBRANCH   1  15
TORSDOF 22
ENDMDL
MODEL 9
REMARK VINA RESULT:    -4.349      4.014      7.803
REMARK INTER + INTRA:         -13.210
REMARK INTER:                  -9.530
REMARK INTRA:                  -3.680
REMARK UNBOUND:                -3.268
REMARK SMILES CCCCCCCCCCCCCCCCCCCCCCCC(=O)[O-]
REMARK SMILES IDX 13 1 14 2 15 3 16 4 17 5 18 6 19 7 20 8 21 9 22 10 23 11
REMARK SMILES IDX 24 12 25 13 26 14 12 15 11 16 10 17 9 18 8 19 7 20 6 21 5 22
REMARK SMILES IDX 4 23 3 24 2 25 1 26
REMARK H PARENT
REMARK Flexibility Score: inf
ROOT
ATOM      1  C   UNL     1     100.000  83.798  83.885  1.00  0.00     0.000 C 
ENDROOT
BRANCH   1   2
ATOM      2  C   UNL     1      99.809  84.078  82.385  1.00  0.00     0.000 C 
BRANCH   2   3
ATOM      3  C   UNL     1      98.489  83.508  81.845  1.00  0.00     0.000 C 
BRANCH   3   4
ATOM      4  C   UNL     1      97.441  84.614  81.675  1.00  0.00     0.000 C 
BRANCH   4   5
ATOM      5  C   UNL     1      98.009  85.793  80.867  1.00  0.00     0.000 C 
BRANCH   5   6
ATOM      6  C   UNL     1      96.909  86.690  80.281  1.00  0.00     0.000 C 
BRANCH   6   7
ATOM      7  C   UNL     1      96.090  85.987  79.184  1.00  0.00     0.000 C 
BRANCH   7   8
ATOM      8  C   UNL     1      94.690  85.571  79.679  1.00  0.00     0.000 C 
BRANCH   8   9
ATOM      9  C   UNL     1      94.421  84.055  79.580  1.00  0.00     0.000 C 
BRANCH   9  10
ATOM     10  C   UNL     1      92.972  83.633  79.884  1.00  0.00     0.006 C 
BRANCH  10  11
ATOM     11  C   UNL     1      91.965  84.773  79.680  1.00  0.00     0.053 C 
BRANCH  11  12
ATOM     12  C   UNL     1      90.638  84.403  80.262  1.00  0.00     0.041 C 
ATOM     13  O   UNL     1      90.559  83.995  81.452  1.00  0.00    -0.550 OA
ATOM     14  O   UNL     1      89.499  84.431  79.466  1.00  0.00    -0.550 OA
ENDBRANCH  11  12
ENDBRANCH  10  11
ENDBRANCH   9  10
ENDBRANCH   8   9
ENDBRANCH   7   8
ENDBRANCH   6   7
ENDBRANCH   5   6
ENDBRANCH   4   5
ENDBRANCH   3   4
ENDBRANCH   2   3
ENDBRANCH   1   2
BRANCH   1  15
ATOM     15  C   UNL     1     101.166  84.595  84.490  1.00  0.00     0.000 C 
BRANCH  15  16
ATOM     16  C   UNL     1     101.991  85.279  83.388  1.00  0.00     0.000 C 
BRANCH  16  17
ATOM     17  C   UNL     1     102.921  86.374  83.939  1.00  0.00     0.000 C 
BRANCH  17  18
ATOM     18  C   UNL     1     102.481  87.785  83.514  1.00  0.00    -0.000 C 
BRANCH  18  19
ATOM     19  C   UNL     1     101.101  87.798  82.838  1.00  0.00    -0.000 C 
BRANCH  19  20
ATOM     20  C   UNL     1     100.005  88.398  83.736  1.00  0.00    -0.000 C 
BRANCH  20  21
ATOM     21  C   UNL     1      98.689  87.603  83.681  1.00  0.00    -0.000 C 
BRANCH  21  22
ATOM     22  C   UNL     1      98.307  86.877  84.985  1.00  0.00    -0.000 C 
BRANCH  22  23
ATOM     23  C   UNL     1      96.889  86.268  84.969  1.00  0.00    -0.000 C 
BRANCH  23  24
ATOM     24  C   UNL     1      95.928  87.049  84.054  1.00  0.00    -0.000 C 
BRANCH  24  25
ATOM     25  C   UNL     1      94.665  86.245  83.706  1.00  0.00    -0.003 C 
ATOM     26  C   UNL     1      93.753  86.976  82.718  1.00  0.00     0.004 C 
ENDBRANCH  24  25
ENDBRANCH  23  24
ENDBRANCH  22  23
ENDBRANCH  21  22
ENDBRANCH  20  21
ENDBRANCH  19  20
ENDBRANCH  18  19
ENDBRANCH  17  18
ENDBRANCH  16  17
ENDBRANCH  15  16
ENDBRANCH   1  15
TORSDOF 22
ENDMDL
