MODEL 1
REMARK VINA RESULT:    -5.506      0.000      0.000
REMARK INTER + INTRA:         -10.553
REMARK INTER:                  -9.368
REMARK INTRA:                  -1.185
REMARK UNBOUND:                -1.185
REMARK SMILES CCCCCCCCCCCCCC(=O)[O-]
REMARK SMILES IDX 8 1 9 2 10 3 11 4 12 5 13 6 14 7 15 8 16 9 7 10 6 11 5 12
REMARK SMILES IDX 4 13 3 14 2 15 1 16
REMARK H PARENT
REMARK Flexibility Score: inf
ROOT
ATOM      1  C   UNL     1      44.504  47.358  46.090  1.00  0.00     0.000 C 
ENDROOT
BRANCH   1   2
ATOM      2  C   UNL     1      44.068  46.076  45.361  1.00  0.00     0.000 C 
BRANCH   2   3
ATOM      3  C   UNL     1      45.239  45.354  44.676  1.00  0.00     0.000 C 
BRANCH   3   4
ATOM      4  C   UNL     1      44.834  44.848  43.287  1.00  0.00     0.000 C 
BRANCH   4   5
ATOM      5  C   UNL     1      43.490  45.446  42.852  1.00  0.00     0.006 C 
BRANCH   5   6
ATOM      6  C   UNL     1      43.359  45.451  41.326  1.00  0.00     0.053 C 
BRANCH   6   7
ATOM      7  C   UNL     1      41.918  45.460  40.925  1.00  0.00     0.041 C 
ATOM      8  O   UNL     1      41.062  44.854  41.621  1.00  0.00    -0.550 OA
ATOM      9  O   UNL     1      41.526  46.098  39.754  1.00  0.00    -0.550 OA
ENDBRANCH   6   7
ENDBRANCH   5   6
ENDBRANCH   4   5
ENDBRANCH   3   4
ENDBRANCH   2   3
ENDBRANCH   1   2
BRANCH   1  10
ATOM     10  C   UNL     1      44.539  47.185  47.618  1.00  0.00     0.000 C 
BRANCH  10  11
ATOM     11  C   UNL     1      45.948  47.381  48.201  1.00  0.00    -0.000 C 
BRANCH  11  12
ATOM     12  C   UNL     1      46.121  46.709  49.573  1.00  0.00    -0.000 C 
BRANCH  12  13
ATOM     13  C   UNL     1      45.473  45.316  49.586  1.00  0.00    -0.000 C 
BRANCH  13  14
ATOM     14  C   UNL     1      46.479  44.184  49.309  1.00  0.00    -0.000 C 
BRANCH  14  15
ATOM     15  C   UNL     1      46.434  43.613  47.880  1.00  0.00    -0.003 C 
ATOM     16  C   UNL     1      47.647  44.010  47.039  1.00  0.00     0.004 C 
ENDBRANCH  14  15
ENDBRANCH  13  14
ENDBRANCH  12  13
ENDBRANCH  11  12
ENDBRANCH  10  11
ENDBRANCH   1  10
TORSDOF 12
ENDMDL
MODEL 2
REMARK VINA RESULT:    -5.137      3.055      6.939
REMARK INTER + INTRA:          -9.925
REMARK INTER:                  -8.855
REMARK INTRA:                  -1.071
REMARK UNBOUND:                -1.185
REMARK SMILES CCCCCCCCCCCCCC(=O)[O-]
REMARK SMILES IDX 8 1 9 2 10 3 11 4 12 5 13 6 14 7 15 8 16 9 7 10 6 11 5 12
REMARK SMILES IDX 4 13 3 14 2 15 1 16
REMARK H PARENT
REMARK Flexibility Score: inf
ROOT
ATOM      1  C   UNL     1      44.809  47.147  45.807  1.00  0.00     0.000 C 
ENDROOT
BRANCH   1   2
ATOM      2  C   UNL     1      44.636  47.073  47.333  1.00  0.00     0.000 C 
BRANCH   2   3
ATOM      3  C   UNL     1      43.651  45.977  47.767  1.00  0.00     0.000 C 
BRANCH   3   4
ATOM      4  C   UNL     1      44.364  44.885  48.572  1.00  0.00     0.000 C 
BRANCH   4   5
ATOM      5  C   UNL     1      45.803  45.299  48.907  1.00  0.00     0.006 C 
BRANCH   5   6
ATOM      6  C   UNL     1      46.775  44.137  48.682  1.00  0.00     0.053 C 
BRANCH   6   7
ATOM      7  C   UNL     1      46.947  43.874  47.220  1.00  0.00     0.041 C 
ATOM      8  O   UNL     1      47.594  44.682  46.502  1.00  0.00    -0.550 OA
ATOM      9  O   UNL     1      46.349  42.763  46.637  1.00  0.00    -0.550 OA
ENDBRANCH   6   7
ENDBRANCH   5   6
ENDBRANCH   4   5
ENDBRANCH   3   4
ENDBRANCH   2   3
ENDBRANCH   1   2
BRANCH   1  10
ATOM     10  C   UNL     1      44.010  46.058  45.069  1.00  0.00     0.000 C 
BRANCH  10  11
ATOM     11  C   UNL     1      44.913  45.100  44.275  1.00  0.00    -0.000 C 
BRANCH  11  12
ATOM     12  C   UNL     1      44.836  45.334  42.758  1.00  0.00    -0.000 C 
BRANCH  12  13
ATOM     13  C   UNL     1      43.376  45.423  42.291  1.00  0.00    -0.000 C 
BRANCH  13  14
ATOM     14  C   UNL     1      43.231  45.372  40.759  1.00  0.00    -0.000 C 
BRANCH  14  15
ATOM     15  C   UNL     1      41.866  45.836  40.221  1.00  0.00    -0.003 C 
ATOM     16  C   UNL     1      40.772  44.779  40.374  1.00  0.00     0.004 C 
ENDBRANCH  14  15
ENDBRANCH  13  14
ENDBRANCH  12  13
ENDBRANCH  11  12
ENDBRANCH  10  11
ENDBRANCH   1  10
TORSDOF 12
ENDMDL
MODEL 3
REMARK VINA RESULT:    -5.090      3.021      5.892
REMARK INTER + INTRA:          -9.845
REMARK INTER:                  -8.452
REMARK INTRA:                  -1.393
REMARK UNBOUND:                -1.185
REMARK SMILES CCCCCCCCCCCCCC(=O)[O-]
REMARK SMILES IDX 8 1 9 2 10 3 11 4 12 5 13 6 14 7 15 8 16 9 7 10 6 11 5 12
REMARK SMILES IDX 4 13 3 14 2 15 1 16
REMARK H PARENT
REMARK Flexibility Score: inf
ROOT
ATOM      1  C   UNL     1      45.589  46.733  49.089  1.00  0.00     0.000 C 
ENDROOT
BRANCH   1   2
ATOM      2  C   UNL     1      45.057  45.365  49.544  1.00  0.00     0.000 C 
BRANCH   2   3
ATOM      3  C   UNL     1      46.181  44.376  49.890  1.00  0.00     0.000 C 
BRANCH   3   4
ATOM      4  C   UNL     1      47.108  44.157  48.689  1.00  0.00     0.000 C 
BRANCH   4   5
ATOM      5  C   UNL     1      46.437  43.277  47.627  1.00  0.00     0.006 C 
BRANCH   5   6
ATOM      6  C   UNL     1      47.421  42.915  46.511  1.00  0.00     0.053 C 
BRANCH   6   7
ATOM      7  C   UNL     1      46.982  41.669  45.810  1.00  0.00     0.041 C 
ATOM      8  O   UNL     1      46.218  41.739  44.811  1.00  0.00    -0.550 OA
ATOM      9  O   UNL     1      47.376  40.425  46.290  1.00  0.00    -0.550 OA
ENDBRANCH   6   7
ENDBRANCH   5   6
ENDBRANCH   4   5
ENDBRANCH   3   4
ENDBRANCH   2   3
ENDBRANCH   1   2
BRANCH   1  10
ATOM     10  C   UNL     1      45.228  47.051  47.627  1.00  0.00     0.000 C 
BRANCH  10  11
ATOM     11  C   UNL     1      46.471  47.225  46.738  1.00  0.00    -0.000 C 
BRANCH  11  12
ATOM     12  C   UNL     1      46.411  46.372  45.461  1.00  0.00    -0.000 C 
BRANCH  12  13
ATOM     13  C   UNL     1      44.977  45.896  45.187  1.00  0.00    -0.000 C 
BRANCH  13  14
ATOM     14  C   UNL     1      44.827  45.194  43.825  1.00  0.00    -0.000 C 
BRANCH  14  15
ATOM     15  C   UNL     1      43.495  45.462  43.102  1.00  0.00    -0.003 C 
ATOM     16  C   UNL     1      43.611  45.370  41.580  1.00  0.00     0.004 C 
ENDBRANCH  14  15
ENDBRANCH  13  14
ENDBRANCH  12  13
ENDBRANCH  11  12
ENDBRANCH  10  11
ENDBRANCH   1  10
TORSDOF 12
ENDMDL
MODEL 4
REMARK VINA RESULT:    -5.062      1.441      2.314
REMARK INTER + INTRA:          -9.798
REMARK INTER:                  -8.652
REMARK INTRA:                  -1.146
REMARK UNBOUND:                -1.185
REMARK SMILES CCCCCCCCCCCCCC(=O)[O-]
REMARK SMILES IDX 8 1 9 2 10 3 11 4 12 5 13 6 14 7 15 8 16 9 7 10 6 11 5 12
REMARK SMILES IDX 4 13 3 14 2 15 1 16
REMARK H PARENT
REMARK Flexibility Score: inf
ROOT
ATOM      1  C   UNL     1      43.761  45.829  47.832  1.00  0.00     0.000 C 
ENDROOT
BRANCH   1   2
ATOM      2  C   UNL     1      44.706  46.735  47.026  1.00  0.00     0.000 C 
BRANCH   2   3
ATOM      3  C   UNL     1      44.421  46.697  45.517  1.00  0.00     0.000 C 
BRANCH   3   4
ATOM      4  C   UNL     1      45.391  45.751  44.800  1.00  0.00     0.000 C 
BRANCH   4   5
ATOM      5  C   UNL     1      44.837  45.322  43.436  1.00  0.00     0.006 C 
BRANCH   5   6
ATOM      6  C   UNL     1      43.322  45.537  43.366  1.00  0.00     0.053 C 
BRANCH   6   7
ATOM      7  C   UNL     1      42.835  45.369  41.962  1.00  0.00     0.041 C 
ATOM      8  O   UNL     1      41.613  45.163  41.735  1.00  0.00    -0.550 OA
ATOM      9  O   UNL     1      43.737  45.388  40.905  1.00  0.00    -0.550 OA
ENDBRANCH   6   7
ENDBRANCH   5   6
ENDBRANCH   4   5
ENDBRANCH   3   4
ENDBRANCH   2   3
ENDBRANCH   1   2
BRANCH   1  10
ATOM     10  C   UNL     1      44.489  45.065  48.952  1.00  0.00     0.000 C 
BRANCH  10  11
ATOM     11  C   UNL     1      46.014  45.259  48.904  1.00  0.00    -0.000 C 
BRANCH  11  12
ATOM     12  C   UNL     1      46.785  43.945  49.105  1.00  0.00    -0.000 C 
BRANCH  12  13
ATOM     13  C   UNL     1      47.497  43.524  47.811  1.00  0.00    -0.000 C 
BRANCH  13  14
ATOM     14  C   UNL     1      46.528  42.989  46.740  1.00  0.00    -0.000 C 
BRANCH  14  15
ATOM     15  C   UNL     1      46.846  41.572  46.229  1.00  0.00    -0.003 C 
ATOM     16  C   UNL     1      48.236  41.086  46.640  1.00  0.00     0.004 C 
ENDBRANCH  14  15
ENDBRANCH  13  14
ENDBRANCH  12  13
ENDBRANCH  11  12
ENDBRANCH  10  11
ENDBRANCH   1  10
TORSDOF 12
ENDMDL
MODEL 5
REMARK VINA RESULT:    -5.061      1.926      3.575
REMARK INTER + INTRA:          -9.797
REMARK INTER:                  -8.272
REMARK INTRA:                  -1.525
REMARK UNBOUND:                -1.185
REMARK SMILES CCCCCCCCCCCCCC(=O)[O-]
REMARK SMILES IDX 8 1 9 2 10 3 11 4 12 5 13 6 14 7 15 8 16 9 7 10 6 11 5 12
REMARK SMILES IDX 4 13 3 14 2 15 1 16
REMARK H PARENT
REMARK Flexibility Score: inf
ROOT
ATOM      1  C   UNL     1      45.860  46.103  49.154  1.00  0.00     0.000 C 
ENDROOT
BRANCH   1   2
ATOM      2  C   UNL     1      44.628  46.373  48.275  1.00  0.00     0.000 C 
BRANCH   2   3
ATOM      3  C   UNL     1      44.929  47.328  47.109  1.00  0.00     0.000 C 
BRANCH   3   4
ATOM      4  C   UNL     1      45.889  46.680  46.104  1.00  0.00     0.000 C 
BRANCH   4   5
ATOM      5  C   UNL     1      45.289  45.396  45.517  1.00  0.00     0.006 C 
BRANCH   5   6
ATOM      6  C   UNL     1      45.106  45.517  44.001  1.00  0.00     0.053 C 
BRANCH   6   7
ATOM      7  C   UNL     1      43.654  45.620  43.657  1.00  0.00     0.041 C 
ATOM      8  O   UNL     1      43.269  45.435  42.473  1.00  0.00    -0.550 OA
ATOM      9  O   UNL     1      42.731  45.971  44.634  1.00  0.00    -0.550 OA
ENDBRANCH   6   7
ENDBRANCH   5   6
ENDBRANCH   4   5
ENDBRANCH   3   4
ENDBRANCH   2   3
ENDBRANCH   1   2
BRANCH   1  10
ATOM     10  C   UNL     1      45.875  44.674  49.725  1.00  0.00     0.000 C 
BRANCH  10  11
ATOM     11  C   UNL     1      46.284  43.625  48.678  1.00  0.00    -0.000 C 
BRANCH  11  12
ATOM     12  C   UNL     1      47.724  43.818  48.177  1.00  0.00    -0.000 C 
BRANCH  12  13
ATOM     13  C   UNL     1      47.941  43.095  46.839  1.00  0.00    -0.000 C 
BRANCH  13  14
ATOM     14  C   UNL     1      47.639  41.587  46.916  1.00  0.00    -0.000 C 
BRANCH  14  15
ATOM     15  C   UNL     1      47.318  40.922  45.566  1.00  0.00    -0.003 C 
ATOM     16  C   UNL     1      46.246  41.667  44.771  1.00  0.00     0.004 C 
ENDBRANCH  14  15
ENDBRANCH  13  14
ENDBRANCH  12  13
ENDBRANCH  11  12
ENDBRANCH  10  11
ENDBRANCH   1  10
TORSDOF 12
ENDMDL
MODEL 6
REMARK VINA RESULT:    -4.906      1.108      2.951
REMARK INTER + INTRA:          -9.533
REMARK INTER:                  -8.420
REMARK INTRA:                  -1.112
REMARK UNBOUND:                -1.185
REMARK SMILES CCCCCCCCCCCCCC(=O)[O-]
REMARK SMILES IDX 8 1 9 2 10 3 11 4 12 5 13 6 14 7 15 8 16 9 7 10 6 11 5 12
REMARK SMILES IDX 4 13 3 14 2 15 1 16
REMARK H PARENT
REMARK Flexibility Score: inf
ROOT
ATOM      1  C   UNL     1      47.194  43.074  46.481  1.00  0.00     0.000 C 
ENDROOT
BRANCH   1   2
ATOM      2  C   UNL     1      46.408  44.287  45.958  1.00  0.00     0.000 C 
BRANCH   2   3
ATOM      3  C   UNL     1      45.673  43.995  44.640  1.00  0.00     0.000 C 
BRANCH   3   4
ATOM      4  C   UNL     1      44.870  45.216  44.178  1.00  0.00     0.000 C 
BRANCH   4   5
ATOM      5  C   UNL     1      44.597  45.158  42.670  1.00  0.00     0.006 C 
BRANCH   5   6
ATOM      6  C   UNL     1      43.119  45.424  42.368  1.00  0.00     0.053 C 
BRANCH   6   7
ATOM      7  C   UNL     1      42.874  45.398  40.892  1.00  0.00     0.041 C 
ATOM      8  O   UNL     1      43.812  45.121  40.099  1.00  0.00    -0.550 OA
ATOM      9  O   UNL     1      41.621  45.727  40.389  1.00  0.00    -0.550 OA
ENDBRANCH   6   7
ENDBRANCH   5   6
ENDBRANCH   4   5
ENDBRANCH   3   4
ENDBRANCH   2   3
ENDBRANCH   1   2
BRANCH   1  10
ATOM     10  C   UNL     1      47.499  43.173  47.986  1.00  0.00     0.000 C 
BRANCH  10  11
ATOM     11  C   UNL     1      46.318  43.742  48.791  1.00  0.00    -0.000 C 
BRANCH  11  12
ATOM     12  C   UNL     1      46.748  44.836  49.781  1.00  0.00    -0.000 C 
BRANCH  12  13
ATOM     13  C   UNL     1      45.679  45.934  49.882  1.00  0.00    -0.000 C 
BRANCH  13  14
ATOM     14  C   UNL     1      46.044  47.203  49.090  1.00  0.00    -0.000 C 
BRANCH  14  15
ATOM     15  C   UNL     1      45.308  47.362  47.747  1.00  0.00    -0.003 C 
ATOM     16  C   UNL     1      44.031  46.525  47.663  1.00  0.00     0.004 C 
ENDBRANCH  14  15
ENDBRANCH  13  14
ENDBRANCH  12  13
ENDBRANCH  11  12
ENDBRANCH  10  11
ENDBRANCH   1  10
TORSDOF 12
ENDMDL
MODEL 7
REMARK VINA RESULT:    -4.876      9.537     11.580
REMARK INTER + INTRA:          -9.482
REMARK INTER:                  -7.689
REMARK INTRA:                  -1.793
REMARK UNBOUND:                -1.185
REMARK SMILES CCCCCCCCCCCCCC(=O)[O-]
REMARK SMILES IDX 8 1 9 2 10 3 11 4 12 5 13 6 14 7 15 8 16 9 7 10 6 11 5 12
REMARK SMILES IDX 4 13 3 14 2 15 1 16
REMARK H PARENT
REMARK Flexibility Score: inf
ROOT
ATOM      1  C   UNL     1      51.769  44.862  36.558  1.00  0.00     0.000 C 
ENDROOT
BRANCH   1   2
ATOM      2  C   UNL     1      50.673  45.017  35.491  1.00  0.00     0.000 C 
BRANCH   2   3
ATOM      3  C   UNL     1      49.422  44.180  35.800  1.00  0.00     0.000 C 
BRANCH   3   4
ATOM      4  C   UNL     1      48.350  44.378  34.722  1.00  0.00     0.000 C 
BRANCH   4   5
ATOM      5  C   UNL     1      48.980  44.797  33.388  1.00  0.00     0.006 C 
BRANCH   5   6
ATOM      6  C   UNL     1      48.984  43.632  32.393  1.00  0.00     0.053 C 
BRANCH   6   7
ATOM      7  C   UNL     1      47.595  43.116  32.186  1.00  0.00     0.041 C 
ATOM      8  O   UNL     1      46.729  43.836  31.623  1.00  0.00    -0.550 OA
ATOM      9  O   UNL     1      47.243  41.858  32.660  1.00  0.00    -0.550 OA
ENDBRANCH   6   7
ENDBRANCH   5   6
ENDBRANCH   4   5
ENDBRANCH   3   4
ENDBRANCH   2   3
ENDBRANCH   1   2
BRANCH   1  10
ATOM     10  C   UNL     1      51.827  46.059  37.524  1.00  0.00     0.000 C 
BRANCH  10  11
ATOM     11  C   UNL     1      50.868  45.900  38.716  1.00  0.00    -0.000 C 
BRANCH  11  12
ATOM     12  C   UNL     1      50.027  47.161  38.971  1.00  0.00    -0.000 C 
BRANCH  12  13
ATOM     13  C   UNL     1      49.842  47.969  37.678  1.00  0.00    -0.000 C 
BRANCH  13  14
ATOM     14  C   UNL     1      48.525  47.643  36.950  1.00  0.00    -0.000 C 
BRANCH  14  15
ATOM     15  C   UNL     1      48.517  47.974  35.447  1.00  0.00    -0.003 C 
ATOM     16  C   UNL     1      49.827  48.599  34.965  1.00  0.00     0.004 C 
ENDBRANCH  14  15
ENDBRANCH  13  14
ENDBRANCH  12  13
ENDBRANCH  11  12
ENDBRANCH  10  11
ENDBRANCH   1  10
TORSDOF 12
ENDMDL
MODEL 8
REMARK VINA RESULT:    -4.867      9.945     12.819
REMARK INTER + INTRA:          -9.466
REMARK INTER:                  -7.827
REMARK INTRA:                  -1.640
REMARK UNBOUND:                -1.185
REMARK SMILES CCCCCCCCCCCCCC(=O)[O-]
REMARK SMILES IDX 8 1 9 2 10 3 11 4 12 5 13 6 14 7 15 8 16 9 7 10 6 11 5 12
REMARK SMILES IDX 4 13 3 14 2 15 1 16
REMARK H PARENT
REMARK Flexibility Score: inf
ROOT
ATOM      1  C   UNL     1      49.577  45.489  34.835  1.00  0.00     0.000 C 
ENDROOT
BRANCH   1   2
ATOM      2  C   UNL     1      48.295  46.276  34.520  1.00  0.00     0.000 C 
BRANCH   2   3
ATOM      3  C   UNL     1      48.315  47.699  35.100  1.00  0.00     0.000 C 
BRANCH   3   4
ATOM      4  C   UNL     1      49.738  48.268  35.110  1.00  0.00     0.000 C 
BRANCH   4   5
ATOM      5  C   UNL     1      50.065  48.915  36.461  1.00  0.00     0.006 C 
BRANCH   5   6
ATOM      6  C   UNL     1      49.361  48.180  37.607  1.00  0.00     0.053 C 
BRANCH   6   7
ATOM      7  C   UNL     1      50.342  47.358  38.381  1.00  0.00     0.041 C 
ATOM      8  O   UNL     1      50.394  46.111  38.216  1.00  0.00    -0.550 OA
ATOM      9  O   UNL     1      51.166  47.963  39.323  1.00  0.00    -0.550 OA
ENDBRANCH   6   7
ENDBRANCH   5   6
ENDBRANCH   4   5
ENDBRANCH   3   4
ENDBRANCH   2   3
ENDBRANCH   1   2
BRANCH   1  10
ATOM     10  C   UNL     1      49.286  44.097  35.422  1.00  0.00     0.000 C 
BRANCH  10  11
ATOM     11  C   UNL     1      47.844  43.634  35.152  1.00  0.00    -0.000 C 
BRANCH  11  12
ATOM     12  C   UNL     1      47.767  42.164  34.711  1.00  0.00    -0.000 C 
BRANCH  12  13
ATOM     13  C   UNL     1      47.590  42.057  33.189  1.00  0.00    -0.000 C 
BRANCH  13  14
ATOM     14  C   UNL     1      47.036  43.347  32.557  1.00  0.00    -0.000 C 
BRANCH  14  15
ATOM     15  C   UNL     1      47.936  43.978  31.479  1.00  0.00    -0.003 C 
ATOM     16  C   UNL     1      49.331  43.356  31.425  1.00  0.00     0.004 C 
ENDBRANCH  14  15
ENDBRANCH  13  14
ENDBRANCH  12  13
ENDBRANCH  11  12
ENDBRANCH  10  11
ENDBRANCH   1  10
TORSDOF 12
ENDMDL
MODEL 9
REMARK VINA RESULT:    -4.848      9.682     11.681
REMARK INTER + INTRA:          -9.434
REMARK INTER:                  -8.081
REMARK INTRA:                  -1.354
REMARK UNBOUND:                -1.185
REMARK SMILES CCCCCCCCCCCCCC(=O)[O-]
REMARK SMILES IDX 8 1 9 2 10 3 11 4 12 5 13 6 14 7 15 8 16 9 7 10 6 11 5 12
REMARK SMILES IDX 4 13 3 14 2 15 1 16
REMARK H PARENT
REMARK Flexibility Score: inf
ROOT
ATOM      1  C   UNL     1      49.660  45.396  34.670  1.00  0.00     0.000 C 
ENDROOT
BRANCH   1   2
ATOM      2  C   UNL     1      49.356  44.190  35.573  1.00  0.00     0.000 C 
BRANCH   2   3
ATOM      3  C   UNL     1      47.998  43.542  35.261  1.00  0.00     0.000 C 
BRANCH   3   4
ATOM      4  C   UNL     1      48.183  42.140  34.669  1.00  0.00     0.000 C 
BRANCH   4   5
ATOM      5  C   UNL     1      47.664  42.077  33.227  1.00  0.00     0.006 C 
BRANCH   5   6
ATOM      6  C   UNL     1      48.671  42.696  32.253  1.00  0.00     0.053 C 
BRANCH   6   7
ATOM      7  C   UNL     1      48.039  43.812  31.485  1.00  0.00     0.041 C 
ATOM      8  O   UNL     1      48.708  44.458  30.636  1.00  0.00    -0.550 OA
ATOM      9  O   UNL     1      46.721  44.174  31.742  1.00  0.00    -0.550 OA
ENDBRANCH   6   7
ENDBRANCH   5   6
ENDBRANCH   4   5
ENDBRANCH   3   4
ENDBRANCH   2   3
ENDBRANCH   1   2
BRANCH   1  10
ATOM     10  C   UNL     1      48.412  46.247  34.380  1.00  0.00     0.000 C 
BRANCH  10  11
ATOM     11  C   UNL     1      48.251  47.413  35.370  1.00  0.00    -0.000 C 
BRANCH  11  12
ATOM     12  C   UNL     1      49.578  47.810  36.038  1.00  0.00    -0.000 C 
BRANCH  12  13
ATOM     13  C   UNL     1      49.337  48.365  37.449  1.00  0.00    -0.000 C 
BRANCH  13  14
ATOM     14  C   UNL     1      50.248  47.723  38.511  1.00  0.00    -0.000 C 
BRANCH  14  15
ATOM     15  C   UNL     1      50.505  46.217  38.318  1.00  0.00    -0.003 C 
ATOM     16  C   UNL     1      51.255  45.584  39.490  1.00  0.00     0.004 C 
ENDBRANCH  14  15
ENDBRANCH  13  14
ENDBRANCH  12  13
ENDBRANCH  11  12
ENDBRANCH  10  11
ENDBRANCH   1  10
TORSDOF 12
ENDMDL
