MODEL 1
REMARK VINA RESULT:    -3.809      0.000      0.000
REMARK INTER + INTRA:         -15.570
REMARK INTER:                  -9.599
REMARK INTRA:                  -5.971
REMARK UNBOUND:                -5.971
REMARK SMILES CCCCCCCCCCCCCCCCCCCCCCCCCCCC(=O)[O-]
REMARK SMILES IDX 15 1 16 2 17 3 18 4 19 5 20 6 21 7 22 8 23 9 24 10 25 11
REMARK SMILES IDX 26 12 27 13 28 14 29 15 30 16 14 17 13 18 12 19 11 20 10 21
REMARK SMILES IDX 9 22 8 23 7 24 6 25 5 26 4 27 3 28 2 29 1 30
REMARK H PARENT
REMARK Flexibility Score: inf
ROOT
ATOM      1  C   UNL     1      20.276  49.957  35.264  1.00  0.00     0.000 C 
ENDROOT
BRANCH   1   2
ATOM      2  C   UNL     1      21.560  49.188  35.630  1.00  0.00     0.000 C 
BRANCH   2   3
ATOM      3  C   UNL     1      21.761  47.861  34.878  1.00  0.00     0.000 C 
BRANCH   3   4
ATOM      4  C   UNL     1      20.524  47.406  34.074  1.00  0.00     0.000 C 
BRANCH   4   5
ATOM      5  C   UNL     1      19.958  46.063  34.569  1.00  0.00     0.000 C 
BRANCH   5   6
ATOM      6  C   UNL     1      19.441  46.141  36.022  1.00  0.00     0.000 C 
BRANCH   6   7
ATOM      7  C   UNL     1      18.018  45.579  36.204  1.00  0.00     0.000 C 
BRANCH   7   8
ATOM      8  C   UNL     1      17.046  46.503  36.963  1.00  0.00     0.000 C 
BRANCH   8   9
ATOM      9  C   UNL     1      16.547  47.724  36.161  1.00  0.00     0.000 C 
BRANCH   9  10
ATOM     10  C   UNL     1      15.992  47.403  34.761  1.00  0.00     0.000 C 
BRANCH  10  11
ATOM     11  C   UNL     1      16.894  47.918  33.630  1.00  0.00     0.000 C 
BRANCH  11  12
ATOM     12  C   UNL     1      16.943  49.453  33.619  1.00  0.00     0.006 C 
BRANCH  12  13
ATOM     13  C   UNL     1      17.567  50.003  32.330  1.00  0.00     0.053 C 
BRANCH  13  14
ATOM     14  C   UNL     1      17.969  51.438  32.478  1.00  0.00     0.041 C 
ATOM     15  O   UNL     1      17.095  52.333  32.629  1.00  0.00    -0.550 OA
ATOM     16  O   UNL     1      19.311  51.790  32.416  1.00  0.00    -0.550 OA
ENDBRANCH  13  14
ENDBRANCH  12  13
ENDBRANCH  11  12
ENDBRANCH  10  11
ENDBRANCH   9  10
ENDBRANCH   8   9
ENDBRANCH   7   8
ENDBRANCH   6   7
ENDBRANCH   5   6
ENDBRANCH   4   5
ENDBRANCH   3   4
ENDBRANCH   2   3
ENDBRANCH   1   2
BRANCH   1  17
ATOM     17  C   UNL     1      19.233  50.053  36.393  1.00  0.00     0.000 C 
BRANCH  17  18
ATOM     18  C   UNL     1      19.654  49.289  37.658  1.00  0.00     0.000 C 
BRANCH  18  19
ATOM     19  C   UNL     1      18.602  49.433  38.771  1.00  0.00     0.000 C 
BRANCH  19  20
ATOM     20  C   UNL     1      17.871  50.792  38.724  1.00  0.00     0.000 C 
BRANCH  20  21
ATOM     21  C   UNL     1      17.947  51.596  40.039  1.00  0.00     0.000 C 
BRANCH  21  22
ATOM     22  C   UNL     1      18.969  51.087  41.070  1.00  0.00    -0.000 C 
BRANCH  22  23
ATOM     23  C   UNL     1      20.013  52.128  41.541  1.00  0.00    -0.000 C 
BRANCH  23  24
ATOM     24  C   UNL     1      21.473  51.651  41.410  1.00  0.00    -0.000 C 
BRANCH  24  25
ATOM     25  C   UNL     1      21.637  50.411  40.504  1.00  0.00    -0.000 C 
BRANCH  25  26
ATOM     26  C   UNL     1      22.758  50.609  39.473  1.00  0.00    -0.000 C 
BRANCH  26  27
ATOM     27  C   UNL     1      22.816  52.063  38.988  1.00  0.00    -0.000 C 
BRANCH  27  28
ATOM     28  C   UNL     1      21.926  52.263  37.755  1.00  0.00    -0.000 C 
BRANCH  28  29
ATOM     29  C   UNL     1      20.737  53.181  38.075  1.00  0.00    -0.003 C 
ATOM     30  C   UNL     1      20.044  53.643  36.795  1.00  0.00     0.004 C 
ENDBRANCH  28  29
ENDBRANCH  27  28
ENDBRANCH  26  27
ENDBRANCH  25  26
ENDBRANCH  24  25
ENDBRANCH  23  24
ENDBRANCH  22  23
ENDBRANCH  21  22
ENDBRANCH  20  21
ENDBRANCH  19  20
ENDBRANCH  18  19
ENDBRANCH  17  18
ENDBRANCH   1  17
TORSDOF 26
ENDMDL
MODEL 2
REMARK VINA RESULT:    -3.800      2.093      4.785
REMARK INTER + INTRA:         -15.546
REMARK INTER:                 -10.932
REMARK INTRA:                  -4.614
REMARK UNBOUND:                -5.971
REMARK SMILES CCCCCCCCCCCCCCCCCCCCCCCCCCCC(=O)[O-]
REMARK SMILES IDX 15 1 16 2 17 3 18 4 19 5 20 6 21 7 22 8 23 9 24 10 25 11
REMARK SMILES IDX 26 12 27 13 28 14 29 15 30 16 14 17 13 18 12 19 11 20 10 21
REMARK SMILES IDX 9 22 8 23 7 24 6 25 5 26 4 27 3 28 2 29 1 30
REMARK H PARENT
REMARK Flexibility Score: inf
ROOT
ATOM      1  C   UNL     1      17.303  50.520  38.865  1.00  0.00     0.000 C 
ENDROOT
BRANCH   1   2
ATOM      2  C   UNL     1      16.135  50.265  37.893  1.00  0.00     0.000 C 
BRANCH   2   3
ATOM      3  C   UNL     1      16.438  49.271  36.758  1.00  0.00     0.000 C 
BRANCH   3   4
ATOM      4  C   UNL     1      16.083  49.803  35.352  1.00  0.00     0.000 C 
BRANCH   4   5
ATOM      5  C   UNL     1      17.325  50.001  34.464  1.00  0.00     0.000 C 
BRANCH   5   6
ATOM      6  C   UNL     1      17.315  51.359  33.730  1.00  0.00     0.000 C 
BRANCH   6   7
ATOM      7  C   UNL     1      18.705  51.812  33.243  1.00  0.00     0.000 C 
BRANCH   7   8
ATOM      8  C   UNL     1      19.604  50.682  32.704  1.00  0.00     0.000 C 
BRANCH   8   9
ATOM      9  C   UNL     1      20.075  50.864  31.245  1.00  0.00     0.000 C 
BRANCH   9  10
ATOM     10  C   UNL     1      18.978  50.694  30.179  1.00  0.00     0.000 C 
BRANCH  10  11
ATOM     11  C   UNL     1      18.494  52.033  29.602  1.00  0.00     0.000 C 
BRANCH  11  12
ATOM     12  C   UNL     1      16.982  52.005  29.339  1.00  0.00     0.006 C 
BRANCH  12  13
ATOM     13  C   UNL     1      16.180  52.595  30.507  1.00  0.00     0.053 C 
BRANCH  13  14
ATOM     14  C   UNL     1      14.744  52.174  30.462  1.00  0.00     0.041 C 
ATOM     15  O   UNL     1      13.855  52.977  30.069  1.00  0.00    -0.550 OA
ATOM     16  O   UNL     1      14.383  50.902  30.885  1.00  0.00    -0.550 OA
ENDBRANCH  13  14
ENDBRANCH  12  13
ENDBRANCH  11  12
ENDBRANCH  10  11
ENDBRANCH   9  10
ENDBRANCH   8   9
ENDBRANCH   7   8
ENDBRANCH   6   7
ENDBRANCH   5   6
ENDBRANCH   4   5
ENDBRANCH   3   4
ENDBRANCH   2   3
ENDBRANCH   1   2
BRANCH   1  17
ATOM     17  C   UNL     1      18.005  49.252  39.384  1.00  0.00     0.000 C 
BRANCH  17  18
ATOM     18  C   UNL     1      19.493  49.479  39.692  1.00  0.00     0.000 C 
BRANCH  18  19
ATOM     19  C   UNL     1      19.676  50.287  40.988  1.00  0.00     0.000 C 
BRANCH  19  20
ATOM     20  C   UNL     1      21.157  50.599  41.288  1.00  0.00     0.000 C 
BRANCH  20  21
ATOM     21  C   UNL     1      22.084  50.511  40.057  1.00  0.00     0.000 C 
BRANCH  21  22
ATOM     22  C   UNL     1      23.032  51.706  39.854  1.00  0.00    -0.000 C 
BRANCH  22  23
ATOM     23  C   UNL     1      22.510  52.816  38.911  1.00  0.00    -0.000 C 
BRANCH  23  24
ATOM     24  C   UNL     1      21.260  53.546  39.439  1.00  0.00    -0.000 C 
BRANCH  24  25
ATOM     25  C   UNL     1      19.981  53.243  38.627  1.00  0.00    -0.000 C 
BRANCH  25  26
ATOM     26  C   UNL     1      20.299  52.982  37.148  1.00  0.00    -0.000 C 
BRANCH  26  27
ATOM     27  C   UNL     1      19.794  51.603  36.706  1.00  0.00    -0.000 C 
BRANCH  27  28
ATOM     28  C   UNL     1      20.963  50.629  36.513  1.00  0.00    -0.000 C 
BRANCH  28  29
ATOM     29  C   UNL     1      20.465  49.248  36.066  1.00  0.00    -0.003 C 
ATOM     30  C   UNL     1      21.525  48.527  35.236  1.00  0.00     0.004 C 
ENDBRANCH  28  29
ENDBRANCH  27  28
ENDBRANCH  26  27
ENDBRANCH  25  26
ENDBRANCH  24  25
ENDBRANCH  23  24
ENDBRANCH  22  23
ENDBRANCH  21  22
ENDBRANCH  20  21
ENDBRANCH  19  20
ENDBRANCH  18  19
ENDBRANCH  17  18
ENDBRANCH   1  17
TORSDOF 26
ENDMDL
MODEL 3
REMARK VINA RESULT:    -3.766      1.429      3.536
REMARK INTER + INTRA:         -15.460
REMARK INTER:                  -9.373
REMARK INTRA:                  -6.088
REMARK UNBOUND:                -5.971
REMARK SMILES CCCCCCCCCCCCCCCCCCCCCCCCCCCC(=O)[O-]
REMARK SMILES IDX 15 1 16 2 17 3 18 4 19 5 20 6 21 7 22 8 23 9 24 10 25 11
REMARK SMILES IDX 26 12 27 13 28 14 29 15 30 16 14 17 13 18 12 19 11 20 10 21
REMARK SMILES IDX 9 22 8 23 7 24 6 25 5 26 4 27 3 28 2 29 1 30
REMARK H PARENT
REMARK Flexibility Score: inf
ROOT
ATOM      1  C   UNL     1      16.169  49.935  35.277  1.00  0.00     0.000 C 
ENDROOT
BRANCH   1   2
ATOM      2  C   UNL     1      17.026  48.687  35.565  1.00  0.00     0.000 C 
BRANCH   2   3
ATOM      3  C   UNL     1      16.260  47.353  35.547  1.00  0.00     0.000 C 
BRANCH   3   4
ATOM      4  C   UNL     1      16.875  46.268  36.457  1.00  0.00     0.000 C 
BRANCH   4   5
ATOM      5  C   UNL     1      18.376  46.495  36.715  1.00  0.00     0.000 C 
BRANCH   5   6
ATOM      6  C   UNL     1      19.230  45.260  36.353  1.00  0.00     0.000 C 
BRANCH   6   7
ATOM      7  C   UNL     1      20.349  45.557  35.336  1.00  0.00     0.000 C 
BRANCH   7   8
ATOM      8  C   UNL     1      20.233  46.917  34.621  1.00  0.00     0.000 C 
BRANCH   8   9
ATOM      9  C   UNL     1      19.641  46.856  33.197  1.00  0.00     0.000 C 
BRANCH   9  10
ATOM     10  C   UNL     1      19.630  48.195  32.436  1.00  0.00     0.000 C 
BRANCH  10  11
ATOM     11  C   UNL     1      19.838  49.406  33.358  1.00  0.00     0.000 C 
BRANCH  11  12
ATOM     12  C   UNL     1      19.848  50.715  32.555  1.00  0.00     0.006 C 
BRANCH  12  13
ATOM     13  C   UNL     1      18.618  51.583  32.851  1.00  0.00     0.053 C 
BRANCH  13  14
ATOM     14  C   UNL     1      17.649  51.578  31.709  1.00  0.00     0.041 C 
ATOM     15  O   UNL     1      18.051  51.764  30.529  1.00  0.00    -0.550 OA
ATOM     16  O   UNL     1      16.294  51.398  31.953  1.00  0.00    -0.550 OA
ENDBRANCH  13  14
ENDBRANCH  12  13
ENDBRANCH  11  12
ENDBRANCH  10  11
ENDBRANCH   9  10
ENDBRANCH   8   9
ENDBRANCH   7   8
ENDBRANCH   6   7
ENDBRANCH   5   6
ENDBRANCH   4   5
ENDBRANCH   3   4
ENDBRANCH   2   3
ENDBRANCH   1   2
BRANCH   1  17
ATOM     17  C   UNL     1      16.140  50.978  36.410  1.00  0.00     0.000 C 
BRANCH  17  18
ATOM     18  C   UNL     1      16.118  50.339  37.807  1.00  0.00     0.000 C 
BRANCH  18  19
ATOM     19  C   UNL     1      16.652  51.311  38.872  1.00  0.00     0.000 C 
BRANCH  19  20
ATOM     20  C   UNL     1      17.812  50.711  39.694  1.00  0.00     0.000 C 
BRANCH  20  21
ATOM     21  C   UNL     1      18.432  49.440  39.078  1.00  0.00     0.000 C 
BRANCH  21  22
ATOM     22  C   UNL     1      19.924  49.539  38.714  1.00  0.00    -0.000 C 
BRANCH  22  23
ATOM     23  C   UNL     1      20.240  49.549  37.199  1.00  0.00    -0.000 C 
BRANCH  23  24
ATOM     24  C   UNL     1      20.719  50.916  36.671  1.00  0.00    -0.000 C 
BRANCH  24  25
ATOM     25  C   UNL     1      19.571  51.926  36.447  1.00  0.00    -0.000 C 
BRANCH  25  26
ATOM     26  C   UNL     1      19.641  53.090  37.445  1.00  0.00    -0.000 C 
BRANCH  26  27
ATOM     27  C   UNL     1      21.000  53.133  38.155  1.00  0.00    -0.000 C 
BRANCH  27  28
ATOM     28  C   UNL     1      20.821  53.123  39.678  1.00  0.00    -0.000 C 
BRANCH  28  29
ATOM     29  C   UNL     1      21.882  52.242  40.354  1.00  0.00    -0.003 C 
ATOM     30  C   UNL     1      22.996  51.880  39.374  1.00  0.00     0.004 C 
ENDBRANCH  28  29
ENDBRANCH  27  28
ENDBRANCH  26  27
ENDBRANCH  25  26
ENDBRANCH  24  25
ENDBRANCH  23  24
ENDBRANCH  22  23
ENDBRANCH  21  22
ENDBRANCH  20  21
ENDBRANCH  19  20
ENDBRANCH  18  19
ENDBRANCH  17  18
ENDBRANCH   1  17
TORSDOF 26
ENDMDL
MODEL 4
REMARK VINA RESULT:    -3.761      1.299      3.014
REMARK INTER + INTRA:         -15.448
REMARK INTER:                  -9.274
REMARK INTRA:                  -6.173
REMARK UNBOUND:                -5.971
REMARK SMILES CCCCCCCCCCCCCCCCCCCCCCCCCCCC(=O)[O-]
REMARK SMILES IDX 15 1 16 2 17 3 18 4 19 5 20 6 21 7 22 8 23 9 24 10 25 11
REMARK SMILES IDX 26 12 27 13 28 14 29 15 30 16 14 17 13 18 12 19 11 20 10 21
REMARK SMILES IDX 9 22 8 23 7 24 6 25 5 26 4 27 3 28 2 29 1 30
REMARK H PARENT
REMARK Flexibility Score: inf
ROOT
ATOM      1  C   UNL     1      21.297  50.630  36.500  1.00  0.00     0.000 C 
ENDROOT
BRANCH   1   2
ATOM      2  C   UNL     1      21.630  49.150  36.226  1.00  0.00     0.000 C 
BRANCH   2   3
ATOM      3  C   UNL     1      20.650  48.427  35.285  1.00  0.00     0.000 C 
BRANCH   3   4
ATOM      4  C   UNL     1      19.940  47.219  35.934  1.00  0.00     0.000 C 
BRANCH   4   5
ATOM      5  C   UNL     1      18.574  47.593  36.540  1.00  0.00     0.000 C 
BRANCH   5   6
ATOM      6  C   UNL     1      17.616  46.385  36.622  1.00  0.00     0.000 C 
BRANCH   6   7
ATOM      7  C   UNL     1      16.129  46.762  36.477  1.00  0.00     0.000 C 
BRANCH   7   8
ATOM      8  C   UNL     1      15.514  46.463  35.096  1.00  0.00     0.000 C 
BRANCH   8   9
ATOM      9  C   UNL     1      16.487  45.846  34.069  1.00  0.00     0.000 C 
BRANCH   9  10
ATOM     10  C   UNL     1      16.692  46.671  32.786  1.00  0.00     0.000 C 
BRANCH  10  11
ATOM     11  C   UNL     1      17.745  47.777  32.951  1.00  0.00     0.000 C 
BRANCH  11  12
ATOM     12  C   UNL     1      17.086  49.163  33.006  1.00  0.00     0.006 C 
BRANCH  12  13
ATOM     13  C   UNL     1      18.113  50.285  33.208  1.00  0.00     0.053 C 
BRANCH  13  14
ATOM     14  C   UNL     1      17.515  51.635  32.959  1.00  0.00     0.041 C 
ATOM     15  O   UNL     1      17.314  52.431  33.916  1.00  0.00    -0.550 OA
ATOM     16  O   UNL     1      17.149  52.002  31.671  1.00  0.00    -0.550 OA
ENDBRANCH  13  14
ENDBRANCH  12  13
ENDBRANCH  11  12
ENDBRANCH  10  11
ENDBRANCH   9  10
ENDBRANCH   8   9
ENDBRANCH   7   8
ENDBRANCH   6   7
ENDBRANCH   5   6
ENDBRANCH   4   5
ENDBRANCH   3   4
ENDBRANCH   2   3
ENDBRANCH   1   2
BRANCH   1  17
ATOM     17  C   UNL     1      19.837  51.030  36.221  1.00  0.00     0.000 C 
BRANCH  17  18
ATOM     18  C   UNL     1      19.477  52.408  36.797  1.00  0.00     0.000 C 
BRANCH  18  19
ATOM     19  C   UNL     1      20.671  53.028  37.543  1.00  0.00     0.000 C 
BRANCH  19  20
ATOM     20  C   UNL     1      20.273  53.621  38.911  1.00  0.00     0.000 C 
BRANCH  20  21
ATOM     21  C   UNL     1      21.071  53.052  40.102  1.00  0.00     0.000 C 
BRANCH  21  22
ATOM     22  C   UNL     1      22.205  52.077  39.737  1.00  0.00    -0.000 C 
BRANCH  22  23
ATOM     23  C   UNL     1      22.005  50.618  40.210  1.00  0.00    -0.000 C 
BRANCH  23  24
ATOM     24  C   UNL     1      20.554  50.285  40.610  1.00  0.00    -0.000 C 
BRANCH  24  25
ATOM     25  C   UNL     1      19.784  49.492  39.531  1.00  0.00    -0.000 C 
BRANCH  25  26
ATOM     26  C   UNL     1      18.265  49.596  39.729  1.00  0.00    -0.000 C 
BRANCH  26  27
ATOM     27  C   UNL     1      17.822  51.058  39.867  1.00  0.00    -0.000 C 
BRANCH  27  28
ATOM     28  C   UNL     1      16.673  51.374  38.901  1.00  0.00    -0.000 C 
BRANCH  28  29
ATOM     29  C   UNL     1      16.300  50.142  38.064  1.00  0.00    -0.003 C 
ATOM     30  C   UNL     1      16.150  50.509  36.589  1.00  0.00     0.004 C 
ENDBRANCH  28  29
ENDBRANCH  27  28
ENDBRANCH  26  27
ENDBRANCH  25  26
ENDBRANCH  24  25
ENDBRANCH  23  24
ENDBRANCH  22  23
ENDBRANCH  21  22
ENDBRANCH  20  21
ENDBRANCH  19  20
ENDBRANCH  18  19
ENDBRANCH  17  18
ENDBRANCH   1  17
TORSDOF 26
ENDMDL
MODEL 5
REMARK VINA RESULT:    -3.696      2.131      3.515
REMARK INTER + INTRA:         -15.286
REMARK INTER:                  -9.862
REMARK INTRA:                  -5.424
REMARK UNBOUND:                -5.971
REMARK SMILES CCCCCCCCCCCCCCCCCCCCCCCCCCCC(=O)[O-]
REMARK SMILES IDX 15 1 16 2 17 3 18 4 19 5 20 6 21 7 22 8 23 9 24 10 25 11
REMARK SMILES IDX 26 12 27 13 28 14 29 15 30 16 14 17 13 18 12 19 11 20 10 21
REMARK SMILES IDX 9 22 8 23 7 24 6 25 5 26 4 27 3 28 2 29 1 30
REMARK H PARENT
REMARK Flexibility Score: inf
ROOT
ATOM      1  C   UNL     1      17.158  49.989  36.990  1.00  0.00     0.000 C 
ENDROOT
BRANCH   1   2
ATOM      2  C   UNL     1      16.441  48.663  36.670  1.00  0.00     0.000 C 
BRANCH   2   3
ATOM      3  C   UNL     1      17.369  47.449  36.490  1.00  0.00     0.000 C 
BRANCH   3   4
ATOM      4  C   UNL     1      18.869  47.781  36.648  1.00  0.00     0.000 C 
BRANCH   4   5
ATOM      5  C   UNL     1      19.704  47.332  35.435  1.00  0.00     0.000 C 
BRANCH   5   6
ATOM      6  C   UNL     1      20.891  48.280  35.154  1.00  0.00     0.000 C 
BRANCH   6   7
ATOM      7  C   UNL     1      20.720  49.123  33.875  1.00  0.00     0.000 C 
BRANCH   7   8
ATOM      8  C   UNL     1      19.546  50.120  33.905  1.00  0.00     0.000 C 
BRANCH   8   9
ATOM      9  C   UNL     1      18.499  49.927  32.787  1.00  0.00     0.000 C 
BRANCH   9  10
ATOM     10  C   UNL     1      17.260  49.105  33.187  1.00  0.00     0.000 C 
BRANCH  10  11
ATOM     11  C   UNL     1      17.273  47.685  32.602  1.00  0.00     0.000 C 
BRANCH  11  12
ATOM     12  C   UNL     1      15.957  46.953  32.901  1.00  0.00     0.006 C 
BRANCH  12  13
ATOM     13  C   UNL     1      14.792  47.926  33.128  1.00  0.00     0.053 C 
BRANCH  13  14
ATOM     14  C   UNL     1      13.714  47.747  32.104  1.00  0.00     0.041 C 
ATOM     15  O   UNL     1      12.988  48.720  31.765  1.00  0.00    -0.550 OA
ATOM     16  O   UNL     1      13.490  46.495  31.546  1.00  0.00    -0.550 OA
ENDBRANCH  13  14
ENDBRANCH  12  13
ENDBRANCH  11  12
ENDBRANCH  10  11
ENDBRANCH   9  10
ENDBRANCH   8   9
ENDBRANCH   7   8
ENDBRANCH   6   7
ENDBRANCH   5   6
ENDBRANCH   4   5
ENDBRANCH   3   4
ENDBRANCH   2   3
ENDBRANCH   1   2
BRANCH   1  17
ATOM     17  C   UNL     1      16.450  50.875  38.032  1.00  0.00     0.000 C 
BRANCH  17  18
ATOM     18  C   UNL     1      17.295  51.100  39.295  1.00  0.00     0.000 C 
BRANCH  18  19
ATOM     19  C   UNL     1      18.158  49.867  39.613  1.00  0.00     0.000 C 
BRANCH  19  20
ATOM     20  C   UNL     1      18.910  49.999  40.954  1.00  0.00     0.000 C 
BRANCH  20  21
ATOM     21  C   UNL     1      18.973  51.439  41.505  1.00  0.00     0.000 C 
BRANCH  21  22
ATOM     22  C   UNL     1      20.369  51.927  41.930  1.00  0.00    -0.000 C 
BRANCH  22  23
ATOM     23  C   UNL     1      21.552  51.049  41.455  1.00  0.00    -0.000 C 
BRANCH  23  24
ATOM     24  C   UNL     1      22.685  51.844  40.776  1.00  0.00    -0.000 C 
BRANCH  24  25
ATOM     25  C   UNL     1      23.028  51.339  39.357  1.00  0.00    -0.000 C 
BRANCH  25  26
ATOM     26  C   UNL     1      21.932  50.414  38.808  1.00  0.00    -0.000 C 
BRANCH  26  27
ATOM     27  C   UNL     1      21.614  50.738  37.342  1.00  0.00    -0.000 C 
BRANCH  27  28
ATOM     28  C   UNL     1      20.308  51.534  37.231  1.00  0.00    -0.000 C 
BRANCH  28  29
ATOM     29  C   UNL     1      20.568  53.043  37.343  1.00  0.00    -0.003 C 
ATOM     30  C   UNL     1      20.031  53.593  38.663  1.00  0.00     0.004 C 
ENDBRANCH  28  29
ENDBRANCH  27  28
ENDBRANCH  26  27
ENDBRANCH  25  26
ENDBRANCH  24  25
ENDBRANCH  23  24
ENDBRANCH  22  23
ENDBRANCH  21  22
ENDBRANCH  20  21
ENDBRANCH  19  20
ENDBRANCH  18  19
ENDBRANCH  17  18
ENDBRANCH   1  17
TORSDOF 26
ENDMDL
MODEL 6
REMARK VINA RESULT:    -3.687      1.830      3.656
REMARK INTER + INTRA:         -15.261
REMARK INTER:                 -10.262
REMARK INTRA:                  -4.999
REMARK UNBOUND:                -5.971
REMARK SMILES CCCCCCCCCCCCCCCCCCCCCCCCCCCC(=O)[O-]
REMARK SMILES IDX 15 1 16 2 17 3 18 4 19 5 20 6 21 7 22 8 23 9 24 10 25 11
REMARK SMILES IDX 26 12 27 13 28 14 29 15 30 16 14 17 13 18 12 19 11 20 10 21
REMARK SMILES IDX 9 22 8 23 7 24 6 25 5 26 4 27 3 28 2 29 1 30
REMARK H PARENT
REMARK Flexibility Score: inf
ROOT
ATOM      1  C   UNL     1      17.310  47.796  36.977  1.00  0.00     0.000 C 
ENDROOT
BRANCH   1   2
ATOM      2  C   UNL     1      18.826  47.694  36.717  1.00  0.00     0.000 C 
BRANCH   2   3
ATOM      3  C   UNL     1      19.606  49.009  36.896  1.00  0.00     0.000 C 
BRANCH   3   4
ATOM      4  C   UNL     1      20.064  49.648  35.567  1.00  0.00     0.000 C 
BRANCH   4   5
ATOM      5  C   UNL     1      19.281  50.928  35.225  1.00  0.00     0.000 C 
BRANCH   5   6
ATOM      6  C   UNL     1      18.711  50.904  33.791  1.00  0.00     0.000 C 
BRANCH   6   7
ATOM      7  C   UNL     1      18.872  49.545  33.082  1.00  0.00     0.000 C 
BRANCH   7   8
ATOM      8  C   UNL     1      19.757  49.570  31.821  1.00  0.00     0.000 C 
BRANCH   8   9
ATOM      9  C   UNL     1      19.132  48.911  30.573  1.00  0.00     0.000 C 
BRANCH   9  10
ATOM     10  C   UNL     1      18.607  49.893  29.510  1.00  0.00     0.000 C 
BRANCH  10  11
ATOM     11  C   UNL     1      18.867  51.362  29.875  1.00  0.00     0.000 C 
BRANCH  11  12
ATOM     12  C   UNL     1      17.596  52.206  29.705  1.00  0.00     0.006 C 
BRANCH  12  13
ATOM     13  C   UNL     1      16.781  52.293  31.002  1.00  0.00     0.053 C 
BRANCH  13  14
ATOM     14  C   UNL     1      15.573  51.409  30.958  1.00  0.00     0.041 C 
ATOM     15  O   UNL     1      14.483  51.841  30.495  1.00  0.00    -0.550 OA
ATOM     16  O   UNL     1      15.642  50.116  31.459  1.00  0.00    -0.550 OA
ENDBRANCH  13  14
ENDBRANCH  12  13
ENDBRANCH  11  12
ENDBRANCH  10  11
ENDBRANCH   9  10
ENDBRANCH   8   9
ENDBRANCH   7   8
ENDBRANCH   6   7
ENDBRANCH   5   6
ENDBRANCH   4   5
ENDBRANCH   3   4
ENDBRANCH   2   3
ENDBRANCH   1   2
BRANCH   1  17
ATOM     17  C   UNL     1      16.484  48.348  35.801  1.00  0.00     0.000 C 
BRANCH  17  18
ATOM     18  C   UNL     1      15.993  49.784  36.042  1.00  0.00     0.000 C 
BRANCH  18  19
ATOM     19  C   UNL     1      16.078  50.158  37.531  1.00  0.00     0.000 C 
BRANCH  19  20
ATOM     20  C   UNL     1      16.544  51.613  37.752  1.00  0.00     0.000 C 
BRANCH  20  21
ATOM     21  C   UNL     1      17.835  51.742  38.588  1.00  0.00     0.000 C 
BRANCH  21  22
ATOM     22  C   UNL     1      17.962  50.763  39.768  1.00  0.00    -0.000 C 
BRANCH  22  23
ATOM     23  C   UNL     1      18.560  51.359  41.065  1.00  0.00    -0.000 C 
BRANCH  23  24
ATOM     24  C   UNL     1      20.074  51.634  40.985  1.00  0.00    -0.000 C 
BRANCH  24  25
ATOM     25  C   UNL     1      20.924  50.357  40.801  1.00  0.00    -0.000 C 
BRANCH  25  26
ATOM     26  C   UNL     1      21.748  50.408  39.507  1.00  0.00    -0.000 C 
BRANCH  26  27
ATOM     27  C   UNL     1      22.949  51.351  39.649  1.00  0.00    -0.000 C 
BRANCH  27  28
ATOM     28  C   UNL     1      22.837  52.528  38.673  1.00  0.00    -0.000 C 
BRANCH  28  29
ATOM     29  C   UNL     1      21.721  52.291  37.646  1.00  0.00    -0.003 C 
ATOM     30  C   UNL     1      20.771  53.486  37.585  1.00  0.00     0.004 C 
ENDBRANCH  28  29
ENDBRANCH  27  28
ENDBRANCH  26  27
ENDBRANCH  25  26
ENDBRANCH  24  25
ENDBRANCH  23  24
ENDBRANCH  22  23
ENDBRANCH  21  22
ENDBRANCH  20  21
ENDBRANCH  19  20
ENDBRANCH  18  19
ENDBRANCH  17  18
ENDBRANCH   1  17
TORSDOF 26
ENDMDL
MODEL 7
REMARK VINA RESULT:    -3.685      1.276      2.335
REMARK INTER + INTRA:         -15.256
REMARK INTER:                  -9.771
REMARK INTRA:                  -5.485
REMARK UNBOUND:                -5.971
REMARK SMILES CCCCCCCCCCCCCCCCCCCCCCCCCCCC(=O)[O-]
REMARK SMILES IDX 15 1 16 2 17 3 18 4 19 5 20 6 21 7 22 8 23 9 24 10 25 11
REMARK SMILES IDX 26 12 27 13 28 14 29 15 30 16 14 17 13 18 12 19 11 20 10 21
REMARK SMILES IDX 9 22 8 23 7 24 6 25 5 26 4 27 3 28 2 29 1 30
REMARK H PARENT
REMARK Flexibility Score: inf
ROOT
ATOM      1  C   UNL     1      18.963  48.297  36.486  1.00  0.00     0.000 C 
ENDROOT
BRANCH   1   2
ATOM      2  C   UNL     1      19.400  49.637  35.863  1.00  0.00     0.000 C 
BRANCH   2   3
ATOM      3  C   UNL     1      20.542  49.537  34.836  1.00  0.00     0.000 C 
BRANCH   3   4
ATOM      4  C   UNL     1      21.807  48.836  35.377  1.00  0.00     0.000 C 
BRANCH   4   5
ATOM      5  C   UNL     1      22.322  47.735  34.432  1.00  0.00     0.000 C 
BRANCH   5   6
ATOM      6  C   UNL     1      21.612  46.383  34.662  1.00  0.00     0.000 C 
BRANCH   6   7
ATOM      7  C   UNL     1      20.866  45.857  33.420  1.00  0.00     0.000 C 
BRANCH   7   8
ATOM      8  C   UNL     1      19.330  45.956  33.494  1.00  0.00     0.000 C 
BRANCH   8   9
ATOM      9  C   UNL     1      18.724  47.200  32.809  1.00  0.00     0.000 C 
BRANCH   9  10
ATOM     10  C   UNL     1      17.186  47.268  32.820  1.00  0.00     0.000 C 
BRANCH  10  11
ATOM     11  C   UNL     1      16.639  48.511  32.104  1.00  0.00     0.000 C 
BRANCH  11  12
ATOM     12  C   UNL     1      17.509  49.743  32.394  1.00  0.00     0.006 C 
BRANCH  12  13
ATOM     13  C   UNL     1      16.667  50.977  32.744  1.00  0.00     0.053 C 
BRANCH  13  14
ATOM     14  C   UNL     1      17.526  52.157  33.078  1.00  0.00     0.041 C 
ATOM     15  O   UNL     1      18.777  52.033  33.160  1.00  0.00    -0.550 OA
ATOM     16  O   UNL     1      16.939  53.390  33.332  1.00  0.00    -0.550 OA
ENDBRANCH  13  14
ENDBRANCH  12  13
ENDBRANCH  11  12
ENDBRANCH  10  11
ENDBRANCH   9  10
ENDBRANCH   8   9
ENDBRANCH   7   8
ENDBRANCH   6   7
ENDBRANCH   5   6
ENDBRANCH   4   5
ENDBRANCH   3   4
ENDBRANCH   2   3
ENDBRANCH   1   2
BRANCH   1  17
ATOM     17  C   UNL     1      17.473  47.954  36.308  1.00  0.00     0.000 C 
BRANCH  17  18
ATOM     18  C   UNL     1      16.580  49.202  36.226  1.00  0.00     0.000 C 
BRANCH  18  19
ATOM     19  C   UNL     1      16.135  49.660  37.625  1.00  0.00     0.000 C 
BRANCH  19  20
ATOM     20  C   UNL     1      16.503  51.131  37.912  1.00  0.00     0.000 C 
BRANCH  20  21
ATOM     21  C   UNL     1      17.613  51.310  38.970  1.00  0.00     0.000 C 
BRANCH  21  22
ATOM     22  C   UNL     1      18.054  50.025  39.692  1.00  0.00    -0.000 C 
BRANCH  22  23
ATOM     23  C   UNL     1      19.579  49.761  39.706  1.00  0.00    -0.000 C 
BRANCH  23  24
ATOM     24  C   UNL     1      20.275  50.189  41.013  1.00  0.00    -0.000 C 
BRANCH  24  25
ATOM     25  C   UNL     1      21.742  50.631  40.815  1.00  0.00    -0.000 C 
BRANCH  25  26
ATOM     26  C   UNL     1      22.173  50.514  39.346  1.00  0.00    -0.000 C 
BRANCH  26  27
ATOM     27  C   UNL     1      22.415  51.896  38.726  1.00  0.00    -0.000 C 
BRANCH  27  28
ATOM     28  C   UNL     1      21.706  52.019  37.372  1.00  0.00    -0.000 C 
BRANCH  28  29
ATOM     29  C   UNL     1      20.557  53.036  37.439  1.00  0.00    -0.003 C 
ATOM     30  C   UNL     1      20.394  53.582  38.856  1.00  0.00     0.004 C 
ENDBRANCH  28  29
ENDBRANCH  27  28
ENDBRANCH  26  27
ENDBRANCH  25  26
ENDBRANCH  24  25
ENDBRANCH  23  24
ENDBRANCH  22  23
ENDBRANCH  21  22
ENDBRANCH  20  21
ENDBRANCH  19  20
ENDBRANCH  18  19
ENDBRANCH  17  18
ENDBRANCH   1  17
TORSDOF 26
ENDMDL
MODEL 8
REMARK VINA RESULT:    -3.683      1.882      4.082
REMARK INTER + INTRA:         -15.253
REMARK INTER:                  -9.798
REMARK INTRA:                  -5.454
REMARK UNBOUND:                -5.971
REMARK SMILES CCCCCCCCCCCCCCCCCCCCCCCCCCCC(=O)[O-]
REMARK SMILES IDX 15 1 16 2 17 3 18 4 19 5 20 6 21 7 22 8 23 9 24 10 25 11
REMARK SMILES IDX 26 12 27 13 28 14 29 15 30 16 14 17 13 18 12 19 11 20 10 21
REMARK SMILES IDX 9 22 8 23 7 24 6 25 5 26 4 27 3 28 2 29 1 30
REMARK H PARENT
REMARK Flexibility Score: inf
ROOT
ATOM      1  C   UNL     1      19.177  51.633  35.909  1.00  0.00     0.000 C 
ENDROOT
BRANCH   1   2
ATOM      2  C   UNL     1      18.190  51.894  34.755  1.00  0.00     0.000 C 
BRANCH   2   3
ATOM      3  C   UNL     1      18.805  51.831  33.346  1.00  0.00     0.000 C 
BRANCH   3   4
ATOM      4  C   UNL     1      18.841  50.410  32.744  1.00  0.00     0.000 C 
BRANCH   4   5
ATOM      5  C   UNL     1      20.274  49.865  32.600  1.00  0.00     0.000 C 
BRANCH   5   6
ATOM      6  C   UNL     1      20.342  48.333  32.784  1.00  0.00     0.000 C 
BRANCH   6   7
ATOM      7  C   UNL     1      21.447  47.874  33.754  1.00  0.00     0.000 C 
BRANCH   7   8
ATOM      8  C   UNL     1      21.451  48.587  35.120  1.00  0.00     0.000 C 
BRANCH   8   9
ATOM      9  C   UNL     1      20.220  48.304  36.007  1.00  0.00     0.000 C 
BRANCH   9  10
ATOM     10  C   UNL     1      19.748  46.839  36.021  1.00  0.00     0.000 C 
BRANCH  10  11
ATOM     11  C   UNL     1      18.334  46.663  35.449  1.00  0.00     0.000 C 
BRANCH  11  12
ATOM     12  C   UNL     1      17.367  47.700  36.037  1.00  0.00     0.006 C 
BRANCH  12  13
ATOM     13  C   UNL     1      16.657  48.514  34.947  1.00  0.00     0.053 C 
BRANCH  13  14
ATOM     14  C   UNL     1      16.015  47.628  33.924  1.00  0.00     0.041 C 
ATOM     15  O   UNL     1      15.051  46.881  34.241  1.00  0.00    -0.550 OA
ATOM     16  O   UNL     1      16.504  47.605  32.625  1.00  0.00    -0.550 OA
ENDBRANCH  13  14
ENDBRANCH  12  13
ENDBRANCH  11  12
ENDBRANCH  10  11
ENDBRANCH   9  10
ENDBRANCH   8   9
ENDBRANCH   7   8
ENDBRANCH   6   7
ENDBRANCH   5   6
ENDBRANCH   4   5
ENDBRANCH   3   4
ENDBRANCH   2   3
ENDBRANCH   1   2
BRANCH   1  17
ATOM     17  C   UNL     1      19.544  52.874  36.744  1.00  0.00     0.000 C 
BRANCH  17  18
ATOM     18  C   UNL     1      20.323  52.522  38.021  1.00  0.00     0.000 C 
BRANCH  18  19
ATOM     19  C   UNL     1      21.685  51.891  37.686  1.00  0.00     0.000 C 
BRANCH  19  20
ATOM     20  C   UNL     1      21.851  50.481  38.292  1.00  0.00     0.000 C 
BRANCH  20  21
ATOM     21  C   UNL     1      22.845  50.414  39.471  1.00  0.00     0.000 C 
BRANCH  21  22
ATOM     22  C   UNL     1      23.212  51.766  40.107  1.00  0.00    -0.000 C 
BRANCH  22  23
ATOM     23  C   UNL     1      22.665  51.999  41.536  1.00  0.00    -0.000 C 
BRANCH  23  24
ATOM     24  C   UNL     1      21.150  52.277  41.586  1.00  0.00    -0.000 C 
BRANCH  24  25
ATOM     25  C   UNL     1      20.313  51.054  42.022  1.00  0.00    -0.000 C 
BRANCH  25  26
ATOM     26  C   UNL     1      19.082  50.864  41.124  1.00  0.00    -0.000 C 
BRANCH  26  27
ATOM     27  C   UNL     1      19.143  49.528  40.372  1.00  0.00    -0.000 C 
BRANCH  27  28
ATOM     28  C   UNL     1      18.229  49.553  39.140  1.00  0.00    -0.000 C 
BRANCH  28  29
ATOM     29  C   UNL     1      17.281  50.760  39.179  1.00  0.00    -0.003 C 
ATOM     30  C   UNL     1      16.351  50.763  37.968  1.00  0.00     0.004 C 
ENDBRANCH  28  29
ENDBRANCH  27  28
ENDBRANCH  26  27
ENDBRANCH  25  26
ENDBRANCH  24  25
ENDBRANCH  23  24
ENDBRANCH  22  23
ENDBRANCH  21  22
ENDBRANCH  20  21
ENDBRANCH  19  20
ENDBRANCH  18  19
ENDBRANCH  17  18
ENDBRANCH   1  17
TORSDOF 26
ENDMDL
MODEL 9
REMARK VINA RESULT:    -3.676      2.410      4.079
REMARK INTER + INTRA:         -15.233
REMARK INTER:                 -10.596
REMARK INTRA:                  -4.637
REMARK UNBOUND:                -5.971
REMARK SMILES CCCCCCCCCCCCCCCCCCCCCCCCCCCC(=O)[O-]
REMARK SMILES IDX 15 1 16 2 17 3 18 4 19 5 20 6 21 7 22 8 23 9 24 10 25 11
REMARK SMILES IDX 26 12 27 13 28 14 29 15 30 16 14 17 13 18 12 19 11 20 10 21
REMARK SMILES IDX 9 22 8 23 7 24 6 25 5 26 4 27 3 28 2 29 1 30
REMARK H PARENT
REMARK Flexibility Score: inf
ROOT
ATOM      1  C   UNL     1      16.130  49.996  37.869  1.00  0.00     0.000 C 
ENDROOT
BRANCH   1   2
ATOM      2  C   UNL     1      16.347  49.807  36.355  1.00  0.00     0.000 C 
BRANCH   2   3
ATOM      3  C   UNL     1      16.730  51.085  35.588  1.00  0.00     0.000 C 
BRANCH   3   4
ATOM      4  C   UNL     1      18.002  50.938  34.725  1.00  0.00     0.000 C 
BRANCH   4   5
ATOM      5  C   UNL     1      19.269  50.721  35.573  1.00  0.00     0.000 C 
BRANCH   5   6
ATOM      6  C   UNL     1      20.173  49.605  35.005  1.00  0.00     0.000 C 
BRANCH   6   7
ATOM      7  C   UNL     1      20.570  48.540  36.046  1.00  0.00     0.000 C 
BRANCH   7   8
ATOM      8  C   UNL     1      19.387  47.840  36.744  1.00  0.00     0.000 C 
BRANCH   8   9
ATOM      9  C   UNL     1      19.042  46.440  36.193  1.00  0.00     0.000 C 
BRANCH   9  10
ATOM     10  C   UNL     1      20.125  45.803  35.303  1.00  0.00     0.000 C 
BRANCH  10  11
ATOM     11  C   UNL     1      19.675  45.636  33.844  1.00  0.00     0.000 C 
BRANCH  11  12
ATOM     12  C   UNL     1      20.526  46.499  32.901  1.00  0.00     0.006 C 
BRANCH  12  13
ATOM     13  C   UNL     1      21.735  45.733  32.348  1.00  0.00     0.053 C 
BRANCH  13  14
ATOM     14  C   UNL     1      23.027  46.290  32.862  1.00  0.00     0.041 C 
ATOM     15  O   UNL     1      23.029  47.148  33.785  1.00  0.00    -0.550 OA
ATOM     16  O   UNL     1      24.228  45.882  32.298  1.00  0.00    -0.550 OA
ENDBRANCH  13  14
ENDBRANCH  12  13
ENDBRANCH  11  12
ENDBRANCH  10  11
ENDBRANCH   9  10
ENDBRANCH   8   9
ENDBRANCH   7   8
ENDBRANCH   6   7
ENDBRANCH   5   6
ENDBRANCH   4   5
ENDBRANCH   3   4
ENDBRANCH   2   3
ENDBRANCH   1   2
BRANCH   1  17
ATOM     17  C   UNL     1      16.510  51.386  38.411  1.00  0.00     0.000 C 
BRANCH  17  18
ATOM     18  C   UNL     1      17.562  51.320  39.530  1.00  0.00     0.000 C 
BRANCH  18  19
ATOM     19  C   UNL     1      18.619  50.242  39.237  1.00  0.00     0.000 C 
BRANCH  19  20
ATOM     20  C   UNL     1      18.746  49.210  40.377  1.00  0.00     0.000 C 
BRANCH  20  21
ATOM     21  C   UNL     1      19.863  49.527  41.394  1.00  0.00     0.000 C 
BRANCH  21  22
ATOM     22  C   UNL     1      19.475  50.496  42.525  1.00  0.00    -0.000 C 
BRANCH  22  23
ATOM     23  C   UNL     1      20.032  51.933  42.389  1.00  0.00    -0.000 C 
BRANCH  23  24
ATOM     24  C   UNL     1      21.500  52.078  42.838  1.00  0.00    -0.000 C 
BRANCH  24  25
ATOM     25  C   UNL     1      22.494  52.200  41.662  1.00  0.00    -0.000 C 
BRANCH  25  26
ATOM     26  C   UNL     1      21.779  52.563  40.352  1.00  0.00    -0.000 C 
BRANCH  26  27
ATOM     27  C   UNL     1      22.416  51.847  39.154  1.00  0.00    -0.000 C 
BRANCH  27  28
ATOM     28  C   UNL     1      21.648  52.156  37.863  1.00  0.00    -0.000 C 
BRANCH  28  29
ATOM     29  C   UNL     1      20.480  53.117  38.130  1.00  0.00    -0.003 C 
ATOM     30  C   UNL     1      20.202  53.990  36.909  1.00  0.00     0.004 C 
ENDBRANCH  28  29
ENDBRANCH  27  28
ENDBRANCH  26  27
ENDBRANCH  25  26
ENDBRANCH  24  25
ENDBRANCH  23  24
ENDBRANCH  22  23
ENDBRANCH  21  22
ENDBRANCH  20  21
ENDBRANCH  19  20
ENDBRANCH  18  19
ENDBRANCH  17  18
ENDBRANCH   1  17
TORSDOF 26
ENDMDL
