MODEL 1
REMARK VINA RESULT:    -3.098      0.000      0.000
REMARK INTER + INTRA:          -8.096
REMARK INTER:                  -5.634
REMARK INTRA:                  -2.462
REMARK UNBOUND:                -2.462
REMARK SMILES CCCCCCCCCCCCCCCC(=O)[O-]
REMARK SMILES IDX 9 1 10 2 11 3 12 4 13 5 14 6 15 7 16 8 17 9 18 10 8 11 7 12
REMARK SMILES IDX 6 13 5 14 4 15 3 16 2 17 1 18
REMARK H PARENT
REMARK Flexibility Score: inf
ROOT
ATOM      1  C   UNL     1       5.774  13.410   7.531  1.00  0.00     0.000 C 
ENDROOT
BRANCH   1   2
ATOM      2  C   UNL     1       4.595  12.478   7.852  1.00  0.00     0.000 C 
BRANCH   2   3
ATOM      3  C   UNL     1       4.912  11.001   7.558  1.00  0.00     0.000 C 
BRANCH   3   4
ATOM      4  C   UNL     1       5.240  10.203   8.831  1.00  0.00     0.000 C 
BRANCH   4   5
ATOM      5  C   UNL     1       6.702   9.724   8.866  1.00  0.00     0.000 C 
BRANCH   5   6
ATOM      6  C   UNL     1       7.501  10.179   7.634  1.00  0.00     0.006 C 
BRANCH   6   7
ATOM      7  C   UNL     1       8.899  10.696   7.997  1.00  0.00     0.053 C 
BRANCH   7   8
ATOM      8  C   UNL     1       9.463  11.511   6.876  1.00  0.00     0.041 C 
ATOM      9  O   UNL     1       9.908  10.946   5.842  1.00  0.00    -0.550 OA
ATOM     10  O   UNL     1       9.450  12.899   6.950  1.00  0.00    -0.550 OA
ENDBRANCH   7   8
ENDBRANCH   6   7
ENDBRANCH   5   6
ENDBRANCH   4   5
ENDBRANCH   3   4
ENDBRANCH   2   3
ENDBRANCH   1   2
BRANCH   1  11
ATOM     11  C   UNL     1       6.270  14.181   8.765  1.00  0.00     0.000 C 
BRANCH  11  12
ATOM     12  C   UNL     1       7.192  13.335   9.658  1.00  0.00    -0.000 C 
BRANCH  12  13
ATOM     13  C   UNL     1       6.510  12.889  10.965  1.00  0.00    -0.000 C 
BRANCH  13  14
ATOM     14  C   UNL     1       7.462  12.120  11.894  1.00  0.00    -0.000 C 
BRANCH  14  15
ATOM     15  C   UNL     1       8.914  12.624  11.804  1.00  0.00    -0.000 C 
BRANCH  15  16
ATOM     16  C   UNL     1       9.921  11.471  11.613  1.00  0.00    -0.000 C 
BRANCH  16  17
ATOM     17  C   UNL     1       9.478  10.150  12.265  1.00  0.00    -0.003 C 
ATOM     18  C   UNL     1       9.382   8.994  11.273  1.00  0.00     0.004 C 
ENDBRANCH  16  17
ENDBRANCH  15  16
ENDBRANCH  14  15
ENDBRANCH  13  14
ENDBRANCH  12  13
ENDBRANCH  11  12
ENDBRANCH   1  11
TORSDOF 14
ENDMDL
MODEL 2
REMARK VINA RESULT:    -2.994      2.918      5.130
REMARK INTER + INTRA:          -7.906
REMARK INTER:                  -5.489
REMARK INTRA:                  -2.416
REMARK UNBOUND:                -2.462
REMARK SMILES CCCCCCCCCCCCCCCC(=O)[O-]
REMARK SMILES IDX 9 1 10 2 11 3 12 4 13 5 14 6 15 7 16 8 17 9 18 10 8 11 7 12
REMARK SMILES IDX 6 13 5 14 4 15 3 16 2 17 1 18
REMARK H PARENT
REMARK Flexibility Score: inf
ROOT
ATOM      1  C   UNL     1       5.529   8.592   7.469  1.00  0.00     0.000 C 
ENDROOT
BRANCH   1   2
ATOM      2  C   UNL     1       5.257   9.877   8.268  1.00  0.00     0.000 C 
BRANCH   2   3
ATOM      3  C   UNL     1       5.803  11.134   7.569  1.00  0.00     0.000 C 
BRANCH   3   4
ATOM      4  C   UNL     1       6.776  11.926   8.458  1.00  0.00     0.000 C 
BRANCH   4   5
ATOM      5  C   UNL     1       8.200  11.973   7.876  1.00  0.00     0.000 C 
BRANCH   5   6
ATOM      6  C   UNL     1       9.179  11.067   8.640  1.00  0.00     0.006 C 
BRANCH   6   7
ATOM      7  C   UNL     1       8.583  10.522   9.943  1.00  0.00     0.053 C 
BRANCH   7   8
ATOM      8  C   UNL     1       9.252  11.147  11.126  1.00  0.00     0.041 C 
ATOM      9  O   UNL     1      10.081  12.082  10.966  1.00  0.00    -0.550 OA
ATOM     10  O   UNL     1       8.922  10.732  12.411  1.00  0.00    -0.550 OA
ENDBRANCH   7   8
ENDBRANCH   6   7
ENDBRANCH   5   6
ENDBRANCH   4   5
ENDBRANCH   3   4
ENDBRANCH   2   3
ENDBRANCH   1   2
BRANCH   1  11
ATOM     11  C   UNL     1       7.008   8.447   7.070  1.00  0.00     0.000 C 
BRANCH  11  12
ATOM     12  C   UNL     1       7.202   7.529   5.853  1.00  0.00    -0.000 C 
BRANCH  12  13
ATOM     13  C   UNL     1       8.380   7.964   4.961  1.00  0.00    -0.000 C 
BRANCH  13  14
ATOM     14  C   UNL     1       8.995   9.300   5.406  1.00  0.00    -0.000 C 
BRANCH  14  15
ATOM     15  C   UNL     1      10.523   9.221   5.577  1.00  0.00    -0.000 C 
BRANCH  15  16
ATOM     16  C   UNL     1      10.970   7.895   6.228  1.00  0.00    -0.000 C 
BRANCH  16  17
ATOM     17  C   UNL     1      10.730   7.842   7.747  1.00  0.00    -0.003 C 
ATOM     18  C   UNL     1       9.955   6.602   8.187  1.00  0.00     0.004 C 
ENDBRANCH  16  17
ENDBRANCH  15  16
ENDBRANCH  14  15
ENDBRANCH  13  14
ENDBRANCH  12  13
ENDBRANCH  11  12
ENDBRANCH   1  11
TORSDOF 14
ENDMDL
MODEL 3
REMARK VINA RESULT:    -2.937      2.257      3.889
REMARK INTER + INTRA:          -7.803
REMARK INTER:                  -5.394
REMARK INTRA:                  -2.408
REMARK UNBOUND:                -2.462
REMARK SMILES CCCCCCCCCCCCCCCC(=O)[O-]
REMARK SMILES IDX 9 1 10 2 11 3 12 4 13 5 14 6 15 7 16 8 17 9 18 10 8 11 7 12
REMARK SMILES IDX 6 13 5 14 4 15 3 16 2 17 1 18
REMARK H PARENT
REMARK Flexibility Score: inf
ROOT
ATOM      1  C   UNL     1       5.520   8.758   8.824  1.00  0.00     0.000 C 
ENDROOT
BRANCH   1   2
ATOM      2  C   UNL     1       6.147   7.516   8.171  1.00  0.00     0.000 C 
BRANCH   2   3
ATOM      3  C   UNL     1       6.540   7.754   6.703  1.00  0.00     0.000 C 
BRANCH   3   4
ATOM      4  C   UNL     1       8.018   8.148   6.545  1.00  0.00     0.000 C 
BRANCH   4   5
ATOM      5  C   UNL     1       8.209   9.666   6.379  1.00  0.00     0.000 C 
BRANCH   5   6
ATOM      6  C   UNL     1       9.667  10.047   6.078  1.00  0.00     0.006 C 
BRANCH   6   7
ATOM      7  C   UNL     1      10.633   8.869   6.256  1.00  0.00     0.053 C 
BRANCH   7   8
ATOM      8  C   UNL     1      11.321   8.557   4.964  1.00  0.00     0.041 C 
ATOM      9  O   UNL     1      10.768   7.807   4.116  1.00  0.00    -0.550 OA
ATOM     10  O   UNL     1      12.551   9.135   4.673  1.00  0.00    -0.550 OA
ENDBRANCH   7   8
ENDBRANCH   6   7
ENDBRANCH   5   6
ENDBRANCH   4   5
ENDBRANCH   3   4
ENDBRANCH   2   3
ENDBRANCH   1   2
BRANCH   1  11
ATOM     11  C   UNL     1       4.309   9.289   8.038  1.00  0.00     0.000 C 
BRANCH  11  12
ATOM     12  C   UNL     1       4.509  10.733   7.552  1.00  0.00    -0.000 C 
BRANCH  12  13
ATOM     13  C   UNL     1       5.407  11.559   8.491  1.00  0.00    -0.000 C 
BRANCH  13  14
ATOM     14  C   UNL     1       6.251  12.598   7.737  1.00  0.00    -0.000 C 
BRANCH  14  15
ATOM     15  C   UNL     1       7.701  12.668   8.250  1.00  0.00    -0.000 C 
BRANCH  15  16
ATOM     16  C   UNL     1       7.872  11.970   9.616  1.00  0.00    -0.000 C 
BRANCH  16  17
ATOM     17  C   UNL     1       9.169  11.150   9.732  1.00  0.00    -0.003 C 
ATOM     18  C   UNL     1       8.919   9.659   9.939  1.00  0.00     0.004 C 
ENDBRANCH  16  17
ENDBRANCH  15  16
ENDBRANCH  14  15
ENDBRANCH  13  14
ENDBRANCH  12  13
ENDBRANCH  11  12
ENDBRANCH   1  11
TORSDOF 14
ENDMDL
MODEL 4
REMARK VINA RESULT:    -2.934      1.853      4.484
REMARK INTER + INTRA:          -7.798
REMARK INTER:                  -5.752
REMARK INTRA:                  -2.046
REMARK UNBOUND:                -2.462
REMARK SMILES CCCCCCCCCCCCCCCC(=O)[O-]
REMARK SMILES IDX 9 1 10 2 11 3 12 4 13 5 14 6 15 7 16 8 17 9 18 10 8 11 7 12
REMARK SMILES IDX 6 13 5 14 4 15 3 16 2 17 1 18
REMARK H PARENT
REMARK Flexibility Score: inf
ROOT
ATOM      1  C   UNL     1       8.541  12.189  11.024  1.00  0.00     0.000 C 
ENDROOT
BRANCH   1   2
ATOM      2  C   UNL     1       9.374  11.004  10.508  1.00  0.00     0.000 C 
BRANCH   2   3
ATOM      3  C   UNL     1       8.634  10.184   9.437  1.00  0.00     0.000 C 
BRANCH   3   4
ATOM      4  C   UNL     1       9.040  10.578   8.008  1.00  0.00     0.000 C 
BRANCH   4   5
ATOM      5  C   UNL     1       8.094   9.995   6.944  1.00  0.00     0.000 C 
BRANCH   5   6
ATOM      6  C   UNL     1       8.829   9.118   5.918  1.00  0.00     0.006 C 
BRANCH   6   7
ATOM      7  C   UNL     1      10.320   8.959   6.240  1.00  0.00     0.053 C 
BRANCH   7   8
ATOM      8  C   UNL     1      11.095   8.654   4.996  1.00  0.00     0.041 C 
ATOM      9  O   UNL     1      12.233   9.163   4.816  1.00  0.00    -0.550 OA
ATOM     10  O   UNL     1      10.582   7.766   4.058  1.00  0.00    -0.550 OA
ENDBRANCH   7   8
ENDBRANCH   6   7
ENDBRANCH   5   6
ENDBRANCH   4   5
ENDBRANCH   3   4
ENDBRANCH   2   3
ENDBRANCH   1   2
BRANCH   1  11
ATOM     11  C   UNL     1       7.028  11.931  10.930  1.00  0.00     0.000 C 
BRANCH  11  12
ATOM     12  C   UNL     1       6.277  13.078  10.235  1.00  0.00    -0.000 C 
BRANCH  12  13
ATOM     13  C   UNL     1       6.974  13.551   8.946  1.00  0.00    -0.000 C 
BRANCH  13  14
ATOM     14  C   UNL     1       6.245  13.088   7.676  1.00  0.00    -0.000 C 
BRANCH  14  15
ATOM     15  C   UNL     1       4.728  13.346   7.736  1.00  0.00    -0.000 C 
BRANCH  15  16
ATOM     16  C   UNL     1       3.912  12.036   7.744  1.00  0.00    -0.000 C 
BRANCH  16  17
ATOM     17  C   UNL     1       4.773  10.773   7.565  1.00  0.00    -0.003 C 
ATOM     18  C   UNL     1       4.745   9.852   8.782  1.00  0.00     0.004 C 
ENDBRANCH  16  17
ENDBRANCH  15  16
ENDBRANCH  14  15
ENDBRANCH  13  14
ENDBRANCH  12  13
ENDBRANCH  11  12
ENDBRANCH   1  11
TORSDOF 14
ENDMDL
MODEL 5
REMARK VINA RESULT:    -2.913      2.254      4.708
REMARK INTER + INTRA:          -7.759
REMARK INTER:                  -5.666
REMARK INTRA:                  -2.092
REMARK UNBOUND:                -2.462
REMARK SMILES CCCCCCCCCCCCCCCC(=O)[O-]
REMARK SMILES IDX 9 1 10 2 11 3 12 4 13 5 14 6 15 7 16 8 17 9 18 10 8 11 7 12
REMARK SMILES IDX 6 13 5 14 4 15 3 16 2 17 1 18
REMARK H PARENT
REMARK Flexibility Score: inf
ROOT
ATOM      1  C   UNL     1       4.714  11.255   7.880  1.00  0.00     0.000 C 
ENDROOT
BRANCH   1   2
ATOM      2  C   UNL     1       4.583  12.786   7.906  1.00  0.00     0.000 C 
BRANCH   2   3
ATOM      3  C   UNL     1       5.922  13.499   7.646  1.00  0.00     0.000 C 
BRANCH   3   4
ATOM      4  C   UNL     1       6.455  14.224   8.892  1.00  0.00     0.000 C 
BRANCH   4   5
ATOM      5  C   UNL     1       5.677  13.854  10.167  1.00  0.00     0.000 C 
BRANCH   5   6
ATOM      6  C   UNL     1       6.473  12.922  11.095  1.00  0.00     0.006 C 
BRANCH   6   7
ATOM      7  C   UNL     1       7.969  13.258  11.125  1.00  0.00     0.053 C 
BRANCH   7   8
ATOM      8  C   UNL     1       8.777  12.025  11.376  1.00  0.00     0.041 C 
ATOM      9  O   UNL     1      10.004  12.001  11.091  1.00  0.00    -0.550 OA
ATOM     10  O   UNL     1       8.189  10.917  11.973  1.00  0.00    -0.550 OA
ENDBRANCH   7   8
ENDBRANCH   6   7
ENDBRANCH   5   6
ENDBRANCH   4   5
ENDBRANCH   3   4
ENDBRANCH   2   3
ENDBRANCH   1   2
BRANCH   1  11
ATOM     11  C   UNL     1       6.124  10.791   7.477  1.00  0.00     0.000 C 
BRANCH  11  12
ATOM     12  C   UNL     1       6.846  10.045   8.611  1.00  0.00    -0.000 C 
BRANCH  12  13
ATOM     13  C   UNL     1       8.376  10.030   8.435  1.00  0.00    -0.000 C 
BRANCH  13  14
ATOM     14  C   UNL     1       8.878  11.174   7.542  1.00  0.00    -0.000 C 
BRANCH  14  15
ATOM     15  C   UNL     1       9.676  10.670   6.325  1.00  0.00    -0.000 C 
BRANCH  15  16
ATOM     16  C   UNL     1       9.063   9.393   5.713  1.00  0.00    -0.000 C 
BRANCH  16  17
ATOM     17  C   UNL     1      10.079   8.253   5.519  1.00  0.00    -0.003 C 
ATOM     18  C   UNL     1      11.489   8.753   5.217  1.00  0.00     0.004 C 
ENDBRANCH  16  17
ENDBRANCH  15  16
ENDBRANCH  14  15
ENDBRANCH  13  14
ENDBRANCH  12  13
ENDBRANCH  11  12
ENDBRANCH   1  11
TORSDOF 14
ENDMDL
MODEL 6
REMARK VINA RESULT:    -2.837      2.357      4.797
REMARK INTER + INTRA:          -7.621
REMARK INTER:                  -5.298
REMARK INTRA:                  -2.323
REMARK UNBOUND:                -2.462
REMARK SMILES CCCCCCCCCCCCCCCC(=O)[O-]
REMARK SMILES IDX 9 1 10 2 11 3 12 4 13 5 14 6 15 7 16 8 17 9 18 10 8 11 7 12
REMARK SMILES IDX 6 13 5 14 4 15 3 16 2 17 1 18
REMARK H PARENT
REMARK Flexibility Score: inf
ROOT
ATOM      1  C   UNL     1       7.039  10.390  10.534  1.00  0.00     0.000 C 
ENDROOT
BRANCH   1   2
ATOM      2  C   UNL     1       8.102   9.986   9.499  1.00  0.00     0.000 C 
BRANCH   2   3
ATOM      3  C   UNL     1       8.971  11.174   9.050  1.00  0.00     0.000 C 
BRANCH   3   4
ATOM      4  C   UNL     1       8.992  11.344   7.522  1.00  0.00     0.000 C 
BRANCH   4   5
ATOM      5  C   UNL     1       8.751  10.019   6.778  1.00  0.00     0.000 C 
BRANCH   5   6
ATOM      6  C   UNL     1       9.819   9.742   5.707  1.00  0.00     0.006 C 
BRANCH   6   7
ATOM      7  C   UNL     1      10.740   8.574   6.083  1.00  0.00     0.053 C 
BRANCH   7   8
ATOM      8  C   UNL     1      10.700   7.516   5.026  1.00  0.00     0.041 C 
ATOM      9  O   UNL     1      10.552   6.306   5.345  1.00  0.00    -0.550 OA
ATOM     10  O   UNL     1      10.774   7.869   3.684  1.00  0.00    -0.550 OA
ENDBRANCH   7   8
ENDBRANCH   6   7
ENDBRANCH   5   6
ENDBRANCH   4   5
ENDBRANCH   3   4
ENDBRANCH   2   3
ENDBRANCH   1   2
BRANCH   1  11
ATOM     11  C   UNL     1       5.605  10.218  10.004  1.00  0.00     0.000 C 
BRANCH  11  12
ATOM     12  C   UNL     1       5.567   9.631   8.584  1.00  0.00    -0.000 C 
BRANCH  12  13
ATOM     13  C   UNL     1       5.184  10.674   7.519  1.00  0.00    -0.000 C 
BRANCH  13  14
ATOM     14  C   UNL     1       4.051  11.602   7.982  1.00  0.00    -0.000 C 
BRANCH  14  15
ATOM     15  C   UNL     1       4.429  13.092   7.885  1.00  0.00    -0.000 C 
BRANCH  15  16
ATOM     16  C   UNL     1       5.918  13.295   7.532  1.00  0.00    -0.000 C 
BRANCH  16  17
ATOM     17  C   UNL     1       6.691  14.120   8.576  1.00  0.00    -0.003 C 
ATOM     18  C   UNL     1       6.120  13.990   9.985  1.00  0.00     0.004 C 
ENDBRANCH  16  17
ENDBRANCH  15  16
ENDBRANCH  14  15
ENDBRANCH  13  14
ENDBRANCH  12  13
ENDBRANCH  11  12
ENDBRANCH   1  11
TORSDOF 14
ENDMDL
MODEL 7
REMARK VINA RESULT:    -2.818      2.832      5.383
REMARK INTER + INTRA:          -7.585
REMARK INTER:                  -5.488
REMARK INTRA:                  -2.097
REMARK UNBOUND:                -2.462
REMARK SMILES CCCCCCCCCCCCCCCC(=O)[O-]
REMARK SMILES IDX 9 1 10 2 11 3 12 4 13 5 14 6 15 7 16 8 17 9 18 10 8 11 7 12
REMARK SMILES IDX 6 13 5 14 4 15 3 16 2 17 1 18
REMARK H PARENT
REMARK Flexibility Score: inf
ROOT
ATOM      1  C   UNL     1       5.302   9.888   8.186  1.00  0.00     0.000 C 
ENDROOT
BRANCH   1   2
ATOM      2  C   UNL     1       6.099  11.014   7.508  1.00  0.00     0.000 C 
BRANCH   2   3
ATOM      3  C   UNL     1       6.982  11.793   8.499  1.00  0.00     0.000 C 
BRANCH   3   4
ATOM      4  C   UNL     1       8.483  11.618   8.214  1.00  0.00     0.000 C 
BRANCH   4   5
ATOM      5  C   UNL     1       9.114  10.489   9.048  1.00  0.00     0.000 C 
BRANCH   5   6
ATOM      6  C   UNL     1       8.458  10.339  10.430  1.00  0.00     0.006 C 
BRANCH   6   7
ATOM      7  C   UNL     1       9.418  10.677  11.577  1.00  0.00     0.053 C 
BRANCH   7   8
ATOM      8  C   UNL     1       9.751  12.136  11.568  1.00  0.00     0.041 C 
ATOM      9  O   UNL     1       8.831  12.996  11.513  1.00  0.00    -0.550 OA
ATOM     10  O   UNL     1      11.073  12.549  11.674  1.00  0.00    -0.550 OA
ENDBRANCH   7   8
ENDBRANCH   6   7
ENDBRANCH   5   6
ENDBRANCH   4   5
ENDBRANCH   3   4
ENDBRANCH   2   3
ENDBRANCH   1   2
BRANCH   1  11
ATOM     11  C   UNL     1       6.063   8.552   8.199  1.00  0.00     0.000 C 
BRANCH  11  12
ATOM     12  C   UNL     1       6.435   8.071   6.787  1.00  0.00    -0.000 C 
BRANCH  12  13
ATOM     13  C   UNL     1       7.957   7.964   6.576  1.00  0.00    -0.000 C 
BRANCH  13  14
ATOM     14  C   UNL     1       8.442   8.775   5.365  1.00  0.00    -0.000 C 
BRANCH  14  15
ATOM     15  C   UNL     1       9.818   9.425   5.599  1.00  0.00    -0.000 C 
BRANCH  15  16
ATOM     16  C   UNL     1      10.800   8.471   6.313  1.00  0.00    -0.000 C 
BRANCH  16  17
ATOM     17  C   UNL     1      11.736   7.718   5.352  1.00  0.00    -0.003 C 
ATOM     18  C   UNL     1      12.543   8.648   4.449  1.00  0.00     0.004 C 
ENDBRANCH  16  17
ENDBRANCH  15  16
ENDBRANCH  14  15
ENDBRANCH  13  14
ENDBRANCH  12  13
ENDBRANCH  11  12
ENDBRANCH   1  11
TORSDOF 14
ENDMDL
MODEL 8
REMARK VINA RESULT:    -2.815      1.972      3.306
REMARK INTER + INTRA:          -7.581
REMARK INTER:                  -5.521
REMARK INTRA:                  -2.061
REMARK UNBOUND:                -2.462
REMARK SMILES CCCCCCCCCCCCCCCC(=O)[O-]
REMARK SMILES IDX 9 1 10 2 11 3 12 4 13 5 14 6 15 7 16 8 17 9 18 10 8 11 7 12
REMARK SMILES IDX 6 13 5 14 4 15 3 16 2 17 1 18
REMARK H PARENT
REMARK Flexibility Score: inf
ROOT
ATOM      1  C   UNL     1       5.062  10.461   8.091  1.00  0.00     0.000 C 
ENDROOT
BRANCH   1   2
ATOM      2  C   UNL     1       6.448  10.136   7.511  1.00  0.00     0.000 C 
BRANCH   2   3
ATOM      3  C   UNL     1       7.344   9.380   8.508  1.00  0.00     0.000 C 
BRANCH   3   4
ATOM      4  C   UNL     1       8.841   9.555   8.204  1.00  0.00     0.000 C 
BRANCH   4   5
ATOM      5  C   UNL     1       9.108  10.675   7.183  1.00  0.00     0.000 C 
BRANCH   5   6
ATOM      6  C   UNL     1       9.789  10.158   5.906  1.00  0.00     0.006 C 
BRANCH   6   7
ATOM      7  C   UNL     1       9.794   8.627   5.819  1.00  0.00     0.053 C 
BRANCH   7   8
ATOM      8  C   UNL     1       8.729   8.153   4.880  1.00  0.00     0.041 C 
ATOM      9  O   UNL     1       7.676   7.627   5.329  1.00  0.00    -0.550 OA
ATOM     10  O   UNL     1       8.875   8.339   3.511  1.00  0.00    -0.550 OA
ENDBRANCH   7   8
ENDBRANCH   6   7
ENDBRANCH   5   6
ENDBRANCH   4   5
ENDBRANCH   3   4
ENDBRANCH   2   3
ENDBRANCH   1   2
BRANCH   1  11
ATOM     11  C   UNL     1       4.699  11.949   7.952  1.00  0.00     0.000 C 
BRANCH  11  12
ATOM     12  C   UNL     1       5.920  12.827   7.635  1.00  0.00    -0.000 C 
BRANCH  12  13
ATOM     13  C   UNL     1       6.078  14.003   8.615  1.00  0.00    -0.000 C 
BRANCH  13  14
ATOM     14  C   UNL     1       6.557  13.554  10.004  1.00  0.00    -0.000 C 
BRANCH  14  15
ATOM     15  C   UNL     1       7.843  12.710   9.943  1.00  0.00    -0.000 C 
BRANCH  15  16
ATOM     16  C   UNL     1       8.058  11.879  11.226  1.00  0.00    -0.000 C 
BRANCH  16  17
ATOM     17  C   UNL     1       9.398  12.163  11.927  1.00  0.00    -0.003 C 
ATOM     18  C   UNL     1       9.432  13.521  12.625  1.00  0.00     0.004 C 
ENDBRANCH  16  17
ENDBRANCH  15  16
ENDBRANCH  14  15
ENDBRANCH  13  14
ENDBRANCH  12  13
ENDBRANCH  11  12
ENDBRANCH   1  11
TORSDOF 14
ENDMDL
MODEL 9
REMARK VINA RESULT:    -2.806      2.247      4.160
REMARK INTER + INTRA:          -7.563
REMARK INTER:                  -5.318
REMARK INTRA:                  -2.245
REMARK UNBOUND:                -2.462
REMARK SMILES CCCCCCCCCCCCCCCC(=O)[O-]
REMARK SMILES IDX 9 1 10 2 11 3 12 4 13 5 14 6 15 7 16 8 17 9 18 10 8 11 7 12
REMARK SMILES IDX 6 13 5 14 4 15 3 16 2 17 1 18
REMARK H PARENT
REMARK Flexibility Score: inf
ROOT
ATOM      1  C   UNL     1       5.459  11.978   7.870  1.00  0.00     0.000 C 
ENDROOT
BRANCH   1   2
ATOM      2  C   UNL     1       5.280  10.524   8.337  1.00  0.00     0.000 C 
BRANCH   2   3
ATOM      3  C   UNL     1       5.398  10.375   9.864  1.00  0.00     0.000 C 
BRANCH   3   4
ATOM      4  C   UNL     1       6.132   9.089  10.275  1.00  0.00     0.000 C 
BRANCH   4   5
ATOM      5  C   UNL     1       7.423   9.373  11.063  1.00  0.00     0.000 C 
BRANCH   5   6
ATOM      6  C   UNL     1       7.399  10.744  11.758  1.00  0.00     0.006 C 
BRANCH   6   7
ATOM      7  C   UNL     1       8.696  11.039  12.522  1.00  0.00     0.053 C 
BRANCH   7   8
ATOM      8  C   UNL     1       9.405  12.210  11.917  1.00  0.00     0.041 C 
ATOM      9  O   UNL     1      10.629  12.130  11.628  1.00  0.00    -0.550 OA
ATOM     10  O   UNL     1       8.703  13.373  11.624  1.00  0.00    -0.550 OA
ENDBRANCH   7   8
ENDBRANCH   6   7
ENDBRANCH   5   6
ENDBRANCH   4   5
ENDBRANCH   3   4
ENDBRANCH   2   3
ENDBRANCH   1   2
BRANCH   1  11
ATOM     11  C   UNL     1       6.444  12.764   8.752  1.00  0.00     0.000 C 
BRANCH  11  12
ATOM     12  C   UNL     1       7.584  13.398   7.940  1.00  0.00    -0.000 C 
BRANCH  12  13
ATOM     13  C   UNL     1       8.559  12.354   7.366  1.00  0.00    -0.000 C 
BRANCH  13  14
ATOM     14  C   UNL     1       9.053  11.361   8.428  1.00  0.00    -0.000 C 
BRANCH  14  15
ATOM     15  C   UNL     1       9.123   9.916   7.902  1.00  0.00    -0.000 C 
BRANCH  15  16
ATOM     16  C   UNL     1       8.962   9.845   6.368  1.00  0.00    -0.000 C 
BRANCH  16  17
ATOM     17  C   UNL     1      10.268   9.511   5.626  1.00  0.00    -0.003 C 
ATOM     18  C   UNL     1      10.825   8.135   5.982  1.00  0.00     0.004 C 
ENDBRANCH  16  17
ENDBRANCH  15  16
ENDBRANCH  14  15
ENDBRANCH  13  14
ENDBRANCH  12  13
ENDBRANCH  11  12
ENDBRANCH   1  11
TORSDOF 14
ENDMDL
