MODEL 1
REMARK VINA RESULT:    -3.674      0.000      0.000
REMARK INTER + INTRA:          -7.254
REMARK INTER:                  -6.251
REMARK INTRA:                  -1.003
REMARK UNBOUND:                -1.003
REMARK SMILES CCCCCCCCCCCCCC(=O)[O-]
REMARK SMILES IDX 8 1 9 2 10 3 11 4 12 5 13 6 14 7 15 8 16 9 7 10 6 11 5 12
REMARK SMILES IDX 4 13 3 14 2 15 1 16
REMARK H PARENT
REMARK Flexibility Score: inf
ROOT
ATOM      1  C   UNL     1     130.926 142.913 140.272  1.00  0.00     0.000 C 
ENDROOT
BRANCH   1   2
ATOM      2  C   UNL     1     131.548 141.823 139.376  1.00  0.00     0.000 C 
BRANCH   2   3
ATOM      3  C   UNL     1     130.539 141.167 138.409  1.00  0.00     0.000 C 
BRANCH   3   4
ATOM      4  C   UNL     1     129.340 140.549 139.151  1.00  0.00     0.000 C 
BRANCH   4   5
ATOM      5  C   UNL     1     129.343 139.014 139.106  1.00  0.00     0.006 C 
BRANCH   5   6
ATOM      6  C   UNL     1     129.080 138.381 140.478  1.00  0.00     0.053 C 
BRANCH   6   7
ATOM      7  C   UNL     1     128.235 137.154 140.335  1.00  0.00     0.041 C 
ATOM      8  O   UNL     1     126.981 137.250 140.296  1.00  0.00    -0.550 OA
ATOM      9  O   UNL     1     128.832 135.900 140.293  1.00  0.00    -0.550 OA
ENDBRANCH   6   7
ENDBRANCH   5   6
ENDBRANCH   4   5
ENDBRANCH   3   4
ENDBRANCH   2   3
ENDBRANCH   1   2
BRANCH   1  10
ATOM     10  C   UNL     1     131.031 142.643 141.783  1.00  0.00     0.000 C 
BRANCH  10  11
ATOM     11  C   UNL     1     131.731 141.322 142.158  1.00  0.00    -0.000 C 
BRANCH  11  12
ATOM     12  C   UNL     1     131.265 140.734 143.508  1.00  0.00    -0.000 C 
BRANCH  12  13
ATOM     13  C   UNL     1     130.786 141.824 144.482  1.00  0.00    -0.000 C 
BRANCH  13  14
ATOM     14  C   UNL     1     130.629 141.303 145.920  1.00  0.00    -0.000 C 
BRANCH  14  15
ATOM     15  C   UNL     1     129.170 140.962 146.266  1.00  0.00    -0.003 C 
ATOM     16  C   UNL     1     128.919 139.461 146.167  1.00  0.00     0.004 C 
ENDBRANCH  14  15
ENDBRANCH  13  14
ENDBRANCH  12  13
ENDBRANCH  11  12
ENDBRANCH  10  11
ENDBRANCH   1  10
TORSDOF 12
ENDMDL
MODEL 2
REMARK VINA RESULT:    -3.669      2.954      4.418
REMARK INTER + INTRA:          -7.246
REMARK INTER:                  -5.624
REMARK INTRA:                  -1.622
REMARK UNBOUND:                -1.003
REMARK SMILES CCCCCCCCCCCCCC(=O)[O-]
REMARK SMILES IDX 8 1 9 2 10 3 11 4 12 5 13 6 14 7 15 8 16 9 7 10 6 11 5 12
REMARK SMILES IDX 4 13 3 14 2 15 1 16
REMARK H PARENT
REMARK Flexibility Score: inf
ROOT
ATOM      1  C   UNL     1     130.639 143.252 137.164  1.00  0.00     0.000 C 
ENDROOT
BRANCH   1   2
ATOM      2  C   UNL     1     130.251 141.950 137.893  1.00  0.00     0.000 C 
BRANCH   2   3
ATOM      3  C   UNL     1     131.409 140.935 138.006  1.00  0.00     0.000 C 
BRANCH   3   4
ATOM      4  C   UNL     1     130.948 139.588 138.589  1.00  0.00     0.000 C 
BRANCH   4   5
ATOM      5  C   UNL     1     129.993 139.754 139.781  1.00  0.00     0.006 C 
BRANCH   5   6
ATOM      6  C   UNL     1     128.672 138.999 139.591  1.00  0.00     0.053 C 
BRANCH   6   7
ATOM      7  C   UNL     1     128.665 137.745 140.408  1.00  0.00     0.041 C 
ATOM      8  O   UNL     1     127.745 136.899 140.261  1.00  0.00    -0.550 OA
ATOM      9  O   UNL     1     129.649 137.535 141.367  1.00  0.00    -0.550 OA
ENDBRANCH   6   7
ENDBRANCH   5   6
ENDBRANCH   4   5
ENDBRANCH   3   4
ENDBRANCH   2   3
ENDBRANCH   1   2
BRANCH   1  10
ATOM     10  C   UNL     1     132.057 143.257 136.565  1.00  0.00     0.000 C 
BRANCH  10  11
ATOM     11  C   UNL     1     133.042 144.230 137.241  1.00  0.00    -0.000 C 
BRANCH  11  12
ATOM     12  C   UNL     1     133.986 143.550 138.257  1.00  0.00    -0.000 C 
BRANCH  12  13
ATOM     13  C   UNL     1     133.834 144.133 139.673  1.00  0.00    -0.000 C 
BRANCH  13  14
ATOM     14  C   UNL     1     132.455 144.770 139.904  1.00  0.00    -0.000 C 
BRANCH  14  15
ATOM     15  C   UNL     1     131.535 143.885 140.760  1.00  0.00    -0.003 C 
ATOM     16  C   UNL     1     132.262 142.627 141.226  1.00  0.00     0.004 C 
ENDBRANCH  14  15
ENDBRANCH  13  14
ENDBRANCH  12  13
ENDBRANCH  11  12
ENDBRANCH  10  11
ENDBRANCH   1  10
TORSDOF 12
ENDMDL
MODEL 3
REMARK VINA RESULT:    -3.559      3.702      5.730
REMARK INTER + INTRA:          -7.059
REMARK INTER:                  -5.348
REMARK INTRA:                  -1.710
REMARK UNBOUND:                -1.003
REMARK SMILES CCCCCCCCCCCCCC(=O)[O-]
REMARK SMILES IDX 8 1 9 2 10 3 11 4 12 5 13 6 14 7 15 8 16 9 7 10 6 11 5 12
REMARK SMILES IDX 4 13 3 14 2 15 1 16
REMARK H PARENT
REMARK Flexibility Score: inf
ROOT
ATOM      1  C   UNL     1     130.894 140.649 138.976  1.00  0.00     0.000 C 
ENDROOT
BRANCH   1   2
ATOM      2  C   UNL     1     131.729 141.114 140.186  1.00  0.00     0.000 C 
BRANCH   2   3
ATOM      3  C   UNL     1     130.987 142.111 141.103  1.00  0.00     0.000 C 
BRANCH   3   4
ATOM      4  C   UNL     1     131.717 143.462 141.205  1.00  0.00     0.000 C 
BRANCH   4   5
ATOM      5  C   UNL     1     131.485 144.354 139.975  1.00  0.00     0.006 C 
BRANCH   5   6
ATOM      6  C   UNL     1     132.794 144.851 139.350  1.00  0.00     0.053 C 
BRANCH   6   7
ATOM      7  C   UNL     1     133.295 143.870 138.337  1.00  0.00     0.041 C 
ATOM      8  O   UNL     1     132.542 143.481 137.406  1.00  0.00    -0.550 OA
ATOM      9  O   UNL     1     134.577 143.348 138.449  1.00  0.00    -0.550 OA
ENDBRANCH   6   7
ENDBRANCH   5   6
ENDBRANCH   4   5
ENDBRANCH   3   4
ENDBRANCH   2   3
ENDBRANCH   1   2
BRANCH   1  10
ATOM     10  C   UNL     1     129.406 141.039 139.031  1.00  0.00     0.000 C 
BRANCH  10  11
ATOM     11  C   UNL     1     128.450 139.892 139.409  1.00  0.00    -0.000 C 
BRANCH  11  12
ATOM     12  C   UNL     1     129.122 138.501 139.417  1.00  0.00    -0.000 C 
BRANCH  12  13
ATOM     13  C   UNL     1     129.090 137.848 140.809  1.00  0.00    -0.000 C 
BRANCH  13  14
ATOM     14  C   UNL     1     130.441 137.941 141.536  1.00  0.00    -0.000 C 
BRANCH  14  15
ATOM     15  C   UNL     1     130.304 138.489 142.965  1.00  0.00    -0.003 C 
ATOM     16  C   UNL     1     131.575 139.211 143.401  1.00  0.00     0.004 C 
ENDBRANCH  14  15
ENDBRANCH  13  14
ENDBRANCH  12  13
ENDBRANCH  11  12
ENDBRANCH  10  11
ENDBRANCH   1  10
TORSDOF 12
ENDMDL
MODEL 4
REMARK VINA RESULT:    -3.487      2.154      3.786
REMARK INTER + INTRA:          -6.937
REMARK INTER:                  -5.536
REMARK INTRA:                  -1.401
REMARK UNBOUND:                -1.003
REMARK SMILES CCCCCCCCCCCCCC(=O)[O-]
REMARK SMILES IDX 8 1 9 2 10 3 11 4 12 5 13 6 14 7 15 8 16 9 7 10 6 11 5 12
REMARK SMILES IDX 4 13 3 14 2 15 1 16
REMARK H PARENT
REMARK Flexibility Score: inf
ROOT
ATOM      1  C   UNL     1     132.571 143.005 136.936  1.00  0.00     0.000 C 
ENDROOT
BRANCH   1   2
ATOM      2  C   UNL     1     131.123 143.333 136.520  1.00  0.00     0.000 C 
BRANCH   2   3
ATOM      3  C   UNL     1     130.057 142.727 137.458  1.00  0.00     0.000 C 
BRANCH   3   4
ATOM      4  C   UNL     1     130.537 141.422 138.118  1.00  0.00     0.000 C 
BRANCH   4   5
ATOM      5  C   UNL     1     129.532 140.873 139.142  1.00  0.00     0.006 C 
BRANCH   5   6
ATOM      6  C   UNL     1     129.315 139.361 139.006  1.00  0.00     0.053 C 
BRANCH   6   7
ATOM      7  C   UNL     1     129.657 138.667 140.288  1.00  0.00     0.041 C 
ATOM      8  O   UNL     1     130.800 138.802 140.796  1.00  0.00    -0.550 OA
ATOM      9  O   UNL     1     128.727 137.832 140.895  1.00  0.00    -0.550 OA
ENDBRANCH   6   7
ENDBRANCH   5   6
ENDBRANCH   4   5
ENDBRANCH   3   4
ENDBRANCH   2   3
ENDBRANCH   1   2
BRANCH   1  10
ATOM     10  C   UNL     1     133.424 144.226 137.321  1.00  0.00     0.000 C 
BRANCH  10  11
ATOM     11  C   UNL     1     133.191 144.754 138.750  1.00  0.00    -0.000 C 
BRANCH  11  12
ATOM     12  C   UNL     1     133.131 143.643 139.820  1.00  0.00    -0.000 C 
BRANCH  12  13
ATOM     13  C   UNL     1     132.398 144.100 141.093  1.00  0.00    -0.000 C 
BRANCH  13  14
ATOM     14  C   UNL     1     131.114 143.298 141.356  1.00  0.00    -0.000 C 
BRANCH  14  15
ATOM     15  C   UNL     1     131.374 142.021 142.170  1.00  0.00    -0.003 C 
ATOM     16  C   UNL     1     131.213 142.281 143.665  1.00  0.00     0.004 C 
ENDBRANCH  14  15
ENDBRANCH  13  14
ENDBRANCH  12  13
ENDBRANCH  11  12
ENDBRANCH  10  11
ENDBRANCH   1  10
TORSDOF 12
ENDMDL
MODEL 5
REMARK VINA RESULT:    -3.455      3.186      4.489
REMARK INTER + INTRA:          -6.882
REMARK INTER:                  -5.595
REMARK INTRA:                  -1.287
REMARK UNBOUND:                -1.003
REMARK SMILES CCCCCCCCCCCCCC(=O)[O-]
REMARK SMILES IDX 8 1 9 2 10 3 11 4 12 5 13 6 14 7 15 8 16 9 7 10 6 11 5 12
REMARK SMILES IDX 4 13 3 14 2 15 1 16
REMARK H PARENT
REMARK Flexibility Score: inf
ROOT
ATOM      1  C   UNL     1     129.032 137.604 140.412  1.00  0.00     0.000 C 
ENDROOT
BRANCH   1   2
ATOM      2  C   UNL     1     129.182 138.561 139.213  1.00  0.00     0.000 C 
BRANCH   2   3
ATOM      3  C   UNL     1     128.612 139.972 139.473  1.00  0.00     0.000 C 
BRANCH   3   4
ATOM      4  C   UNL     1     129.533 141.081 138.934  1.00  0.00     0.000 C 
BRANCH   4   5
ATOM      5  C   UNL     1     130.817 141.239 139.764  1.00  0.00     0.006 C 
BRANCH   5   6
ATOM      6  C   UNL     1     130.676 142.280 140.881  1.00  0.00     0.053 C 
BRANCH   6   7
ATOM      7  C   UNL     1     131.386 143.544 140.509  1.00  0.00     0.041 C 
ATOM      8  O   UNL     1     131.370 143.953 139.319  1.00  0.00    -0.550 OA
ATOM      9  O   UNL     1     132.106 144.244 141.469  1.00  0.00    -0.550 OA
ENDBRANCH   6   7
ENDBRANCH   5   6
ENDBRANCH   4   5
ENDBRANCH   3   4
ENDBRANCH   2   3
ENDBRANCH   1   2
BRANCH   1  10
ATOM     10  C   UNL     1     129.618 138.129 141.734  1.00  0.00     0.000 C 
BRANCH  10  11
ATOM     11  C   UNL     1     131.157 138.114 141.811  1.00  0.00    -0.000 C 
BRANCH  11  12
ATOM     12  C   UNL     1     131.720 138.751 143.101  1.00  0.00    -0.000 C 
BRANCH  12  13
ATOM     13  C   UNL     1     130.872 139.942 143.579  1.00  0.00    -0.000 C 
BRANCH  13  14
ATOM     14  C   UNL     1     131.125 140.292 145.054  1.00  0.00    -0.000 C 
BRANCH  14  15
ATOM     15  C   UNL     1     129.847 140.744 145.779  1.00  0.00    -0.003 C 
ATOM     16  C   UNL     1     128.935 139.557 146.074  1.00  0.00     0.004 C 
ENDBRANCH  14  15
ENDBRANCH  13  14
ENDBRANCH  12  13
ENDBRANCH  11  12
ENDBRANCH  10  11
ENDBRANCH   1  10
TORSDOF 12
ENDMDL
MODEL 6
REMARK VINA RESULT:    -3.437      6.879     10.600
REMARK INTER + INTRA:          -6.850
REMARK INTER:                  -5.331
REMARK INTRA:                  -1.519
REMARK UNBOUND:                -1.003
REMARK SMILES CCCCCCCCCCCCCC(=O)[O-]
REMARK SMILES IDX 8 1 9 2 10 3 11 4 12 5 13 6 14 7 15 8 16 9 7 10 6 11 5 12
REMARK SMILES IDX 4 13 3 14 2 15 1 16
REMARK H PARENT
REMARK Flexibility Score: inf
ROOT
ATOM      1  C   UNL     1     134.665 143.196 133.063  1.00  0.00     0.000 C 
ENDROOT
BRANCH   1   2
ATOM      2  C   UNL     1     133.282 142.884 133.668  1.00  0.00     0.000 C 
BRANCH   2   3
ATOM      3  C   UNL     1     132.276 144.048 133.545  1.00  0.00     0.000 C 
BRANCH   3   4
ATOM      4  C   UNL     1     131.221 144.027 134.666  1.00  0.00     0.000 C 
BRANCH   4   5
ATOM      5  C   UNL     1     131.818 143.662 136.034  1.00  0.00     0.006 C 
BRANCH   5   6
ATOM      6  C   UNL     1     130.749 143.279 137.063  1.00  0.00     0.053 C 
BRANCH   6   7
ATOM      7  C   UNL     1     131.051 141.939 137.657  1.00  0.00     0.041 C 
ATOM      8  O   UNL     1     130.259 141.420 138.486  1.00  0.00    -0.550 OA
ATOM      9  O   UNL     1     132.233 141.285 137.331  1.00  0.00    -0.550 OA
ENDBRANCH   6   7
ENDBRANCH   5   6
ENDBRANCH   4   5
ENDBRANCH   3   4
ENDBRANCH   2   3
ENDBRANCH   1   2
BRANCH   1  10
ATOM     10  C   UNL     1     134.895 142.628 131.651  1.00  0.00     0.000 C 
BRANCH  10  11
ATOM     11  C   UNL     1     134.684 143.638 130.506  1.00  0.00    -0.000 C 
BRANCH  11  12
ATOM     12  C   UNL     1     133.653 143.176 129.453  1.00  0.00    -0.000 C 
BRANCH  12  13
ATOM     13  C   UNL     1     132.206 143.461 129.893  1.00  0.00    -0.000 C 
BRANCH  13  14
ATOM     14  C   UNL     1     131.289 142.238 129.732  1.00  0.00    -0.000 C 
BRANCH  14  15
ATOM     15  C   UNL     1     131.098 141.469 131.049  1.00  0.00    -0.003 C 
ATOM     16  C   UNL     1     132.030 140.263 131.121  1.00  0.00     0.004 C 
ENDBRANCH  14  15
ENDBRANCH  13  14
ENDBRANCH  12  13
ENDBRANCH  11  12
ENDBRANCH  10  11
ENDBRANCH   1  10
TORSDOF 12
ENDMDL
MODEL 7
REMARK VINA RESULT:    -3.431      2.158      3.780
REMARK INTER + INTRA:          -6.840
REMARK INTER:                  -4.996
REMARK INTRA:                  -1.844
REMARK UNBOUND:                -1.003
REMARK SMILES CCCCCCCCCCCCCC(=O)[O-]
REMARK SMILES IDX 8 1 9 2 10 3 11 4 12 5 13 6 14 7 15 8 16 9 7 10 6 11 5 12
REMARK SMILES IDX 4 13 3 14 2 15 1 16
REMARK H PARENT
REMARK Flexibility Score: inf
ROOT
ATOM      1  C   UNL     1     133.637 141.631 138.394  1.00  0.00     0.000 C 
ENDROOT
BRANCH   1   2
ATOM      2  C   UNL     1     132.919 140.357 137.906  1.00  0.00     0.000 C 
BRANCH   2   3
ATOM      3  C   UNL     1     131.897 139.796 138.918  1.00  0.00     0.000 C 
BRANCH   3   4
ATOM      4  C   UNL     1     130.445 139.982 138.443  1.00  0.00     0.000 C 
BRANCH   4   5
ATOM      5  C   UNL     1     129.421 139.756 139.566  1.00  0.00     0.006 C 
BRANCH   5   6
ATOM      6  C   UNL     1     129.815 138.610 140.506  1.00  0.00     0.053 C 
BRANCH   6   7
ATOM      7  C   UNL     1     128.765 137.544 140.498  1.00  0.00     0.041 C 
ATOM      8  O   UNL     1     129.085 136.338 140.667  1.00  0.00    -0.550 OA
ATOM      9  O   UNL     1     127.438 137.877 140.255  1.00  0.00    -0.550 OA
ENDBRANCH   6   7
ENDBRANCH   5   6
ENDBRANCH   4   5
ENDBRANCH   3   4
ENDBRANCH   2   3
ENDBRANCH   1   2
BRANCH   1  10
ATOM     10  C   UNL     1     133.568 142.823 137.423  1.00  0.00     0.000 C 
BRANCH  10  11
ATOM     11  C   UNL     1     132.813 144.054 137.961  1.00  0.00    -0.000 C 
BRANCH  11  12
ATOM     12  C   UNL     1     131.446 143.715 138.594  1.00  0.00    -0.000 C 
BRANCH  12  13
ATOM     13  C   UNL     1     131.401 144.048 140.095  1.00  0.00    -0.000 C 
BRANCH  13  14
ATOM     14  C   UNL     1     131.000 142.840 140.956  1.00  0.00    -0.000 C 
BRANCH  14  15
ATOM     15  C   UNL     1     132.157 142.330 141.829  1.00  0.00    -0.003 C 
ATOM     16  C   UNL     1     131.782 141.030 142.534  1.00  0.00     0.004 C 
ENDBRANCH  14  15
ENDBRANCH  13  14
ENDBRANCH  12  13
ENDBRANCH  11  12
ENDBRANCH  10  11
ENDBRANCH   1  10
TORSDOF 12
ENDMDL
MODEL 8
REMARK VINA RESULT:    -3.419      2.930      4.254
REMARK INTER + INTRA:          -6.820
REMARK INTER:                  -5.828
REMARK INTRA:                  -0.992
REMARK UNBOUND:                -1.003
REMARK SMILES CCCCCCCCCCCCCC(=O)[O-]
REMARK SMILES IDX 8 1 9 2 10 3 11 4 12 5 13 6 14 7 15 8 16 9 7 10 6 11 5 12
REMARK SMILES IDX 4 13 3 14 2 15 1 16
REMARK H PARENT
REMARK Flexibility Score: inf
ROOT
ATOM      1  C   UNL     1     130.807 138.346 141.389  1.00  0.00     0.000 C 
ENDROOT
BRANCH   1   2
ATOM      2  C   UNL     1     129.435 137.728 141.055  1.00  0.00     0.000 C 
BRANCH   2   3
ATOM      3  C   UNL     1     128.680 138.469 139.931  1.00  0.00     0.000 C 
BRANCH   3   4
ATOM      4  C   UNL     1     129.614 139.351 139.085  1.00  0.00     0.000 C 
BRANCH   4   5
ATOM      5  C   UNL     1     129.258 140.843 139.169  1.00  0.00     0.006 C 
BRANCH   5   6
ATOM      6  C   UNL     1     130.407 141.696 139.718  1.00  0.00     0.053 C 
BRANCH   6   7
ATOM      7  C   UNL     1     131.184 142.310 138.596  1.00  0.00     0.041 C 
ATOM      8  O   UNL     1     130.677 142.396 137.447  1.00  0.00    -0.550 OA
ATOM      9  O   UNL     1     132.488 142.741 138.807  1.00  0.00    -0.550 OA
ENDBRANCH   6   7
ENDBRANCH   5   6
ENDBRANCH   4   5
ENDBRANCH   3   4
ENDBRANCH   2   3
ENDBRANCH   1   2
BRANCH   1  10
ATOM     10  C   UNL     1     130.870 139.089 142.735  1.00  0.00     0.000 C 
BRANCH  10  11
ATOM     11  C   UNL     1     130.368 138.279 143.945  1.00  0.00    -0.000 C 
BRANCH  11  12
ATOM     12  C   UNL     1     130.931 138.770 145.297  1.00  0.00    -0.000 C 
BRANCH  12  13
ATOM     13  C   UNL     1     129.825 139.278 146.238  1.00  0.00    -0.000 C 
BRANCH  13  14
ATOM     14  C   UNL     1     129.332 140.685 145.864  1.00  0.00    -0.000 C 
BRANCH  14  15
ATOM     15  C   UNL     1     130.483 141.628 145.480  1.00  0.00    -0.003 C 
ATOM     16  C   UNL     1     131.190 142.165 146.722  1.00  0.00     0.004 C 
ENDBRANCH  14  15
ENDBRANCH  13  14
ENDBRANCH  12  13
ENDBRANCH  11  12
ENDBRANCH  10  11
ENDBRANCH   1  10
TORSDOF 12
ENDMDL
MODEL 9
REMARK VINA RESULT:    -3.404      2.668      4.951
REMARK INTER + INTRA:          -6.795
REMARK INTER:                  -5.414
REMARK INTRA:                  -1.380
REMARK UNBOUND:                -1.003
REMARK SMILES CCCCCCCCCCCCCC(=O)[O-]
REMARK SMILES IDX 8 1 9 2 10 3 11 4 12 5 13 6 14 7 15 8 16 9 7 10 6 11 5 12
REMARK SMILES IDX 4 13 3 14 2 15 1 16
REMARK H PARENT
REMARK Flexibility Score: inf
ROOT
ATOM      1  C   UNL     1     132.202 141.083 140.387  1.00  0.00     0.000 C 
ENDROOT
BRANCH   1   2
ATOM      2  C   UNL     1     131.623 140.031 139.420  1.00  0.00     0.000 C 
BRANCH   2   3
ATOM      3  C   UNL     1     130.430 140.547 138.586  1.00  0.00     0.000 C 
BRANCH   3   4
ATOM      4  C   UNL     1     129.079 140.062 139.140  1.00  0.00     0.000 C 
BRANCH   4   5
ATOM      5  C   UNL     1     128.976 138.530 139.191  1.00  0.00     0.006 C 
BRANCH   5   6
ATOM      6  C   UNL     1     128.457 138.015 140.539  1.00  0.00     0.053 C 
BRANCH   6   7
ATOM      7  C   UNL     1     129.594 137.545 141.391  1.00  0.00     0.041 C 
ATOM      8  O   UNL     1     129.942 136.335 141.371  1.00  0.00    -0.550 OA
ATOM      9  O   UNL     1     130.238 138.433 142.244  1.00  0.00    -0.550 OA
ENDBRANCH   6   7
ENDBRANCH   5   6
ENDBRANCH   4   5
ENDBRANCH   3   4
ENDBRANCH   2   3
ENDBRANCH   1   2
BRANCH   1  10
ATOM     10  C   UNL     1     131.173 141.721 141.337  1.00  0.00     0.000 C 
BRANCH  10  11
ATOM     11  C   UNL     1     131.164 143.262 141.341  1.00  0.00    -0.000 C 
BRANCH  11  12
ATOM     12  C   UNL     1     132.501 143.891 140.892  1.00  0.00    -0.000 C 
BRANCH  12  13
ATOM     13  C   UNL     1     132.345 144.742 139.620  1.00  0.00    -0.000 C 
BRANCH  13  14
ATOM     14  C   UNL     1     133.028 144.107 138.398  1.00  0.00    -0.000 C 
BRANCH  14  15
ATOM     15  C   UNL     1     132.017 143.575 137.370  1.00  0.00    -0.003 C 
ATOM     16  C   UNL     1     132.661 143.426 135.994  1.00  0.00     0.004 C 
ENDBRANCH  14  15
ENDBRANCH  13  14
ENDBRANCH  12  13
ENDBRANCH  11  12
ENDBRANCH  10  11
ENDBRANCH   1  10
TORSDOF 12
ENDMDL
