MODEL 1
REMARK VINA RESULT:    -6.341      0.000      0.000
REMARK INTER + INTRA:          -7.813
REMARK INTER:                  -7.638
REMARK INTRA:                  -0.175
REMARK UNBOUND:                -0.175
REMARK SMILES Oc1cc(O)c2cc(O)c(-c3ccc(O)c(O)c3)[o+]c2c1
REMARK SMILES IDX 10 1 19 2 20 3 21 4 2 5 3 6 4 7 6 8 7 9 8 10 11 11 12 12
REMARK SMILES IDX 13 13 14 14 18 15 16 16 15 17 17 19 9 21 1 23 5 25
REMARK H PARENT 15 18 17 20 9 22 1 24 5 26
REMARK Flexibility Score: inf
ROOT
ATOM      1  C   UNL     1     -17.067  -2.506 -28.648  1.00  0.00     0.402 A 
ATOM      2  O   UNL     1     -17.717  -1.491 -28.086  1.00  0.00    -0.202 OA
ATOM      3  C   UNL     1     -18.777  -0.909 -28.636  1.00  0.00     0.368 A 
ATOM      4  C   UNL     1     -19.392   0.154 -27.969  1.00  0.00     0.162 A 
ATOM      5  C   UNL     1     -20.507   0.787 -28.527  1.00  0.00     0.128 A 
ATOM      6  C   UNL     1     -21.008   0.355 -29.757  1.00  0.00     0.093 A 
ATOM      7  C   UNL     1     -20.410  -0.708 -30.445  1.00  0.00     0.136 A 
ATOM      8  C   UNL     1     -19.280  -1.355 -29.881  1.00  0.00     0.125 A 
ATOM      9  C   UNL     1     -18.625  -2.436 -30.494  1.00  0.00     0.078 A 
ATOM     10  C   UNL     1     -17.519  -3.026 -29.875  1.00  0.00     0.223 A 
ENDROOT
BRANCH   1  11
ATOM     11  C   UNL     1     -15.892  -3.064 -27.940  1.00  0.00     0.087 A 
ATOM     12  C   UNL     1     -15.879  -4.391 -27.476  1.00  0.00     0.022 A 
ATOM     13  C   UNL     1     -14.750  -4.902 -26.831  1.00  0.00     0.051 A 
ATOM     14  C   UNL     1     -13.613  -4.101 -26.651  1.00  0.00     0.157 A 
ATOM     15  C   UNL     1     -14.744  -2.272 -27.777  1.00  0.00     0.068 A 
ATOM     16  C   UNL     1     -13.611  -2.780 -27.130  1.00  0.00     0.158 A 
BRANCH  14  17
ATOM     17  O   UNL     1     -12.490  -4.614 -26.006  1.00  0.00    -0.504 OA
ATOM     18  H   UNL     1     -12.475  -4.764 -25.004  1.00  0.00     0.293 HD
ENDBRANCH  14  17
BRANCH  16  19
ATOM     19  O   UNL     1     -12.494  -1.960 -26.975  1.00  0.00    -0.504 OA
ATOM     20  H   UNL     1     -11.555  -2.336 -26.916  1.00  0.00     0.293 HD
ENDBRANCH  16  19
ENDBRANCH   1  11
BRANCH  10  21
ATOM     21  O   UNL     1     -16.899  -4.133 -30.457  1.00  0.00    -0.500 OA
ATOM     22  H   UNL     1     -17.334  -5.048 -30.456  1.00  0.00     0.294 HD
ENDBRANCH  10  21
BRANCH   5  23
ATOM     23  O   UNL     1     -21.125   1.848 -27.868  1.00  0.00    -0.507 OA
ATOM     24  H   UNL     1     -20.587   2.601 -27.457  1.00  0.00     0.293 HD
ENDBRANCH   5  23
BRANCH   7  25
ATOM     25  O   UNL     1     -20.972  -1.078 -31.671  1.00  0.00    -0.507 OA
ATOM     26  H   UNL     1     -20.438  -1.283 -32.503  1.00  0.00     0.293 HD
ENDBRANCH   7  25
TORSDOF 6
ENDMDL
MODEL 2
REMARK VINA RESULT:    -6.127      2.752      6.812
REMARK INTER + INTRA:          -7.555
REMARK INTER:                  -7.211
REMARK INTRA:                  -0.344
REMARK UNBOUND:                -0.175
REMARK SMILES Oc1cc(O)c2cc(O)c(-c3ccc(O)c(O)c3)[o+]c2c1
REMARK SMILES IDX 10 1 19 2 20 3 21 4 2 5 3 6 4 7 6 8 7 9 8 10 11 11 12 12
REMARK SMILES IDX 13 13 14 14 18 15 16 16 15 17 17 19 9 21 1 23 5 25
REMARK H PARENT 15 18 17 20 9 22 1 24 5 26
REMARK Flexibility Score: inf
ROOT
ATOM      1  C   UNL     1     -16.310  -3.228 -30.017  1.00  0.00     0.402 A 
ATOM      2  O   UNL     1     -15.521  -2.289 -30.531  1.00  0.00    -0.202 OA
ATOM      3  C   UNL     1     -14.455  -1.805 -29.901  1.00  0.00     0.368 A 
ATOM      4  C   UNL     1     -13.688  -0.817 -30.522  1.00  0.00     0.162 A 
ATOM      5  C   UNL     1     -12.565  -0.288 -29.880  1.00  0.00     0.128 A 
ATOM      6  C   UNL     1     -12.208  -0.750 -28.612  1.00  0.00     0.093 A 
ATOM      7  C   UNL     1     -12.960  -1.741 -27.967  1.00  0.00     0.136 A 
ATOM      8  C   UNL     1     -14.100  -2.282 -28.616  1.00  0.00     0.125 A 
ATOM      9  C   UNL     1     -14.905  -3.285 -28.053  1.00  0.00     0.078 A 
ATOM     10  C   UNL     1     -16.010  -3.773 -28.755  1.00  0.00     0.223 A 
ENDROOT
BRANCH   1  11
ATOM     11  C   UNL     1     -17.475  -3.678 -30.814  1.00  0.00     0.087 A 
ATOM     12  C   UNL     1     -17.355  -4.701 -31.771  1.00  0.00     0.022 A 
ATOM     13  C   UNL     1     -18.472  -5.125 -32.495  1.00  0.00     0.051 A 
ATOM     14  C   UNL     1     -19.727  -4.544 -32.265  1.00  0.00     0.157 A 
ATOM     15  C   UNL     1     -18.737  -3.114 -30.573  1.00  0.00     0.068 A 
ATOM     16  C   UNL     1     -19.859  -3.535 -31.296  1.00  0.00     0.158 A 
BRANCH  14  17
ATOM     17  O   UNL     1     -20.839  -4.968 -32.990  1.00  0.00    -0.504 OA
ATOM     18  H   UNL     1     -21.252  -5.882 -32.844  1.00  0.00     0.293 HD
ENDBRANCH  14  17
BRANCH  16  19
ATOM     19  O   UNL     1     -21.094  -2.942 -31.037  1.00  0.00    -0.504 OA
ATOM     20  H   UNL     1     -21.242  -2.332 -30.241  1.00  0.00     0.293 HD
ENDBRANCH  16  19
ENDBRANCH   1  11
BRANCH  10  21
ATOM     21  O   UNL     1     -16.781  -4.806 -28.218  1.00  0.00    -0.500 OA
ATOM     22  H   UNL     1     -17.726  -4.985 -28.536  1.00  0.00     0.294 HD
ENDBRANCH  10  21
BRANCH   5  23
ATOM     23  O   UNL     1     -11.794   0.698 -30.494  1.00  0.00    -0.507 OA
ATOM     24  H   UNL     1     -11.831   1.664 -30.190  1.00  0.00     0.293 HD
ENDBRANCH   5  23
BRANCH   7  25
ATOM     25  O   UNL     1     -12.537  -2.146 -26.698  1.00  0.00    -0.507 OA
ATOM     26  H   UNL     1     -13.154  -2.300 -25.914  1.00  0.00     0.293 HD
ENDBRANCH   7  25
TORSDOF 6
ENDMDL
MODEL 3
REMARK VINA RESULT:    -5.770      3.931      6.404
REMARK INTER + INTRA:          -7.125
REMARK INTER:                  -6.791
REMARK INTRA:                  -0.334
REMARK UNBOUND:                -0.175
REMARK SMILES Oc1cc(O)c2cc(O)c(-c3ccc(O)c(O)c3)[o+]c2c1
REMARK SMILES IDX 10 1 19 2 20 3 21 4 2 5 3 6 4 7 6 8 7 9 8 10 11 11 12 12
REMARK SMILES IDX 13 13 14 14 18 15 16 16 15 17 17 19 9 21 1 23 5 25
REMARK H PARENT 15 18 17 20 9 22 1 24 5 26
REMARK Flexibility Score: inf
ROOT
ATOM      1  C   UNL     1     -14.677  -3.074 -30.961  1.00  0.00     0.402 A 
ATOM      2  O   UNL     1     -13.915  -3.316 -29.898  1.00  0.00    -0.202 OA
ATOM      3  C   UNL     1     -14.269  -2.997 -28.658  1.00  0.00     0.368 A 
ATOM      4  C   UNL     1     -13.397  -3.289 -27.605  1.00  0.00     0.162 A 
ATOM      5  C   UNL     1     -13.743  -2.961 -26.291  1.00  0.00     0.128 A 
ATOM      6  C   UNL     1     -14.964  -2.337 -26.029  1.00  0.00     0.093 A 
ATOM      7  C   UNL     1     -15.856  -2.033 -27.066  1.00  0.00     0.136 A 
ATOM      8  C   UNL     1     -15.510  -2.367 -28.402  1.00  0.00     0.125 A 
ATOM      9  C   UNL     1     -16.346  -2.112 -29.501  1.00  0.00     0.078 A 
ATOM     10  C   UNL     1     -15.939  -2.474 -30.789  1.00  0.00     0.223 A 
ENDROOT
BRANCH   1  11
ATOM     11  C   UNL     1     -14.167  -3.469 -32.294  1.00  0.00     0.087 A 
ATOM     12  C   UNL     1     -14.317  -4.781 -32.776  1.00  0.00     0.022 A 
ATOM     13  C   UNL     1     -13.848  -5.125 -34.046  1.00  0.00     0.051 A 
ATOM     14  C   UNL     1     -13.235  -4.162 -34.859  1.00  0.00     0.157 A 
ATOM     15  C   UNL     1     -13.571  -2.503 -33.120  1.00  0.00     0.068 A 
ATOM     16  C   UNL     1     -13.099  -2.843 -34.393  1.00  0.00     0.158 A 
BRANCH  14  17
ATOM     17  O   UNL     1     -12.766  -4.508 -36.125  1.00  0.00    -0.504 OA
ATOM     18  H   UNL     1     -11.858  -4.938 -36.256  1.00  0.00     0.293 HD
ENDBRANCH  14  17
BRANCH  16  19
ATOM     19  O   UNL     1     -12.501  -1.859 -35.179  1.00  0.00    -0.504 OA
ATOM     20  H   UNL     1     -11.509  -1.865 -35.386  1.00  0.00     0.293 HD
ENDBRANCH  16  19
ENDBRANCH   1  11
BRANCH  10  21
ATOM     21  O   UNL     1     -16.789  -2.268 -31.876  1.00  0.00    -0.500 OA
ATOM     22  H   UNL     1     -16.694  -2.799 -32.734  1.00  0.00     0.294 HD
ENDBRANCH  10  21
BRANCH   5  23
ATOM     23  O   UNL     1     -12.879  -3.250 -25.236  1.00  0.00    -0.507 OA
ATOM     24  H   UNL     1     -12.465  -4.168 -25.128  1.00  0.00     0.293 HD
ENDBRANCH   5  23
BRANCH   7  25
ATOM     25  O   UNL     1     -17.056  -1.407 -26.720  1.00  0.00    -0.507 OA
ATOM     26  H   UNL     1     -17.339  -0.495 -27.049  1.00  0.00     0.293 HD
ENDBRANCH   7  25
TORSDOF 6
ENDMDL
MODEL 4
REMARK VINA RESULT:    -5.658      4.049      5.634
REMARK INTER + INTRA:          -6.991
REMARK INTER:                  -6.638
REMARK INTRA:                  -0.353
REMARK UNBOUND:                -0.175
REMARK SMILES Oc1cc(O)c2cc(O)c(-c3ccc(O)c(O)c3)[o+]c2c1
REMARK SMILES IDX 10 1 19 2 20 3 21 4 2 5 3 6 4 7 6 8 7 9 8 10 11 11 12 12
REMARK SMILES IDX 13 13 14 14 18 15 16 16 15 17 17 19 9 21 1 23 5 25
REMARK H PARENT 15 18 17 20 9 22 1 24 5 26
REMARK Flexibility Score: inf
ROOT
ATOM      1  C   UNL     1     -14.612  -2.973 -31.046  1.00  0.00     0.402 A 
ATOM      2  O   UNL     1     -15.882  -2.584 -30.989  1.00  0.00    -0.202 OA
ATOM      3  C   UNL     1     -16.474  -2.186 -29.868  1.00  0.00     0.368 A 
ATOM      4  C   UNL     1     -17.816  -1.798 -29.908  1.00  0.00     0.162 A 
ATOM      5  C   UNL     1     -18.464  -1.379 -28.742  1.00  0.00     0.128 A 
ATOM      6  C   UNL     1     -17.768  -1.349 -27.532  1.00  0.00     0.093 A 
ATOM      7  C   UNL     1     -16.422  -1.733 -27.465  1.00  0.00     0.136 A 
ATOM      8  C   UNL     1     -15.759  -2.156 -28.646  1.00  0.00     0.125 A 
ATOM      9  C   UNL     1     -14.411  -2.546 -28.676  1.00  0.00     0.078 A 
ATOM     10  C   UNL     1     -13.824  -2.948 -29.880  1.00  0.00     0.223 A 
ENDROOT
BRANCH   1  11
ATOM     11  C   UNL     1     -14.069  -3.404 -32.355  1.00  0.00     0.087 A 
ATOM     12  C   UNL     1     -14.128  -4.747 -32.767  1.00  0.00     0.022 A 
ATOM     13  C   UNL     1     -13.631  -5.125 -34.016  1.00  0.00     0.051 A 
ATOM     14  C   UNL     1     -13.079  -4.167 -34.878  1.00  0.00     0.157 A 
ATOM     15  C   UNL     1     -13.535  -2.445 -33.231  1.00  0.00     0.068 A 
ATOM     16  C   UNL     1     -13.035  -2.820 -34.483  1.00  0.00     0.158 A 
BRANCH  14  17
ATOM     17  O   UNL     1     -12.582  -4.549 -36.123  1.00  0.00    -0.504 OA
ATOM     18  H   UNL     1     -12.019  -3.921 -36.685  1.00  0.00     0.293 HD
ENDBRANCH  14  17
BRANCH  16  19
ATOM     19  O   UNL     1     -12.500  -1.841 -35.320  1.00  0.00    -0.504 OA
ATOM     20  H   UNL     1     -12.922  -1.606 -36.211  1.00  0.00     0.293 HD
ENDBRANCH  16  19
ENDBRANCH   1  11
BRANCH  10  21
ATOM     21  O   UNL     1     -12.471  -3.286 -29.920  1.00  0.00    -0.500 OA
ATOM     22  H   UNL     1     -11.910  -3.138 -30.751  1.00  0.00     0.294 HD
ENDBRANCH  10  21
BRANCH   5  23
ATOM     23  O   UNL     1     -19.802  -0.990 -28.775  1.00  0.00    -0.507 OA
ATOM     24  H   UNL     1     -20.419  -1.149 -27.986  1.00  0.00     0.293 HD
ENDBRANCH   5  23
BRANCH   7  25
ATOM     25  O   UNL     1     -15.799  -1.676 -26.216  1.00  0.00    -0.507 OA
ATOM     26  H   UNL     1     -15.781  -0.858 -25.625  1.00  0.00     0.293 HD
ENDBRANCH   7  25
TORSDOF 6
ENDMDL
MODEL 5
REMARK VINA RESULT:    -5.635      3.367      4.172
REMARK INTER + INTRA:          -6.963
REMARK INTER:                  -6.830
REMARK INTRA:                  -0.133
REMARK UNBOUND:                -0.175
REMARK SMILES Oc1cc(O)c2cc(O)c(-c3ccc(O)c(O)c3)[o+]c2c1
REMARK SMILES IDX 10 1 19 2 20 3 21 4 2 5 3 6 4 7 6 8 7 9 8 10 11 11 12 12
REMARK SMILES IDX 13 13 14 14 18 15 16 16 15 17 17 19 9 21 1 23 5 25
REMARK H PARENT 15 18 17 20 9 22 1 24 5 26
REMARK Flexibility Score: inf
ROOT
ATOM      1  C   UNL     1     -16.692  -2.629 -31.514  1.00  0.00     0.402 A 
ATOM      2  O   UNL     1     -17.096  -1.368 -31.390  1.00  0.00    -0.202 OA
ATOM      3  C   UNL     1     -18.213  -1.018 -30.761  1.00  0.00     0.368 A 
ATOM      4  C   UNL     1     -18.556   0.334 -30.685  1.00  0.00     0.162 A 
ATOM      5  C   UNL     1     -19.727   0.730 -30.032  1.00  0.00     0.128 A 
ATOM      6  C   UNL     1     -20.559  -0.231 -29.454  1.00  0.00     0.093 A 
ATOM      7  C   UNL     1     -20.238  -1.593 -29.516  1.00  0.00     0.136 A 
ATOM      8  C   UNL     1     -19.049  -1.999 -30.175  1.00  0.00     0.125 A 
ATOM      9  C   UNL     1     -18.641  -3.340 -30.275  1.00  0.00     0.078 A 
ATOM     10  C   UNL     1     -17.453  -3.663 -30.937  1.00  0.00     0.223 A 
ENDROOT
BRANCH   1  11
ATOM     11  C   UNL     1     -15.432  -2.892 -32.247  1.00  0.00     0.087 A 
ATOM     12  C   UNL     1     -15.273  -2.511 -33.591  1.00  0.00     0.022 A 
ATOM     13  C   UNL     1     -14.067  -2.748 -34.254  1.00  0.00     0.051 A 
ATOM     14  C   UNL     1     -12.998  -3.357 -33.583  1.00  0.00     0.157 A 
ATOM     15  C   UNL     1     -14.351  -3.482 -31.573  1.00  0.00     0.068 A 
ATOM     16  C   UNL     1     -13.141  -3.722 -32.234  1.00  0.00     0.158 A 
BRANCH  14  17
ATOM     17  O   UNL     1     -11.797  -3.593 -34.249  1.00  0.00    -0.504 OA
ATOM     18  H   UNL     1     -10.904  -3.534 -33.772  1.00  0.00     0.293 HD
ENDBRANCH  14  17
BRANCH  16  19
ATOM     19  O   UNL     1     -12.094  -4.322 -31.536  1.00  0.00    -0.504 OA
ATOM     20  H   UNL     1     -11.242  -4.621 -31.995  1.00  0.00     0.293 HD
ENDBRANCH  16  19
ENDBRANCH   1  11
BRANCH  10  21
ATOM     21  O   UNL     1     -17.021  -4.989 -30.993  1.00  0.00    -0.500 OA
ATOM     22  H   UNL     1     -16.838  -5.524 -30.152  1.00  0.00     0.294 HD
ENDBRANCH  10  21
BRANCH   5  23
ATOM     23  O   UNL     1     -20.075   2.077 -29.952  1.00  0.00    -0.507 OA
ATOM     24  H   UNL     1     -20.858   2.453 -30.475  1.00  0.00     0.293 HD
ENDBRANCH   5  23
BRANCH   7  25
ATOM     25  O   UNL     1     -21.125  -2.491 -28.915  1.00  0.00    -0.507 OA
ATOM     26  H   UNL     1     -20.862  -3.399 -28.560  1.00  0.00     0.293 HD
ENDBRANCH   7  25
TORSDOF 6
ENDMDL
MODEL 6
REMARK VINA RESULT:    -5.525      3.304      4.100
REMARK INTER + INTRA:          -6.830
REMARK INTER:                  -6.761
REMARK INTRA:                  -0.069
REMARK UNBOUND:                -0.175
REMARK SMILES Oc1cc(O)c2cc(O)c(-c3ccc(O)c(O)c3)[o+]c2c1
REMARK SMILES IDX 10 1 19 2 20 3 21 4 2 5 3 6 4 7 6 8 7 9 8 10 11 11 12 12
REMARK SMILES IDX 13 13 14 14 18 15 16 16 15 17 17 19 9 21 1 23 5 25
REMARK H PARENT 15 18 17 20 9 22 1 24 5 26
REMARK Flexibility Score: inf
ROOT
ATOM      1  C   UNL     1     -15.483  -3.134 -30.402  1.00  0.00     0.402 A 
ATOM      2  O   UNL     1     -16.641  -3.432 -29.822  1.00  0.00    -0.202 OA
ATOM      3  C   UNL     1     -17.669  -3.965 -30.475  1.00  0.00     0.368 A 
ATOM      4  C   UNL     1     -18.848  -4.241 -29.778  1.00  0.00     0.162 A 
ATOM      5  C   UNL     1     -19.945  -4.798 -30.441  1.00  0.00     0.128 A 
ATOM      6  C   UNL     1     -19.863  -5.079 -31.807  1.00  0.00     0.093 A 
ATOM      7  C   UNL     1     -18.692  -4.812 -32.528  1.00  0.00     0.136 A 
ATOM      8  C   UNL     1     -17.575  -4.249 -31.858  1.00  0.00     0.125 A 
ATOM      9  C   UNL     1     -16.358  -3.960 -32.497  1.00  0.00     0.078 A 
ATOM     10  C   UNL     1     -15.299  -3.409 -31.770  1.00  0.00     0.223 A 
ENDROOT
BRANCH   1  11
ATOM     11  C   UNL     1     -14.415  -2.534 -29.568  1.00  0.00     0.087 A 
ATOM     12  C   UNL     1     -13.739  -1.369 -29.971  1.00  0.00     0.022 A 
ATOM     13  C   UNL     1     -12.752  -0.808 -29.157  1.00  0.00     0.051 A 
ATOM     14  C   UNL     1     -12.435  -1.394 -27.923  1.00  0.00     0.157 A 
ATOM     15  C   UNL     1     -14.110  -3.104 -28.322  1.00  0.00     0.068 A 
ATOM     16  C   UNL     1     -13.121  -2.546 -27.504  1.00  0.00     0.158 A 
BRANCH  14  17
ATOM     17  O   UNL     1     -11.449  -0.833 -27.114  1.00  0.00    -0.504 OA
ATOM     18  H   UNL     1     -10.501  -1.191 -27.106  1.00  0.00     0.293 HD
ENDBRANCH  14  17
BRANCH  16  19
ATOM     19  O   UNL     1     -12.837  -3.148 -26.279  1.00  0.00    -0.504 OA
ATOM     20  H   UNL     1     -13.379  -3.928 -25.923  1.00  0.00     0.293 HD
ENDBRANCH  16  19
ENDBRANCH   1  11
BRANCH  10  21
ATOM     21  O   UNL     1     -14.073  -3.169 -32.392  1.00  0.00    -0.500 OA
ATOM     22  H   UNL     1     -13.631  -3.864 -32.982  1.00  0.00     0.294 HD
ENDBRANCH  10  21
BRANCH   5  23
ATOM     23  O   UNL     1     -21.125  -5.076 -29.753  1.00  0.00    -0.507 OA
ATOM     24  H   UNL     1     -21.639  -5.936 -29.910  1.00  0.00     0.293 HD
ENDBRANCH   5  23
BRANCH   7  25
ATOM     25  O   UNL     1     -18.692  -5.120 -33.891  1.00  0.00    -0.507 OA
ATOM     26  H   UNL     1     -19.261  -4.652 -34.581  1.00  0.00     0.293 HD
ENDBRANCH   7  25
TORSDOF 6
ENDMDL
MODEL 7
REMARK VINA RESULT:    -5.437      3.257      6.893
REMARK INTER + INTRA:          -6.724
REMARK INTER:                  -6.779
REMARK INTRA:                   0.055
REMARK UNBOUND:                -0.175
REMARK SMILES Oc1cc(O)c2cc(O)c(-c3ccc(O)c(O)c3)[o+]c2c1
REMARK SMILES IDX 10 1 19 2 20 3 21 4 2 5 3 6 4 7 6 8 7 9 8 10 11 11 12 12
REMARK SMILES IDX 13 13 14 14 18 15 16 16 15 17 17 19 9 21 1 23 5 25
REMARK H PARENT 15 18 17 20 9 22 1 24 5 26
REMARK Flexibility Score: inf
ROOT
ATOM      1  C   UNL     1     -16.433  -2.374 -29.962  1.00  0.00     0.402 A 
ATOM      2  O   UNL     1     -16.171  -2.128 -31.242  1.00  0.00    -0.202 OA
ATOM      3  C   UNL     1     -15.104  -2.605 -31.874  1.00  0.00     0.368 A 
ATOM      4  C   UNL     1     -14.913  -2.289 -33.222  1.00  0.00     0.162 A 
ATOM      5  C   UNL     1     -13.797  -2.775 -33.909  1.00  0.00     0.128 A 
ATOM      6  C   UNL     1     -12.868  -3.580 -33.246  1.00  0.00     0.093 A 
ATOM      7  C   UNL     1     -13.037  -3.913 -31.895  1.00  0.00     0.136 A 
ATOM      8  C   UNL     1     -14.170  -3.423 -31.194  1.00  0.00     0.125 A 
ATOM      9  C   UNL     1     -14.427  -3.715 -29.845  1.00  0.00     0.078 A 
ATOM     10  C   UNL     1     -15.568  -3.200 -29.222  1.00  0.00     0.223 A 
ENDROOT
BRANCH   1  11
ATOM     11  C   UNL     1     -17.652  -1.775 -29.369  1.00  0.00     0.087 A 
ATOM     12  C   UNL     1     -17.649  -1.249 -28.066  1.00  0.00     0.022 A 
ATOM     13  C   UNL     1     -18.803  -0.668 -27.536  1.00  0.00     0.051 A 
ATOM     14  C   UNL     1     -19.974  -0.592 -28.303  1.00  0.00     0.157 A 
ATOM     15  C   UNL     1     -18.820  -1.678 -30.142  1.00  0.00     0.068 A 
ATOM     16  C   UNL     1     -19.980  -1.098 -29.614  1.00  0.00     0.158 A 
BRANCH  14  17
ATOM     17  O   UNL     1     -21.125  -0.014 -27.771  1.00  0.00    -0.504 OA
ATOM     18  H   UNL     1     -21.147   0.958 -27.486  1.00  0.00     0.293 HD
ENDBRANCH  14  17
BRANCH  16  19
ATOM     19  O   UNL     1     -21.125  -1.032 -30.407  1.00  0.00    -0.504 OA
ATOM     20  H   UNL     1     -21.970  -1.542 -30.176  1.00  0.00     0.293 HD
ENDBRANCH  16  19
ENDBRANCH   1  11
BRANCH  10  21
ATOM     21  O   UNL     1     -15.851  -3.531 -27.896  1.00  0.00    -0.500 OA
ATOM     22  H   UNL     1     -16.068  -2.822 -27.206  1.00  0.00     0.294 HD
ENDBRANCH  10  21
BRANCH   5  23
ATOM     23  O   UNL     1     -13.599  -2.463 -35.253  1.00  0.00    -0.507 OA
ATOM     24  H   UNL     1     -13.740  -1.523 -35.605  1.00  0.00     0.293 HD
ENDBRANCH   5  23
BRANCH   7  25
ATOM     25  O   UNL     1     -12.062  -4.721 -31.305  1.00  0.00    -0.507 OA
ATOM     26  H   UNL     1     -11.694  -4.583 -30.375  1.00  0.00     0.293 HD
ENDBRANCH   7  25
TORSDOF 6
ENDMDL
MODEL 8
REMARK VINA RESULT:    -4.727      2.788      6.881
REMARK INTER + INTRA:          -5.869
REMARK INTER:                  -5.521
REMARK INTRA:                  -0.349
REMARK UNBOUND:                -0.175
REMARK SMILES Oc1cc(O)c2cc(O)c(-c3ccc(O)c(O)c3)[o+]c2c1
REMARK SMILES IDX 10 1 19 2 20 3 21 4 2 5 3 6 4 7 6 8 7 9 8 10 11 11 12 12
REMARK SMILES IDX 13 13 14 14 18 15 16 16 15 17 17 19 9 21 1 23 5 25
REMARK H PARENT 15 18 17 20 9 22 1 24 5 26
REMARK Flexibility Score: inf
ROOT
ATOM      1  C   UNL     1     -16.217  -2.793 -30.662  1.00  0.00     0.402 A 
ATOM      2  O   UNL     1     -15.850  -3.312 -29.494  1.00  0.00    -0.202 OA
ATOM      3  C   UNL     1     -14.822  -2.858 -28.784  1.00  0.00     0.368 A 
ATOM      4  C   UNL     1     -14.511  -3.471 -27.567  1.00  0.00     0.162 A 
ATOM      5  C   UNL     1     -13.433  -3.016 -26.803  1.00  0.00     0.128 A 
ATOM      6  C   UNL     1     -12.662  -1.944 -27.258  1.00  0.00     0.093 A 
ATOM      7  C   UNL     1     -12.952  -1.312 -28.474  1.00  0.00     0.136 A 
ATOM      8  C   UNL     1     -14.048  -1.769 -29.252  1.00  0.00     0.125 A 
ATOM      9  C   UNL     1     -14.420  -1.189 -30.476  1.00  0.00     0.078 A 
ATOM     10  C   UNL     1     -15.515  -1.691 -31.184  1.00  0.00     0.223 A 
ENDROOT
BRANCH   1  11
ATOM     11  C   UNL     1     -17.376  -3.394 -31.362  1.00  0.00     0.087 A 
ATOM     12  C   UNL     1     -17.202  -4.348 -32.380  1.00  0.00     0.022 A 
ATOM     13  C   UNL     1     -18.311  -4.918 -33.010  1.00  0.00     0.051 A 
ATOM     14  C   UNL     1     -19.609  -4.555 -32.624  1.00  0.00     0.157 A 
ATOM     15  C   UNL     1     -18.678  -3.050 -30.964  1.00  0.00     0.068 A 
ATOM     16  C   UNL     1     -19.791  -3.618 -31.593  1.00  0.00     0.158 A 
BRANCH  14  17
ATOM     17  O   UNL     1     -20.713  -5.125 -33.255  1.00  0.00    -0.504 OA
ATOM     18  H   UNL     1     -20.850  -5.049 -34.257  1.00  0.00     0.293 HD
ENDBRANCH  14  17
BRANCH  16  19
ATOM     19  O   UNL     1     -21.069  -3.242 -31.179  1.00  0.00    -0.504 OA
ATOM     20  H   UNL     1     -21.779  -2.936 -31.835  1.00  0.00     0.293 HD
ENDBRANCH  16  19
ENDBRANCH   1  11
BRANCH  10  21
ATOM     21  O   UNL     1     -15.917  -1.083 -32.375  1.00  0.00    -0.500 OA
ATOM     22  H   UNL     1     -15.262  -0.582 -32.963  1.00  0.00     0.294 HD
ENDBRANCH  10  21
BRANCH   5  23
ATOM     23  O   UNL     1     -13.118  -3.622 -25.589  1.00  0.00    -0.507 OA
ATOM     24  H   UNL     1     -13.721  -3.532 -24.779  1.00  0.00     0.293 HD
ENDBRANCH   5  23
BRANCH   7  25
ATOM     25  O   UNL     1     -12.131  -0.249 -28.859  1.00  0.00    -0.507 OA
ATOM     26  H   UNL     1     -12.143   0.665 -28.430  1.00  0.00     0.293 HD
ENDBRANCH   7  25
TORSDOF 6
ENDMDL
