MODEL 1
REMARK VINA RESULT:    -4.334      0.000      0.000
REMARK INTER + INTRA:          -5.224
REMARK INTER:                  -5.094
REMARK INTRA:                  -0.130
REMARK UNBOUND:                -0.130
REMARK SMILES O=C([O-])C=Cc1ccc(O)c(O)c1
REMARK SMILES IDX 6 1 13 2 7 3 11 4 8 5 9 6 5 7 4 8 2 9 1 10 3 11 12 12 10 14
REMARK H PARENT 12 13 10 15
REMARK Flexibility Score: inf
ROOT
ATOM      1  C   UNL     1       7.020   6.313  26.498  1.00  0.00    -0.022 A 
ATOM      2  C   UNL     1       8.019   6.910  25.712  1.00  0.00     0.058 A 
ATOM      3  C   UNL     1       6.719   4.954  26.293  1.00  0.00     0.012 A 
ATOM      4  C   UNL     1       8.728   6.171  24.757  1.00  0.00     0.157 A 
ATOM      5  C   UNL     1       7.421   4.211  25.343  1.00  0.00     0.051 A 
ATOM      6  C   UNL     1       8.427   4.802  24.572  1.00  0.00     0.157 A 
ENDROOT
BRANCH   1   7
ATOM      7  C   UNL     1       6.298   7.152  27.487  1.00  0.00     0.010 C 
ATOM      8  C   UNL     1       5.451   8.135  27.152  1.00  0.00     0.025 C 
BRANCH   8   9
ATOM      9  C   UNL     1       4.747   8.934  28.167  1.00  0.00     0.064 C 
ATOM     10  O   UNL     1       4.982   8.734  29.387  1.00  0.00    -0.545 OA
ATOM     11  O   UNL     1       3.823   9.906  27.801  1.00  0.00    -0.545 OA
ENDBRANCH   8   9
ENDBRANCH   1   7
BRANCH   4  12
ATOM     12  O   UNL     1       9.713   6.832  24.021  1.00  0.00    -0.504 OA
ATOM     13  H   UNL     1      10.035   7.768  24.222  1.00  0.00     0.293 HD
ENDBRANCH   4  12
BRANCH   6  14
ATOM     14  O   UNL     1       9.093   4.001  23.641  1.00  0.00    -0.504 OA
ATOM     15  H   UNL     1      10.019   3.623  23.781  1.00  0.00     0.293 HD
ENDBRANCH   6  14
TORSDOF 4
ENDMDL
MODEL 2
REMARK VINA RESULT:    -4.290     14.352     15.440
REMARK INTER + INTRA:          -5.172
REMARK INTER:                  -5.042
REMARK INTRA:                  -0.130
REMARK UNBOUND:                -0.130
REMARK SMILES O=C([O-])C=Cc1ccc(O)c(O)c1
REMARK SMILES IDX 6 1 13 2 7 3 11 4 8 5 9 6 5 7 4 8 2 9 1 10 3 11 12 12 10 14
REMARK H PARENT 12 13 10 15
REMARK Flexibility Score: inf
ROOT
ATOM      1  C   UNL     1      17.934   6.342  35.530  1.00  0.00    -0.022 A 
ATOM      2  C   UNL     1      16.922   6.962  36.280  1.00  0.00     0.058 A 
ATOM      3  C   UNL     1      18.250   4.998  35.800  1.00  0.00     0.012 A 
ATOM      4  C   UNL     1      16.214   6.258  37.263  1.00  0.00     0.157 A 
ATOM      5  C   UNL     1      17.550   4.290  36.778  1.00  0.00     0.051 A 
ATOM      6  C   UNL     1      16.530   4.903  37.513  1.00  0.00     0.157 A 
ENDROOT
BRANCH   1   7
ATOM      7  C   UNL     1      18.655   7.143  34.510  1.00  0.00     0.010 C 
ATOM      8  C   UNL     1      19.614   8.032  34.802  1.00  0.00     0.025 C 
BRANCH   8   9
ATOM      9  C   UNL     1      20.310   8.797  33.755  1.00  0.00     0.064 C 
ATOM     10  O   UNL     1      20.085   8.540  32.544  1.00  0.00    -0.545 OA
ATOM     11  O   UNL     1      21.216   9.799  34.082  1.00  0.00    -0.545 OA
ENDBRANCH   8   9
ENDBRANCH   1   7
BRANCH   4  12
ATOM     12  O   UNL     1      15.214   6.940  37.960  1.00  0.00    -0.504 OA
ATOM     13  H   UNL     1      14.433   6.489  38.413  1.00  0.00     0.293 HD
ENDBRANCH   4  12
BRANCH   6  14
ATOM     14  O   UNL     1      15.866   4.137  38.474  1.00  0.00    -0.504 OA
ATOM     15  H   UNL     1      15.326   4.528  39.232  1.00  0.00     0.293 HD
ENDBRANCH   6  14
TORSDOF 4
ENDMDL
MODEL 3
REMARK VINA RESULT:    -4.172     16.875     17.895
REMARK INTER + INTRA:          -5.033
REMARK INTER:                  -4.903
REMARK INTRA:                  -0.130
REMARK UNBOUND:                -0.130
REMARK SMILES O=C([O-])C=Cc1ccc(O)c(O)c1
REMARK SMILES IDX 6 1 13 2 7 3 11 4 8 5 9 6 5 7 4 8 2 9 1 10 3 11 12 12 10 14
REMARK H PARENT 12 13 10 15
REMARK Flexibility Score: inf
ROOT
ATOM      1  C   UNL     1      10.413  -5.727  38.015  1.00  0.00    -0.022 A 
ATOM      2  C   UNL     1      10.534  -5.551  36.627  1.00  0.00     0.058 A 
ATOM      3  C   UNL     1       9.535  -6.714  38.498  1.00  0.00     0.012 A 
ATOM      4  C   UNL     1       9.820  -6.354  35.729  1.00  0.00     0.157 A 
ATOM      5  C   UNL     1       8.818  -7.518  37.610  1.00  0.00     0.051 A 
ATOM      6  C   UNL     1       8.953  -7.354  36.228  1.00  0.00     0.157 A 
ENDROOT
BRANCH   1   7
ATOM      7  C   UNL     1      11.189  -4.837  38.915  1.00  0.00     0.010 C 
ATOM      8  C   UNL     1      12.251  -5.240  39.625  1.00  0.00     0.025 C 
BRANCH   8   9
ATOM      9  C   UNL     1      12.998  -4.320  40.497  1.00  0.00     0.064 C 
ATOM     10  O   UNL     1      14.160  -4.625  40.871  1.00  0.00    -0.545 OA
ATOM     11  O   UNL     1      12.440  -3.117  40.916  1.00  0.00    -0.545 OA
ENDBRANCH   8   9
ENDBRANCH   1   7
BRANCH   4  12
ATOM     12  O   UNL     1      10.000  -6.125  34.364  1.00  0.00    -0.504 OA
ATOM     13  H   UNL     1      10.863  -6.302  33.871  1.00  0.00     0.293 HD
ENDBRANCH   4  12
BRANCH   6  14
ATOM     14  O   UNL     1       8.210  -8.194  35.395  1.00  0.00    -0.504 OA
ATOM     15  H   UNL     1       8.060  -8.024  34.411  1.00  0.00     0.293 HD
ENDBRANCH   6  14
TORSDOF 4
ENDMDL
MODEL 4
REMARK VINA RESULT:    -4.033     13.251     15.353
REMARK INTER + INTRA:          -4.870
REMARK INTER:                  -4.743
REMARK INTRA:                  -0.127
REMARK UNBOUND:                -0.130
REMARK SMILES O=C([O-])C=Cc1ccc(O)c(O)c1
REMARK SMILES IDX 6 1 13 2 7 3 11 4 8 5 9 6 5 7 4 8 2 9 1 10 3 11 12 12 10 14
REMARK H PARENT 12 13 10 15
REMARK Flexibility Score: inf
ROOT
ATOM      1  C   UNL     1      14.812  -5.804  24.702  1.00  0.00    -0.022 A 
ATOM      2  C   UNL     1      14.399  -5.989  26.031  1.00  0.00     0.058 A 
ATOM      3  C   UNL     1      16.021  -6.387  24.281  1.00  0.00     0.012 A 
ATOM      4  C   UNL     1      15.154  -6.761  26.924  1.00  0.00     0.157 A 
ATOM      5  C   UNL     1      16.779  -7.157  25.164  1.00  0.00     0.051 A 
ATOM      6  C   UNL     1      16.358  -7.356  26.483  1.00  0.00     0.157 A 
ENDROOT
BRANCH   1   7
ATOM      7  C   UNL     1      13.974  -4.967  23.807  1.00  0.00     0.010 C 
ATOM      8  C   UNL     1      13.006  -5.457  23.021  1.00  0.00     0.025 C 
BRANCH   8   9
ATOM      9  C   UNL     1      12.192  -4.587  22.158  1.00  0.00     0.064 C 
ATOM     10  O   UNL     1      10.993  -4.891  21.923  1.00  0.00    -0.545 OA
ATOM     11  O   UNL     1      12.725  -3.434  21.593  1.00  0.00    -0.545 OA
ENDBRANCH   8   9
ENDBRANCH   1   7
BRANCH   4  12
ATOM     12  O   UNL     1      14.673  -6.907  28.226  1.00  0.00    -0.504 OA
ATOM     13  H   UNL     1      14.289  -6.151  28.775  1.00  0.00     0.293 HD
ENDBRANCH   4  12
BRANCH   6  14
ATOM     14  O   UNL     1      17.162  -8.140  27.314  1.00  0.00    -0.504 OA
ATOM     15  H   UNL     1      17.972  -8.653  26.996  1.00  0.00     0.293 HD
ENDBRANCH   6  14
TORSDOF 4
ENDMDL
MODEL 5
REMARK VINA RESULT:    -4.021      5.481      7.015
REMARK INTER + INTRA:          -4.856
REMARK INTER:                  -4.726
REMARK INTRA:                  -0.130
REMARK UNBOUND:                -0.130
REMARK SMILES O=C([O-])C=Cc1ccc(O)c(O)c1
REMARK SMILES IDX 6 1 13 2 7 3 11 4 8 5 9 6 5 7 4 8 2 9 1 10 3 11 12 12 10 14
REMARK H PARENT 12 13 10 15
REMARK Flexibility Score: inf
ROOT
ATOM      1  C   UNL     1      12.691   7.786  24.404  1.00  0.00    -0.022 A 
ATOM      2  C   UNL     1      12.044   7.398  23.220  1.00  0.00     0.058 A 
ATOM      3  C   UNL     1      13.378   9.013  24.430  1.00  0.00     0.012 A 
ATOM      4  C   UNL     1      12.053   8.221  22.087  1.00  0.00     0.157 A 
ATOM      5  C   UNL     1      13.393   9.838  23.304  1.00  0.00     0.051 A 
ATOM      6  C   UNL     1      12.734   9.458  22.130  1.00  0.00     0.157 A 
ENDROOT
BRANCH   1   7
ATOM      7  C   UNL     1      12.653   6.867  25.569  1.00  0.00     0.010 C 
ATOM      8  C   UNL     1      11.557   6.203  25.959  1.00  0.00     0.025 C 
BRANCH   8   9
ATOM      9  C   UNL     1      11.569   5.292  27.114  1.00  0.00     0.064 C 
ATOM     10  O   UNL     1      10.556   4.586  27.359  1.00  0.00    -0.545 OA
ATOM     11  O   UNL     1      12.681   5.198  27.942  1.00  0.00    -0.545 OA
ENDBRANCH   8   9
ENDBRANCH   1   7
BRANCH   4  12
ATOM     12  O   UNL     1      11.379   7.770  20.950  1.00  0.00    -0.504 OA
ATOM     13  H   UNL     1      10.374   7.763  20.854  1.00  0.00     0.293 HD
ENDBRANCH   4  12
BRANCH   6  14
ATOM     14  O   UNL     1      12.785  10.332  21.041  1.00  0.00    -0.504 OA
ATOM     15  H   UNL     1      13.065  11.300  21.107  1.00  0.00     0.293 HD
ENDBRANCH   6  14
TORSDOF 4
ENDMDL
MODEL 6
REMARK VINA RESULT:    -3.914     12.371     14.927
REMARK INTER + INTRA:          -4.731
REMARK INTER:                  -4.603
REMARK INTRA:                  -0.128
REMARK UNBOUND:                -0.130
REMARK SMILES O=C([O-])C=Cc1ccc(O)c(O)c1
REMARK SMILES IDX 6 1 13 2 7 3 11 4 8 5 9 6 5 7 4 8 2 9 1 10 3 11 12 12 10 14
REMARK H PARENT 12 13 10 15
REMARK Flexibility Score: inf
ROOT
ATOM      1  C   UNL     1      13.904  -4.865  23.853  1.00  0.00    -0.022 A 
ATOM      2  C   UNL     1      12.948  -5.458  23.014  1.00  0.00     0.058 A 
ATOM      3  C   UNL     1      14.226  -3.510  23.662  1.00  0.00     0.012 A 
ATOM      4  C   UNL     1      12.300  -4.718  22.017  1.00  0.00     0.157 A 
ATOM      5  C   UNL     1      13.586  -2.765  22.670  1.00  0.00     0.051 A 
ATOM      6  C   UNL     1      12.621  -3.352  21.845  1.00  0.00     0.157 A 
ENDROOT
BRANCH   1   7
ATOM      7  C   UNL     1      14.563  -5.705  24.885  1.00  0.00     0.010 C 
ATOM      8  C   UNL     1      15.562  -6.559  24.623  1.00  0.00     0.025 C 
BRANCH   8   9
ATOM      9  C   UNL     1      16.194  -7.364  25.680  1.00  0.00     0.064 C 
ATOM     10  O   UNL     1      17.025  -8.256  25.369  1.00  0.00    -0.545 OA
ATOM     11  O   UNL     1      15.887  -7.157  27.020  1.00  0.00    -0.545 OA
ENDBRANCH   8   9
ENDBRANCH   1   7
BRANCH   4  12
ATOM     12  O   UNL     1      11.354  -5.375  21.228  1.00  0.00    -0.504 OA
ATOM     13  H   UNL     1      11.522  -6.252  20.757  1.00  0.00     0.293 HD
ENDBRANCH   4  12
BRANCH   6  14
ATOM     14  O   UNL     1      12.016  -2.549  20.875  1.00  0.00    -0.504 OA
ATOM     15  H   UNL     1      12.500  -1.835  20.351  1.00  0.00     0.293 HD
ENDBRANCH   6  14
TORSDOF 4
ENDMDL
MODEL 7
REMARK VINA RESULT:    -3.857      2.794      4.019
REMARK INTER + INTRA:          -4.663
REMARK INTER:                  -4.537
REMARK INTRA:                  -0.126
REMARK UNBOUND:                -0.130
REMARK SMILES O=C([O-])C=Cc1ccc(O)c(O)c1
REMARK SMILES IDX 6 1 13 2 7 3 11 4 8 5 9 6 5 7 4 8 2 9 1 10 3 11 12 12 10 14
REMARK H PARENT 12 13 10 15
REMARK Flexibility Score: inf
ROOT
ATOM      1  C   UNL     1      10.156   6.285  25.316  1.00  0.00    -0.022 A 
ATOM      2  C   UNL     1       9.925   6.138  23.939  1.00  0.00     0.058 A 
ATOM      3  C   UNL     1      11.429   6.701  25.748  1.00  0.00     0.012 A 
ATOM      4  C   UNL     1      10.926   6.423  23.001  1.00  0.00     0.157 A 
ATOM      5  C   UNL     1      12.432   6.986  24.820  1.00  0.00     0.051 A 
ATOM      6  C   UNL     1      12.195   6.856  23.448  1.00  0.00     0.157 A 
ENDROOT
BRANCH   1   7
ATOM      7  C   UNL     1       9.058   5.958  26.260  1.00  0.00     0.010 C 
ATOM      8  C   UNL     1       7.877   6.589  26.274  1.00  0.00     0.025 C 
BRANCH   8   9
ATOM      9  C   UNL     1       6.812   6.223  27.221  1.00  0.00     0.064 C 
ATOM     10  O   UNL     1       6.326   7.103  27.980  1.00  0.00    -0.545 OA
ATOM     11  O   UNL     1       6.333   4.920  27.294  1.00  0.00    -0.545 OA
ENDBRANCH   8   9
ENDBRANCH   1   7
BRANCH   4  12
ATOM     12  O   UNL     1      10.617   6.262  21.649  1.00  0.00    -0.504 OA
ATOM     13  H   UNL     1       9.894   6.778  21.170  1.00  0.00     0.293 HD
ENDBRANCH   4  12
BRANCH   6  14
ATOM     14  O   UNL     1      13.241   7.160  22.573  1.00  0.00    -0.504 OA
ATOM     15  H   UNL     1      13.313   8.026  22.059  1.00  0.00     0.293 HD
ENDBRANCH   6  14
TORSDOF 4
ENDMDL
MODEL 8
REMARK VINA RESULT:    -3.827     11.645     13.265
REMARK INTER + INTRA:          -4.628
REMARK INTER:                  -4.501
REMARK INTRA:                  -0.127
REMARK UNBOUND:                -0.130
REMARK SMILES O=C([O-])C=Cc1ccc(O)c(O)c1
REMARK SMILES IDX 6 1 13 2 7 3 11 4 8 5 9 6 5 7 4 8 2 9 1 10 3 11 12 12 10 14
REMARK H PARENT 12 13 10 15
REMARK Flexibility Score: inf
ROOT
ATOM      1  C   UNL     1      12.333   7.819  37.080  1.00  0.00    -0.022 A 
ATOM      2  C   UNL     1      13.107   6.942  37.858  1.00  0.00     0.058 A 
ATOM      3  C   UNL     1      11.924   9.042  37.643  1.00  0.00     0.012 A 
ATOM      4  C   UNL     1      13.494   7.279  39.161  1.00  0.00     0.157 A 
ATOM      5  C   UNL     1      12.305   9.385  38.941  1.00  0.00     0.051 A 
ATOM      6  C   UNL     1      13.090   8.518  39.709  1.00  0.00     0.157 A 
ENDROOT
BRANCH   1   7
ATOM      7  C   UNL     1      11.947   7.400  35.709  1.00  0.00     0.010 C 
ATOM      8  C   UNL     1      11.295   6.263  35.434  1.00  0.00     0.025 C 
BRANCH   8   9
ATOM      9  C   UNL     1      10.921   5.894  34.059  1.00  0.00     0.064 C 
ATOM     10  O   UNL     1       9.841   6.320  33.573  1.00  0.00    -0.545 OA
ATOM     11  O   UNL     1      11.742   5.080  33.287  1.00  0.00    -0.545 OA
ENDBRANCH   8   9
ENDBRANCH   1   7
BRANCH   4  12
ATOM     12  O   UNL     1      14.271   6.360  39.868  1.00  0.00    -0.504 OA
ATOM     13  H   UNL     1      13.937   5.459  40.180  1.00  0.00     0.293 HD
ENDBRANCH   4  12
BRANCH   6  14
ATOM     14  O   UNL     1      13.439   8.924  40.999  1.00  0.00    -0.504 OA
ATOM     15  H   UNL     1      14.254   8.593  41.494  1.00  0.00     0.293 HD
ENDBRANCH   6  14
TORSDOF 4
ENDMDL
MODEL 9
REMARK VINA RESULT:    -3.768     17.128     18.416
REMARK INTER + INTRA:          -4.559
REMARK INTER:                  -4.422
REMARK INTRA:                  -0.137
REMARK UNBOUND:                -0.130
REMARK SMILES O=C([O-])C=Cc1ccc(O)c(O)c1
REMARK SMILES IDX 6 1 13 2 7 3 11 4 8 5 9 6 5 7 4 8 2 9 1 10 3 11 12 12 10 14
REMARK H PARENT 12 13 10 15
REMARK Flexibility Score: inf
ROOT
ATOM      1  C   UNL     1      10.376  -5.816  38.483  1.00  0.00    -0.022 A 
ATOM      2  C   UNL     1      11.497  -6.057  39.292  1.00  0.00     0.058 A 
ATOM      3  C   UNL     1       9.985  -4.485  38.247  1.00  0.00     0.012 A 
ATOM      4  C   UNL     1      12.237  -5.001  39.839  1.00  0.00     0.157 A 
ATOM      5  C   UNL     1      10.716  -3.427  38.788  1.00  0.00     0.051 A 
ATOM      6  C   UNL     1      11.844  -3.668  39.580  1.00  0.00     0.157 A 
ENDROOT
BRANCH   1   7
ATOM      7  C   UNL     1       9.627  -6.977  37.941  1.00  0.00     0.010 C 
ATOM      8  C   UNL     1       8.879  -6.928  36.831  1.00  0.00     0.025 C 
BRANCH   8   9
ATOM      9  C   UNL     1       8.162  -8.109  36.323  1.00  0.00     0.064 C 
ATOM     10  O   UNL     1       7.916  -8.205  35.093  1.00  0.00    -0.545 OA
ATOM     11  O   UNL     1       7.749  -9.121  37.182  1.00  0.00    -0.545 OA
ENDBRANCH   8   9
ENDBRANCH   1   7
BRANCH   4  12
ATOM     12  O   UNL     1      13.346  -5.320  40.626  1.00  0.00    -0.504 OA
ATOM     13  H   UNL     1      13.329  -5.995  41.376  1.00  0.00     0.293 HD
ENDBRANCH   4  12
BRANCH   6  14
ATOM     14  O   UNL     1      12.533  -2.564  40.088  1.00  0.00    -0.504 OA
ATOM     15  H   UNL     1      12.658  -2.381  41.073  1.00  0.00     0.293 HD
ENDBRANCH   6  14
TORSDOF 4
ENDMDL
