MODEL 1
REMARK VINA RESULT:    -4.811      0.000      0.000
REMARK INTER + INTRA:         -11.670
REMARK INTER:                  -9.030
REMARK INTRA:                  -2.640
REMARK UNBOUND:                -2.640
REMARK SMILES CCCCCCCCC=CCCCCCCCC(=O)[O-]
REMARK SMILES IDX 10 1 9 2 11 3 12 4 13 5 14 6 15 7 16 8 17 9 18 10 19 11
REMARK SMILES IDX 20 12 8 13 7 14 6 15 5 16 4 17 3 18 2 19 1 20
REMARK H PARENT
REMARK Flexibility Score: inf
ROOT
ATOM      1  C   UNL     1       8.717 -12.545  -0.618  1.00  0.00    -0.031 C 
ATOM      2  C   UNL     1       8.757 -11.320  -0.063  1.00  0.00    -0.031 C 
ENDROOT
BRANCH   1   3
ATOM      3  C   UNL     1       7.478 -13.188  -1.194  1.00  0.00     0.027 C 
BRANCH   3   4
ATOM      4  C   UNL     1       7.655 -13.580  -2.671  1.00  0.00     0.004 C 
BRANCH   4   5
ATOM      5  C   UNL     1       7.025 -12.593  -3.672  1.00  0.00     0.000 C 
BRANCH   5   6
ATOM      6  C   UNL     1       5.969 -13.250  -4.575  1.00  0.00     0.000 C 
BRANCH   6   7
ATOM      7  C   UNL     1       4.822 -12.274  -4.876  1.00  0.00     0.000 C 
BRANCH   7   8
ATOM      8  C   UNL     1       5.137 -11.339  -6.055  1.00  0.00     0.006 C 
BRANCH   8   9
ATOM      9  C   UNL     1       3.991 -10.364  -6.358  1.00  0.00     0.053 C 
BRANCH   9  10
ATOM     10  C   UNL     1       4.402  -8.961  -6.040  1.00  0.00     0.041 C 
ATOM     11  O   UNL     1       4.718  -8.169  -6.967  1.00  0.00    -0.550 OA
ATOM     12  O   UNL     1       4.389  -8.514  -4.725  1.00  0.00    -0.550 OA
ENDBRANCH   9  10
ENDBRANCH   8   9
ENDBRANCH   7   8
ENDBRANCH   6   7
ENDBRANCH   5   6
ENDBRANCH   4   5
ENDBRANCH   3   4
ENDBRANCH   1   3
BRANCH   2  13
ATOM     13  C   UNL     1       7.591 -10.366  -0.013  1.00  0.00     0.027 C 
BRANCH  13  14
ATOM     14  C   UNL     1       7.342  -9.740  -1.394  1.00  0.00     0.004 C 
BRANCH  14  15
ATOM     15  C   UNL     1       5.846  -9.609  -1.717  1.00  0.00     0.000 C 
BRANCH  15  16
ATOM     16  C   UNL     1       4.970 -10.447  -0.769  1.00  0.00     0.000 C 
BRANCH  16  17
ATOM     17  C   UNL     1       4.134 -11.508  -1.508  1.00  0.00    -0.000 C 
BRANCH  17  18
ATOM     18  C   UNL     1       3.900 -12.814  -0.728  1.00  0.00    -0.000 C 
BRANCH  18  19
ATOM     19  C   UNL     1       3.959 -14.063  -1.618  1.00  0.00    -0.003 C 
ATOM     20  C   UNL     1       2.664 -14.236  -2.407  1.00  0.00     0.004 C 
ENDBRANCH  18  19
ENDBRANCH  17  18
ENDBRANCH  16  17
ENDBRANCH  15  16
ENDBRANCH  14  15
ENDBRANCH  13  14
ENDBRANCH   2  13
TORSDOF 15
ENDMDL
MODEL 2
REMARK VINA RESULT:    -4.742      1.252      3.631
REMARK INTER + INTRA:         -11.540
REMARK INTER:                  -9.276
REMARK INTRA:                  -2.264
REMARK UNBOUND:                -2.640
REMARK SMILES CCCCCCCCC=CCCCCCCCC(=O)[O-]
REMARK SMILES IDX 10 1 9 2 11 3 12 4 13 5 14 6 15 7 16 8 17 9 18 10 19 11
REMARK SMILES IDX 20 12 8 13 7 14 6 15 5 16 4 17 3 18 2 19 1 20
REMARK H PARENT
REMARK Flexibility Score: inf
ROOT
ATOM      1  C   UNL     1       7.222 -13.275  -2.830  1.00  0.00    -0.031 C 
ATOM      2  C   UNL     1       6.462 -13.423  -1.728  1.00  0.00    -0.031 C 
ENDROOT
BRANCH   1   3
ATOM      3  C   UNL     1       6.702 -13.323  -4.247  1.00  0.00     0.027 C 
BRANCH   3   4
ATOM      4  C   UNL     1       6.208 -11.951  -4.735  1.00  0.00     0.004 C 
BRANCH   4   5
ATOM      5  C   UNL     1       4.810 -11.970  -5.381  1.00  0.00     0.000 C 
BRANCH   5   6
ATOM      6  C   UNL     1       4.647 -10.914  -6.485  1.00  0.00     0.000 C 
BRANCH   6   7
ATOM      7  C   UNL     1       3.163 -10.656  -6.781  1.00  0.00     0.000 C 
BRANCH   7   8
ATOM      8  C   UNL     1       2.944  -9.421  -7.671  1.00  0.00     0.006 C 
BRANCH   8   9
ATOM      9  C   UNL     1       4.205  -9.024  -8.450  1.00  0.00     0.053 C 
BRANCH   9  10
ATOM     10  C   UNL     1       4.601  -7.620  -8.121  1.00  0.00     0.041 C 
ATOM     11  O   UNL     1       4.943  -6.827  -9.037  1.00  0.00    -0.550 OA
ATOM     12  O   UNL     1       4.544  -7.172  -6.808  1.00  0.00    -0.550 OA
ENDBRANCH   9  10
ENDBRANCH   8   9
ENDBRANCH   7   8
ENDBRANCH   6   7
ENDBRANCH   5   6
ENDBRANCH   4   5
ENDBRANCH   3   4
ENDBRANCH   1   3
BRANCH   2  13
ATOM     13  C   UNL     1       4.962 -13.568  -1.739  1.00  0.00     0.027 C 
BRANCH  13  14
ATOM     14  C   UNL     1       4.303 -12.467  -0.893  1.00  0.00     0.004 C 
BRANCH  14  15
ATOM     15  C   UNL     1       4.182 -11.137  -1.653  1.00  0.00     0.000 C 
BRANCH  15  16
ATOM     16  C   UNL     1       4.953  -9.999  -0.962  1.00  0.00     0.000 C 
BRANCH  16  17
ATOM     17  C   UNL     1       6.072  -9.413  -1.842  1.00  0.00    -0.000 C 
BRANCH  17  18
ATOM     18  C   UNL     1       7.488  -9.922  -1.521  1.00  0.00    -0.000 C 
BRANCH  18  19
ATOM     19  C   UNL     1       7.732 -10.107  -0.016  1.00  0.00    -0.003 C 
ATOM     20  C   UNL     1       8.885 -11.074   0.238  1.00  0.00     0.004 C 
ENDBRANCH  18  19
ENDBRANCH  17  18
ENDBRANCH  16  17
ENDBRANCH  15  16
ENDBRANCH  14  15
ENDBRANCH  13  14
ENDBRANCH   2  13
TORSDOF 15
ENDMDL
MODEL 3
REMARK VINA RESULT:    -4.718      1.300      3.182
REMARK INTER + INTRA:         -11.496
REMARK INTER:                  -9.510
REMARK INTRA:                  -1.985
REMARK UNBOUND:                -2.640
REMARK SMILES CCCCCCCCC=CCCCCCCCC(=O)[O-]
REMARK SMILES IDX 10 1 9 2 11 3 12 4 13 5 14 6 15 7 16 8 17 9 18 10 19 11
REMARK SMILES IDX 20 12 8 13 7 14 6 15 5 16 4 17 3 18 2 19 1 20
REMARK H PARENT
REMARK Flexibility Score: inf
ROOT
ATOM      1  C   UNL     1       6.810 -13.349  -4.152  1.00  0.00    -0.031 C 
ATOM      2  C   UNL     1       7.595 -13.557  -3.078  1.00  0.00    -0.031 C 
ENDROOT
BRANCH   1   3
ATOM      3  C   UNL     1       5.333 -13.041  -4.091  1.00  0.00     0.027 C 
BRANCH   3   4
ATOM      4  C   UNL     1       4.700 -12.934  -5.489  1.00  0.00     0.004 C 
BRANCH   4   5
ATOM      5  C   UNL     1       3.234 -12.464  -5.490  1.00  0.00     0.000 C 
BRANCH   5   6
ATOM      6  C   UNL     1       3.025 -11.158  -6.273  1.00  0.00     0.000 C 
BRANCH   6   7
ATOM      7  C   UNL     1       4.370 -10.484  -6.581  1.00  0.00     0.000 C 
BRANCH   7   8
ATOM      8  C   UNL     1       4.300  -9.560  -7.808  1.00  0.00     0.006 C 
BRANCH   8   9
ATOM      9  C   UNL     1       3.723  -8.178  -7.475  1.00  0.00     0.053 C 
BRANCH   9  10
ATOM     10  C   UNL     1       4.761  -7.118  -7.671  1.00  0.00     0.041 C 
ATOM     11  O   UNL     1       5.063  -6.737  -8.832  1.00  0.00    -0.550 OA
ATOM     12  O   UNL     1       5.357  -6.518  -6.571  1.00  0.00    -0.550 OA
ENDBRANCH   9  10
ENDBRANCH   8   9
ENDBRANCH   7   8
ENDBRANCH   6   7
ENDBRANCH   5   6
ENDBRANCH   4   5
ENDBRANCH   3   4
ENDBRANCH   1   3
BRANCH   2  13
ATOM     13  C   UNL     1       7.139 -13.424  -1.648  1.00  0.00     0.027 C 
BRANCH  13  14
ATOM     14  C   UNL     1       8.171 -12.645  -0.819  1.00  0.00     0.004 C 
BRANCH  14  15
ATOM     15  C   UNL     1       7.687 -11.232  -0.458  1.00  0.00     0.000 C 
BRANCH  15  16
ATOM     16  C   UNL     1       7.536 -10.333  -1.698  1.00  0.00     0.000 C 
BRANCH  16  17
ATOM     17  C   UNL     1       6.071  -9.964  -1.995  1.00  0.00    -0.000 C 
BRANCH  17  18
ATOM     18  C   UNL     1       5.071 -10.312  -0.877  1.00  0.00    -0.000 C 
BRANCH  18  19
ATOM     19  C   UNL     1       3.846 -11.083  -1.389  1.00  0.00    -0.003 C 
ATOM     20  C   UNL     1       3.705 -12.424  -0.675  1.00  0.00     0.004 C 
ENDBRANCH  18  19
ENDBRANCH  17  18
ENDBRANCH  16  17
ENDBRANCH  15  16
ENDBRANCH  14  15
ENDBRANCH  13  14
ENDBRANCH   2  13
TORSDOF 15
ENDMDL
MODEL 4
REMARK VINA RESULT:    -4.713      0.943      2.168
REMARK INTER + INTRA:         -11.486
REMARK INTER:                  -9.096
REMARK INTRA:                  -2.390
REMARK UNBOUND:                -2.640
REMARK SMILES CCCCCCCCC=CCCCCCCCC(=O)[O-]
REMARK SMILES IDX 10 1 9 2 11 3 12 4 13 5 14 6 15 7 16 8 17 9 18 10 19 11
REMARK SMILES IDX 20 12 8 13 7 14 6 15 5 16 4 17 3 18 2 19 1 20
REMARK H PARENT
REMARK Flexibility Score: inf
ROOT
ATOM      1  C   UNL     1       7.372 -13.652  -1.936  1.00  0.00    -0.031 C 
ATOM      2  C   UNL     1       7.806 -12.871  -0.929  1.00  0.00    -0.031 C 
ENDROOT
BRANCH   1   3
ATOM      3  C   UNL     1       7.612 -13.377  -3.402  1.00  0.00     0.027 C 
BRANCH   3   4
ATOM      4  C   UNL     1       6.484 -12.541  -4.031  1.00  0.00     0.004 C 
BRANCH   4   5
ATOM      5  C   UNL     1       5.308 -13.368  -4.581  1.00  0.00     0.000 C 
BRANCH   5   6
ATOM      6  C   UNL     1       4.292 -12.519  -5.360  1.00  0.00     0.000 C 
BRANCH   6   7
ATOM      7  C   UNL     1       4.971 -11.294  -5.991  1.00  0.00     0.000 C 
BRANCH   7   8
ATOM      8  C   UNL     1       3.964 -10.212  -6.413  1.00  0.00     0.006 C 
BRANCH   8   9
ATOM      9  C   UNL     1       4.360  -9.515  -7.722  1.00  0.00     0.053 C 
BRANCH   9  10
ATOM     10  C   UNL     1       4.679  -8.075  -7.470  1.00  0.00     0.041 C 
ATOM     11  O   UNL     1       4.327  -7.529  -6.391  1.00  0.00    -0.550 OA
ATOM     12  O   UNL     1       5.408  -7.351  -8.404  1.00  0.00    -0.550 OA
ENDBRANCH   9  10
ENDBRANCH   8   9
ENDBRANCH   7   8
ENDBRANCH   6   7
ENDBRANCH   5   6
ENDBRANCH   4   5
ENDBRANCH   3   4
ENDBRANCH   1   3
BRANCH   2  13
ATOM     13  C   UNL     1       8.674 -11.651  -1.106  1.00  0.00     0.027 C 
BRANCH  13  14
ATOM     14  C   UNL     1       8.614 -10.756   0.142  1.00  0.00     0.004 C 
BRANCH  14  15
ATOM     15  C   UNL     1       7.290  -9.984   0.245  1.00  0.00     0.000 C 
BRANCH  15  16
ATOM     16  C   UNL     1       6.912  -9.294  -1.078  1.00  0.00     0.000 C 
BRANCH  16  17
ATOM     17  C   UNL     1       5.584  -9.809  -1.663  1.00  0.00    -0.000 C 
BRANCH  17  18
ATOM     18  C   UNL     1       4.837 -10.830  -0.786  1.00  0.00    -0.000 C 
BRANCH  18  19
ATOM     19  C   UNL     1       3.908 -11.748  -1.595  1.00  0.00    -0.003 C 
ATOM     20  C   UNL     1       3.754 -13.107  -0.918  1.00  0.00     0.004 C 
ENDBRANCH  18  19
ENDBRANCH  17  18
ENDBRANCH  16  17
ENDBRANCH  15  16
ENDBRANCH  14  15
ENDBRANCH  13  14
ENDBRANCH   2  13
TORSDOF 15
ENDMDL
MODEL 5
REMARK VINA RESULT:    -4.678      1.821      3.992
REMARK INTER + INTRA:         -11.420
REMARK INTER:                  -8.843
REMARK INTRA:                  -2.577
REMARK UNBOUND:                -2.640
REMARK SMILES CCCCCCCCC=CCCCCCCCC(=O)[O-]
REMARK SMILES IDX 10 1 9 2 11 3 12 4 13 5 14 6 15 7 16 8 17 9 18 10 19 11
REMARK SMILES IDX 20 12 8 13 7 14 6 15 5 16 4 17 3 18 2 19 1 20
REMARK H PARENT
REMARK Flexibility Score: inf
ROOT
ATOM      1  C   UNL     1       7.692 -13.763  -2.551  1.00  0.00    -0.031 C 
ATOM      2  C   UNL     1       7.263 -13.422  -3.780  1.00  0.00    -0.031 C 
ENDROOT
BRANCH   1   3
ATOM      3  C   UNL     1       7.333 -13.030  -1.280  1.00  0.00     0.027 C 
BRANCH   3   4
ATOM      4  C   UNL     1       8.574 -12.659  -0.449  1.00  0.00     0.004 C 
BRANCH   4   5
ATOM      5  C   UNL     1       8.742 -11.150  -0.194  1.00  0.00     0.000 C 
BRANCH   5   6
ATOM      6  C   UNL     1       7.983 -10.283  -1.212  1.00  0.00     0.000 C 
BRANCH   6   7
ATOM      7  C   UNL     1       6.976  -9.363  -0.505  1.00  0.00     0.000 C 
BRANCH   7   8
ATOM      8  C   UNL     1       5.521  -9.821  -0.698  1.00  0.00     0.006 C 
BRANCH   8   9
ATOM      9  C   UNL     1       4.971  -9.466  -2.087  1.00  0.00     0.053 C 
BRANCH   9  10
ATOM     10  C   UNL     1       4.589  -8.020  -2.142  1.00  0.00     0.041 C 
ATOM     11  O   UNL     1       5.318  -7.197  -2.755  1.00  0.00    -0.550 OA
ATOM     12  O   UNL     1       3.404  -7.592  -1.559  1.00  0.00    -0.550 OA
ENDBRANCH   9  10
ENDBRANCH   8   9
ENDBRANCH   7   8
ENDBRANCH   6   7
ENDBRANCH   5   6
ENDBRANCH   4   5
ENDBRANCH   3   4
ENDBRANCH   1   3
BRANCH   2  13
ATOM     13  C   UNL     1       6.286 -12.311  -4.066  1.00  0.00     0.027 C 
BRANCH  13  14
ATOM     14  C   UNL     1       5.002 -12.867  -4.703  1.00  0.00     0.004 C 
BRANCH  14  15
ATOM     15  C   UNL     1       3.805 -12.824  -3.740  1.00  0.00     0.000 C 
BRANCH  15  16
ATOM     16  C   UNL     1       3.522 -14.194  -3.101  1.00  0.00     0.000 C 
BRANCH  16  17
ATOM     17  C   UNL     1       3.901 -14.249  -1.610  1.00  0.00    -0.000 C 
BRANCH  17  18
ATOM     18  C   UNL     1       3.695 -12.935  -0.835  1.00  0.00    -0.000 C 
BRANCH  18  19
ATOM     19  C   UNL     1       2.658 -13.060   0.291  1.00  0.00    -0.003 C 
ATOM     20  C   UNL     1       2.732 -14.431   0.955  1.00  0.00     0.004 C 
ENDBRANCH  18  19
ENDBRANCH  17  18
ENDBRANCH  16  17
ENDBRANCH  15  16
ENDBRANCH  14  15
ENDBRANCH  13  14
ENDBRANCH   2  13
TORSDOF 15
ENDMDL
MODEL 6
REMARK VINA RESULT:    -4.668      2.999      5.351
REMARK INTER + INTRA:         -11.402
REMARK INTER:                  -8.933
REMARK INTRA:                  -2.469
REMARK UNBOUND:                -2.640
REMARK SMILES CCCCCCCCC=CCCCCCCCC(=O)[O-]
REMARK SMILES IDX 10 1 9 2 11 3 12 4 13 5 14 6 15 7 16 8 17 9 18 10 19 11
REMARK SMILES IDX 20 12 8 13 7 14 6 15 5 16 4 17 3 18 2 19 1 20
REMARK H PARENT
REMARK Flexibility Score: inf
ROOT
ATOM      1  C   UNL     1       6.818  -9.553  -0.188  1.00  0.00    -0.031 C 
ATOM      2  C   UNL     1       7.813 -10.365   0.213  1.00  0.00    -0.031 C 
ENDROOT
BRANCH   1   3
ATOM      3  C   UNL     1       6.413  -9.334  -1.627  1.00  0.00     0.027 C 
BRANCH   3   4
ATOM      4  C   UNL     1       5.038  -9.944  -1.947  1.00  0.00     0.004 C 
BRANCH   4   5
ATOM      5  C   UNL     1       4.259 -10.439  -0.715  1.00  0.00     0.000 C 
BRANCH   5   6
ATOM      6  C   UNL     1       3.429 -11.701  -0.999  1.00  0.00     0.000 C 
BRANCH   6   7
ATOM      7  C   UNL     1       4.274 -12.968  -0.799  1.00  0.00     0.000 C 
BRANCH   7   8
ATOM      8  C   UNL     1       3.751 -14.162  -1.614  1.00  0.00     0.006 C 
BRANCH   8   9
ATOM      9  C   UNL     1       3.130 -15.253  -0.730  1.00  0.00     0.053 C 
BRANCH   9  10
ATOM     10  C   UNL     1       2.335 -16.209  -1.563  1.00  0.00     0.041 C 
ATOM     11  O   UNL     1       2.437 -16.189  -2.818  1.00  0.00    -0.550 OA
ATOM     12  O   UNL     1       1.522 -17.153  -0.951  1.00  0.00    -0.550 OA
ENDBRANCH   9  10
ENDBRANCH   8   9
ENDBRANCH   7   8
ENDBRANCH   6   7
ENDBRANCH   5   6
ENDBRANCH   4   5
ENDBRANCH   3   4
ENDBRANCH   1   3
BRANCH   2  13
ATOM     13  C   UNL     1       8.617 -11.250  -0.705  1.00  0.00     0.027 C 
BRANCH  13  14
ATOM     14  C   UNL     1       8.291 -12.731  -0.454  1.00  0.00     0.004 C 
BRANCH  14  15
ATOM     15  C   UNL     1       7.577 -13.384  -1.647  1.00  0.00     0.000 C 
BRANCH  15  16
ATOM     16  C   UNL     1       7.540 -12.463  -2.880  1.00  0.00     0.000 C 
BRANCH  16  17
ATOM     17  C   UNL     1       7.143 -13.205  -4.169  1.00  0.00    -0.000 C 
BRANCH  17  18
ATOM     18  C   UNL     1       5.632 -13.249  -4.458  1.00  0.00    -0.000 C 
BRANCH  18  19
ATOM     19  C   UNL     1       5.107 -11.958  -5.102  1.00  0.00    -0.003 C 
ATOM     20  C   UNL     1       3.643 -12.104  -5.509  1.00  0.00     0.004 C 
ENDBRANCH  18  19
ENDBRANCH  17  18
ENDBRANCH  16  17
ENDBRANCH  15  16
ENDBRANCH  14  15
ENDBRANCH  13  14
ENDBRANCH   2  13
TORSDOF 15
ENDMDL
MODEL 7
REMARK VINA RESULT:    -4.658      2.117      3.991
REMARK INTER + INTRA:         -11.383
REMARK INTER:                  -9.467
REMARK INTRA:                  -1.916
REMARK UNBOUND:                -2.640
REMARK SMILES CCCCCCCCC=CCCCCCCCC(=O)[O-]
REMARK SMILES IDX 10 1 9 2 11 3 12 4 13 5 14 6 15 7 16 8 17 9 18 10 19 11
REMARK SMILES IDX 20 12 8 13 7 14 6 15 5 16 4 17 3 18 2 19 1 20
REMARK H PARENT
REMARK Flexibility Score: inf
ROOT
ATOM      1  C   UNL     1       6.711 -13.137  -4.172  1.00  0.00    -0.031 C 
ATOM      2  C   UNL     1       7.552 -13.280  -3.131  1.00  0.00    -0.031 C 
ENDROOT
BRANCH   1   3
ATOM      3  C   UNL     1       5.204 -13.120  -4.065  1.00  0.00     0.027 C 
BRANCH   3   4
ATOM      4  C   UNL     1       4.522 -12.999  -5.439  1.00  0.00     0.004 C 
BRANCH   4   5
ATOM      5  C   UNL     1       3.911 -11.615  -5.726  1.00  0.00     0.000 C 
BRANCH   5   6
ATOM      6  C   UNL     1       4.914 -10.638  -6.358  1.00  0.00     0.000 C 
BRANCH   6   7
ATOM      7  C   UNL     1       4.210  -9.353  -6.820  1.00  0.00     0.000 C 
BRANCH   7   8
ATOM      8  C   UNL     1       3.007  -9.635  -7.736  1.00  0.00     0.006 C 
BRANCH   8   9
ATOM      9  C   UNL     1       1.964  -8.510  -7.703  1.00  0.00     0.053 C 
BRANCH   9  10
ATOM     10  C   UNL     1       0.598  -9.073  -7.468  1.00  0.00     0.041 C 
ATOM     11  O   UNL     1      -0.409  -8.530  -7.994  1.00  0.00    -0.550 OA
ATOM     12  O   UNL     1       0.442 -10.226  -6.710  1.00  0.00    -0.550 OA
ENDBRANCH   9  10
ENDBRANCH   8   9
ENDBRANCH   7   8
ENDBRANCH   6   7
ENDBRANCH   5   6
ENDBRANCH   4   5
ENDBRANCH   3   4
ENDBRANCH   1   3
BRANCH   2  13
ATOM     13  C   UNL     1       7.121 -13.353  -1.689  1.00  0.00     0.027 C 
BRANCH  13  14
ATOM     14  C   UNL     1       8.283 -12.981  -0.755  1.00  0.00     0.004 C 
BRANCH  14  15
ATOM     15  C   UNL     1       8.628 -11.485  -0.818  1.00  0.00     0.000 C 
BRANCH  15  16
ATOM     16  C   UNL     1       8.023 -10.697   0.358  1.00  0.00     0.000 C 
BRANCH  16  17
ATOM     17  C   UNL     1       7.029  -9.613  -0.097  1.00  0.00    -0.000 C 
BRANCH  17  18
ATOM     18  C   UNL     1       6.840  -9.499  -1.620  1.00  0.00    -0.000 C 
BRANCH  18  19
ATOM     19  C   UNL     1       5.497 -10.068  -2.101  1.00  0.00    -0.003 C 
ATOM     20  C   UNL     1       4.746  -9.053  -2.959  1.00  0.00     0.004 C 
ENDBRANCH  18  19
ENDBRANCH  17  18
ENDBRANCH  16  17
ENDBRANCH  15  16
ENDBRANCH  14  15
ENDBRANCH  13  14
ENDBRANCH   2  13
TORSDOF 15
ENDMDL
MODEL 8
REMARK VINA RESULT:    -4.628      2.425      6.456
REMARK INTER + INTRA:         -11.326
REMARK INTER:                  -8.814
REMARK INTRA:                  -2.512
REMARK UNBOUND:                -2.640
REMARK SMILES CCCCCCCCC=CCCCCCCCC(=O)[O-]
REMARK SMILES IDX 10 1 9 2 11 3 12 4 13 5 14 6 15 7 16 8 17 9 18 10 19 11
REMARK SMILES IDX 20 12 8 13 7 14 6 15 5 16 4 17 3 18 2 19 1 20
REMARK H PARENT
REMARK Flexibility Score: inf
ROOT
ATOM      1  C   UNL     1       4.999 -10.790  -5.937  1.00  0.00    -0.031 C 
ATOM      2  C   UNL     1       4.194 -10.548  -6.989  1.00  0.00    -0.031 C 
ENDROOT
BRANCH   1   3
ATOM      3  C   UNL     1       4.530 -10.931  -4.509  1.00  0.00     0.027 C 
BRANCH   3   4
ATOM      4  C   UNL     1       4.761 -12.347  -3.954  1.00  0.00     0.004 C 
BRANCH   4   5
ATOM      5  C   UNL     1       5.895 -13.124  -4.646  1.00  0.00     0.000 C 
BRANCH   5   6
ATOM      6  C   UNL     1       7.194 -13.147  -3.825  1.00  0.00     0.000 C 
BRANCH   6   7
ATOM      7  C   UNL     1       6.899 -13.417  -2.342  1.00  0.00     0.000 C 
BRANCH   7   8
ATOM      8  C   UNL     1       7.608 -12.423  -1.408  1.00  0.00     0.006 C 
BRANCH   8   9
ATOM      9  C   UNL     1       7.612 -10.992  -1.962  1.00  0.00     0.053 C 
BRANCH   9  10
ATOM     10  C   UNL     1       6.617 -10.147  -1.230  1.00  0.00     0.041 C 
ATOM     11  O   UNL     1       6.831  -8.917  -1.066  1.00  0.00    -0.550 OA
ATOM     12  O   UNL     1       5.432 -10.708  -0.773  1.00  0.00    -0.550 OA
ENDBRANCH   9  10
ENDBRANCH   8   9
ENDBRANCH   7   8
ENDBRANCH   6   7
ENDBRANCH   5   6
ENDBRANCH   4   5
ENDBRANCH   3   4
ENDBRANCH   1   3
BRANCH   2  13
ATOM     13  C   UNL     1       2.691 -10.471  -6.914  1.00  0.00     0.027 C 
BRANCH  13  14
ATOM     14  C   UNL     1       2.150  -9.424  -7.901  1.00  0.00     0.004 C 
BRANCH  14  15
ATOM     15  C   UNL     1       1.216  -8.409  -7.225  1.00  0.00     0.000 C 
BRANCH  15  16
ATOM     16  C   UNL     1       1.835  -7.804  -5.953  1.00  0.00     0.000 C 
BRANCH  16  17
ATOM     17  C   UNL     1       2.907  -6.741  -6.257  1.00  0.00    -0.000 C 
BRANCH  17  18
ATOM     18  C   UNL     1       4.317  -7.069  -5.735  1.00  0.00    -0.000 C 
BRANCH  18  19
ATOM     19  C   UNL     1       5.393  -6.995  -6.828  1.00  0.00    -0.003 C 
ATOM     20  C   UNL     1       4.761  -6.938  -8.216  1.00  0.00     0.004 C 
ENDBRANCH  18  19
ENDBRANCH  17  18
ENDBRANCH  16  17
ENDBRANCH  15  16
ENDBRANCH  14  15
ENDBRANCH  13  14
ENDBRANCH   2  13
TORSDOF 15
ENDMDL
MODEL 9
REMARK VINA RESULT:    -4.596      1.864      2.420
REMARK INTER + INTRA:         -11.267
REMARK INTER:                  -8.471
REMARK INTRA:                  -2.795
REMARK UNBOUND:                -2.640
REMARK SMILES CCCCCCCCC=CCCCCCCCC(=O)[O-]
REMARK SMILES IDX 10 1 9 2 11 3 12 4 13 5 14 6 15 7 16 8 17 9 18 10 19 11
REMARK SMILES IDX 20 12 8 13 7 14 6 15 5 16 4 17 3 18 2 19 1 20
REMARK H PARENT
REMARK Flexibility Score: inf
ROOT
ATOM      1  C   UNL     1       7.261 -13.532  -2.214  1.00  0.00    -0.031 C 
ATOM      2  C   UNL     1       7.453 -12.599  -1.262  1.00  0.00    -0.031 C 
ENDROOT
BRANCH   1   3
ATOM      3  C   UNL     1       7.342 -13.274  -3.700  1.00  0.00     0.027 C 
BRANCH   3   4
ATOM      4  C   UNL     1       5.956 -13.252  -4.366  1.00  0.00     0.004 C 
BRANCH   4   5
ATOM      5  C   UNL     1       5.549 -11.884  -4.944  1.00  0.00     0.000 C 
BRANCH   5   6
ATOM      6  C   UNL     1       4.090 -11.848  -5.425  1.00  0.00     0.000 C 
BRANCH   6   7
ATOM      7  C   UNL     1       3.562 -10.406  -5.464  1.00  0.00     0.000 C 
BRANCH   7   8
ATOM      8  C   UNL     1       3.156  -9.964  -6.880  1.00  0.00     0.006 C 
BRANCH   8   9
ATOM      9  C   UNL     1       1.711 -10.345  -7.226  1.00  0.00     0.053 C 
BRANCH   9  10
ATOM     10  C   UNL     1       0.845  -9.126  -7.263  1.00  0.00     0.041 C 
ATOM     11  O   UNL     1       1.364  -7.985  -7.385  1.00  0.00    -0.550 OA
ATOM     12  O   UNL     1      -0.537  -9.253  -7.214  1.00  0.00    -0.550 OA
ENDBRANCH   9  10
ENDBRANCH   8   9
ENDBRANCH   7   8
ENDBRANCH   6   7
ENDBRANCH   5   6
ENDBRANCH   4   5
ENDBRANCH   3   4
ENDBRANCH   1   3
BRANCH   2  13
ATOM     13  C   UNL     1       7.869 -11.176  -1.533  1.00  0.00     0.027 C 
BRANCH  13  14
ATOM     14  C   UNL     1       6.638 -10.266  -1.663  1.00  0.00     0.004 C 
BRANCH  14  15
ATOM     15  C   UNL     1       5.414 -10.827  -0.923  1.00  0.00     0.000 C 
BRANCH  15  16
ATOM     16  C   UNL     1       4.119 -10.679  -1.742  1.00  0.00     0.000 C 
BRANCH  16  17
ATOM     17  C   UNL     1       3.276 -11.967  -1.767  1.00  0.00    -0.000 C 
BRANCH  17  18
ATOM     18  C   UNL     1       3.748 -13.075  -0.809  1.00  0.00    -0.000 C 
BRANCH  18  19
ATOM     19  C   UNL     1       3.760 -14.465  -1.460  1.00  0.00    -0.003 C 
ATOM     20  C   UNL     1       2.892 -14.491  -2.714  1.00  0.00     0.004 C 
ENDBRANCH  18  19
ENDBRANCH  17  18
ENDBRANCH  16  17
ENDBRANCH  15  16
ENDBRANCH  14  15
ENDBRANCH  13  14
ENDBRANCH   2  13
TORSDOF 15
ENDMDL
