MODEL 1
REMARK VINA RESULT:    -5.112      0.000      0.000
REMARK INTER + INTRA:          -5.604
REMARK INTER:                  -5.560
REMARK INTRA:                  -0.043
REMARK UNBOUND:                -0.043
REMARK SMILES COc1cc2ccc(=O)oc2cc1O
REMARK SMILES IDX 3 1 13 2 12 3 11 4 5 5 4 6 6 7 7 8 8 9 9 10 10 11 2 12 1 13
REMARK SMILES IDX 14 14
REMARK H PARENT 14 15
REMARK Flexibility Score: inf
ROOT
ATOM      1  C   UNL     1      19.574  -1.259 -18.763  1.00  0.00     0.161 A 
ATOM      2  C   UNL     1      19.914   0.013 -18.258  1.00  0.00     0.161 A 
ATOM      3  C   UNL     1      20.553   0.949 -19.079  1.00  0.00     0.098 A 
ATOM      4  C   UNL     1      20.861   0.635 -20.404  1.00  0.00     0.142 A 
ATOM      5  C   UNL     1      20.525  -0.634 -20.919  1.00  0.00     0.022 A 
ATOM      6  C   UNL     1      19.885  -1.575 -20.102  1.00  0.00     0.062 A 
ATOM      7  C   UNL     1      20.847  -0.919 -22.250  1.00  0.00     0.019 A 
ATOM      8  C   UNL     1      21.483   0.051 -23.023  1.00  0.00     0.094 A 
ATOM      9  C   UNL     1      21.786   1.288 -22.445  1.00  0.00     0.336 A 
ATOM     10  O   UNL     1      22.361   2.177 -23.125  1.00  0.00    -0.246 OA
ATOM     11  O   UNL     1      21.469   1.533 -21.175  1.00  0.00    -0.423 OA
ENDROOT
BRANCH   1  12
ATOM     12  O   UNL     1      18.932  -2.175 -17.914  1.00  0.00    -0.493 OA
ATOM     13  C   UNL     1      18.510  -3.478 -18.301  1.00  0.00     0.278 C 
ENDBRANCH   1  12
BRANCH   2  14
ATOM     14  O   UNL     1      19.622   0.363 -16.939  1.00  0.00    -0.504 OA
ATOM     15  H   UNL     1      19.286  -0.311 -16.263  1.00  0.00     0.293 HD
ENDBRANCH   2  14
TORSDOF 2
ENDMDL
MODEL 2
REMARK VINA RESULT:    -5.027     15.740     17.046
REMARK INTER + INTRA:          -5.511
REMARK INTER:                  -5.466
REMARK INTRA:                  -0.045
REMARK UNBOUND:                -0.043
REMARK SMILES COc1cc2ccc(=O)oc2cc1O
REMARK SMILES IDX 3 1 13 2 12 3 11 4 5 5 4 6 6 7 7 8 8 9 9 10 10 11 2 12 1 13
REMARK SMILES IDX 14 14
REMARK H PARENT 14 15
REMARK Flexibility Score: inf
ROOT
ATOM      1  C   UNL     1       7.609  -4.350 -10.690  1.00  0.00     0.161 A 
ATOM      2  C   UNL     1       7.216  -4.379  -9.336  1.00  0.00     0.161 A 
ATOM      3  C   UNL     1       7.921  -5.161  -8.415  1.00  0.00     0.098 A 
ATOM      4  C   UNL     1       9.018  -5.921  -8.825  1.00  0.00     0.142 A 
ATOM      5  C   UNL     1       9.419  -5.899 -10.176  1.00  0.00     0.022 A 
ATOM      6  C   UNL     1       8.717  -5.118 -11.103  1.00  0.00     0.062 A 
ATOM      7  C   UNL     1      10.522  -6.672 -10.556  1.00  0.00     0.019 A 
ATOM      8  C   UNL     1      11.188  -7.433  -9.597  1.00  0.00     0.094 A 
ATOM      9  C   UNL     1      10.734  -7.405  -8.274  1.00  0.00     0.336 A 
ATOM     10  O   UNL     1      11.320  -8.085  -7.393  1.00  0.00    -0.246 OA
ATOM     11  O   UNL     1       9.681  -6.662  -7.940  1.00  0.00    -0.423 OA
ENDROOT
BRANCH   1  12
ATOM     12  O   UNL     1       6.881  -3.554 -11.589  1.00  0.00    -0.493 OA
ATOM     13  C   UNL     1       7.401  -3.023 -12.803  1.00  0.00     0.278 C 
ENDBRANCH   1  12
BRANCH   2  14
ATOM     14  O   UNL     1       6.125  -3.633  -8.889  1.00  0.00    -0.504 OA
ATOM     15  H   UNL     1       6.214  -2.668  -8.597  1.00  0.00     0.293 HD
ENDBRANCH   2  14
TORSDOF 2
ENDMDL
MODEL 3
REMARK VINA RESULT:    -4.921      1.162      4.945
REMARK INTER + INTRA:          -5.396
REMARK INTER:                  -5.352
REMARK INTRA:                  -0.043
REMARK UNBOUND:                -0.043
REMARK SMILES COc1cc2ccc(=O)oc2cc1O
REMARK SMILES IDX 3 1 13 2 12 3 11 4 5 5 4 6 6 7 7 8 8 9 9 10 10 11 2 12 1 13
REMARK SMILES IDX 14 14
REMARK H PARENT 14 15
REMARK Flexibility Score: inf
ROOT
ATOM      1  C   UNL     1      21.016   0.075 -20.779  1.00  0.00     0.161 A 
ATOM      2  C   UNL     1      20.960   0.952 -19.677  1.00  0.00     0.161 A 
ATOM      3  C   UNL     1      20.322   0.558 -18.495  1.00  0.00     0.098 A 
ATOM      4  C   UNL     1      19.736  -0.705 -18.394  1.00  0.00     0.142 A 
ATOM      5  C   UNL     1      19.788  -1.590 -19.491  1.00  0.00     0.022 A 
ATOM      6  C   UNL     1      20.424  -1.200 -20.676  1.00  0.00     0.062 A 
ATOM      7  C   UNL     1      19.192  -2.849 -19.359  1.00  0.00     0.019 A 
ATOM      8  C   UNL     1      18.571  -3.190 -18.158  1.00  0.00     0.094 A 
ATOM      9  C   UNL     1      18.559  -2.261 -17.113  1.00  0.00     0.336 A 
ATOM     10  O   UNL     1      18.003  -2.548 -16.022  1.00  0.00    -0.246 OA
ATOM     11  O   UNL     1      19.133  -1.069 -17.265  1.00  0.00    -0.423 OA
ENDROOT
BRANCH   1  12
ATOM     12  O   UNL     1      21.663   0.501 -21.950  1.00  0.00    -0.493 OA
ATOM     13  C   UNL     1      21.933  -0.331 -23.073  1.00  0.00     0.278 C 
ENDBRANCH   1  12
BRANCH   2  14
ATOM     14  O   UNL     1      21.533   2.223 -19.740  1.00  0.00    -0.504 OA
ATOM     15  H   UNL     1      22.215   2.473 -20.445  1.00  0.00     0.293 HD
ENDBRANCH   2  14
TORSDOF 2
ENDMDL
MODEL 4
REMARK VINA RESULT:    -4.909      2.569      4.216
REMARK INTER + INTRA:          -5.383
REMARK INTER:                  -5.320
REMARK INTRA:                  -0.063
REMARK UNBOUND:                -0.043
REMARK SMILES COc1cc2ccc(=O)oc2cc1O
REMARK SMILES IDX 3 1 13 2 12 3 11 4 5 5 4 6 6 7 7 8 8 9 9 10 10 11 2 12 1 13
REMARK SMILES IDX 14 14
REMARK H PARENT 14 15
REMARK Flexibility Score: inf
ROOT
ATOM      1  C   UNL     1      21.200   0.672 -20.736  1.00  0.00     0.161 A 
ATOM      2  C   UNL     1      21.392   0.555 -22.127  1.00  0.00     0.161 A 
ATOM      3  C   UNL     1      21.868   1.644 -22.866  1.00  0.00     0.098 A 
ATOM      4  C   UNL     1      22.157   2.856 -22.235  1.00  0.00     0.142 A 
ATOM      5  C   UNL     1      21.968   2.983 -20.844  1.00  0.00     0.022 A 
ATOM      6  C   UNL     1      21.492   1.896 -20.099  1.00  0.00     0.062 A 
ATOM      7  C   UNL     1      22.266   4.209 -20.241  1.00  0.00     0.019 A 
ATOM      8  C   UNL     1      22.738   5.262 -21.024  1.00  0.00     0.094 A 
ATOM      9  C   UNL     1      22.901   5.062 -22.399  1.00  0.00     0.336 A 
ATOM     10  O   UNL     1      23.325   5.999 -23.125  1.00  0.00    -0.246 OA
ATOM     11  O   UNL     1      22.609   3.885 -22.948  1.00  0.00    -0.423 OA
ENDROOT
BRANCH   1  12
ATOM     12  O   UNL     1      20.722  -0.439 -20.023  1.00  0.00    -0.493 OA
ATOM     13  C   UNL     1      19.354  -0.665 -19.700  1.00  0.00     0.278 C 
ENDBRANCH   1  12
BRANCH   2  14
ATOM     14  O   UNL     1      21.115  -0.639 -22.793  1.00  0.00    -0.504 OA
ATOM     15  H   UNL     1      20.628  -1.406 -22.346  1.00  0.00     0.293 HD
ENDBRANCH   2  14
TORSDOF 2
ENDMDL
MODEL 5
REMARK VINA RESULT:    -4.872     17.091     18.605
REMARK INTER + INTRA:          -5.343
REMARK INTER:                  -5.297
REMARK INTRA:                  -0.045
REMARK UNBOUND:                -0.043
REMARK SMILES COc1cc2ccc(=O)oc2cc1O
REMARK SMILES IDX 3 1 13 2 12 3 11 4 5 5 4 6 6 7 7 8 8 9 9 10 10 11 2 12 1 13
REMARK SMILES IDX 14 14
REMARK H PARENT 14 15
REMARK Flexibility Score: inf
ROOT
ATOM      1  C   UNL     1       8.532  -5.721  -5.734  1.00  0.00     0.161 A 
ATOM      2  C   UNL     1       9.820  -5.390  -6.204  1.00  0.00     0.161 A 
ATOM      3  C   UNL     1      10.293  -5.934  -7.403  1.00  0.00     0.098 A 
ATOM      4  C   UNL     1       9.497  -6.808  -8.147  1.00  0.00     0.142 A 
ATOM      5  C   UNL     1       8.208  -7.144  -7.686  1.00  0.00     0.022 A 
ATOM      6  C   UNL     1       7.729  -6.603  -6.486  1.00  0.00     0.062 A 
ATOM      7  C   UNL     1       7.435  -8.022  -8.453  1.00  0.00     0.019 A 
ATOM      8  C   UNL     1       7.956  -8.535  -9.641  1.00  0.00     0.094 A 
ATOM      9  C   UNL     1       9.243  -8.156 -10.036  1.00  0.00     0.336 A 
ATOM     10  O   UNL     1       9.732  -8.606 -11.104  1.00  0.00    -0.246 OA
ATOM     11  O   UNL     1       9.958  -7.319  -9.287  1.00  0.00    -0.423 OA
ENDROOT
BRANCH   1  12
ATOM     12  O   UNL     1       8.087  -5.158  -4.527  1.00  0.00    -0.493 OA
ATOM     13  C   UNL     1       8.312  -5.723  -3.240  1.00  0.00     0.278 C 
ENDBRANCH   1  12
BRANCH   2  14
ATOM     14  O   UNL     1      10.644  -4.521  -5.489  1.00  0.00    -0.504 OA
ATOM     15  H   UNL     1      10.775  -3.555  -5.760  1.00  0.00     0.293 HD
ENDBRANCH   2  14
TORSDOF 2
ENDMDL
MODEL 6
REMARK VINA RESULT:    -4.870     15.637     17.772
REMARK INTER + INTRA:          -5.341
REMARK INTER:                  -5.297
REMARK INTRA:                  -0.043
REMARK UNBOUND:                -0.043
REMARK SMILES COc1cc2ccc(=O)oc2cc1O
REMARK SMILES IDX 3 1 13 2 12 3 11 4 5 5 4 6 6 7 7 8 8 9 9 10 10 11 2 12 1 13
REMARK SMILES IDX 14 14
REMARK H PARENT 14 15
REMARK Flexibility Score: inf
ROOT
ATOM      1  C   UNL     1       7.864  -5.232 -11.808  1.00  0.00     0.161 A 
ATOM      2  C   UNL     1       8.139  -6.587 -12.085  1.00  0.00     0.161 A 
ATOM      3  C   UNL     1       8.379  -7.485 -11.039  1.00  0.00     0.098 A 
ATOM      4  C   UNL     1       8.349  -7.051  -9.712  1.00  0.00     0.142 A 
ATOM      5  C   UNL     1       8.075  -5.699  -9.425  1.00  0.00     0.022 A 
ATOM      6  C   UNL     1       7.834  -4.795 -10.468  1.00  0.00     0.062 A 
ATOM      7  C   UNL     1       8.052  -5.294  -8.085  1.00  0.00     0.019 A 
ATOM      8  C   UNL     1       8.297  -6.231  -7.083  1.00  0.00     0.094 A 
ATOM      9  C   UNL     1       8.563  -7.556  -7.443  1.00  0.00     0.336 A 
ATOM     10  O   UNL     1       8.787  -8.418  -6.555  1.00  0.00    -0.246 OA
ATOM     11  O   UNL     1       8.579  -7.914  -8.726  1.00  0.00    -0.423 OA
ENDROOT
BRANCH   1  12
ATOM     12  O   UNL     1       7.627  -4.357 -12.880  1.00  0.00    -0.493 OA
ATOM     13  C   UNL     1       7.247  -2.992 -12.740  1.00  0.00     0.278 C 
ENDBRANCH   1  12
BRANCH   2  14
ATOM     14  O   UNL     1       8.177  -7.057 -13.398  1.00  0.00    -0.504 OA
ATOM     15  H   UNL     1       8.397  -6.456 -14.181  1.00  0.00     0.293 HD
ENDBRANCH   2  14
TORSDOF 2
ENDMDL
MODEL 7
REMARK VINA RESULT:    -4.860     16.169     18.126
REMARK INTER + INTRA:          -5.330
REMARK INTER:                  -5.284
REMARK INTRA:                  -0.046
REMARK UNBOUND:                -0.043
REMARK SMILES COc1cc2ccc(=O)oc2cc1O
REMARK SMILES IDX 3 1 13 2 12 3 11 4 5 5 4 6 6 7 7 8 8 9 9 10 10 11 2 12 1 13
REMARK SMILES IDX 14 14
REMARK H PARENT 14 15
REMARK Flexibility Score: inf
ROOT
ATOM      1  C   UNL     1       8.075  -6.557  -6.804  1.00  0.00     0.161 A 
ATOM      2  C   UNL     1       8.396  -7.816  -7.350  1.00  0.00     0.161 A 
ATOM      3  C   UNL     1       8.463  -7.986  -8.737  1.00  0.00     0.098 A 
ATOM      4  C   UNL     1       8.213  -6.913  -9.595  1.00  0.00     0.142 A 
ATOM      5  C   UNL     1       7.892  -5.649  -9.059  1.00  0.00     0.022 A 
ATOM      6  C   UNL     1       7.823  -5.473  -7.671  1.00  0.00     0.062 A 
ATOM      7  C   UNL     1       7.646  -4.594  -9.944  1.00  0.00     0.019 A 
ATOM      8  C   UNL     1       7.727  -4.819 -11.317  1.00  0.00     0.094 A 
ATOM      9  C   UNL     1       8.051  -6.099 -11.777  1.00  0.00     0.336 A 
ATOM     10  O   UNL     1       8.129  -6.324 -13.012  1.00  0.00    -0.246 OA
ATOM     11  O   UNL     1       8.279  -7.086 -10.913  1.00  0.00    -0.423 OA
ENDROOT
BRANCH   1  12
ATOM     12  O   UNL     1       8.017  -6.419  -5.408  1.00  0.00    -0.493 OA
ATOM     13  C   UNL     1       8.372  -5.238  -4.696  1.00  0.00     0.278 C 
ENDBRANCH   1  12
BRANCH   2  14
ATOM     14  O   UNL     1       8.652  -8.912  -6.525  1.00  0.00    -0.504 OA
ATOM     15  H   UNL     1       8.593  -8.854  -5.516  1.00  0.00     0.293 HD
ENDBRANCH   2  14
TORSDOF 2
ENDMDL
MODEL 8
REMARK VINA RESULT:    -4.727     15.727     18.317
REMARK INTER + INTRA:          -5.185
REMARK INTER:                  -5.125
REMARK INTRA:                  -0.060
REMARK UNBOUND:                -0.043
REMARK SMILES COc1cc2ccc(=O)oc2cc1O
REMARK SMILES IDX 3 1 13 2 12 3 11 4 5 5 4 6 6 7 7 8 8 9 9 10 10 11 2 12 1 13
REMARK SMILES IDX 14 14
REMARK H PARENT 14 15
REMARK Flexibility Score: inf
ROOT
ATOM      1  C   UNL     1       8.029  -6.810 -11.048  1.00  0.00     0.161 A 
ATOM      2  C   UNL     1       8.071  -5.424 -10.790  1.00  0.00     0.161 A 
ATOM      3  C   UNL     1       8.086  -4.953  -9.473  1.00  0.00     0.098 A 
ATOM      4  C   UNL     1       8.058  -5.847  -8.401  1.00  0.00     0.142 A 
ATOM      5  C   UNL     1       8.016  -7.234  -8.648  1.00  0.00     0.022 A 
ATOM      6  C   UNL     1       8.001  -7.712  -9.964  1.00  0.00     0.062 A 
ATOM      7  C   UNL     1       7.990  -8.104  -7.552  1.00  0.00     0.019 A 
ATOM      8  C   UNL     1       8.006  -7.581  -6.260  1.00  0.00     0.094 A 
ATOM      9  C   UNL     1       8.048  -6.193  -6.092  1.00  0.00     0.336 A 
ATOM     10  O   UNL     1       8.063  -5.699  -4.935  1.00  0.00    -0.246 OA
ATOM     11  O   UNL     1       8.072  -5.387  -7.152  1.00  0.00    -0.423 OA
ENDROOT
BRANCH   1  12
ATOM     12  O   UNL     1       8.016  -7.250 -12.381  1.00  0.00    -0.493 OA
ATOM     13  C   UNL     1       9.061  -7.995 -12.997  1.00  0.00     0.278 C 
ENDBRANCH   1  12
BRANCH   2  14
ATOM     14  O   UNL     1       8.099  -4.500 -11.836  1.00  0.00    -0.504 OA
ATOM     15  H   UNL     1       7.981  -3.507 -11.682  1.00  0.00     0.293 HD
ENDBRANCH   2  14
TORSDOF 2
ENDMDL
