MODEL 1
REMARK VINA RESULT:    -2.462      0.000      0.000
REMARK INTER + INTRA:          -3.797
REMARK INTER:                  -4.045
REMARK INTRA:                   0.248
REMARK UNBOUND:                 0.248
REMARK SMILES C[C@@H]1O[C@@H](OC[C@H]2O[C@H](Oc3c(-c4ccc(O)c(O)c4)oc4cc(O)cc(O)c4c3=O)[C@@H](O)[C@H](O)[C@@H]2O)[C@H](O)[C@@H](O)[C@H]1O
REMARK SMILES IDX 7 1 36 2 34 3 32 4 9 5 8 6 6 7 5 8 4 9 1 10 2 11 42 12 3 13
REMARK SMILES IDX 40 14 38 15 43 16 41 18 39 20 37 22 35 24 10 26 11 27 12 28
REMARK SMILES IDX 30 29 21 30 29 31 31 32 22 33 27 34 23 35 26 36 24 37 13 38
REMARK SMILES IDX 20 39 14 40 18 41 15 42 16 43 19 44 17 46 28 48 25 50 33 52
REMARK H PARENT 43 17 41 19 39 21 37 23 35 25 19 45 17 47 28 49 25 51 33 53
REMARK Flexibility Score: inf
ROOT
ATOM      1  C   UNL     1       3.466  34.178  86.768  1.00  0.00     0.180 C 
ATOM      2  C   UNL     1       3.722  34.082  88.391  1.00  0.00     0.177 C 
ATOM      3  C   UNL     1       3.362  32.658  89.074  1.00  0.00     0.180 C 
ATOM      4  C   UNL     1       3.854  31.669  88.051  1.00  0.00     0.214 C 
ATOM      5  C   UNL     1       3.073  31.765  86.701  1.00  0.00     0.339 C 
ATOM      6  O   UNL     1       2.651  33.097  86.318  1.00  0.00    -0.332 OA
ENDROOT
BRANCH   1   7
ATOM      7  C   UNL     1       4.729  34.311  85.833  1.00  0.00     0.198 C 
BRANCH   7   8
ATOM      8  O   UNL     1       5.964  34.277  86.562  1.00  0.00    -0.347 OA
BRANCH   8   9
ATOM      9  C   UNL     1       7.131  33.856  85.828  1.00  0.00     0.281 C 
ATOM     10  C   UNL     1       9.540  33.035  88.498  1.00  0.00     0.041 C 
ATOM     11  C   UNL     1       8.409  33.827  87.818  1.00  0.00     0.150 C 
ATOM     12  C   UNL     1       9.011  35.251  87.509  1.00  0.00     0.174 C 
ATOM     13  O   UNL     1       8.053  33.132  86.641  1.00  0.00    -0.344 OA
ATOM     14  C   UNL     1       8.301  36.070  86.382  1.00  0.00     0.179 C 
ATOM     15  C   UNL     1       7.831  35.114  85.256  1.00  0.00     0.202 C 
BRANCH  12  16
ATOM     16  O   UNL     1       9.214  35.992  88.696  1.00  0.00    -0.388 OA
ATOM     17  H   UNL     1       9.911  35.525  89.252  1.00  0.00     0.211 HD
ENDBRANCH  12  16
BRANCH  14  18
ATOM     18  O   UNL     1       7.279  36.872  86.921  1.00  0.00    -0.387 OA
ATOM     19  H   UNL     1       7.695  37.607  87.437  1.00  0.00     0.211 HD
ENDBRANCH  14  18
BRANCH  15  20
ATOM     20  O   UNL     1       8.898  34.760  84.407  1.00  0.00    -0.385 OA
ATOM     21  H   UNL     1       9.622  35.421  84.548  1.00  0.00     0.211 HD
ENDBRANCH  15  20
ENDBRANCH   8   9
ENDBRANCH   7   8
ENDBRANCH   1   7
BRANCH   2  22
ATOM     22  O   UNL     1       2.987  35.129  89.064  1.00  0.00    -0.387 OA
ATOM     23  H   UNL     1       3.304  36.040  88.759  1.00  0.00     0.211 HD
ENDBRANCH   2  22
BRANCH   3  24
ATOM     24  O   UNL     1       1.978  32.620  89.125  1.00  0.00    -0.387 OA
ATOM     25  H   UNL     1       1.683  33.005  88.235  1.00  0.00     0.211 HD
ENDBRANCH   3  24
BRANCH   5  26
ATOM     26  O   UNL     1       1.955  30.939  86.772  1.00  0.00    -0.454 OA
BRANCH  26  27
ATOM     27  C   UNL     1       0.744  31.182  86.076  1.00  0.00     0.214 A 
ATOM     28  C   UNL     1       0.675  31.401  84.690  1.00  0.00     0.180 A 
ATOM     29  C   UNL     1      -0.415  31.294  86.848  1.00  0.00     0.239 A 
ATOM     30  O   UNL     1      -0.475  31.758  84.113  1.00  0.00    -0.452 OA
ATOM     31  C   UNL     1      -1.626  31.614  86.211  1.00  0.00     0.111 A 
ATOM     32  O   UNL     1      -0.321  31.234  88.100  1.00  0.00    -0.285 OA
ATOM     33  C   UNL     1      -1.613  31.877  84.823  1.00  0.00     0.146 A 
ATOM     34  C   UNL     1      -2.854  31.728  86.924  1.00  0.00     0.134 A 
ATOM     35  C   UNL     1      -2.739  32.318  84.174  1.00  0.00     0.094 A 
ATOM     36  C   UNL     1      -3.968  32.234  86.272  1.00  0.00     0.093 A 
ATOM     37  C   UNL     1      -3.924  32.553  84.896  1.00  0.00     0.123 A 
BRANCH  28  38
ATOM     38  C   UNL     1       1.801  31.161  83.780  1.00  0.00     0.025 A 
ATOM     39  C   UNL     1       3.095  31.138  84.296  1.00  0.00     0.062 A 
ATOM     40  C   UNL     1       1.591  31.049  82.386  1.00  0.00     0.016 A 
ATOM     41  C   UNL     1       4.212  31.033  83.457  1.00  0.00     0.158 A 
ATOM     42  C   UNL     1       2.700  30.902  81.543  1.00  0.00     0.051 A 
ATOM     43  C   UNL     1       4.006  30.958  82.044  1.00  0.00     0.157 A 
BRANCH  41  44
ATOM     44  O   UNL     1       5.473  31.225  84.019  1.00  0.00    -0.504 OA
ATOM     45  H   UNL     1       5.900  32.141  84.128  1.00  0.00     0.293 HD
ENDBRANCH  41  44
BRANCH  43  46
ATOM     46  O   UNL     1       5.063  30.883  81.142  1.00  0.00    -0.504 OA
ATOM     47  H   UNL     1       5.987  30.572  81.385  1.00  0.00     0.293 HD
ENDBRANCH  43  46
ENDBRANCH  28  38
BRANCH  34  48
ATOM     48  O   UNL     1      -2.964  31.330  88.265  1.00  0.00    -0.507 OA
ATOM     49  H   UNL     1      -2.676  31.944  89.004  1.00  0.00     0.293 HD
ENDBRANCH  34  48
BRANCH  37  50
ATOM     50  O   UNL     1      -4.976  33.201  84.276  1.00  0.00    -0.508 OA
ATOM     51  H   UNL     1      -5.283  34.099  84.628  1.00  0.00     0.293 HD
ENDBRANCH  37  50
ENDBRANCH  26  27
ENDBRANCH   5  26
BRANCH   4  52
ATOM     52  O   UNL     1       5.223  31.973  87.763  1.00  0.00    -0.384 OA
ATOM     53  H   UNL     1       5.697  32.036  88.641  1.00  0.00     0.211 HD
ENDBRANCH   4  52
TORSDOF 16
ENDMDL
MODEL 2
REMARK VINA RESULT:    -0.019      1.530      1.969
REMARK INTER + INTRA:           0.217
REMARK INTER:                  -4.418
REMARK INTRA:                   4.635
REMARK UNBOUND:                 0.248
REMARK SMILES C[C@@H]1O[C@@H](OC[C@H]2O[C@H](Oc3c(-c4ccc(O)c(O)c4)oc4cc(O)cc(O)c4c3=O)[C@@H](O)[C@H](O)[C@@H]2O)[C@H](O)[C@@H](O)[C@H]1O
REMARK SMILES IDX 7 1 36 2 34 3 32 4 9 5 8 6 6 7 5 8 4 9 1 10 2 11 42 12 3 13
REMARK SMILES IDX 40 14 38 15 43 16 41 18 39 20 37 22 35 24 10 26 11 27 12 28
REMARK SMILES IDX 30 29 21 30 29 31 31 32 22 33 27 34 23 35 26 36 24 37 13 38
REMARK SMILES IDX 20 39 14 40 18 41 15 42 16 43 19 44 17 46 28 48 25 50 33 52
REMARK H PARENT 43 17 41 19 39 21 37 23 35 25 19 45 17 47 28 49 25 51 33 53
REMARK Flexibility Score: inf
ROOT
ATOM      1  C   UNL     1       2.458  33.928  86.868  1.00  0.00     0.180 C 
ATOM      2  C   UNL     1       2.507  33.790  88.507  1.00  0.00     0.177 C 
ATOM      3  C   UNL     1       1.790  32.474  89.122  1.00  0.00     0.180 C 
ATOM      4  C   UNL     1       2.181  31.399  88.141  1.00  0.00     0.214 C 
ATOM      5  C   UNL     1       1.590  31.647  86.715  1.00  0.00     0.339 C 
ATOM      6  O   UNL     1       1.495  33.035  86.312  1.00  0.00    -0.332 OA
ENDROOT
BRANCH   1   7
ATOM      7  C   UNL     1       3.818  33.794  86.080  1.00  0.00     0.198 C 
BRANCH   7   8
ATOM      8  O   UNL     1       4.940  34.291  86.823  1.00  0.00    -0.347 OA
BRANCH   8   9
ATOM      9  C   UNL     1       5.918  33.315  87.235  1.00  0.00     0.281 C 
ATOM     10  C   UNL     1       8.491  35.371  88.895  1.00  0.00     0.041 C 
ATOM     11  C   UNL     1       7.424  35.037  87.839  1.00  0.00     0.150 C 
ATOM     12  C   UNL     1       8.201  34.901  86.475  1.00  0.00     0.174 C 
ATOM     13  O   UNL     1       6.810  33.824  88.226  1.00  0.00    -0.344 OA
ATOM     14  C   UNL     1       7.491  34.071  85.356  1.00  0.00     0.179 C 
ATOM     15  C   UNL     1       6.730  32.878  85.990  1.00  0.00     0.202 C 
BRANCH  12  16
ATOM     16  O   UNL     1       8.674  36.155  86.025  1.00  0.00    -0.388 OA
ATOM     17  H   UNL     1       7.928  36.625  85.538  1.00  0.00     0.211 HD
ENDBRANCH  12  16
BRANCH  14  18
ATOM     18  O   UNL     1       6.690  34.903  84.553  1.00  0.00    -0.387 OA
ATOM     19  H   UNL     1       7.011  34.842  83.619  1.00  0.00     0.211 HD
ENDBRANCH  14  18
BRANCH  15  20
ATOM     20  O   UNL     1       7.607  31.819  86.301  1.00  0.00    -0.385 OA
ATOM     21  H   UNL     1       7.242  30.999  85.883  1.00  0.00     0.211 HD
ENDBRANCH  15  20
ENDBRANCH   8   9
ENDBRANCH   7   8
ENDBRANCH   1   7
BRANCH   2  22
ATOM     22  O   UNL     1       1.931  34.969  89.114  1.00  0.00    -0.387 OA
ATOM     23  H   UNL     1       1.370  35.477  88.443  1.00  0.00     0.211 HD
ENDBRANCH   2  22
BRANCH   3  24
ATOM     24  O   UNL     1       0.431  32.720  89.019  1.00  0.00    -0.387 OA
ATOM     25  H   UNL     1       0.239  32.661  88.027  1.00  0.00     0.211 HD
ENDBRANCH   3  24
BRANCH   5  26
ATOM     26  O   UNL     1       0.326  31.067  86.649  1.00  0.00    -0.454 OA
BRANCH  26  27
ATOM     27  C   UNL     1      -0.487  31.071  85.487  1.00  0.00     0.214 A 
ATOM     28  C   UNL     1       0.025  31.153  84.181  1.00  0.00     0.180 A 
ATOM     29  C   UNL     1      -1.869  31.082  85.686  1.00  0.00     0.239 A 
ATOM     30  O   UNL     1      -0.795  31.289  83.136  1.00  0.00    -0.452 OA
ATOM     31  C   UNL     1      -2.714  31.166  84.567  1.00  0.00     0.111 A 
ATOM     32  O   UNL     1      -2.315  31.147  86.859  1.00  0.00    -0.285 OA
ATOM     33  C   UNL     1      -2.132  31.304  83.286  1.00  0.00     0.146 A 
ATOM     34  C   UNL     1      -4.134  31.165  84.682  1.00  0.00     0.134 A 
ATOM     35  C   UNL     1      -2.907  31.520  82.174  1.00  0.00     0.094 A 
ATOM     36  C   UNL     1      -4.904  31.445  83.564  1.00  0.00     0.093 A 
ATOM     37  C   UNL     1      -4.304  31.643  82.299  1.00  0.00     0.123 A 
BRANCH  28  38
ATOM     38  C   UNL     1       1.449  30.999  83.864  1.00  0.00     0.025 A 
ATOM     39  C   UNL     1       2.369  30.906  84.906  1.00  0.00     0.062 A 
ATOM     40  C   UNL     1       1.898  31.039  82.522  1.00  0.00     0.016 A 
ATOM     41  C   UNL     1       3.748  30.878  84.659  1.00  0.00     0.158 A 
ATOM     42  C   UNL     1       3.273  30.971  82.265  1.00  0.00     0.051 A 
ATOM     43  C   UNL     1       4.207  30.957  83.307  1.00  0.00     0.157 A 
BRANCH  41  44
ATOM     44  O   UNL     1       4.610  30.994  85.750  1.00  0.00    -0.504 OA
ATOM     45  H   UNL     1       5.450  30.432  85.857  1.00  0.00     0.293 HD
ENDBRANCH  41  44
BRANCH  43  46
ATOM     46  O   UNL     1       5.560  30.967  82.982  1.00  0.00    -0.504 OA
ATOM     47  H   UNL     1       6.262  31.453  83.513  1.00  0.00     0.293 HD
ENDBRANCH  43  46
ENDBRANCH  28  38
BRANCH  34  48
ATOM     48  O   UNL     1      -4.771  30.875  85.899  1.00  0.00    -0.507 OA
ATOM     49  H   UNL     1      -5.766  30.752  85.937  1.00  0.00     0.293 HD
ENDBRANCH  34  48
BRANCH  37  50
ATOM     50  O   UNL     1      -5.043  32.075  81.215  1.00  0.00    -0.508 OA
ATOM     51  H   UNL     1      -6.043  32.206  81.314  1.00  0.00     0.293 HD
ENDBRANCH  37  50
ENDBRANCH  26  27
ENDBRANCH   5  26
BRANCH   4  52
ATOM     52  O   UNL     1       3.606  31.415  88.011  1.00  0.00    -0.384 OA
ATOM     53  H   UNL     1       3.950  32.082  88.671  1.00  0.00     0.211 HD
ENDBRANCH   4  52
TORSDOF 16
ENDMDL
