MODEL 1
REMARK VINA RESULT:   106.291      0.000      0.000
REMARK INTER + INTRA:         115.582
REMARK INTER:                 115.611
REMARK INTRA:                  -0.029
REMARK UNBOUND:                -0.029
REMARK SMILES C[C@@H]1[C@@H](C)CC[C@@]2(C(=O)[O-])CC[C@@]3(C)C(=CC[C@@H]4[C@@]5(C)CC[C@@H](O)C(C)(C)[C@@H]5CC[C@@]43C)[C@@H]12
REMARK SMILES IDX 7 1 6 2 11 3 33 4 5 5 12 6 15 7 2 8 3 9 13 10 16 11 1 12
REMARK SMILES IDX 4 13 14 14 31 15 17 16 18 17 30 18 32 19 19 20 29 21 28 22
REMARK SMILES IDX 21 23 20 24 25 25 22 26 23 27 26 28 27 29 8 30 9 31 10 32
REMARK SMILES IDX 24 33
REMARK H PARENT 24 34
REMARK Flexibility Score: inf
ROOT
ATOM      1  C   UNL     1      28.150  29.597   1.894  1.00  0.00     0.017 C 
ATOM      2  C   UNL     1      28.990  28.758   0.875  1.00  0.00     0.014 C 
ATOM      3  C   UNL     1      26.866  28.786   2.233  1.00  0.00     0.014 C 
ATOM      4  C   UNL     1      28.972  29.900   3.200  1.00  0.00     0.030 C 
ATOM      5  C   UNL     1      30.495  28.978   1.031  1.00  0.00     0.004 C 
ATOM      6  C   UNL     1      26.017  29.379   3.379  1.00  0.00     0.013 C 
ATOM      7  C   UNL     1      28.040  30.391   4.331  1.00  0.00    -0.063 C 
ATOM      8  C   UNL     1      29.978  28.774   3.579  1.00  0.00    -0.003 C 
ATOM      9  C   UNL     1      31.004  28.513   2.419  1.00  0.00    -0.011 C 
ATOM     10  C   UNL     1      26.786  29.589   4.735  1.00  0.00    -0.006 C 
ATOM     11  C   UNL     1      28.165  31.686   4.655  1.00  0.00    -0.027 C 
ATOM     12  C   UNL     1      30.746  29.125   4.870  1.00  0.00     0.008 C 
ATOM     13  C   UNL     1      31.419  27.033   2.378  1.00  0.00     0.008 C 
ATOM     14  C   UNL     1      27.210  28.190   5.300  1.00  0.00     0.017 C 
ATOM     15  C   UNL     1      25.857  30.335   5.855  1.00  0.00    -0.020 C 
ATOM     16  C   UNL     1      27.216  32.457   5.490  1.00  0.00     0.032 C 
ATOM     17  C   UNL     1      25.763  31.895   5.600  1.00  0.00     0.006 C 
ATOM     18  C   UNL     1      26.453  30.145   7.313  1.00  0.00     0.008 C 
ATOM     19  C   UNL     1      24.429  29.668   5.760  1.00  0.00     0.012 C 
ATOM     20  C   UNL     1      24.886  32.733   6.685  1.00  0.00    -0.025 C 
ATOM     21  C   UNL     1      26.121  31.242   8.377  1.00  0.00     0.005 C 
ATOM     22  C   UNL     1      24.804  31.966   8.055  1.00  0.00     0.003 C 
ATOM     23  C   UNL     1      23.417  32.917   6.205  1.00  0.00     0.010 C 
ATOM     24  C   UNL     1      25.482  34.175   6.838  1.00  0.00     0.012 C 
ATOM     25  C   UNL     1      24.000  32.660   9.223  1.00  0.00    -0.006 C 
ATOM     26  C   UNL     1      22.516  33.637   7.245  1.00  0.00     0.033 C 
ATOM     27  C   UNL     1      22.560  33.040   8.681  1.00  0.00     0.120 C 
ATOM     28  C   UNL     1      23.823  31.663  10.408  1.00  0.00     0.014 C 
ATOM     29  C   UNL     1      24.717  33.907   9.815  1.00  0.00     0.014 C 
ENDROOT
BRANCH   1  30
ATOM     30  C   UNL     1      27.765  30.915   1.216  1.00  0.00     0.048 C 
ATOM     31  O   UNL     1      28.655  31.740   0.876  1.00  0.00    -0.550 OA
ATOM     32  O   UNL     1      26.444  31.188   0.877  1.00  0.00    -0.550 OA
ENDBRANCH   1  30
BRANCH  27  33
ATOM     33  O   UNL     1      21.665  31.952   8.764  1.00  0.00    -0.393 OA
ATOM     34  H   UNL     1      21.583  31.688   9.716  1.00  0.00     0.210 HD
ENDBRANCH  27  33
TORSDOF 2
ENDMDL
