MODEL 1
REMARK VINA RESULT:    -3.027      0.000      0.000
REMARK INTER + INTRA:          -6.976
REMARK INTER:                  -5.681
REMARK INTRA:                  -1.295
REMARK UNBOUND:                -1.295
REMARK SMILES CCCCCCCCC=CCCCCCCCC(=O)[O-]
REMARK SMILES IDX 10 1 9 2 11 3 12 4 13 5 14 6 15 7 16 8 17 9 18 10 19 11
REMARK SMILES IDX 20 12 8 13 7 14 6 15 5 16 4 17 3 18 2 19 1 20
REMARK H PARENT
REMARK Flexibility Score: inf
ROOT
ATOM      1  C   UNL     1      55.696  26.172 -35.182  1.00  0.00    -0.031 C 
ATOM      2  C   UNL     1      54.889  25.796 -36.190  1.00  0.00    -0.031 C 
ENDROOT
BRANCH   1   3
ATOM      3  C   UNL     1      56.925  27.035 -35.341  1.00  0.00     0.027 C 
BRANCH   3   4
ATOM      4  C   UNL     1      56.587  28.531 -35.262  1.00  0.00     0.004 C 
BRANCH   4   5
ATOM      5  C   UNL     1      56.927  29.129 -33.885  1.00  0.00     0.000 C 
BRANCH   5   6
ATOM      6  C   UNL     1      56.540  28.204 -32.717  1.00  0.00     0.000 C 
BRANCH   6   7
ATOM      7  C   UNL     1      55.680  28.861 -31.621  1.00  0.00     0.000 C 
BRANCH   7   8
ATOM      8  C   UNL     1      56.449  29.091 -30.309  1.00  0.00     0.006 C 
BRANCH   8   9
ATOM      9  C   UNL     1      56.415  30.560 -29.867  1.00  0.00     0.053 C 
BRANCH   9  10
ATOM     10  C   UNL     1      56.129  31.479 -31.015  1.00  0.00     0.041 C 
ATOM     11  O   UNL     1      57.072  31.926 -31.720  1.00  0.00    -0.550 OA
ATOM     12  O   UNL     1      54.818  31.821 -31.321  1.00  0.00    -0.550 OA
ENDBRANCH   9  10
ENDBRANCH   8   9
ENDBRANCH   7   8
ENDBRANCH   6   7
ENDBRANCH   5   6
ENDBRANCH   4   5
ENDBRANCH   3   4
ENDBRANCH   1   3
BRANCH   2  13
ATOM     13  C   UNL     1      55.029  26.259 -37.619  1.00  0.00     0.027 C 
BRANCH  13  14
ATOM     14  C   UNL     1      54.408  27.648 -37.802  1.00  0.00     0.004 C 
BRANCH  14  15
ATOM     15  C   UNL     1      54.992  28.351 -39.036  1.00  0.00     0.000 C 
BRANCH  15  16
ATOM     16  C   UNL     1      55.272  29.842 -38.791  1.00  0.00     0.000 C 
BRANCH  16  17
ATOM     17  C   UNL     1      54.168  30.525 -37.969  1.00  0.00    -0.000 C 
BRANCH  17  18
ATOM     18  C   UNL     1      54.611  31.925 -37.516  1.00  0.00    -0.000 C 
BRANCH  18  19
ATOM     19  C   UNL     1      55.689  31.878 -36.420  1.00  0.00    -0.003 C 
ATOM     20  C   UNL     1      55.120  32.115 -35.021  1.00  0.00     0.004 C 
ENDBRANCH  18  19
ENDBRANCH  17  18
ENDBRANCH  16  17
ENDBRANCH  15  16
ENDBRANCH  14  15
ENDBRANCH  13  14
ENDBRANCH   2  13
TORSDOF 15
ENDMDL
MODEL 2
REMARK VINA RESULT:    -2.810      1.518      3.943
REMARK INTER + INTRA:          -6.570
REMARK INTER:                  -5.056
REMARK INTRA:                  -1.514
REMARK UNBOUND:                -1.295
REMARK SMILES CCCCCCCCC=CCCCCCCCC(=O)[O-]
REMARK SMILES IDX 10 1 9 2 11 3 12 4 13 5 14 6 15 7 16 8 17 9 18 10 19 11
REMARK SMILES IDX 20 12 8 13 7 14 6 15 5 16 4 17 3 18 2 19 1 20
REMARK H PARENT
REMARK Flexibility Score: inf
ROOT
ATOM      1  C   UNL     1      54.111  31.172 -37.426  1.00  0.00    -0.031 C 
ATOM      2  C   UNL     1      53.934  30.129 -38.258  1.00  0.00    -0.031 C 
ENDROOT
BRANCH   1   3
ATOM      3  C   UNL     1      55.437  31.842 -37.156  1.00  0.00     0.027 C 
BRANCH   3   4
ATOM      4  C   UNL     1      55.644  32.120 -35.661  1.00  0.00     0.004 C 
BRANCH   4   5
ATOM      5  C   UNL     1      56.911  31.438 -35.115  1.00  0.00     0.000 C 
BRANCH   5   6
ATOM      6  C   UNL     1      56.864  31.216 -33.592  1.00  0.00     0.000 C 
BRANCH   6   7
ATOM      7  C   UNL     1      55.495  31.476 -32.937  1.00  0.00     0.000 C 
BRANCH   7   8
ATOM      8  C   UNL     1      55.343  30.789 -31.568  1.00  0.00     0.006 C 
BRANCH   8   9
ATOM      9  C   UNL     1      56.699  30.532 -30.896  1.00  0.00     0.053 C 
BRANCH   9  10
ATOM     10  C   UNL     1      56.545  30.204 -29.442  1.00  0.00     0.041 C 
ATOM     11  O   UNL     1      56.852  29.060 -29.014  1.00  0.00    -0.550 OA
ATOM     12  O   UNL     1      56.087  31.171 -28.557  1.00  0.00    -0.550 OA
ENDBRANCH   9  10
ENDBRANCH   8   9
ENDBRANCH   7   8
ENDBRANCH   6   7
ENDBRANCH   5   6
ENDBRANCH   4   5
ENDBRANCH   3   4
ENDBRANCH   1   3
BRANCH   2  13
ATOM     13  C   UNL     1      55.014  29.532 -39.125  1.00  0.00     0.027 C 
BRANCH  13  14
ATOM     14  C   UNL     1      55.049  28.007 -38.975  1.00  0.00     0.004 C 
BRANCH  14  15
ATOM     15  C   UNL     1      54.598  27.584 -37.570  1.00  0.00     0.000 C 
BRANCH  15  16
ATOM     16  C   UNL     1      54.808  26.084 -37.307  1.00  0.00     0.000 C 
BRANCH  16  17
ATOM     17  C   UNL     1      55.471  25.808 -35.949  1.00  0.00    -0.000 C 
BRANCH  17  18
ATOM     18  C   UNL     1      55.828  27.122 -35.237  1.00  0.00    -0.000 C 
BRANCH  18  19
ATOM     19  C   UNL     1      56.899  26.932 -34.150  1.00  0.00    -0.003 C 
ATOM     20  C   UNL     1      56.536  27.625 -32.837  1.00  0.00     0.004 C 
ENDBRANCH  18  19
ENDBRANCH  17  18
ENDBRANCH  16  17
ENDBRANCH  15  16
ENDBRANCH  14  15
ENDBRANCH  13  14
ENDBRANCH   2  13
TORSDOF 15
ENDMDL
MODEL 3
REMARK VINA RESULT:    -2.439     19.757     21.226
REMARK INTER + INTRA:          -5.873
REMARK INTER:                  -5.138
REMARK INTRA:                  -0.735
REMARK UNBOUND:                -1.295
REMARK SMILES CCCCCCCCC=CCCCCCCCC(=O)[O-]
REMARK SMILES IDX 10 1 9 2 11 3 12 4 13 5 14 6 15 7 16 8 17 9 18 10 19 11
REMARK SMILES IDX 20 12 8 13 7 14 6 15 5 16 4 17 3 18 2 19 1 20
REMARK H PARENT
REMARK Flexibility Score: inf
ROOT
ATOM      1  C   UNL     1      45.328  12.404 -33.616  1.00  0.00    -0.031 C 
ATOM      2  C   UNL     1      44.655  12.071 -34.733  1.00  0.00    -0.031 C 
ENDROOT
BRANCH   1   3
ATOM      3  C   UNL     1      44.699  13.000 -32.379  1.00  0.00     0.027 C 
BRANCH   3   4
ATOM      4  C   UNL     1      45.726  13.198 -31.255  1.00  0.00     0.004 C 
BRANCH   4   5
ATOM      5  C   UNL     1      45.925  11.921 -30.421  1.00  0.00     0.000 C 
BRANCH   5   6
ATOM      6  C   UNL     1      45.700  12.146 -28.915  1.00  0.00     0.000 C 
BRANCH   6   7
ATOM      7  C   UNL     1      46.985  12.273 -28.075  1.00  0.00     0.000 C 
BRANCH   7   8
ATOM      8  C   UNL     1      46.783  11.875 -26.603  1.00  0.00     0.006 C 
BRANCH   8   9
ATOM      9  C   UNL     1      45.305  11.906 -26.192  1.00  0.00     0.053 C 
BRANCH   9  10
ATOM     10  C   UNL     1      45.110  12.576 -24.867  1.00  0.00     0.041 C 
ATOM     11  O   UNL     1      43.964  12.636 -24.348  1.00  0.00    -0.550 OA
ATOM     12  O   UNL     1      46.199  13.112 -24.192  1.00  0.00    -0.550 OA
ENDBRANCH   9  10
ENDBRANCH   8   9
ENDBRANCH   7   8
ENDBRANCH   6   7
ENDBRANCH   5   6
ENDBRANCH   4   5
ENDBRANCH   3   4
ENDBRANCH   1   3
BRANCH   2  13
ATOM     13  C   UNL     1      43.157  12.148 -34.886  1.00  0.00     0.027 C 
BRANCH  13  14
ATOM     14  C   UNL     1      42.778  12.565 -36.312  1.00  0.00     0.004 C 
BRANCH  14  15
ATOM     15  C   UNL     1      41.253  12.642 -36.474  1.00  0.00     0.000 C 
BRANCH  15  16
ATOM     16  C   UNL     1      40.751  14.080 -36.680  1.00  0.00     0.000 C 
BRANCH  16  17
ATOM     17  C   UNL     1      39.793  14.538 -35.570  1.00  0.00    -0.000 C 
BRANCH  17  18
ATOM     18  C   UNL     1      38.347  14.597 -36.085  1.00  0.00    -0.000 C 
BRANCH  18  19
ATOM     19  C   UNL     1      37.536  13.346 -35.711  1.00  0.00    -0.003 C 
ATOM     20  C   UNL     1      37.585  12.264 -36.789  1.00  0.00     0.004 C 
ENDBRANCH  18  19
ENDBRANCH  17  18
ENDBRANCH  16  17
ENDBRANCH  15  16
ENDBRANCH  14  15
ENDBRANCH  13  14
ENDBRANCH   2  13
TORSDOF 15
ENDMDL
MODEL 4
REMARK VINA RESULT:    -2.191     19.731     22.331
REMARK INTER + INTRA:          -5.407
REMARK INTER:                  -5.412
REMARK INTRA:                   0.006
REMARK UNBOUND:                -1.295
REMARK SMILES CCCCCCCCC=CCCCCCCCC(=O)[O-]
REMARK SMILES IDX 10 1 9 2 11 3 12 4 13 5 14 6 15 7 16 8 17 9 18 10 19 11
REMARK SMILES IDX 20 12 8 13 7 14 6 15 5 16 4 17 3 18 2 19 1 20
REMARK H PARENT
REMARK Flexibility Score: inf
ROOT
ATOM      1  C   UNL     1      40.609  14.762 -35.711  1.00  0.00    -0.031 C 
ATOM      2  C   UNL     1      39.550  13.935 -35.644  1.00  0.00    -0.031 C 
ENDROOT
BRANCH   1   3
ATOM      3  C   UNL     1      41.928  14.420 -36.362  1.00  0.00     0.027 C 
BRANCH   3   4
ATOM      4  C   UNL     1      42.245  12.921 -36.256  1.00  0.00     0.004 C 
BRANCH   4   5
ATOM      5  C   UNL     1      43.728  12.623 -36.537  1.00  0.00     0.000 C 
BRANCH   5   6
ATOM      6  C   UNL     1      44.423  11.887 -35.377  1.00  0.00     0.000 C 
BRANCH   6   7
ATOM      7  C   UNL     1      43.916  12.261 -33.971  1.00  0.00     0.000 C 
BRANCH   7   8
ATOM      8  C   UNL     1      44.892  13.167 -33.201  1.00  0.00     0.006 C 
BRANCH   8   9
ATOM      9  C   UNL     1      45.910  12.359 -32.384  1.00  0.00     0.053 C 
BRANCH   9  10
ATOM     10  C   UNL     1      45.886  12.739 -30.935  1.00  0.00     0.041 C 
ATOM     11  O   UNL     1      45.035  13.564 -30.509  1.00  0.00    -0.550 OA
ATOM     12  O   UNL     1      46.787  12.161 -30.050  1.00  0.00    -0.550 OA
ENDBRANCH   9  10
ENDBRANCH   8   9
ENDBRANCH   7   8
ENDBRANCH   6   7
ENDBRANCH   5   6
ENDBRANCH   4   5
ENDBRANCH   3   4
ENDBRANCH   1   3
BRANCH   2  13
ATOM     13  C   UNL     1      39.481  12.577 -36.296  1.00  0.00     0.027 C 
BRANCH  13  14
ATOM     14  C   UNL     1      38.100  12.344 -36.919  1.00  0.00     0.004 C 
BRANCH  14  15
ATOM     15  C   UNL     1      37.003  13.027 -36.091  1.00  0.00     0.000 C 
BRANCH  15  16
ATOM     16  C   UNL     1      36.876  12.440 -34.676  1.00  0.00     0.000 C 
BRANCH  16  17
ATOM     17  C   UNL     1      36.910  13.519 -33.582  1.00  0.00    -0.000 C 
BRANCH  17  18
ATOM     18  C   UNL     1      37.551  12.974 -32.296  1.00  0.00    -0.000 C 
BRANCH  18  19
ATOM     19  C   UNL     1      37.091  13.733 -31.041  1.00  0.00    -0.003 C 
ATOM     20  C   UNL     1      36.923  12.819 -29.827  1.00  0.00     0.004 C 
ENDBRANCH  18  19
ENDBRANCH  17  18
ENDBRANCH  16  17
ENDBRANCH  15  16
ENDBRANCH  14  15
ENDBRANCH  13  14
ENDBRANCH   2  13
TORSDOF 15
ENDMDL
MODEL 5
REMARK VINA RESULT:    -2.012      1.457      2.149
REMARK INTER + INTRA:          -5.072
REMARK INTER:                  -3.563
REMARK INTRA:                  -1.509
REMARK UNBOUND:                -1.295
REMARK SMILES CCCCCCCCC=CCCCCCCCC(=O)[O-]
REMARK SMILES IDX 10 1 9 2 11 3 12 4 13 5 14 6 15 7 16 8 17 9 18 10 19 11
REMARK SMILES IDX 20 12 8 13 7 14 6 15 5 16 4 17 3 18 2 19 1 20
REMARK H PARENT
REMARK Flexibility Score: inf
ROOT
ATOM      1  C   UNL     1      55.333  26.979 -35.399  1.00  0.00    -0.031 C 
ATOM      2  C   UNL     1      54.470  26.410 -36.261  1.00  0.00    -0.031 C 
ENDROOT
BRANCH   1   3
ATOM      3  C   UNL     1      56.735  27.418 -35.750  1.00  0.00     0.027 C 
BRANCH   3   4
ATOM      4  C   UNL     1      57.121  28.721 -35.035  1.00  0.00     0.004 C 
BRANCH   4   5
ATOM      5  C   UNL     1      55.889  29.556 -34.649  1.00  0.00     0.000 C 
BRANCH   5   6
ATOM      6  C   UNL     1      56.128  31.072 -34.776  1.00  0.00     0.000 C 
BRANCH   6   7
ATOM      7  C   UNL     1      55.857  31.885 -33.495  1.00  0.00     0.000 C 
BRANCH   7   8
ATOM      8  C   UNL     1      54.843  31.208 -32.557  1.00  0.00     0.006 C 
BRANCH   8   9
ATOM      9  C   UNL     1      55.023  31.646 -31.097  1.00  0.00     0.053 C 
BRANCH   9  10
ATOM     10  C   UNL     1      56.061  30.826 -30.395  1.00  0.00     0.041 C 
ATOM     11  O   UNL     1      56.647  31.281 -29.377  1.00  0.00    -0.550 OA
ATOM     12  O   UNL     1      56.363  29.549 -30.849  1.00  0.00    -0.550 OA
ENDBRANCH   9  10
ENDBRANCH   8   9
ENDBRANCH   7   8
ENDBRANCH   6   7
ENDBRANCH   5   6
ENDBRANCH   4   5
ENDBRANCH   3   4
ENDBRANCH   1   3
BRANCH   2  13
ATOM     13  C   UNL     1      54.734  26.214 -37.733  1.00  0.00     0.027 C 
BRANCH  13  14
ATOM     14  C   UNL     1      54.246  27.424 -38.537  1.00  0.00     0.004 C 
BRANCH  14  15
ATOM     15  C   UNL     1      55.398  28.401 -38.812  1.00  0.00     0.000 C 
BRANCH  15  16
ATOM     16  C   UNL     1      54.918  29.850 -38.990  1.00  0.00     0.000 C 
BRANCH  16  17
ATOM     17  C   UNL     1      54.759  30.590 -37.652  1.00  0.00    -0.000 C 
BRANCH  17  18
ATOM     18  C   UNL     1      54.094  31.959 -37.861  1.00  0.00    -0.000 C 
BRANCH  18  19
ATOM     19  C   UNL     1      52.810  32.124 -37.032  1.00  0.00    -0.003 C 
ATOM     20  C   UNL     1      51.542  32.010 -37.878  1.00  0.00     0.004 C 
ENDBRANCH  18  19
ENDBRANCH  17  18
ENDBRANCH  16  17
ENDBRANCH  15  16
ENDBRANCH  14  15
ENDBRANCH  13  14
ENDBRANCH   2  13
TORSDOF 15
ENDMDL
MODEL 6
REMARK VINA RESULT:    -1.895      2.335      5.435
REMARK INTER + INTRA:          -4.853
REMARK INTER:                  -3.564
REMARK INTRA:                  -1.289
REMARK UNBOUND:                -1.295
REMARK SMILES CCCCCCCCC=CCCCCCCCC(=O)[O-]
REMARK SMILES IDX 10 1 9 2 11 3 12 4 13 5 14 6 15 7 16 8 17 9 18 10 19 11
REMARK SMILES IDX 20 12 8 13 7 14 6 15 5 16 4 17 3 18 2 19 1 20
REMARK H PARENT
REMARK Flexibility Score: inf
ROOT
ATOM      1  C   UNL     1      54.249  30.813 -37.650  1.00  0.00    -0.031 C 
ATOM      2  C   UNL     1      53.914  29.712 -38.347  1.00  0.00    -0.031 C 
ENDROOT
BRANCH   1   3
ATOM      3  C   UNL     1      55.622  31.089 -37.085  1.00  0.00     0.027 C 
BRANCH   3   4
ATOM      4  C   UNL     1      55.683  30.819 -35.575  1.00  0.00     0.004 C 
BRANCH   4   5
ATOM      5  C   UNL     1      56.800  29.826 -35.208  1.00  0.00     0.000 C 
BRANCH   5   6
ATOM      6  C   UNL     1      56.449  28.370 -35.565  1.00  0.00     0.000 C 
BRANCH   6   7
ATOM      7  C   UNL     1      56.131  27.462 -34.363  1.00  0.00     0.000 C 
BRANCH   7   8
ATOM      8  C   UNL     1      56.897  27.860 -33.089  1.00  0.00     0.006 C 
BRANCH   8   9
ATOM      9  C   UNL     1      55.966  28.016 -31.879  1.00  0.00     0.053 C 
BRANCH   9  10
ATOM     10  C   UNL     1      56.204  29.307 -31.157  1.00  0.00     0.041 C 
ATOM     11  O   UNL     1      55.755  29.475 -29.993  1.00  0.00    -0.550 OA
ATOM     12  O   UNL     1      56.946  30.315 -31.761  1.00  0.00    -0.550 OA
ENDBRANCH   9  10
ENDBRANCH   8   9
ENDBRANCH   7   8
ENDBRANCH   6   7
ENDBRANCH   5   6
ENDBRANCH   4   5
ENDBRANCH   3   4
ENDBRANCH   1   3
BRANCH   2  13
ATOM     13  C   UNL     1      54.882  28.630 -38.757  1.00  0.00     0.027 C 
BRANCH  13  14
ATOM     14  C   UNL     1      54.148  27.305 -38.987  1.00  0.00     0.004 C 
BRANCH  14  15
ATOM     15  C   UNL     1      54.596  26.246 -37.970  1.00  0.00     0.000 C 
BRANCH  15  16
ATOM     16  C   UNL     1      54.922  24.895 -38.627  1.00  0.00     0.000 C 
BRANCH  16  17
ATOM     17  C   UNL     1      54.541  23.698 -37.741  1.00  0.00    -0.000 C 
BRANCH  17  18
ATOM     18  C   UNL     1      54.326  22.436 -38.591  1.00  0.00    -0.000 C 
BRANCH  18  19
ATOM     19  C   UNL     1      53.630  21.310 -37.809  1.00  0.00    -0.003 C 
ATOM     20  C   UNL     1      54.409  19.995 -37.848  1.00  0.00     0.004 C 
ENDBRANCH  18  19
ENDBRANCH  17  18
ENDBRANCH  16  17
ENDBRANCH  15  16
ENDBRANCH  14  15
ENDBRANCH  13  14
ENDBRANCH   2  13
TORSDOF 15
ENDMDL
MODEL 7
REMARK VINA RESULT:    -1.876      3.179      6.935
REMARK INTER + INTRA:          -4.817
REMARK INTER:                  -3.522
REMARK INTRA:                  -1.295
REMARK UNBOUND:                -1.295
REMARK SMILES CCCCCCCCC=CCCCCCCCC(=O)[O-]
REMARK SMILES IDX 10 1 9 2 11 3 12 4 13 5 14 6 15 7 16 8 17 9 18 10 19 11
REMARK SMILES IDX 20 12 8 13 7 14 6 15 5 16 4 17 3 18 2 19 1 20
REMARK H PARENT
REMARK Flexibility Score: inf
ROOT
ATOM      1  C   UNL     1      55.321  29.018 -35.108  1.00  0.00    -0.031 C 
ATOM      2  C   UNL     1      55.745  27.944 -34.416  1.00  0.00    -0.031 C 
ENDROOT
BRANCH   1   3
ATOM      3  C   UNL     1      56.124  30.281 -35.313  1.00  0.00     0.027 C 
BRANCH   3   4
ATOM      4  C   UNL     1      55.664  31.055 -36.556  1.00  0.00     0.004 C 
BRANCH   4   5
ATOM      5  C   UNL     1      55.561  30.150 -37.796  1.00  0.00     0.000 C 
BRANCH   5   6
ATOM      6  C   UNL     1      54.106  29.855 -38.205  1.00  0.00     0.000 C 
BRANCH   6   7
ATOM      7  C   UNL     1      53.864  28.449 -38.786  1.00  0.00     0.000 C 
BRANCH   7   8
ATOM      8  C   UNL     1      54.841  27.395 -38.236  1.00  0.00     0.006 C 
BRANCH   8   9
ATOM      9  C   UNL     1      54.458  25.972 -38.664  1.00  0.00     0.053 C 
BRANCH   9  10
ATOM     10  C   UNL     1      54.700  24.977 -37.570  1.00  0.00     0.041 C 
ATOM     11  O   UNL     1      54.560  23.746 -37.791  1.00  0.00    -0.550 OA
ATOM     12  O   UNL     1      55.107  25.410 -36.315  1.00  0.00    -0.550 OA
ENDBRANCH   9  10
ENDBRANCH   8   9
ENDBRANCH   7   8
ENDBRANCH   6   7
ENDBRANCH   5   6
ENDBRANCH   4   5
ENDBRANCH   3   4
ENDBRANCH   1   3
BRANCH   2  13
ATOM     13  C   UNL     1      57.124  27.797 -33.823  1.00  0.00     0.027 C 
BRANCH  13  14
ATOM     14  C   UNL     1      57.068  27.879 -32.293  1.00  0.00     0.004 C 
BRANCH  14  15
ATOM     15  C   UNL     1      56.110  28.989 -31.838  1.00  0.00     0.000 C 
BRANCH  15  16
ATOM     16  C   UNL     1      56.841  30.293 -31.484  1.00  0.00     0.000 C 
BRANCH  16  17
ATOM     17  C   UNL     1      55.922  31.523 -31.547  1.00  0.00    -0.000 C 
BRANCH  17  18
ATOM     18  C   UNL     1      55.717  32.125 -30.148  1.00  0.00    -0.000 C 
BRANCH  18  19
ATOM     19  C   UNL     1      56.426  31.317 -29.048  1.00  0.00    -0.003 C 
ATOM     20  C   UNL     1      56.560  32.093 -27.739  1.00  0.00     0.004 C 
ENDBRANCH  18  19
ENDBRANCH  17  18
ENDBRANCH  16  17
ENDBRANCH  15  16
ENDBRANCH  14  15
ENDBRANCH  13  14
ENDBRANCH   2  13
TORSDOF 15
ENDMDL
MODEL 8
REMARK VINA RESULT:    -1.709     19.842     22.353
REMARK INTER + INTRA:          -4.502
REMARK INTER:                  -3.984
REMARK INTRA:                  -0.519
REMARK UNBOUND:                -1.295
REMARK SMILES CCCCCCCCC=CCCCCCCCC(=O)[O-]
REMARK SMILES IDX 10 1 9 2 11 3 12 4 13 5 14 6 15 7 16 8 17 9 18 10 19 11
REMARK SMILES IDX 20 12 8 13 7 14 6 15 5 16 4 17 3 18 2 19 1 20
REMARK H PARENT
REMARK Flexibility Score: inf
ROOT
ATOM      1  C   UNL     1      43.567  11.975 -33.802  1.00  0.00    -0.031 C 
ATOM      2  C   UNL     1      44.192  12.264 -32.645  1.00  0.00    -0.031 C 
ENDROOT
BRANCH   1   3
ATOM      3  C   UNL     1      43.770  12.722 -35.098  1.00  0.00     0.027 C 
BRANCH   3   4
ATOM      4  C   UNL     1      42.733  12.322 -36.157  1.00  0.00     0.004 C 
BRANCH   4   5
ATOM      5  C   UNL     1      41.314  12.782 -35.780  1.00  0.00     0.000 C 
BRANCH   5   6
ATOM      6  C   UNL     1      40.213  11.905 -36.405  1.00  0.00     0.000 C 
BRANCH   6   7
ATOM      7  C   UNL     1      39.099  12.679 -37.135  1.00  0.00     0.000 C 
BRANCH   7   8
ATOM      8  C   UNL     1      38.640  13.935 -36.374  1.00  0.00     0.006 C 
BRANCH   8   9
ATOM      9  C   UNL     1      37.929  13.588 -35.060  1.00  0.00     0.053 C 
BRANCH   9  10
ATOM     10  C   UNL     1      37.613  14.813 -34.258  1.00  0.00     0.041 C 
ATOM     11  O   UNL     1      37.750  15.957 -34.768  1.00  0.00    -0.550 OA
ATOM     12  O   UNL     1      37.142  14.691 -32.957  1.00  0.00    -0.550 OA
ENDBRANCH   9  10
ENDBRANCH   8   9
ENDBRANCH   7   8
ENDBRANCH   6   7
ENDBRANCH   5   6
ENDBRANCH   4   5
ENDBRANCH   3   4
ENDBRANCH   1   3
BRANCH   2  13
ATOM     13  C   UNL     1      45.264  13.313 -32.489  1.00  0.00     0.027 C 
BRANCH  13  14
ATOM     14  C   UNL     1      46.627  12.661 -32.230  1.00  0.00     0.004 C 
BRANCH  14  15
ATOM     15  C   UNL     1      46.616  11.876 -30.910  1.00  0.00     0.000 C 
BRANCH  15  16
ATOM     16  C   UNL     1      45.782  12.564 -29.818  1.00  0.00     0.000 C 
BRANCH  16  17
ATOM     17  C   UNL     1      46.230  12.180 -28.400  1.00  0.00    -0.000 C 
BRANCH  17  18
ATOM     18  C   UNL     1      45.104  12.427 -27.384  1.00  0.00    -0.000 C 
BRANCH  18  19
ATOM     19  C   UNL     1      45.492  12.006 -25.958  1.00  0.00    -0.003 C 
ATOM     20  C   UNL     1      44.508  12.512 -24.904  1.00  0.00     0.004 C 
ENDBRANCH  18  19
ENDBRANCH  17  18
ENDBRANCH  16  17
ENDBRANCH  15  16
ENDBRANCH  14  15
ENDBRANCH  13  14
ENDBRANCH   2  13
TORSDOF 15
ENDMDL
