MODEL 1
REMARK VINA RESULT:     6.651      0.000      0.000
REMARK INTER + INTRA:          11.481
REMARK INTER:                  12.484
REMARK INTRA:                  -1.003
REMARK UNBOUND:                -1.003
REMARK SMILES CCCCCCCCC=CCCCCCCCC(=O)[O-]
REMARK SMILES IDX 10 1 9 2 11 3 12 4 13 5 14 6 15 7 16 8 17 9 18 10 19 11
REMARK SMILES IDX 20 12 8 13 7 14 6 15 5 16 4 17 3 18 2 19 1 20
REMARK H PARENT
REMARK Flexibility Score: inf
ROOT
ATOM      1  C   UNL     1     -28.009  33.036  -3.142  1.00  0.00    -0.031 C 
ATOM      2  C   UNL     1     -27.442  31.821  -3.137  1.00  0.00    -0.031 C 
ENDROOT
BRANCH   1   3
ATOM      3  C   UNL     1     -29.393  33.267  -2.595  1.00  0.00     0.027 C 
BRANCH   3   4
ATOM      4  C   UNL     1     -29.524  32.744  -1.159  1.00  0.00     0.004 C 
BRANCH   4   5
ATOM      5  C   UNL     1     -30.534  31.588  -1.053  1.00  0.00     0.000 C 
BRANCH   5   6
ATOM      6  C   UNL     1     -31.275  31.321  -2.376  1.00  0.00     0.000 C 
BRANCH   6   7
ATOM      7  C   UNL     1     -32.323  30.191  -2.322  1.00  0.00     0.000 C 
BRANCH   7   8
ATOM      8  C   UNL     1     -33.198  30.048  -3.584  1.00  0.00     0.006 C 
BRANCH   8   9
ATOM      9  C   UNL     1     -34.601  30.663  -3.457  1.00  0.00     0.053 C 
BRANCH   9  10
ATOM     10  C   UNL     1     -35.303  30.203  -2.217  1.00  0.00     0.041 C 
ATOM     11  O   UNL     1     -35.793  31.044  -1.418  1.00  0.00    -0.550 OA
ATOM     12  O   UNL     1     -35.385  28.847  -1.925  1.00  0.00    -0.550 OA
ENDBRANCH   9  10
ENDBRANCH   8   9
ENDBRANCH   7   8
ENDBRANCH   6   7
ENDBRANCH   5   6
ENDBRANCH   4   5
ENDBRANCH   3   4
ENDBRANCH   1   3
BRANCH   2  13
ATOM     13  C   UNL     1     -26.039  31.606  -3.637  1.00  0.00     0.027 C 
BRANCH  13  14
ATOM     14  C   UNL     1     -26.031  30.760  -4.919  1.00  0.00     0.004 C 
BRANCH  14  15
ATOM     15  C   UNL     1     -26.453  31.564  -6.159  1.00  0.00     0.000 C 
BRANCH  15  16
ATOM     16  C   UNL     1     -26.939  30.668  -7.307  1.00  0.00     0.000 C 
BRANCH  16  17
ATOM     17  C   UNL     1     -25.915  30.633  -8.448  1.00  0.00    -0.000 C 
BRANCH  17  18
ATOM     18  C   UNL     1     -25.094  31.931  -8.490  1.00  0.00    -0.000 C 
BRANCH  18  19
ATOM     19  C   UNL     1     -23.591  31.673  -8.683  1.00  0.00    -0.003 C 
ATOM     20  C   UNL     1     -22.807  32.947  -8.995  1.00  0.00     0.004 C 
ENDBRANCH  18  19
ENDBRANCH  17  18
ENDBRANCH  16  17
ENDBRANCH  15  16
ENDBRANCH  14  15
ENDBRANCH  13  14
ENDBRANCH   2  13
TORSDOF 15
ENDMDL
MODEL 2
REMARK VINA RESULT:     7.288      4.485      9.185
REMARK INTER + INTRA:          12.677
REMARK INTER:                  13.493
REMARK INTRA:                  -0.816
REMARK UNBOUND:                -1.003
REMARK SMILES CCCCCCCCC=CCCCCCCCC(=O)[O-]
REMARK SMILES IDX 10 1 9 2 11 3 12 4 13 5 14 6 15 7 16 8 17 9 18 10 19 11
REMARK SMILES IDX 20 12 8 13 7 14 6 15 5 16 4 17 3 18 2 19 1 20
REMARK H PARENT
REMARK Flexibility Score: inf
ROOT
ATOM      1  C   UNL     1     -27.626  31.759  -2.717  1.00  0.00    -0.031 C 
ATOM      2  C   UNL     1     -28.371  32.810  -3.090  1.00  0.00    -0.031 C 
ENDROOT
BRANCH   1   3
ATOM      3  C   UNL     1     -26.264  31.505  -3.305  1.00  0.00     0.027 C 
BRANCH   3   4
ATOM      4  C   UNL     1     -26.355  30.694  -4.605  1.00  0.00     0.004 C 
BRANCH   4   5
ATOM      5  C   UNL     1     -26.362  31.596  -5.851  1.00  0.00     0.000 C 
BRANCH   5   6
ATOM      6  C   UNL     1     -27.176  31.001  -7.013  1.00  0.00     0.000 C 
BRANCH   6   7
ATOM      7  C   UNL     1     -26.576  29.732  -7.651  1.00  0.00     0.000 C 
BRANCH   7   8
ATOM      8  C   UNL     1     -25.436  29.980  -8.659  1.00  0.00     0.006 C 
BRANCH   8   9
ATOM      9  C   UNL     1     -24.221  30.718  -8.073  1.00  0.00     0.053 C 
BRANCH   9  10
ATOM     10  C   UNL     1     -24.049  32.078  -8.678  1.00  0.00     0.041 C 
ATOM     11  O   UNL     1     -25.056  32.795  -8.919  1.00  0.00    -0.550 OA
ATOM     12  O   UNL     1     -22.781  32.539  -9.007  1.00  0.00    -0.550 OA
ENDBRANCH   9  10
ENDBRANCH   8   9
ENDBRANCH   7   8
ENDBRANCH   6   7
ENDBRANCH   5   6
ENDBRANCH   4   5
ENDBRANCH   3   4
ENDBRANCH   1   3
BRANCH   2  13
ATOM     13  C   UNL     1     -29.709  33.088  -2.461  1.00  0.00     0.027 C 
BRANCH  13  14
ATOM     14  C   UNL     1     -29.907  32.252  -1.188  1.00  0.00     0.004 C 
BRANCH  14  15
ATOM     15  C   UNL     1     -30.881  31.082  -1.397  1.00  0.00     0.000 C 
BRANCH  15  16
ATOM     16  C   UNL     1     -31.805  31.291  -2.605  1.00  0.00     0.000 C 
BRANCH  16  17
ATOM     17  C   UNL     1     -32.733  30.085  -2.802  1.00  0.00    -0.000 C 
BRANCH  17  18
ATOM     18  C   UNL     1     -34.038  30.504  -3.497  1.00  0.00    -0.000 C 
BRANCH  18  19
ATOM     19  C   UNL     1     -35.288  30.078  -2.710  1.00  0.00    -0.003 C 
ATOM     20  C   UNL     1     -35.371  30.732  -1.331  1.00  0.00     0.004 C 
ENDBRANCH  18  19
ENDBRANCH  17  18
ENDBRANCH  16  17
ENDBRANCH  15  16
ENDBRANCH  14  15
ENDBRANCH  13  14
ENDBRANCH   2  13
TORSDOF 15
ENDMDL
MODEL 3
REMARK VINA RESULT:     8.488     12.184     16.333
REMARK INTER + INTRA:          14.929
REMARK INTER:                  15.579
REMARK INTRA:                  -0.650
REMARK UNBOUND:                -1.003
REMARK SMILES CCCCCCCCC=CCCCCCCCC(=O)[O-]
REMARK SMILES IDX 10 1 9 2 11 3 12 4 13 5 14 6 15 7 16 8 17 9 18 10 19 11
REMARK SMILES IDX 20 12 8 13 7 14 6 15 5 16 4 17 3 18 2 19 1 20
REMARK H PARENT
REMARK Flexibility Score: inf
ROOT
ATOM      1  C   UNL     1     -30.304  24.417   6.894  1.00  0.00    -0.031 C 
ATOM      2  C   UNL     1     -31.501  24.665   7.446  1.00  0.00    -0.031 C 
ENDROOT
BRANCH   1   3
ATOM      3  C   UNL     1     -29.087  24.134   7.734  1.00  0.00     0.027 C 
BRANCH   3   4
ATOM      4  C   UNL     1     -27.799  24.567   7.022  1.00  0.00     0.004 C 
BRANCH   4   5
ATOM      5  C   UNL     1     -27.538  26.077   7.166  1.00  0.00     0.000 C 
BRANCH   5   6
ATOM      6  C   UNL     1     -26.847  26.683   5.932  1.00  0.00     0.000 C 
BRANCH   6   7
ATOM      7  C   UNL     1     -25.366  26.293   5.753  1.00  0.00     0.000 C 
BRANCH   7   8
ATOM      8  C   UNL     1     -24.442  27.429   5.271  1.00  0.00     0.006 C 
BRANCH   8   9
ATOM      9  C   UNL     1     -22.943  27.158   5.477  1.00  0.00     0.053 C 
BRANCH   9  10
ATOM     10  C   UNL     1     -22.253  28.307   6.145  1.00  0.00     0.041 C 
ATOM     11  O   UNL     1     -21.325  28.095   6.969  1.00  0.00    -0.550 OA
ATOM     12  O   UNL     1     -22.658  29.610   5.884  1.00  0.00    -0.550 OA
ENDBRANCH   9  10
ENDBRANCH   8   9
ENDBRANCH   7   8
ENDBRANCH   6   7
ENDBRANCH   5   6
ENDBRANCH   4   5
ENDBRANCH   3   4
ENDBRANCH   1   3
BRANCH   2  13
ATOM     13  C   UNL     1     -32.723  24.896   6.601  1.00  0.00     0.027 C 
BRANCH  13  14
ATOM     14  C   UNL     1     -34.000  24.484   7.350  1.00  0.00     0.004 C 
BRANCH  14  15
ATOM     15  C   UNL     1     -34.631  23.204   6.781  1.00  0.00     0.000 C 
BRANCH  15  16
ATOM     16  C   UNL     1     -35.749  22.648   7.675  1.00  0.00     0.000 C 
BRANCH  16  17
ATOM     17  C   UNL     1     -37.021  23.496   7.556  1.00  0.00    -0.000 C 
BRANCH  17  18
ATOM     18  C   UNL     1     -38.278  22.616   7.628  1.00  0.00    -0.000 C 
BRANCH  18  19
ATOM     19  C   UNL     1     -38.926  22.398   6.251  1.00  0.00    -0.003 C 
ATOM     20  C   UNL     1     -38.643  23.540   5.277  1.00  0.00     0.004 C 
ENDBRANCH  18  19
ENDBRANCH  17  18
ENDBRANCH  16  17
ENDBRANCH  15  16
ENDBRANCH  14  15
ENDBRANCH  13  14
ENDBRANCH   2  13
TORSDOF 15
ENDMDL
MODEL 4
REMARK VINA RESULT:     8.736      5.895      8.505
REMARK INTER + INTRA:          15.394
REMARK INTER:                  15.627
REMARK INTRA:                  -0.233
REMARK UNBOUND:                -1.003
REMARK SMILES CCCCCCCCC=CCCCCCCCC(=O)[O-]
REMARK SMILES IDX 10 1 9 2 11 3 12 4 13 5 14 6 15 7 16 8 17 9 18 10 19 11
REMARK SMILES IDX 20 12 8 13 7 14 6 15 5 16 4 17 3 18 2 19 1 20
REMARK H PARENT
REMARK Flexibility Score: inf
ROOT
ATOM      1  C   UNL     1     -23.648  29.914  -7.712  1.00  0.00    -0.031 C 
ATOM      2  C   UNL     1     -22.474  29.272  -7.630  1.00  0.00    -0.031 C 
ENDROOT
BRANCH   1   3
ATOM      3  C   UNL     1     -23.738  31.345  -8.172  1.00  0.00     0.027 C 
BRANCH   3   4
ATOM      4  C   UNL     1     -24.949  31.565  -9.088  1.00  0.00     0.004 C 
BRANCH   4   5
ATOM      5  C   UNL     1     -25.979  30.428  -8.970  1.00  0.00     0.000 C 
BRANCH   5   6
ATOM      6  C   UNL     1     -26.725  30.437  -7.624  1.00  0.00     0.000 C 
BRANCH   6   7
ATOM      7  C   UNL     1     -27.135  31.833  -7.111  1.00  0.00     0.000 C 
BRANCH   7   8
ATOM      8  C   UNL     1     -27.099  32.006  -5.579  1.00  0.00     0.006 C 
BRANCH   8   9
ATOM      9  C   UNL     1     -26.277  30.939  -4.839  1.00  0.00     0.053 C 
BRANCH   9  10
ATOM     10  C   UNL     1     -25.834  31.412  -3.489  1.00  0.00     0.041 C 
ATOM     11  O   UNL     1     -26.297  30.876  -2.447  1.00  0.00    -0.550 OA
ATOM     12  O   UNL     1     -24.936  32.466  -3.380  1.00  0.00    -0.550 OA
ENDBRANCH   9  10
ENDBRANCH   8   9
ENDBRANCH   7   8
ENDBRANCH   6   7
ENDBRANCH   5   6
ENDBRANCH   4   5
ENDBRANCH   3   4
ENDBRANCH   1   3
BRANCH   2  13
ATOM     13  C   UNL     1     -22.395  27.827  -7.220  1.00  0.00     0.027 C 
BRANCH  13  14
ATOM     14  C   UNL     1     -21.147  27.561  -6.364  1.00  0.00     0.004 C 
BRANCH  14  15
ATOM     15  C   UNL     1     -21.341  26.394  -5.385  1.00  0.00     0.000 C 
BRANCH  15  16
ATOM     16  C   UNL     1     -20.236  26.325  -4.320  1.00  0.00     0.000 C 
BRANCH  16  17
ATOM     17  C   UNL     1     -18.875  26.024  -4.960  1.00  0.00    -0.000 C 
BRANCH  17  18
ATOM     18  C   UNL     1     -19.048  25.370  -6.339  1.00  0.00    -0.000 C 
BRANCH  18  19
ATOM     19  C   UNL     1     -18.921  23.839  -6.286  1.00  0.00    -0.003 C 
ATOM     20  C   UNL     1     -19.120  23.278  -4.878  1.00  0.00     0.004 C 
ENDBRANCH  18  19
ENDBRANCH  17  18
ENDBRANCH  16  17
ENDBRANCH  15  16
ENDBRANCH  14  15
ENDBRANCH  13  14
ENDBRANCH   2  13
TORSDOF 15
ENDMDL
MODEL 5
REMARK VINA RESULT:     9.161      7.009     10.736
REMARK INTER + INTRA:          16.191
REMARK INTER:                  17.284
REMARK INTRA:                  -1.093
REMARK UNBOUND:                -1.003
REMARK SMILES CCCCCCCCC=CCCCCCCCC(=O)[O-]
REMARK SMILES IDX 10 1 9 2 11 3 12 4 13 5 14 6 15 7 16 8 17 9 18 10 19 11
REMARK SMILES IDX 20 12 8 13 7 14 6 15 5 16 4 17 3 18 2 19 1 20
REMARK H PARENT
REMARK Flexibility Score: inf
ROOT
ATOM      1  C   UNL     1     -23.875  31.197  -8.041  1.00  0.00    -0.031 C 
ATOM      2  C   UNL     1     -24.936  31.176  -8.861  1.00  0.00    -0.031 C 
ENDROOT
BRANCH   1   3
ATOM      3  C   UNL     1     -22.705  30.270  -8.236  1.00  0.00     0.027 C 
BRANCH   3   4
ATOM      4  C   UNL     1     -22.905  28.946  -7.488  1.00  0.00     0.004 C 
BRANCH   4   5
ATOM      5  C   UNL     1     -21.579  28.195  -7.274  1.00  0.00     0.000 C 
BRANCH   5   6
ATOM      6  C   UNL     1     -21.712  27.017  -6.293  1.00  0.00     0.000 C 
BRANCH   6   7
ATOM      7  C   UNL     1     -20.690  27.007  -5.139  1.00  0.00     0.000 C 
BRANCH   7   8
ATOM      8  C   UNL     1     -19.441  26.134  -5.375  1.00  0.00     0.006 C 
BRANCH   8   9
ATOM      9  C   UNL     1     -19.403  24.842  -4.543  1.00  0.00     0.053 C 
BRANCH   9  10
ATOM     10  C   UNL     1     -19.151  23.636  -5.394  1.00  0.00     0.041 C 
ATOM     11  O   UNL     1     -19.156  22.486  -4.881  1.00  0.00    -0.550 OA
ATOM     12  O   UNL     1     -18.877  23.783  -6.748  1.00  0.00    -0.550 OA
ENDBRANCH   9  10
ENDBRANCH   8   9
ENDBRANCH   7   8
ENDBRANCH   6   7
ENDBRANCH   5   6
ENDBRANCH   4   5
ENDBRANCH   3   4
ENDBRANCH   1   3
BRANCH   2  13
ATOM     13  C   UNL     1     -26.079  32.139  -8.692  1.00  0.00     0.027 C 
BRANCH  13  14
ATOM     14  C   UNL     1     -27.085  31.629  -7.649  1.00  0.00     0.004 C 
BRANCH  14  15
ATOM     15  C   UNL     1     -27.094  30.096  -7.539  1.00  0.00     0.000 C 
BRANCH  15  16
ATOM     16  C   UNL     1     -26.972  29.607  -6.089  1.00  0.00     0.000 C 
BRANCH  16  17
ATOM     17  C   UNL     1     -26.235  30.636  -5.222  1.00  0.00    -0.000 C 
BRANCH  17  18
ATOM     18  C   UNL     1     -26.817  30.674  -3.800  1.00  0.00    -0.000 C 
BRANCH  18  19
ATOM     19  C   UNL     1     -25.840  31.278  -2.779  1.00  0.00    -0.003 C 
ATOM     20  C   UNL     1     -25.101  32.502  -3.320  1.00  0.00     0.004 C 
ENDBRANCH  18  19
ENDBRANCH  17  18
ENDBRANCH  16  17
ENDBRANCH  15  16
ENDBRANCH  14  15
ENDBRANCH  13  14
ENDBRANCH   2  13
TORSDOF 15
ENDMDL
MODEL 6
REMARK VINA RESULT:     9.479      7.234     10.892
REMARK INTER + INTRA:          16.788
REMARK INTER:                  17.703
REMARK INTRA:                  -0.915
REMARK UNBOUND:                -1.003
REMARK SMILES CCCCCCCCC=CCCCCCCCC(=O)[O-]
REMARK SMILES IDX 10 1 9 2 11 3 12 4 13 5 14 6 15 7 16 8 17 9 18 10 19 11
REMARK SMILES IDX 20 12 8 13 7 14 6 15 5 16 4 17 3 18 2 19 1 20
REMARK H PARENT
REMARK Flexibility Score: inf
ROOT
ATOM      1  C   UNL     1     -23.358  30.245  -8.297  1.00  0.00    -0.031 C 
ATOM      2  C   UNL     1     -23.417  31.541  -8.635  1.00  0.00    -0.031 C 
ENDROOT
BRANCH   1   3
ATOM      3  C   UNL     1     -22.062  29.586  -7.902  1.00  0.00     0.027 C 
BRANCH   3   4
ATOM      4  C   UNL     1     -22.306  28.260  -7.170  1.00  0.00     0.004 C 
BRANCH   4   5
ATOM      5  C   UNL     1     -21.076  27.810  -6.363  1.00  0.00     0.000 C 
BRANCH   5   6
ATOM      6  C   UNL     1     -21.396  26.682  -5.367  1.00  0.00     0.000 C 
BRANCH   6   7
ATOM      7  C   UNL     1     -20.245  26.303  -4.414  1.00  0.00     0.000 C 
BRANCH   7   8
ATOM      8  C   UNL     1     -18.875  26.092  -5.091  1.00  0.00     0.006 C 
BRANCH   8   9
ATOM      9  C   UNL     1     -18.939  25.347  -6.434  1.00  0.00     0.053 C 
BRANCH   9  10
ATOM     10  C   UNL     1     -19.099  23.870  -6.247  1.00  0.00     0.041 C 
ATOM     11  O   UNL     1     -18.939  23.088  -7.221  1.00  0.00    -0.550 OA
ATOM     12  O   UNL     1     -19.458  23.360  -5.006  1.00  0.00    -0.550 OA
ENDBRANCH   9  10
ENDBRANCH   8   9
ENDBRANCH   7   8
ENDBRANCH   6   7
ENDBRANCH   5   6
ENDBRANCH   4   5
ENDBRANCH   3   4
ENDBRANCH   1   3
BRANCH   2  13
ATOM     13  C   UNL     1     -24.722  32.205  -8.978  1.00  0.00     0.027 C 
BRANCH  13  14
ATOM     14  C   UNL     1     -25.912  31.413  -8.415  1.00  0.00     0.004 C 
BRANCH  14  15
ATOM     15  C   UNL     1     -26.181  31.726  -6.935  1.00  0.00     0.000 C 
BRANCH  15  16
ATOM     16  C   UNL     1     -27.015  30.637  -6.243  1.00  0.00     0.000 C 
BRANCH  16  17
ATOM     17  C   UNL     1     -27.709  29.739  -7.274  1.00  0.00    -0.000 C 
BRANCH  17  18
ATOM     18  C   UNL     1     -27.384  28.258  -7.021  1.00  0.00    -0.000 C 
BRANCH  18  19
ATOM     19  C   UNL     1     -25.908  27.925  -7.290  1.00  0.00    -0.003 C 
ATOM     20  C   UNL     1     -25.728  26.616  -8.059  1.00  0.00     0.004 C 
ENDBRANCH  18  19
ENDBRANCH  17  18
ENDBRANCH  16  17
ENDBRANCH  15  16
ENDBRANCH  14  15
ENDBRANCH  13  14
ENDBRANCH   2  13
TORSDOF 15
ENDMDL
MODEL 7
REMARK VINA RESULT:     9.647      6.214      9.160
REMARK INTER + INTRA:          17.104
REMARK INTER:                  17.228
REMARK INTRA:                  -0.124
REMARK UNBOUND:                -1.003
REMARK SMILES CCCCCCCCC=CCCCCCCCC(=O)[O-]
REMARK SMILES IDX 10 1 9 2 11 3 12 4 13 5 14 6 15 7 16 8 17 9 18 10 19 11
REMARK SMILES IDX 20 12 8 13 7 14 6 15 5 16 4 17 3 18 2 19 1 20
REMARK H PARENT
REMARK Flexibility Score: inf
ROOT
ATOM      1  C   UNL     1     -22.539  28.663  -7.318  1.00  0.00    -0.031 C 
ATOM      2  C   UNL     1     -21.240  28.409  -7.535  1.00  0.00    -0.031 C 
ENDROOT
BRANCH   1   3
ATOM      3  C   UNL     1     -23.307  29.643  -8.165  1.00  0.00     0.027 C 
BRANCH   3   4
ATOM      4  C   UNL     1     -22.641  31.025  -8.169  1.00  0.00     0.004 C 
BRANCH   4   5
ATOM      5  C   UNL     1     -23.443  32.051  -8.989  1.00  0.00     0.000 C 
BRANCH   5   6
ATOM      6  C   UNL     1     -24.883  31.591  -9.277  1.00  0.00     0.000 C 
BRANCH   6   7
ATOM      7  C   UNL     1     -25.932  32.032  -8.237  1.00  0.00     0.000 C 
BRANCH   7   8
ATOM      8  C   UNL     1     -26.032  31.137  -6.984  1.00  0.00     0.006 C 
BRANCH   8   9
ATOM      9  C   UNL     1     -27.382  30.421  -6.822  1.00  0.00     0.053 C 
BRANCH   9  10
ATOM     10  C   UNL     1     -27.266  28.948  -7.063  1.00  0.00     0.041 C 
ATOM     11  O   UNL     1     -26.280  28.486  -7.696  1.00  0.00    -0.550 OA
ATOM     12  O   UNL     1     -28.263  28.088  -6.620  1.00  0.00    -0.550 OA
ENDBRANCH   9  10
ENDBRANCH   8   9
ENDBRANCH   7   8
ENDBRANCH   6   7
ENDBRANCH   5   6
ENDBRANCH   4   5
ENDBRANCH   3   4
ENDBRANCH   1   3
BRANCH   2  13
ATOM     13  C   UNL     1     -20.492  27.391  -6.719  1.00  0.00     0.027 C 
BRANCH  13  14
ATOM     14  C   UNL     1     -21.401  26.756  -5.656  1.00  0.00     0.004 C 
BRANCH  14  15
ATOM     15  C   UNL     1     -20.699  26.598  -4.298  1.00  0.00     0.000 C 
BRANCH  15  16
ATOM     16  C   UNL     1     -19.201  26.290  -4.439  1.00  0.00     0.000 C 
BRANCH  16  17
ATOM     17  C   UNL     1     -18.935  25.408  -5.665  1.00  0.00    -0.000 C 
BRANCH  17  18
ATOM     18  C   UNL     1     -18.884  23.923  -5.274  1.00  0.00    -0.000 C 
BRANCH  18  19
ATOM     19  C   UNL     1     -19.569  23.016  -6.309  1.00  0.00    -0.003 C 
ATOM     20  C   UNL     1     -18.878  23.046  -7.671  1.00  0.00     0.004 C 
ENDBRANCH  18  19
ENDBRANCH  17  18
ENDBRANCH  16  17
ENDBRANCH  15  16
ENDBRANCH  14  15
ENDBRANCH  13  14
ENDBRANCH   2  13
TORSDOF 15
ENDMDL
