MODEL 1
REMARK VINA RESULT:    -5.941      0.000      0.000
REMARK INTER + INTRA:          -7.255
REMARK INTER:                  -6.983
REMARK INTRA:                  -0.272
REMARK UNBOUND:                -0.272
REMARK SMILES O=c1c(O)c(-c2ccc(O)cc2)oc2cc(O)cc(O)c12
REMARK SMILES IDX 5 1 3 2 2 3 1 4 21 5 19 6 18 7 16 8 15 9 14 10 13 11 6 12
REMARK SMILES IDX 7 13 8 14 9 15 12 16 11 17 10 18 4 20 20 22 17 24
REMARK H PARENT 10 19 4 21 20 23 17 25
REMARK Flexibility Score: inf
ROOT
ATOM      1  C   UNL     1      -9.190   8.200  16.595  1.00  0.00     0.180 A 
ATOM      2  C   UNL     1     -10.548   8.348  16.928  1.00  0.00     0.208 A 
ATOM      3  C   UNL     1     -10.888   8.879  18.183  1.00  0.00     0.238 A 
ATOM      4  O   UNL     1     -12.104   9.059  18.453  1.00  0.00    -0.285 OA
ATOM      5  C   UNL     1      -9.867   9.239  19.095  1.00  0.00     0.111 A 
ATOM      6  C   UNL     1     -10.098   9.749  20.409  1.00  0.00     0.134 A 
ATOM      7  C   UNL     1      -9.014  10.196  21.175  1.00  0.00     0.093 A 
ATOM      8  C   UNL     1      -7.704  10.090  20.702  1.00  0.00     0.123 A 
ATOM      9  C   UNL     1      -7.465   9.540  19.445  1.00  0.00     0.094 A 
ATOM     10  C   UNL     1      -8.528   9.119  18.642  1.00  0.00     0.146 A 
ATOM     11  O   UNL     1      -8.256   8.610  17.446  1.00  0.00    -0.452 OA
ENDROOT
BRANCH   1  12
ATOM     12  C   UNL     1      -8.754   7.626  15.302  1.00  0.00     0.021 A 
ATOM     13  C   UNL     1      -8.730   6.230  15.138  1.00  0.00     0.016 A 
ATOM     14  C   UNL     1      -8.344   5.667  13.918  1.00  0.00     0.047 A 
ATOM     15  C   UNL     1      -7.992   6.488  12.844  1.00  0.00     0.115 A 
ATOM     16  C   UNL     1      -8.417   8.447  14.211  1.00  0.00     0.016 A 
ATOM     17  C   UNL     1      -8.033   7.880  12.991  1.00  0.00     0.047 A 
BRANCH  15  18
ATOM     18  O   UNL     1      -7.609   5.913  11.634  1.00  0.00    -0.508 OA
ATOM     19  H   UNL     1      -6.950   6.372  11.016  1.00  0.00     0.293 HD
ENDBRANCH  15  18
ENDBRANCH   1  12
BRANCH   2  20
ATOM     20  O   UNL     1     -11.539   8.006  16.004  1.00  0.00    -0.502 OA
ATOM     21  H   UNL     1     -11.762   7.045  15.776  1.00  0.00     0.293 HD
ENDBRANCH   2  20
BRANCH   6  22
ATOM     22  O   UNL     1     -11.356   9.811  21.011  1.00  0.00    -0.507 OA
ATOM     23  H   UNL     1     -11.788  10.655  21.357  1.00  0.00     0.293 HD
ENDBRANCH   6  22
BRANCH   8  24
ATOM     24  O   UNL     1      -6.631  10.523  21.478  1.00  0.00    -0.508 OA
ATOM     25  H   UNL     1      -6.034   9.867  21.970  1.00  0.00     0.293 HD
ENDBRANCH   8  24
TORSDOF 5
ENDMDL
MODEL 2
REMARK VINA RESULT:    -5.536      2.071      2.805
REMARK INTER + INTRA:          -6.778
REMARK INTER:                  -6.484
REMARK INTRA:                  -0.294
REMARK UNBOUND:                -0.272
REMARK SMILES O=c1c(O)c(-c2ccc(O)cc2)oc2cc(O)cc(O)c12
REMARK SMILES IDX 5 1 3 2 2 3 1 4 21 5 19 6 18 7 16 8 15 9 14 10 13 11 6 12
REMARK SMILES IDX 7 13 8 14 9 15 12 16 11 17 10 18 4 20 20 22 17 24
REMARK H PARENT 10 19 4 21 20 23 17 25
REMARK Flexibility Score: inf
ROOT
ATOM      1  C   UNL     1      -9.330   8.791  16.754  1.00  0.00     0.180 A 
ATOM      2  C   UNL     1     -10.043   8.801  17.966  1.00  0.00     0.208 A 
ATOM      3  C   UNL     1      -9.372   9.152  19.149  1.00  0.00     0.238 A 
ATOM      4  O   UNL     1     -10.029   9.212  20.221  1.00  0.00    -0.285 OA
ATOM      5  C   UNL     1      -7.994   9.475  19.108  1.00  0.00     0.111 A 
ATOM      6  C   UNL     1      -7.205   9.807  20.250  1.00  0.00     0.134 A 
ATOM      7  C   UNL     1      -5.884  10.236  20.076  1.00  0.00     0.093 A 
ATOM      8  C   UNL     1      -5.303  10.282  18.806  1.00  0.00     0.123 A 
ATOM      9  C   UNL     1      -6.047   9.903  17.691  1.00  0.00     0.094 A 
ATOM     10  C   UNL     1      -7.379   9.505  17.829  1.00  0.00     0.146 A 
ATOM     11  O   UNL     1      -8.054   9.163  16.739  1.00  0.00    -0.452 OA
ENDROOT
BRANCH   1  12
ATOM     12  C   UNL     1      -9.961   8.407  15.472  1.00  0.00     0.021 A 
ATOM     13  C   UNL     1     -10.422   9.409  14.601  1.00  0.00     0.016 A 
ATOM     14  C   UNL     1     -11.001   9.069  13.374  1.00  0.00     0.047 A 
ATOM     15  C   UNL     1     -11.113   7.728  12.996  1.00  0.00     0.115 A 
ATOM     16  C   UNL     1     -10.059   7.060  15.077  1.00  0.00     0.016 A 
ATOM     17  C   UNL     1     -10.637   6.724  13.849  1.00  0.00     0.047 A 
BRANCH  15  18
ATOM     18  O   UNL     1     -11.693   7.404  11.771  1.00  0.00    -0.508 OA
ATOM     19  H   UNL     1     -11.377   6.608  11.230  1.00  0.00     0.293 HD
ENDBRANCH  15  18
ENDBRANCH   1  12
BRANCH   2  20
ATOM     20  O   UNL     1     -11.408   8.500  17.981  1.00  0.00    -0.502 OA
ATOM     21  H   UNL     1     -12.113   9.156  17.670  1.00  0.00     0.293 HD
ENDBRANCH   2  20
BRANCH   6  22
ATOM     22  O   UNL     1      -7.660   9.707  21.567  1.00  0.00    -0.507 OA
ATOM     23  H   UNL     1      -7.086   9.448  22.356  1.00  0.00     0.293 HD
ENDBRANCH   6  22
BRANCH   8  24
ATOM     24  O   UNL     1      -3.982  10.696  18.642  1.00  0.00    -0.508 OA
ATOM     25  H   UNL     1      -3.411  10.969  19.434  1.00  0.00     0.293 HD
ENDBRANCH   8  24
TORSDOF 5
ENDMDL
MODEL 3
REMARK VINA RESULT:    -5.498      2.766      8.570
REMARK INTER + INTRA:          -6.734
REMARK INTER:                  -6.434
REMARK INTRA:                  -0.300
REMARK UNBOUND:                -0.272
REMARK SMILES O=c1c(O)c(-c2ccc(O)cc2)oc2cc(O)cc(O)c12
REMARK SMILES IDX 5 1 3 2 2 3 1 4 21 5 19 6 18 7 16 8 15 9 14 10 13 11 6 12
REMARK SMILES IDX 7 13 8 14 9 15 12 16 11 17 10 18 4 20 20 22 17 24
REMARK H PARENT 10 19 4 21 20 23 17 25
REMARK Flexibility Score: inf
ROOT
ATOM      1  C   UNL     1      -9.230   7.164  13.320  1.00  0.00     0.180 A 
ATOM      2  C   UNL     1      -7.921   7.264  12.818  1.00  0.00     0.208 A 
ATOM      3  C   UNL     1      -7.672   6.900  11.485  1.00  0.00     0.238 A 
ATOM      4  O   UNL     1      -6.509   7.044  11.027  1.00  0.00    -0.285 OA
ATOM      5  C   UNL     1      -8.732   6.425  10.676  1.00  0.00     0.111 A 
ATOM      6  C   UNL     1      -8.587   5.990   9.323  1.00  0.00     0.134 A 
ATOM      7  C   UNL     1      -9.726   5.664   8.577  1.00  0.00     0.093 A 
ATOM      8  C   UNL     1     -10.998   5.694   9.154  1.00  0.00     0.123 A 
ATOM      9  C   UNL     1     -11.143   6.060  10.490  1.00  0.00     0.094 A 
ATOM     10  C   UNL     1     -10.030   6.426  11.250  1.00  0.00     0.146 A 
ATOM     11  O   UNL     1     -10.215   6.778  12.517  1.00  0.00    -0.452 OA
ENDROOT
BRANCH   1  12
ATOM     12  C   UNL     1      -9.565   7.505  14.721  1.00  0.00     0.021 A 
ATOM     13  C   UNL     1     -10.017   8.800  15.029  1.00  0.00     0.016 A 
ATOM     14  C   UNL     1     -10.361   9.137  16.341  1.00  0.00     0.047 A 
ATOM     15  C   UNL     1     -10.272   8.184  17.359  1.00  0.00     0.115 A 
ATOM     16  C   UNL     1      -9.497   6.544  15.747  1.00  0.00     0.016 A 
ATOM     17  C   UNL     1      -9.843   6.885  17.059  1.00  0.00     0.047 A 
BRANCH  15  18
ATOM     18  O   UNL     1     -10.617   8.534  18.663  1.00  0.00    -0.508 OA
ATOM     19  H   UNL     1     -11.064   7.874  19.287  1.00  0.00     0.293 HD
ENDBRANCH  15  18
ENDBRANCH   1  12
BRANCH   2  20
ATOM     20  O   UNL     1      -6.893   7.756  13.628  1.00  0.00    -0.502 OA
ATOM     21  H   UNL     1      -7.065   8.151  14.545  1.00  0.00     0.293 HD
ENDBRANCH   2  20
BRANCH   6  22
ATOM     22  O   UNL     1      -7.356   5.837   8.682  1.00  0.00    -0.507 OA
ATOM     23  H   UNL     1      -7.029   6.410   7.918  1.00  0.00     0.293 HD
ENDBRANCH   6  22
BRANCH   8  24
ATOM     24  O   UNL     1     -12.125   5.352   8.409  1.00  0.00    -0.508 OA
ATOM     25  H   UNL     1     -12.678   4.532   8.630  1.00  0.00     0.293 HD
ENDBRANCH   8  24
TORSDOF 5
ENDMDL
MODEL 4
REMARK VINA RESULT:    -5.345      1.736      3.324
REMARK INTER + INTRA:          -6.554
REMARK INTER:                  -6.276
REMARK INTRA:                  -0.278
REMARK UNBOUND:                -0.272
REMARK SMILES O=c1c(O)c(-c2ccc(O)cc2)oc2cc(O)cc(O)c12
REMARK SMILES IDX 5 1 3 2 2 3 1 4 21 5 19 6 18 7 16 8 15 9 14 10 13 11 6 12
REMARK SMILES IDX 7 13 8 14 9 15 12 16 11 17 10 18 4 20 20 22 17 24
REMARK H PARENT 10 19 4 21 20 23 17 25
REMARK Flexibility Score: inf
ROOT
ATOM      1  C   UNL     1      -8.137   9.576  16.957  1.00  0.00     0.180 A 
ATOM      2  C   UNL     1      -6.860   9.750  17.518  1.00  0.00     0.208 A 
ATOM      3  C   UNL     1      -6.748   9.987  18.897  1.00  0.00     0.238 A 
ATOM      4  O   UNL     1      -5.599  10.088  19.402  1.00  0.00    -0.285 OA
ATOM      5  C   UNL     1      -7.915  10.064  19.696  1.00  0.00     0.111 A 
ATOM      6  C   UNL     1      -7.922  10.340  21.096  1.00  0.00     0.134 A 
ATOM      7  C   UNL     1      -9.124  10.262  21.809  1.00  0.00     0.093 A 
ATOM      8  C   UNL     1     -10.330   9.983  21.160  1.00  0.00     0.123 A 
ATOM      9  C   UNL     1     -10.341   9.771  19.784  1.00  0.00     0.094 A 
ATOM     10  C   UNL     1      -9.153   9.806  19.051  1.00  0.00     0.146 A 
ATOM     11  O   UNL     1      -9.208   9.588  17.743  1.00  0.00    -0.452 OA
ENDROOT
BRANCH   1  12
ATOM     12  C   UNL     1      -8.336   9.347  15.508  1.00  0.00     0.021 A 
ATOM     13  C   UNL     1      -8.610   8.049  15.044  1.00  0.00     0.016 A 
ATOM     14  C   UNL     1      -8.825   7.814  13.682  1.00  0.00     0.047 A 
ATOM     15  C   UNL     1      -8.783   8.872  12.771  1.00  0.00     0.115 A 
ATOM     16  C   UNL     1      -8.316  10.411  14.587  1.00  0.00     0.016 A 
ATOM     17  C   UNL     1      -8.532  10.173  13.227  1.00  0.00     0.047 A 
BRANCH  15  18
ATOM     18  O   UNL     1      -8.998   8.623  11.417  1.00  0.00    -0.508 OA
ATOM     19  H   UNL     1      -9.933   8.529  11.038  1.00  0.00     0.293 HD
ENDBRANCH  15  18
ENDBRANCH   1  12
BRANCH   2  20
ATOM     20  O   UNL     1      -5.720   9.649  16.715  1.00  0.00    -0.502 OA
ATOM     21  H   UNL     1      -4.895   9.137  17.004  1.00  0.00     0.293 HD
ENDBRANCH   2  20
BRANCH   6  22
ATOM     22  O   UNL     1      -6.790  10.719  21.822  1.00  0.00    -0.507 OA
ATOM     23  H   UNL     1      -5.932  11.060  21.414  1.00  0.00     0.293 HD
ENDBRANCH   6  22
BRANCH   8  24
ATOM     24  O   UNL     1     -11.525   9.923  21.875  1.00  0.00    -0.508 OA
ATOM     25  H   UNL     1     -11.535   9.789  22.880  1.00  0.00     0.293 HD
ENDBRANCH   8  24
TORSDOF 5
ENDMDL
MODEL 5
REMARK VINA RESULT:    -5.337      2.179      6.596
REMARK INTER + INTRA:          -6.545
REMARK INTER:                  -6.303
REMARK INTRA:                  -0.242
REMARK UNBOUND:                -0.272
REMARK SMILES O=c1c(O)c(-c2ccc(O)cc2)oc2cc(O)cc(O)c12
REMARK SMILES IDX 5 1 3 2 2 3 1 4 21 5 19 6 18 7 16 8 15 9 14 10 13 11 6 12
REMARK SMILES IDX 7 13 8 14 9 15 12 16 11 17 10 18 4 20 20 22 17 24
REMARK H PARENT 10 19 4 21 20 23 17 25
REMARK Flexibility Score: inf
ROOT
ATOM      1  C   UNL     1      -8.890   8.657  17.001  1.00  0.00     0.180 A 
ATOM      2  C   UNL     1      -9.326   7.330  16.837  1.00  0.00     0.208 A 
ATOM      3  C   UNL     1      -9.831   6.928  15.590  1.00  0.00     0.238 A 
ATOM      4  O   UNL     1     -10.169   5.726  15.435  1.00  0.00    -0.285 OA
ATOM      5  C   UNL     1      -9.908   7.861  14.528  1.00  0.00     0.111 A 
ATOM      6  C   UNL     1     -10.439   7.573  13.234  1.00  0.00     0.134 A 
ATOM      7  C   UNL     1     -10.345   8.534  12.220  1.00  0.00     0.093 A 
ATOM      8  C   UNL     1      -9.798   9.795  12.471  1.00  0.00     0.123 A 
ATOM      9  C   UNL     1      -9.332  10.105  13.746  1.00  0.00     0.094 A 
ATOM     10  C   UNL     1      -9.379   9.155  14.769  1.00  0.00     0.146 A 
ATOM     11  O   UNL     1      -8.913   9.489  15.966  1.00  0.00    -0.452 OA
ENDROOT
BRANCH   1  12
ATOM     12  C   UNL     1      -8.369   9.161  18.292  1.00  0.00     0.021 A 
ATOM     13  C   UNL     1      -6.996   9.431  18.426  1.00  0.00     0.016 A 
ATOM     14  C   UNL     1      -6.487   9.930  19.629  1.00  0.00     0.047 A 
ATOM     15  C   UNL     1      -7.342  10.179  20.706  1.00  0.00     0.115 A 
ATOM     16  C   UNL     1      -9.227   9.432  19.373  1.00  0.00     0.016 A 
ATOM     17  C   UNL     1      -8.715   9.932  20.574  1.00  0.00     0.047 A 
BRANCH  15  18
ATOM     18  O   UNL     1      -6.820  10.674  21.899  1.00  0.00    -0.508 OA
ATOM     19  H   UNL     1      -5.851  10.525  22.155  1.00  0.00     0.293 HD
ENDBRANCH  15  18
ENDBRANCH   1  12
BRANCH   2  20
ATOM     20  O   UNL     1      -9.221   6.420  17.893  1.00  0.00    -0.502 OA
ATOM     21  H   UNL     1      -8.340   6.211  18.345  1.00  0.00     0.293 HD
ENDBRANCH   2  20
BRANCH   6  22
ATOM     22  O   UNL     1     -11.087   6.380  12.905  1.00  0.00    -0.507 OA
ATOM     23  H   UNL     1     -10.670   5.622  12.386  1.00  0.00     0.293 HD
ENDBRANCH   6  22
BRANCH   8  24
ATOM     24  O   UNL     1      -9.723  10.751  11.460  1.00  0.00    -0.508 OA
ATOM     25  H   UNL     1     -10.123  11.676  11.574  1.00  0.00     0.293 HD
ENDBRANCH   8  24
TORSDOF 5
ENDMDL
MODEL 6
REMARK VINA RESULT:    -5.151      4.391      6.282
REMARK INTER + INTRA:          -6.326
REMARK INTER:                  -6.076
REMARK INTRA:                  -0.250
REMARK UNBOUND:                -0.272
REMARK SMILES O=c1c(O)c(-c2ccc(O)cc2)oc2cc(O)cc(O)c12
REMARK SMILES IDX 5 1 3 2 2 3 1 4 21 5 19 6 18 7 16 8 15 9 14 10 13 11 6 12
REMARK SMILES IDX 7 13 8 14 9 15 12 16 11 17 10 18 4 20 20 22 17 24
REMARK H PARENT 10 19 4 21 20 23 17 25
REMARK Flexibility Score: inf
ROOT
ATOM      1  C   UNL     1      -8.085   7.071  11.154  1.00  0.00     0.180 A 
ATOM      2  C   UNL     1      -9.257   7.839  11.037  1.00  0.00     0.208 A 
ATOM      3  C   UNL     1     -10.187   7.830  12.089  1.00  0.00     0.238 A 
ATOM      4  O   UNL     1     -11.207   8.562  12.000  1.00  0.00    -0.285 OA
ATOM      5  C   UNL     1      -9.941   7.041  13.239  1.00  0.00     0.111 A 
ATOM      6  C   UNL     1     -10.833   6.925  14.348  1.00  0.00     0.134 A 
ATOM      7  C   UNL     1     -10.428   6.220  15.488  1.00  0.00     0.093 A 
ATOM      8  C   UNL     1      -9.191   5.573  15.533  1.00  0.00     0.123 A 
ATOM      9  C   UNL     1      -8.339   5.631  14.433  1.00  0.00     0.094 A 
ATOM     10  C   UNL     1      -8.699   6.357  13.295  1.00  0.00     0.146 A 
ATOM     11  O   UNL     1      -7.852   6.394  12.273  1.00  0.00    -0.452 OA
ENDROOT
BRANCH   1  12
ATOM     12  C   UNL     1      -7.072   7.011  10.077  1.00  0.00     0.021 A 
ATOM     13  C   UNL     1      -5.844   7.676  10.244  1.00  0.00     0.016 A 
ATOM     14  C   UNL     1      -4.864   7.612   9.249  1.00  0.00     0.047 A 
ATOM     15  C   UNL     1      -5.090   6.875   8.084  1.00  0.00     0.115 A 
ATOM     16  C   UNL     1      -7.285   6.254   8.910  1.00  0.00     0.016 A 
ATOM     17  C   UNL     1      -6.301   6.192   7.918  1.00  0.00     0.047 A 
BRANCH  15  18
ATOM     18  O   UNL     1      -4.104   6.822   7.101  1.00  0.00    -0.508 OA
ATOM     19  H   UNL     1      -4.226   7.279   6.205  1.00  0.00     0.293 HD
ENDBRANCH  15  18
ENDBRANCH   1  12
BRANCH   2  20
ATOM     20  O   UNL     1      -9.470   8.628   9.902  1.00  0.00    -0.502 OA
ATOM     21  H   UNL     1      -9.905   9.541   9.948  1.00  0.00     0.293 HD
ENDBRANCH   2  20
BRANCH   6  22
ATOM     22  O   UNL     1     -12.125   7.455  14.368  1.00  0.00    -0.507 OA
ATOM     23  H   UNL     1     -12.367   8.369  14.719  1.00  0.00     0.293 HD
ENDBRANCH   6  22
BRANCH   8  24
ATOM     24  O   UNL     1      -8.802   4.860  16.666  1.00  0.00    -0.508 OA
ATOM     25  H   UNL     1      -9.036   5.180  17.599  1.00  0.00     0.293 HD
ENDBRANCH   8  24
TORSDOF 5
ENDMDL
MODEL 7
REMARK VINA RESULT:    -5.043      3.619      7.493
REMARK INTER + INTRA:          -6.199
REMARK INTER:                  -6.419
REMARK INTRA:                   0.220
REMARK UNBOUND:                -0.272
REMARK SMILES O=c1c(O)c(-c2ccc(O)cc2)oc2cc(O)cc(O)c12
REMARK SMILES IDX 5 1 3 2 2 3 1 4 21 5 19 6 18 7 16 8 15 9 14 10 13 11 6 12
REMARK SMILES IDX 7 13 8 14 9 15 12 16 11 17 10 18 4 20 20 22 17 24
REMARK H PARENT 10 19 4 21 20 23 17 25
REMARK Flexibility Score: inf
ROOT
ATOM      1  C   UNL     1      -6.356  10.008  17.212  1.00  0.00     0.180 A 
ATOM      2  C   UNL     1      -5.045  10.327  17.605  1.00  0.00     0.208 A 
ATOM      3  C   UNL     1      -4.073  10.551  16.616  1.00  0.00     0.238 A 
ATOM      4  O   UNL     1      -2.914  10.890  16.974  1.00  0.00    -0.285 OA
ATOM      5  C   UNL     1      -4.421  10.438  15.248  1.00  0.00     0.111 A 
ATOM      6  C   UNL     1      -3.507  10.605  14.164  1.00  0.00     0.134 A 
ATOM      7  C   UNL     1      -3.989  10.600  12.849  1.00  0.00     0.093 A 
ATOM      8  C   UNL     1      -5.340  10.369  12.578  1.00  0.00     0.123 A 
ATOM      9  C   UNL     1      -6.228  10.146  13.627  1.00  0.00     0.094 A 
ATOM     10  C   UNL     1      -5.784  10.182  14.951  1.00  0.00     0.146 A 
ATOM     11  O   UNL     1      -6.667   9.975  15.921  1.00  0.00    -0.452 OA
ENDROOT
BRANCH   1  12
ATOM     12  C   UNL     1      -7.428   9.734  18.196  1.00  0.00     0.021 A 
ATOM     13  C   UNL     1      -7.526  10.528  19.351  1.00  0.00     0.016 A 
ATOM     14  C   UNL     1      -8.545  10.301  20.282  1.00  0.00     0.047 A 
ATOM     15  C   UNL     1      -9.485   9.290  20.064  1.00  0.00     0.115 A 
ATOM     16  C   UNL     1      -8.389   8.730  17.973  1.00  0.00     0.016 A 
ATOM     17  C   UNL     1      -9.407   8.507  18.905  1.00  0.00     0.047 A 
BRANCH  15  18
ATOM     18  O   UNL     1     -10.494   9.075  21.001  1.00  0.00    -0.508 OA
ATOM     19  H   UNL     1     -10.323   9.176  21.995  1.00  0.00     0.293 HD
ENDBRANCH  15  18
ENDBRANCH   1  12
BRANCH   2  20
ATOM     20  O   UNL     1      -4.728  10.455  18.960  1.00  0.00    -0.502 OA
ATOM     21  H   UNL     1      -5.378  10.209  19.696  1.00  0.00     0.293 HD
ENDBRANCH   2  20
BRANCH   6  22
ATOM     22  O   UNL     1      -2.127  10.750  14.322  1.00  0.00    -0.507 OA
ATOM     23  H   UNL     1      -1.456  10.731  13.569  1.00  0.00     0.293 HD
ENDBRANCH   6  22
BRANCH   8  24
ATOM     24  O   UNL     1      -5.808  10.350  11.265  1.00  0.00    -0.508 OA
ATOM     25  H   UNL     1      -6.169  11.186  10.819  1.00  0.00     0.293 HD
ENDBRANCH   8  24
TORSDOF 5
ENDMDL
MODEL 8
REMARK VINA RESULT:    -4.901      3.078      4.853
REMARK INTER + INTRA:          -6.032
REMARK INTER:                  -5.806
REMARK INTRA:                  -0.226
REMARK UNBOUND:                -0.272
REMARK SMILES O=c1c(O)c(-c2ccc(O)cc2)oc2cc(O)cc(O)c12
REMARK SMILES IDX 5 1 3 2 2 3 1 4 21 5 19 6 18 7 16 8 15 9 14 10 13 11 6 12
REMARK SMILES IDX 7 13 8 14 9 15 12 16 11 17 10 18 4 20 20 22 17 24
REMARK H PARENT 10 19 4 21 20 23 17 25
REMARK Flexibility Score: inf
ROOT
ATOM      1  C   UNL     1     -10.380   7.151  12.319  1.00  0.00     0.180 A 
ATOM      2  C   UNL     1     -11.171   8.311  12.404  1.00  0.00     0.208 A 
ATOM      3  C   UNL     1     -11.457   8.850  13.669  1.00  0.00     0.238 A 
ATOM      4  O   UNL     1     -12.119   9.918  13.734  1.00  0.00    -0.285 OA
ATOM      5  C   UNL     1     -10.962   8.215  14.833  1.00  0.00     0.111 A 
ATOM      6  C   UNL     1     -11.223   8.651  16.167  1.00  0.00     0.134 A 
ATOM      7  C   UNL     1     -10.575   8.024  17.238  1.00  0.00     0.093 A 
ATOM      8  C   UNL     1      -9.726   6.934  17.028  1.00  0.00     0.123 A 
ATOM      9  C   UNL     1      -9.512   6.464  15.734  1.00  0.00     0.094 A 
ATOM     10  C   UNL     1     -10.116   7.092  14.642  1.00  0.00     0.146 A 
ATOM     11  O   UNL     1      -9.876   6.617  13.426  1.00  0.00    -0.452 OA
ENDROOT
BRANCH   1  12
ATOM     12  C   UNL     1     -10.057   6.511  11.024  1.00  0.00     0.021 A 
ATOM     13  C   UNL     1      -8.739   6.558  10.539  1.00  0.00     0.016 A 
ATOM     14  C   UNL     1      -8.408   5.940   9.329  1.00  0.00     0.047 A 
ATOM     15  C   UNL     1      -9.382   5.256   8.598  1.00  0.00     0.115 A 
ATOM     16  C   UNL     1     -11.030   5.804  10.293  1.00  0.00     0.016 A 
ATOM     17  C   UNL     1     -10.694   5.185   9.085  1.00  0.00     0.047 A 
BRANCH  15  18
ATOM     18  O   UNL     1      -9.038   4.645   7.394  1.00  0.00    -0.508 OA
ATOM     19  H   UNL     1      -8.953   5.178   6.536  1.00  0.00     0.293 HD
ENDBRANCH  15  18
ENDBRANCH   1  12
BRANCH   2  20
ATOM     20  O   UNL     1     -11.631   8.935  11.240  1.00  0.00    -0.502 OA
ATOM     21  H   UNL     1     -12.471   9.499  11.222  1.00  0.00     0.293 HD
ENDBRANCH   2  20
BRANCH   6  22
ATOM     22  O   UNL     1     -12.123   9.669  16.493  1.00  0.00    -0.507 OA
ATOM     23  H   UNL     1     -12.371   9.940  17.432  1.00  0.00     0.293 HD
ENDBRANCH   6  22
BRANCH   8  24
ATOM     24  O   UNL     1      -9.098   6.305  18.101  1.00  0.00    -0.508 OA
ATOM     25  H   UNL     1      -9.269   5.330  18.318  1.00  0.00     0.293 HD
ENDBRANCH   8  24
TORSDOF 5
ENDMDL
MODEL 9
REMARK VINA RESULT:    -4.900      2.618      7.630
REMARK INTER + INTRA:          -6.031
REMARK INTER:                  -5.757
REMARK INTRA:                  -0.275
REMARK UNBOUND:                -0.272
REMARK SMILES O=c1c(O)c(-c2ccc(O)cc2)oc2cc(O)cc(O)c12
REMARK SMILES IDX 5 1 3 2 2 3 1 4 21 5 19 6 18 7 16 8 15 9 14 10 13 11 6 12
REMARK SMILES IDX 7 13 8 14 9 15 12 16 11 17 10 18 4 20 20 22 17 24
REMARK H PARENT 10 19 4 21 20 23 17 25
REMARK Flexibility Score: inf
ROOT
ATOM      1  C   UNL     1      -9.696   7.487  13.946  1.00  0.00     0.180 A 
ATOM      2  C   UNL     1     -10.921   7.498  13.255  1.00  0.00     0.208 A 
ATOM      3  C   UNL     1     -10.915   7.381  11.856  1.00  0.00     0.238 A 
ATOM      4  O   UNL     1     -12.017   7.337  11.249  1.00  0.00    -0.285 OA
ATOM      5  C   UNL     1      -9.685   7.269  11.164  1.00  0.00     0.111 A 
ATOM      6  C   UNL     1      -9.559   7.184   9.744  1.00  0.00     0.134 A 
ATOM      7  C   UNL     1      -8.302   6.945   9.176  1.00  0.00     0.093 A 
ATOM      8  C   UNL     1      -7.157   6.852   9.972  1.00  0.00     0.123 A 
ATOM      9  C   UNL     1      -7.262   6.993  11.354  1.00  0.00     0.094 A 
ATOM     10  C   UNL     1      -8.508   7.196  11.953  1.00  0.00     0.146 A 
ATOM     11  O   UNL     1      -8.564   7.314  13.274  1.00  0.00    -0.452 OA
ENDROOT
BRANCH   1  12
ATOM     12  C   UNL     1      -9.621   7.631  15.417  1.00  0.00     0.021 A 
ATOM     13  C   UNL     1      -9.681   8.913  15.991  1.00  0.00     0.016 A 
ATOM     14  C   UNL     1      -9.636   9.071  17.379  1.00  0.00     0.047 A 
ATOM     15  C   UNL     1      -9.544   7.953  18.212  1.00  0.00     0.115 A 
ATOM     16  C   UNL     1      -9.549   6.508  16.262  1.00  0.00     0.016 A 
ATOM     17  C   UNL     1      -9.505   6.670  17.651  1.00  0.00     0.047 A 
BRANCH  15  18
ATOM     18  O   UNL     1      -9.498   8.125  19.594  1.00  0.00    -0.508 OA
ATOM     19  H   UNL     1      -9.114   7.413  20.203  1.00  0.00     0.293 HD
ENDBRANCH  15  18
ENDBRANCH   1  12
BRANCH   2  20
ATOM     20  O   UNL     1     -12.125   7.588  13.960  1.00  0.00    -0.502 OA
ATOM     21  H   UNL     1     -12.587   6.777  14.353  1.00  0.00     0.293 HD
ENDBRANCH   2  20
BRANCH   6  22
ATOM     22  O   UNL     1     -10.623   7.355   8.855  1.00  0.00    -0.507 OA
ATOM     23  H   UNL     1     -10.708   6.890   7.964  1.00  0.00     0.293 HD
ENDBRANCH   6  22
BRANCH   8  24
ATOM     24  O   UNL     1      -5.907   6.629   9.397  1.00  0.00    -0.508 OA
ATOM     25  H   UNL     1      -5.361   5.805   9.620  1.00  0.00     0.293 HD
ENDBRANCH   8  24
TORSDOF 5
ENDMDL
