MODEL 1
REMARK VINA RESULT:    -5.496      0.000      0.000
REMARK INTER + INTRA:         -17.348
REMARK INTER:                 -13.850
REMARK INTRA:                  -3.498
REMARK UNBOUND:                -3.498
REMARK SMILES CCCCCCCCCCCCCCCCCCCCCCCCCCCC(=O)[O-]
REMARK SMILES IDX 15 1 16 2 17 3 18 4 19 5 20 6 21 7 22 8 23 9 24 10 25 11
REMARK SMILES IDX 26 12 27 13 28 14 29 15 30 16 14 17 13 18 12 19 11 20 10 21
REMARK SMILES IDX 9 22 8 23 7 24 6 25 5 26 4 27 3 28 2 29 1 30
REMARK H PARENT
REMARK Flexibility Score: inf
ROOT
ATOM      1  C   UNL     1     -21.804 -28.297  15.418  1.00  0.00     0.000 C 
ENDROOT
BRANCH   1   2
ATOM      2  C   UNL     1     -20.539 -27.532  14.986  1.00  0.00     0.000 C 
BRANCH   2   3
ATOM      3  C   UNL     1     -20.322 -26.235  15.781  1.00  0.00     0.000 C 
BRANCH   3   4
ATOM      4  C   UNL     1     -20.778 -25.012  14.972  1.00  0.00     0.000 C 
BRANCH   4   5
ATOM      5  C   UNL     1     -19.631 -24.028  14.678  1.00  0.00     0.000 C 
BRANCH   5   6
ATOM      6  C   UNL     1     -19.311 -23.827  13.182  1.00  0.00     0.000 C 
BRANCH   6   7
ATOM      7  C   UNL     1     -19.933 -24.871  12.237  1.00  0.00     0.000 C 
BRANCH   7   8
ATOM      8  C   UNL     1     -18.955 -25.352  11.155  1.00  0.00     0.000 C 
BRANCH   8   9
ATOM      9  C   UNL     1     -18.014 -26.434  11.702  1.00  0.00     0.000 C 
BRANCH   9  10
ATOM     10  C   UNL     1     -16.538 -25.977  11.726  1.00  0.00     0.000 C 
BRANCH  10  11
ATOM     11  C   UNL     1     -16.018 -25.632  13.134  1.00  0.00     0.000 C 
BRANCH  11  12
ATOM     12  C   UNL     1     -16.770 -26.319  14.288  1.00  0.00     0.006 C 
BRANCH  12  13
ATOM     13  C   UNL     1     -16.471 -25.713  15.675  1.00  0.00     0.053 C 
BRANCH  13  14
ATOM     14  C   UNL     1     -15.547 -26.565  16.490  1.00  0.00     0.041 C 
ATOM     15  O   UNL     1     -14.630 -26.031  17.168  1.00  0.00    -0.550 OA
ATOM     16  O   UNL     1     -15.680 -27.948  16.484  1.00  0.00    -0.550 OA
ENDBRANCH  13  14
ENDBRANCH  12  13
ENDBRANCH  11  12
ENDBRANCH  10  11
ENDBRANCH   9  10
ENDBRANCH   8   9
ENDBRANCH   7   8
ENDBRANCH   6   7
ENDBRANCH   5   6
ENDBRANCH   4   5
ENDBRANCH   3   4
ENDBRANCH   2   3
ENDBRANCH   1   2
BRANCH   1  17
ATOM     17  C   UNL     1     -21.821 -28.755  16.887  1.00  0.00     0.000 C 
BRANCH  17  18
ATOM     18  C   UNL     1     -23.098 -28.330  17.633  1.00  0.00     0.000 C 
BRANCH  18  19
ATOM     19  C   UNL     1     -22.881 -27.094  18.519  1.00  0.00     0.000 C 
BRANCH  19  20
ATOM     20  C   UNL     1     -23.397 -25.798  17.874  1.00  0.00     0.000 C 
BRANCH  20  21
ATOM     21  C   UNL     1     -24.489 -26.101  16.837  1.00  0.00     0.000 C 
BRANCH  21  22
ATOM     22  C   UNL     1     -24.640 -24.986  15.791  1.00  0.00    -0.000 C 
BRANCH  22  23
ATOM     23  C   UNL     1     -26.023 -24.993  15.114  1.00  0.00    -0.000 C 
BRANCH  23  24
ATOM     24  C   UNL     1     -26.781 -23.668  15.295  1.00  0.00    -0.000 C 
BRANCH  24  25
ATOM     25  C   UNL     1     -27.892 -23.765  16.354  1.00  0.00    -0.000 C 
BRANCH  25  26
ATOM     26  C   UNL     1     -29.290 -23.507  15.766  1.00  0.00    -0.000 C 
BRANCH  26  27
ATOM     27  C   UNL     1     -30.413 -23.693  16.797  1.00  0.00    -0.000 C 
BRANCH  27  28
ATOM     28  C   UNL     1     -30.248 -22.714  17.968  1.00  0.00    -0.000 C 
BRANCH  28  29
ATOM     29  C   UNL     1     -30.236 -21.246  17.513  1.00  0.00    -0.003 C 
ATOM     30  C   UNL     1     -29.428 -20.345  18.446  1.00  0.00     0.004 C 
ENDBRANCH  28  29
ENDBRANCH  27  28
ENDBRANCH  26  27
ENDBRANCH  25  26
ENDBRANCH  24  25
ENDBRANCH  23  24
ENDBRANCH  22  23
ENDBRANCH  21  22
ENDBRANCH  20  21
ENDBRANCH  19  20
ENDBRANCH  18  19
ENDBRANCH  17  18
ENDBRANCH   1  17
TORSDOF 26
ENDMDL
MODEL 2
REMARK VINA RESULT:    -5.483      4.227      7.820
REMARK INTER + INTRA:         -17.315
REMARK INTER:                 -12.713
REMARK INTRA:                  -4.603
REMARK UNBOUND:                -3.498
REMARK SMILES CCCCCCCCCCCCCCCCCCCCCCCCCCCC(=O)[O-]
REMARK SMILES IDX 15 1 16 2 17 3 18 4 19 5 20 6 21 7 22 8 23 9 24 10 25 11
REMARK SMILES IDX 26 12 27 13 28 14 29 15 30 16 14 17 13 18 12 19 11 20 10 21
REMARK SMILES IDX 9 22 8 23 7 24 6 25 5 26 4 27 3 28 2 29 1 30
REMARK H PARENT
REMARK Flexibility Score: inf
ROOT
ATOM      1  C   UNL     1     -16.482 -26.287  14.006  1.00  0.00     0.000 C 
ENDROOT
BRANCH   1   2
ATOM      2  C   UNL     1     -16.291 -25.316  12.826  1.00  0.00     0.000 C 
BRANCH   2   3
ATOM      3  C   UNL     1     -17.314 -25.532  11.700  1.00  0.00     0.000 C 
BRANCH   3   4
ATOM      4  C   UNL     1     -16.843 -26.626  10.732  1.00  0.00     0.000 C 
BRANCH   4   5
ATOM      5  C   UNL     1     -17.883 -27.747  10.546  1.00  0.00     0.000 C 
BRANCH   5   6
ATOM      6  C   UNL     1     -17.813 -28.882  11.588  1.00  0.00     0.000 C 
BRANCH   6   7
ATOM      7  C   UNL     1     -18.813 -28.761  12.751  1.00  0.00     0.000 C 
BRANCH   7   8
ATOM      8  C   UNL     1     -20.256 -29.070  12.330  1.00  0.00     0.000 C 
BRANCH   8   9
ATOM      9  C   UNL     1     -21.052 -29.685  13.490  1.00  0.00     0.000 C 
BRANCH   9  10
ATOM     10  C   UNL     1     -21.385 -28.652  14.591  1.00  0.00     0.000 C 
BRANCH  10  11
ATOM     11  C   UNL     1     -20.998 -29.110  16.009  1.00  0.00     0.000 C 
BRANCH  11  12
ATOM     12  C   UNL     1     -21.485 -28.189  17.143  1.00  0.00     0.006 C 
BRANCH  12  13
ATOM     13  C   UNL     1     -23.021 -28.095  17.254  1.00  0.00     0.053 C 
BRANCH  13  14
ATOM     14  C   UNL     1     -23.532 -26.705  17.028  1.00  0.00     0.041 C 
ATOM     15  O   UNL     1     -24.691 -26.390  17.405  1.00  0.00    -0.550 OA
ATOM     16  O   UNL     1     -22.740 -25.764  16.382  1.00  0.00    -0.550 OA
ENDBRANCH  13  14
ENDBRANCH  12  13
ENDBRANCH  11  12
ENDBRANCH  10  11
ENDBRANCH   9  10
ENDBRANCH   8   9
ENDBRANCH   7   8
ENDBRANCH   6   7
ENDBRANCH   5   6
ENDBRANCH   4   5
ENDBRANCH   3   4
ENDBRANCH   2   3
ENDBRANCH   1   2
BRANCH   1  17
ATOM     17  C   UNL     1     -17.235 -25.705  15.216  1.00  0.00     0.000 C 
BRANCH  17  18
ATOM     18  C   UNL     1     -18.739 -26.026  15.197  1.00  0.00     0.000 C 
BRANCH  18  19
ATOM     19  C   UNL     1     -19.599 -24.804  14.839  1.00  0.00     0.000 C 
BRANCH  19  20
ATOM     20  C   UNL     1     -20.421 -25.008  13.556  1.00  0.00     0.000 C 
BRANCH  20  21
ATOM     21  C   UNL     1     -20.961 -23.668  13.034  1.00  0.00     0.000 C 
BRANCH  21  22
ATOM     22  C   UNL     1     -19.889 -22.567  13.008  1.00  0.00    -0.000 C 
BRANCH  22  23
ATOM     23  C   UNL     1     -19.181 -22.463  11.645  1.00  0.00    -0.000 C 
BRANCH  23  24
ATOM     24  C   UNL     1     -19.037 -21.012  11.158  1.00  0.00    -0.000 C 
BRANCH  24  25
ATOM     25  C   UNL     1     -19.899 -20.719   9.917  1.00  0.00    -0.000 C 
BRANCH  25  26
ATOM     26  C   UNL     1     -20.088 -21.958   9.025  1.00  0.00    -0.000 C 
BRANCH  26  27
ATOM     27  C   UNL     1     -21.565 -22.262   8.734  1.00  0.00    -0.000 C 
BRANCH  27  28
ATOM     28  C   UNL     1     -22.090 -23.365   9.663  1.00  0.00    -0.000 C 
BRANCH  28  29
ATOM     29  C   UNL     1     -21.794 -24.776   9.130  1.00  0.00    -0.003 C 
ATOM     30  C   UNL     1     -20.585 -25.421   9.806  1.00  0.00     0.004 C 
ENDBRANCH  28  29
ENDBRANCH  27  28
ENDBRANCH  26  27
ENDBRANCH  25  26
ENDBRANCH  24  25
ENDBRANCH  23  24
ENDBRANCH  22  23
ENDBRANCH  21  22
ENDBRANCH  20  21
ENDBRANCH  19  20
ENDBRANCH  18  19
ENDBRANCH  17  18
ENDBRANCH   1  17
TORSDOF 26
ENDMDL
MODEL 3
REMARK VINA RESULT:    -5.435      3.701      6.915
REMARK INTER + INTRA:         -17.194
REMARK INTER:                 -12.561
REMARK INTRA:                  -4.633
REMARK UNBOUND:                -3.498
REMARK SMILES CCCCCCCCCCCCCCCCCCCCCCCCCCCC(=O)[O-]
REMARK SMILES IDX 15 1 16 2 17 3 18 4 19 5 20 6 21 7 22 8 23 9 24 10 25 11
REMARK SMILES IDX 26 12 27 13 28 14 29 15 30 16 14 17 13 18 12 19 11 20 10 21
REMARK SMILES IDX 9 22 8 23 7 24 6 25 5 26 4 27 3 28 2 29 1 30
REMARK H PARENT
REMARK Flexibility Score: inf
ROOT
ATOM      1  C   UNL     1     -18.134 -26.160  11.283  1.00  0.00     0.000 C 
ENDROOT
BRANCH   1   2
ATOM      2  C   UNL     1     -17.106 -26.517  12.372  1.00  0.00     0.000 C 
BRANCH   2   3
ATOM      3  C   UNL     1     -16.913 -25.397  13.406  1.00  0.00     0.000 C 
BRANCH   3   4
ATOM      4  C   UNL     1     -17.165 -25.913  14.829  1.00  0.00     0.000 C 
BRANCH   4   5
ATOM      5  C   UNL     1     -18.127 -27.115  14.867  1.00  0.00     0.000 C 
BRANCH   5   6
ATOM      6  C   UNL     1     -19.499 -26.831  15.514  1.00  0.00     0.000 C 
BRANCH   6   7
ATOM      7  C   UNL     1     -20.582 -26.320  14.547  1.00  0.00     0.000 C 
BRANCH   7   8
ATOM      8  C   UNL     1     -20.673 -24.789  14.511  1.00  0.00     0.000 C 
BRANCH   8   9
ATOM      9  C   UNL     1     -20.752 -24.273  13.067  1.00  0.00     0.000 C 
BRANCH   9  10
ATOM     10  C   UNL     1     -20.273 -22.810  12.935  1.00  0.00     0.000 C 
BRANCH  10  11
ATOM     11  C   UNL     1     -19.049 -22.638  12.016  1.00  0.00     0.000 C 
BRANCH  11  12
ATOM     12  C   UNL     1     -19.237 -21.627  10.871  1.00  0.00     0.006 C 
BRANCH  12  13
ATOM     13  C   UNL     1     -19.591 -22.276   9.518  1.00  0.00     0.053 C 
BRANCH  13  14
ATOM     14  C   UNL     1     -21.054 -22.195   9.204  1.00  0.00     0.041 C 
ATOM     15  O   UNL     1     -21.850 -23.048   9.678  1.00  0.00    -0.550 OA
ATOM     16  O   UNL     1     -21.537 -21.194   8.370  1.00  0.00    -0.550 OA
ENDBRANCH  13  14
ENDBRANCH  12  13
ENDBRANCH  11  12
ENDBRANCH  10  11
ENDBRANCH   9  10
ENDBRANCH   8   9
ENDBRANCH   7   8
ENDBRANCH   6   7
ENDBRANCH   5   6
ENDBRANCH   4   5
ENDBRANCH   3   4
ENDBRANCH   2   3
ENDBRANCH   1   2
BRANCH   1  17
ATOM     17  C   UNL     1     -19.291 -27.162  11.123  1.00  0.00     0.000 C 
BRANCH  17  18
ATOM     18  C   UNL     1     -18.811 -28.583  10.781  1.00  0.00     0.000 C 
BRANCH  18  19
ATOM     19  C   UNL     1     -18.964 -29.558  11.960  1.00  0.00     0.000 C 
BRANCH  19  20
ATOM     20  C   UNL     1     -20.349 -29.485  12.620  1.00  0.00     0.000 C 
BRANCH  20  21
ATOM     21  C   UNL     1     -20.949 -30.889  12.788  1.00  0.00     0.000 C 
BRANCH  21  22
ATOM     22  C   UNL     1     -21.762 -31.036  14.083  1.00  0.00    -0.000 C 
BRANCH  22  23
ATOM     23  C   UNL     1     -21.510 -29.885  15.074  1.00  0.00    -0.000 C 
BRANCH  23  24
ATOM     24  C   UNL     1     -21.980 -30.214  16.500  1.00  0.00    -0.000 C 
BRANCH  24  25
ATOM     25  C   UNL     1     -21.794 -29.033  17.469  1.00  0.00    -0.000 C 
BRANCH  25  26
ATOM     26  C   UNL     1     -23.096 -28.246  17.695  1.00  0.00    -0.000 C 
BRANCH  26  27
ATOM     27  C   UNL     1     -22.942 -26.745  17.409  1.00  0.00    -0.000 C 
BRANCH  27  28
ATOM     28  C   UNL     1     -23.896 -26.300  16.292  1.00  0.00    -0.000 C 
BRANCH  28  29
ATOM     29  C   UNL     1     -24.299 -24.822  16.414  1.00  0.00    -0.003 C 
ATOM     30  C   UNL     1     -25.530 -24.475  15.577  1.00  0.00     0.004 C 
ENDBRANCH  28  29
ENDBRANCH  27  28
ENDBRANCH  26  27
ENDBRANCH  25  26
ENDBRANCH  24  25
ENDBRANCH  23  24
ENDBRANCH  22  23
ENDBRANCH  21  22
ENDBRANCH  20  21
ENDBRANCH  19  20
ENDBRANCH  18  19
ENDBRANCH  17  18
ENDBRANCH   1  17
TORSDOF 26
ENDMDL
MODEL 4
REMARK VINA RESULT:    -5.392      2.571      4.278
REMARK INTER + INTRA:         -17.085
REMARK INTER:                 -13.268
REMARK INTRA:                  -3.817
REMARK UNBOUND:                -3.498
REMARK SMILES CCCCCCCCCCCCCCCCCCCCCCCCCCCC(=O)[O-]
REMARK SMILES IDX 15 1 16 2 17 3 18 4 19 5 20 6 21 7 22 8 23 9 24 10 25 11
REMARK SMILES IDX 26 12 27 13 28 14 29 15 30 16 14 17 13 18 12 19 11 20 10 21
REMARK SMILES IDX 9 22 8 23 7 24 6 25 5 26 4 27 3 28 2 29 1 30
REMARK H PARENT
REMARK Flexibility Score: inf
ROOT
ATOM      1  C   UNL     1     -20.867 -28.740  13.840  1.00  0.00     0.000 C 
ENDROOT
BRANCH   1   2
ATOM      2  C   UNL     1     -19.613 -28.809  12.950  1.00  0.00     0.000 C 
BRANCH   2   3
ATOM      3  C   UNL     1     -19.475 -27.599  12.013  1.00  0.00     0.000 C 
BRANCH   3   4
ATOM      4  C   UNL     1     -18.000 -27.323  11.686  1.00  0.00     0.000 C 
BRANCH   4   5
ATOM      5  C   UNL     1     -17.654 -25.823  11.708  1.00  0.00     0.000 C 
BRANCH   5   6
ATOM      6  C   UNL     1     -16.834 -25.361  12.930  1.00  0.00     0.000 C 
BRANCH   6   7
ATOM      7  C   UNL     1     -16.838 -26.333  14.124  1.00  0.00     0.000 C 
BRANCH   7   8
ATOM      8  C   UNL     1     -17.517 -25.745  15.368  1.00  0.00     0.000 C 
BRANCH   8   9
ATOM      9  C   UNL     1     -19.037 -25.952  15.318  1.00  0.00     0.000 C 
BRANCH   9  10
ATOM     10  C   UNL     1     -19.803 -24.642  15.024  1.00  0.00     0.000 C 
BRANCH  10  11
ATOM     11  C   UNL     1     -20.841 -24.771  13.894  1.00  0.00     0.000 C 
BRANCH  11  12
ATOM     12  C   UNL     1     -20.839 -23.614  12.878  1.00  0.00     0.006 C 
BRANCH  12  13
ATOM     13  C   UNL     1     -19.517 -22.821  12.838  1.00  0.00     0.053 C 
BRANCH  13  14
ATOM     14  C   UNL     1     -19.237 -22.233  11.489  1.00  0.00     0.041 C 
ATOM     15  O   UNL     1     -18.807 -21.053  11.392  1.00  0.00    -0.550 OA
ATOM     16  O   UNL     1     -19.473 -22.975  10.338  1.00  0.00    -0.550 OA
ENDBRANCH  13  14
ENDBRANCH  12  13
ENDBRANCH  11  12
ENDBRANCH  10  11
ENDBRANCH   9  10
ENDBRANCH   8   9
ENDBRANCH   7   8
ENDBRANCH   6   7
ENDBRANCH   5   6
ENDBRANCH   4   5
ENDBRANCH   3   4
ENDBRANCH   2   3
ENDBRANCH   1   2
BRANCH   1  17
ATOM     17  C   UNL     1     -21.367 -30.095  14.373  1.00  0.00     0.000 C 
BRANCH  17  18
ATOM     18  C   UNL     1     -22.058 -29.983  15.742  1.00  0.00     0.000 C 
BRANCH  18  19
ATOM     19  C   UNL     1     -21.143 -29.378  16.819  1.00  0.00     0.000 C 
BRANCH  19  20
ATOM     20  C   UNL     1     -21.601 -27.985  17.279  1.00  0.00     0.000 C 
BRANCH  20  21
ATOM     21  C   UNL     1     -22.947 -28.069  18.016  1.00  0.00     0.000 C 
BRANCH  21  22
ATOM     22  C   UNL     1     -23.930 -26.970  17.583  1.00  0.00    -0.000 C 
BRANCH  22  23
ATOM     23  C   UNL     1     -23.539 -26.322  16.242  1.00  0.00    -0.000 C 
BRANCH  23  24
ATOM     24  C   UNL     1     -24.209 -24.955  16.024  1.00  0.00    -0.000 C 
BRANCH  24  25
ATOM     25  C   UNL     1     -25.469 -25.050  15.148  1.00  0.00    -0.000 C 
BRANCH  25  26
ATOM     26  C   UNL     1     -26.744 -25.291  15.974  1.00  0.00    -0.000 C 
BRANCH  26  27
ATOM     27  C   UNL     1     -27.595 -24.023  16.140  1.00  0.00    -0.000 C 
BRANCH  27  28
ATOM     28  C   UNL     1     -29.066 -24.304  15.805  1.00  0.00    -0.000 C 
BRANCH  28  29
ATOM     29  C   UNL     1     -30.015 -23.238  16.375  1.00  0.00    -0.003 C 
ATOM     30  C   UNL     1     -29.356 -22.372  17.447  1.00  0.00     0.004 C 
ENDBRANCH  28  29
ENDBRANCH  27  28
ENDBRANCH  26  27
ENDBRANCH  25  26
ENDBRANCH  24  25
ENDBRANCH  23  24
ENDBRANCH  22  23
ENDBRANCH  21  22
ENDBRANCH  20  21
ENDBRANCH  19  20
ENDBRANCH  18  19
ENDBRANCH  17  18
ENDBRANCH   1  17
TORSDOF 26
ENDMDL
MODEL 5
REMARK VINA RESULT:    -5.373      7.417     10.419
REMARK INTER + INTRA:         -17.038
REMARK INTER:                 -14.305
REMARK INTRA:                  -2.733
REMARK UNBOUND:                -3.498
REMARK SMILES CCCCCCCCCCCCCCCCCCCCCCCCCCCC(=O)[O-]
REMARK SMILES IDX 15 1 16 2 17 3 18 4 19 5 20 6 21 7 22 8 23 9 24 10 25 11
REMARK SMILES IDX 26 12 27 13 28 14 29 15 30 16 14 17 13 18 12 19 11 20 10 21
REMARK SMILES IDX 9 22 8 23 7 24 6 25 5 26 4 27 3 28 2 29 1 30
REMARK H PARENT
REMARK Flexibility Score: inf
ROOT
ATOM      1  C   UNL     1     -27.412 -28.011   8.635  1.00  0.00     0.000 C 
ENDROOT
BRANCH   1   2
ATOM      2  C   UNL     1     -26.282 -28.852   8.013  1.00  0.00     0.000 C 
BRANCH   2   3
ATOM      3  C   UNL     1     -26.694 -29.531   6.697  1.00  0.00     0.000 C 
BRANCH   3   4
ATOM      4  C   UNL     1     -26.066 -28.818   5.491  1.00  0.00     0.000 C 
BRANCH   4   5
ATOM      5  C   UNL     1     -24.840 -27.967   5.872  1.00  0.00     0.000 C 
BRANCH   5   6
ATOM      6  C   UNL     1     -23.739 -27.891   4.795  1.00  0.00     0.000 C 
BRANCH   6   7
ATOM      7  C   UNL     1     -24.000 -28.736   3.535  1.00  0.00     0.000 C 
BRANCH   7   8
ATOM      8  C   UNL     1     -22.859 -29.716   3.229  1.00  0.00     0.000 C 
BRANCH   8   9
ATOM      9  C   UNL     1     -22.098 -30.095   4.507  1.00  0.00     0.000 C 
BRANCH   9  10
ATOM     10  C   UNL     1     -22.444 -31.518   5.000  1.00  0.00     0.000 C 
BRANCH  10  11
ATOM     11  C   UNL     1     -23.517 -31.548   6.104  1.00  0.00     0.000 C 
BRANCH  11  12
ATOM     12  C   UNL     1     -23.019 -31.135   7.502  1.00  0.00     0.006 C 
BRANCH  12  13
ATOM     13  C   UNL     1     -22.215 -32.234   8.227  1.00  0.00     0.053 C 
BRANCH  13  14
ATOM     14  C   UNL     1     -22.328 -32.143   9.718  1.00  0.00     0.041 C 
ATOM     15  O   UNL     1     -22.671 -31.060  10.260  1.00  0.00    -0.550 OA
ATOM     16  O   UNL     1     -22.031 -33.244  10.511  1.00  0.00    -0.550 OA
ENDBRANCH  13  14
ENDBRANCH  12  13
ENDBRANCH  11  12
ENDBRANCH  10  11
ENDBRANCH   9  10
ENDBRANCH   8   9
ENDBRANCH   7   8
ENDBRANCH   6   7
ENDBRANCH   5   6
ENDBRANCH   4   5
ENDBRANCH   3   4
ENDBRANCH   2   3
ENDBRANCH   1   2
BRANCH   1  17
ATOM     17  C   UNL     1     -26.972 -27.050   9.753  1.00  0.00     0.000 C 
BRANCH  17  18
ATOM     18  C   UNL     1     -27.857 -25.796   9.849  1.00  0.00     0.000 C 
BRANCH  18  19
ATOM     19  C   UNL     1     -27.094 -24.573  10.383  1.00  0.00     0.000 C 
BRANCH  19  20
ATOM     20  C   UNL     1     -25.581 -24.656  10.130  1.00  0.00     0.000 C 
BRANCH  20  21
ATOM     21  C   UNL     1     -25.163 -23.700   9.002  1.00  0.00     0.000 C 
BRANCH  21  22
ATOM     22  C   UNL     1     -23.797 -24.057   8.397  1.00  0.00    -0.000 C 
BRANCH  22  23
ATOM     23  C   UNL     1     -23.323 -23.027   7.356  1.00  0.00    -0.000 C 
BRANCH  23  24
ATOM     24  C   UNL     1     -23.645 -21.580   7.762  1.00  0.00    -0.000 C 
BRANCH  24  25
ATOM     25  C   UNL     1     -22.379 -20.735   7.986  1.00  0.00    -0.000 C 
BRANCH  25  26
ATOM     26  C   UNL     1     -21.116 -21.598   8.144  1.00  0.00    -0.000 C 
BRANCH  26  27
ATOM     27  C   UNL     1     -20.239 -21.158   9.326  1.00  0.00    -0.000 C 
BRANCH  27  28
ATOM     28  C   UNL     1     -20.145 -22.270  10.380  1.00  0.00    -0.000 C 
BRANCH  28  29
ATOM     29  C   UNL     1     -19.244 -21.887  11.564  1.00  0.00    -0.003 C 
ATOM     30  C   UNL     1     -19.206 -20.380  11.814  1.00  0.00     0.004 C 
ENDBRANCH  28  29
ENDBRANCH  27  28
ENDBRANCH  26  27
ENDBRANCH  25  26
ENDBRANCH  24  25
ENDBRANCH  23  24
ENDBRANCH  22  23
ENDBRANCH  21  22
ENDBRANCH  20  21
ENDBRANCH  19  20
ENDBRANCH  18  19
ENDBRANCH  17  18
ENDBRANCH   1  17
TORSDOF 26
ENDMDL
MODEL 6
REMARK VINA RESULT:    -5.371      3.734      7.371
REMARK INTER + INTRA:         -17.034
REMARK INTER:                 -12.628
REMARK INTRA:                  -4.406
REMARK UNBOUND:                -3.498
REMARK SMILES CCCCCCCCCCCCCCCCCCCCCCCCCCCC(=O)[O-]
REMARK SMILES IDX 15 1 16 2 17 3 18 4 19 5 20 6 21 7 22 8 23 9 24 10 25 11
REMARK SMILES IDX 26 12 27 13 28 14 29 15 30 16 14 17 13 18 12 19 11 20 10 21
REMARK SMILES IDX 9 22 8 23 7 24 6 25 5 26 4 27 3 28 2 29 1 30
REMARK H PARENT
REMARK Flexibility Score: inf
ROOT
ATOM      1  C   UNL     1     -21.011 -29.735  13.108  1.00  0.00     0.000 C 
ENDROOT
BRANCH   1   2
ATOM      2  C   UNL     1     -21.454 -30.648  14.267  1.00  0.00     0.000 C 
BRANCH   2   3
ATOM      3  C   UNL     1     -22.127 -29.878  15.414  1.00  0.00     0.000 C 
BRANCH   3   4
ATOM      4  C   UNL     1     -21.091 -29.417  16.448  1.00  0.00     0.000 C 
BRANCH   4   5
ATOM      5  C   UNL     1     -21.715 -29.106  17.822  1.00  0.00     0.000 C 
BRANCH   5   6
ATOM      6  C   UNL     1     -23.061 -28.354  17.771  1.00  0.00     0.000 C 
BRANCH   6   7
ATOM      7  C   UNL     1     -22.951 -26.837  17.534  1.00  0.00     0.000 C 
BRANCH   7   8
ATOM      8  C   UNL     1     -23.366 -26.424  16.116  1.00  0.00     0.000 C 
BRANCH   8   9
ATOM      9  C   UNL     1     -22.346 -25.457  15.500  1.00  0.00     0.000 C 
BRANCH   9  10
ATOM     10  C   UNL     1     -21.136 -26.190  14.879  1.00  0.00     0.000 C 
BRANCH  10  11
ATOM     11  C   UNL     1     -19.774 -25.615  15.310  1.00  0.00     0.000 C 
BRANCH  11  12
ATOM     12  C   UNL     1     -18.649 -26.656  15.460  1.00  0.00     0.006 C 
BRANCH  12  13
ATOM     13  C   UNL     1     -17.284 -26.180  14.925  1.00  0.00     0.053 C 
BRANCH  13  14
ATOM     14  C   UNL     1     -16.186 -26.323  15.934  1.00  0.00     0.041 C 
ATOM     15  O   UNL     1     -15.708 -25.303  16.496  1.00  0.00    -0.550 OA
ATOM     16  O   UNL     1     -15.673 -27.578  16.239  1.00  0.00    -0.550 OA
ENDBRANCH  13  14
ENDBRANCH  12  13
ENDBRANCH  11  12
ENDBRANCH  10  11
ENDBRANCH   9  10
ENDBRANCH   8   9
ENDBRANCH   7   8
ENDBRANCH   6   7
ENDBRANCH   5   6
ENDBRANCH   4   5
ENDBRANCH   3   4
ENDBRANCH   2   3
ENDBRANCH   1   2
BRANCH   1  17
ATOM     17  C   UNL     1     -19.740 -30.188  12.368  1.00  0.00     0.000 C 
BRANCH  17  18
ATOM     18  C   UNL     1     -18.765 -29.032  12.089  1.00  0.00     0.000 C 
BRANCH  18  19
ATOM     19  C   UNL     1     -19.478 -27.677  11.953  1.00  0.00     0.000 C 
BRANCH  19  20
ATOM     20  C   UNL     1     -19.299 -27.044  10.564  1.00  0.00     0.000 C 
BRANCH  20  21
ATOM     21  C   UNL     1     -18.841 -25.583  10.683  1.00  0.00     0.000 C 
BRANCH  21  22
ATOM     22  C   UNL     1     -19.474 -24.859  11.882  1.00  0.00    -0.000 C 
BRANCH  22  23
ATOM     23  C   UNL     1     -18.795 -23.511  12.184  1.00  0.00    -0.000 C 
BRANCH  23  24
ATOM     24  C   UNL     1     -19.763 -22.478  12.784  1.00  0.00    -0.000 C 
BRANCH  24  25
ATOM     25  C   UNL     1     -19.611 -21.088  12.145  1.00  0.00    -0.000 C 
BRANCH  25  26
ATOM     26  C   UNL     1     -18.985 -21.150  10.741  1.00  0.00    -0.000 C 
BRANCH  26  27
ATOM     27  C   UNL     1     -20.024 -21.010   9.619  1.00  0.00    -0.000 C 
BRANCH  27  28
ATOM     28  C   UNL     1     -20.332 -22.375   8.987  1.00  0.00    -0.000 C 
BRANCH  28  29
ATOM     29  C   UNL     1     -21.671 -22.958   9.463  1.00  0.00    -0.003 C 
ATOM     30  C   UNL     1     -22.857 -22.468   8.635  1.00  0.00     0.004 C 
ENDBRANCH  28  29
ENDBRANCH  27  28
ENDBRANCH  26  27
ENDBRANCH  25  26
ENDBRANCH  24  25
ENDBRANCH  23  24
ENDBRANCH  22  23
ENDBRANCH  21  22
ENDBRANCH  20  21
ENDBRANCH  19  20
ENDBRANCH  18  19
ENDBRANCH  17  18
ENDBRANCH   1  17
TORSDOF 26
ENDMDL
MODEL 7
REMARK VINA RESULT:    -5.342      4.123      7.536
REMARK INTER + INTRA:         -16.959
REMARK INTER:                 -12.842
REMARK INTRA:                  -4.117
REMARK UNBOUND:                -3.498
REMARK SMILES CCCCCCCCCCCCCCCCCCCCCCCCCCCC(=O)[O-]
REMARK SMILES IDX 15 1 16 2 17 3 18 4 19 5 20 6 21 7 22 8 23 9 24 10 25 11
REMARK SMILES IDX 26 12 27 13 28 14 29 15 30 16 14 17 13 18 12 19 11 20 10 21
REMARK SMILES IDX 9 22 8 23 7 24 6 25 5 26 4 27 3 28 2 29 1 30
REMARK H PARENT
REMARK Flexibility Score: inf
ROOT
ATOM      1  C   UNL     1     -23.195 -28.848  17.866  1.00  0.00     0.000 C 
ENDROOT
BRANCH   1   2
ATOM      2  C   UNL     1     -21.748 -29.289  17.582  1.00  0.00     0.000 C 
BRANCH   2   3
ATOM      3  C   UNL     1     -21.645 -30.312  16.440  1.00  0.00     0.000 C 
BRANCH   3   4
ATOM      4  C   UNL     1     -21.640 -29.611  15.074  1.00  0.00     0.000 C 
BRANCH   4   5
ATOM      5  C   UNL     1     -21.589 -30.600  13.895  1.00  0.00     0.000 C 
BRANCH   5   6
ATOM      6  C   UNL     1     -20.993 -30.031  12.591  1.00  0.00     0.000 C 
BRANCH   6   7
ATOM      7  C   UNL     1     -20.149 -28.755  12.762  1.00  0.00     0.000 C 
BRANCH   7   8
ATOM      8  C   UNL     1     -18.643 -29.015  12.628  1.00  0.00     0.000 C 
BRANCH   8   9
ATOM      9  C   UNL     1     -18.326 -29.777  11.334  1.00  0.00     0.000 C 
BRANCH   9  10
ATOM     10  C   UNL     1     -16.981 -29.345  10.707  1.00  0.00     0.000 C 
BRANCH  10  11
ATOM     11  C   UNL     1     -17.132 -28.601   9.368  1.00  0.00     0.000 C 
BRANCH  11  12
ATOM     12  C   UNL     1     -15.991 -27.621   9.039  1.00  0.00     0.006 C 
BRANCH  12  13
ATOM     13  C   UNL     1     -15.953 -27.181   7.561  1.00  0.00     0.053 C 
BRANCH  13  14
ATOM     14  C   UNL     1     -16.647 -25.874   7.330  1.00  0.00     0.041 C 
ATOM     15  O   UNL     1     -16.270 -25.115   6.398  1.00  0.00    -0.550 OA
ATOM     16  O   UNL     1     -17.693 -25.480   8.155  1.00  0.00    -0.550 OA
ENDBRANCH  13  14
ENDBRANCH  12  13
ENDBRANCH  11  12
ENDBRANCH  10  11
ENDBRANCH   9  10
ENDBRANCH   8   9
ENDBRANCH   7   8
ENDBRANCH   6   7
ENDBRANCH   5   6
ENDBRANCH   4   5
ENDBRANCH   3   4
ENDBRANCH   2   3
ENDBRANCH   1   2
BRANCH   1  17
ATOM     17  C   UNL     1     -23.338 -27.633  18.800  1.00  0.00     0.000 C 
BRANCH  17  18
ATOM     18  C   UNL     1     -24.349 -26.595  18.284  1.00  0.00     0.000 C 
BRANCH  18  19
ATOM     19  C   UNL     1     -23.684 -25.487  17.452  1.00  0.00     0.000 C 
BRANCH  19  20
ATOM     20  C   UNL     1     -23.750 -25.754  15.940  1.00  0.00     0.000 C 
BRANCH  20  21
ATOM     21  C   UNL     1     -22.370 -26.153  15.396  1.00  0.00     0.000 C 
BRANCH  21  22
ATOM     22  C   UNL     1     -21.226 -25.797  16.359  1.00  0.00    -0.000 C 
BRANCH  22  23
ATOM     23  C   UNL     1     -19.895 -26.465  15.969  1.00  0.00    -0.000 C 
BRANCH  23  24
ATOM     24  C   UNL     1     -19.124 -25.676  14.900  1.00  0.00    -0.000 C 
BRANCH  24  25
ATOM     25  C   UNL     1     -19.516 -24.189  14.869  1.00  0.00    -0.000 C 
BRANCH  25  26
ATOM     26  C   UNL     1     -19.684 -23.654  13.436  1.00  0.00    -0.000 C 
BRANCH  26  27
ATOM     27  C   UNL     1     -19.590 -24.759  12.374  1.00  0.00    -0.000 C 
BRANCH  27  28
ATOM     28  C   UNL     1     -18.358 -24.555  11.481  1.00  0.00    -0.000 C 
BRANCH  28  29
ATOM     29  C   UNL     1     -17.323 -25.680  11.637  1.00  0.00    -0.003 C 
ATOM     30  C   UNL     1     -16.212 -25.328  12.626  1.00  0.00     0.004 C 
ENDBRANCH  28  29
ENDBRANCH  27  28
ENDBRANCH  26  27
ENDBRANCH  25  26
ENDBRANCH  24  25
ENDBRANCH  23  24
ENDBRANCH  22  23
ENDBRANCH  21  22
ENDBRANCH  20  21
ENDBRANCH  19  20
ENDBRANCH  18  19
ENDBRANCH  17  18
ENDBRANCH   1  17
TORSDOF 26
ENDMDL
MODEL 8
REMARK VINA RESULT:    -5.324      7.333     10.808
REMARK INTER + INTRA:         -16.913
REMARK INTER:                 -14.032
REMARK INTRA:                  -2.882
REMARK UNBOUND:                -3.498
REMARK SMILES CCCCCCCCCCCCCCCCCCCCCCCCCCCC(=O)[O-]
REMARK SMILES IDX 15 1 16 2 17 3 18 4 19 5 20 6 21 7 22 8 23 9 24 10 25 11
REMARK SMILES IDX 26 12 27 13 28 14 29 15 30 16 14 17 13 18 12 19 11 20 10 21
REMARK SMILES IDX 9 22 8 23 7 24 6 25 5 26 4 27 3 28 2 29 1 30
REMARK H PARENT
REMARK Flexibility Score: inf
ROOT
ATOM      1  C   UNL     1     -26.812 -27.250   9.646  1.00  0.00     0.000 C 
ENDROOT
BRANCH   1   2
ATOM      2  C   UNL     1     -26.314 -28.527   8.944  1.00  0.00     0.000 C 
BRANCH   2   3
ATOM      3  C   UNL     1     -27.280 -29.032   7.861  1.00  0.00     0.000 C 
BRANCH   3   4
ATOM      4  C   UNL     1     -26.521 -29.414   6.582  1.00  0.00     0.000 C 
BRANCH   4   5
ATOM      5  C   UNL     1     -25.324 -28.488   6.299  1.00  0.00     0.000 C 
BRANCH   5   6
ATOM      6  C   UNL     1     -25.226 -27.975   4.847  1.00  0.00     0.000 C 
BRANCH   6   7
ATOM      7  C   UNL     1     -23.803 -27.630   4.373  1.00  0.00     0.000 C 
BRANCH   7   8
ATOM      8  C   UNL     1     -23.371 -28.444   3.146  1.00  0.00     0.000 C 
BRANCH   8   9
ATOM      9  C   UNL     1     -23.537 -29.949   3.394  1.00  0.00     0.000 C 
BRANCH   9  10
ATOM     10  C   UNL     1     -22.181 -30.683   3.508  1.00  0.00     0.000 C 
BRANCH  10  11
ATOM     11  C   UNL     1     -22.113 -31.682   4.677  1.00  0.00     0.000 C 
BRANCH  11  12
ATOM     12  C   UNL     1     -23.271 -31.578   5.687  1.00  0.00     0.006 C 
BRANCH  12  13
ATOM     13  C   UNL     1     -22.867 -30.954   7.038  1.00  0.00     0.053 C 
BRANCH  13  14
ATOM     14  C   UNL     1     -22.013 -31.867   7.863  1.00  0.00     0.041 C 
ATOM     15  O   UNL     1     -22.527 -32.863   8.438  1.00  0.00    -0.550 OA
ATOM     16  O   UNL     1     -20.657 -31.608   8.019  1.00  0.00    -0.550 OA
ENDBRANCH  13  14
ENDBRANCH  12  13
ENDBRANCH  11  12
ENDBRANCH  10  11
ENDBRANCH   9  10
ENDBRANCH   8   9
ENDBRANCH   7   8
ENDBRANCH   6   7
ENDBRANCH   5   6
ENDBRANCH   4   5
ENDBRANCH   3   4
ENDBRANCH   2   3
ENDBRANCH   1   2
BRANCH   1  17
ATOM     17  C   UNL     1     -26.067 -25.959   9.261  1.00  0.00     0.000 C 
BRANCH  17  18
ATOM     18  C   UNL     1     -24.634 -26.219   8.767  1.00  0.00     0.000 C 
BRANCH  18  19
ATOM     19  C   UNL     1     -24.145 -25.146   7.781  1.00  0.00     0.000 C 
BRANCH  19  20
ATOM     20  C   UNL     1     -24.125 -23.737   8.392  1.00  0.00     0.000 C 
BRANCH  20  21
ATOM     21  C   UNL     1     -23.371 -22.757   7.482  1.00  0.00     0.000 C 
BRANCH  21  22
ATOM     22  C   UNL     1     -22.745 -21.587   8.257  1.00  0.00    -0.000 C 
BRANCH  22  23
ATOM     23  C   UNL     1     -21.206 -21.615   8.229  1.00  0.00    -0.000 C 
BRANCH  23  24
ATOM     24  C   UNL     1     -20.598 -22.221   9.504  1.00  0.00    -0.000 C 
BRANCH  24  25
ATOM     25  C   UNL     1     -19.456 -21.365  10.077  1.00  0.00    -0.000 C 
BRANCH  25  26
ATOM     26  C   UNL     1     -19.263 -21.575  11.588  1.00  0.00    -0.000 C 
BRANCH  26  27
ATOM     27  C   UNL     1     -20.110 -22.731  12.141  1.00  0.00    -0.000 C 
BRANCH  27  28
ATOM     28  C   UNL     1     -19.250 -23.685  12.982  1.00  0.00    -0.000 C 
BRANCH  28  29
ATOM     29  C   UNL     1     -18.129 -24.346  12.164  1.00  0.00    -0.003 C 
ATOM     30  C   UNL     1     -18.660 -25.144  10.973  1.00  0.00     0.004 C 
ENDBRANCH  28  29
ENDBRANCH  27  28
ENDBRANCH  26  27
ENDBRANCH  25  26
ENDBRANCH  24  25
ENDBRANCH  23  24
ENDBRANCH  22  23
ENDBRANCH  21  22
ENDBRANCH  20  21
ENDBRANCH  19  20
ENDBRANCH  18  19
ENDBRANCH  17  18
ENDBRANCH   1  17
TORSDOF 26
ENDMDL
MODEL 9
REMARK VINA RESULT:    -5.323      3.736      7.918
REMARK INTER + INTRA:         -16.913
REMARK INTER:                 -12.819
REMARK INTRA:                  -4.093
REMARK UNBOUND:                -3.498
REMARK SMILES CCCCCCCCCCCCCCCCCCCCCCCCCCCC(=O)[O-]
REMARK SMILES IDX 15 1 16 2 17 3 18 4 19 5 20 6 21 7 22 8 23 9 24 10 25 11
REMARK SMILES IDX 26 12 27 13 28 14 29 15 30 16 14 17 13 18 12 19 11 20 10 21
REMARK SMILES IDX 9 22 8 23 7 24 6 25 5 26 4 27 3 28 2 29 1 30
REMARK H PARENT
REMARK Flexibility Score: inf
ROOT
ATOM      1  C   UNL     1     -20.828 -24.388  14.190  1.00  0.00     0.000 C 
ENDROOT
BRANCH   1   2
ATOM      2  C   UNL     1     -21.563 -25.677  14.602  1.00  0.00     0.000 C 
BRANCH   2   3
ATOM      3  C   UNL     1     -22.158 -25.603  16.017  1.00  0.00     0.000 C 
BRANCH   3   4
ATOM      4  C   UNL     1     -23.678 -25.814  15.985  1.00  0.00     0.000 C 
BRANCH   4   5
ATOM      5  C   UNL     1     -24.213 -26.497  17.257  1.00  0.00     0.000 C 
BRANCH   5   6
ATOM      6  C   UNL     1     -23.144 -27.203  18.117  1.00  0.00     0.000 C 
BRANCH   6   7
ATOM      7  C   UNL     1     -23.130 -28.738  18.008  1.00  0.00     0.000 C 
BRANCH   7   8
ATOM      8  C   UNL     1     -21.759 -29.293  17.599  1.00  0.00     0.000 C 
BRANCH   8   9
ATOM      9  C   UNL     1     -21.474 -29.026  16.115  1.00  0.00     0.000 C 
BRANCH   9  10
ATOM     10  C   UNL     1     -21.739 -30.264  15.230  1.00  0.00     0.000 C 
BRANCH  10  11
ATOM     11  C   UNL     1     -21.346 -30.068  13.754  1.00  0.00     0.000 C 
BRANCH  11  12
ATOM     12  C   UNL     1     -20.298 -28.968  13.504  1.00  0.00     0.006 C 
BRANCH  12  13
ATOM     13  C   UNL     1     -19.906 -28.806  12.021  1.00  0.00     0.053 C 
BRANCH  13  14
ATOM     14  C   UNL     1     -18.970 -29.876  11.551  1.00  0.00     0.041 C 
ATOM     15  O   UNL     1     -19.336 -30.689  10.661  1.00  0.00    -0.550 OA
ATOM     16  O   UNL     1     -17.704 -29.995  12.111  1.00  0.00    -0.550 OA
ENDBRANCH  13  14
ENDBRANCH  12  13
ENDBRANCH  11  12
ENDBRANCH  10  11
ENDBRANCH   9  10
ENDBRANCH   8   9
ENDBRANCH   7   8
ENDBRANCH   6   7
ENDBRANCH   5   6
ENDBRANCH   4   5
ENDBRANCH   3   4
ENDBRANCH   2   3
ENDBRANCH   1   2
BRANCH   1  17
ATOM     17  C   UNL     1     -19.402 -24.240  14.752  1.00  0.00     0.000 C 
BRANCH  17  18
ATOM     18  C   UNL     1     -18.828 -25.564  15.284  1.00  0.00     0.000 C 
BRANCH  18  19
ATOM     19  C   UNL     1     -17.362 -25.779  14.874  1.00  0.00     0.000 C 
BRANCH  19  20
ATOM     20  C   UNL     1     -17.208 -26.747  13.691  1.00  0.00     0.000 C 
BRANCH  20  21
ATOM     21  C   UNL     1     -16.598 -26.033  12.476  1.00  0.00     0.000 C 
BRANCH  21  22
ATOM     22  C   UNL     1     -17.497 -24.910  11.934  1.00  0.00    -0.000 C 
BRANCH  22  23
ATOM     23  C   UNL     1     -18.307 -25.346  10.700  1.00  0.00    -0.000 C 
BRANCH  23  24
ATOM     24  C   UNL     1     -19.824 -25.335  10.949  1.00  0.00    -0.000 C 
BRANCH  24  25
ATOM     25  C   UNL     1     -20.609 -24.716   9.780  1.00  0.00    -0.000 C 
BRANCH  25  26
ATOM     26  C   UNL     1     -21.316 -23.408  10.171  1.00  0.00    -0.000 C 
BRANCH  26  27
ATOM     27  C   UNL     1     -20.760 -22.185   9.428  1.00  0.00    -0.000 C 
BRANCH  27  28
ATOM     28  C   UNL     1     -19.414 -21.749  10.024  1.00  0.00    -0.000 C 
BRANCH  28  29
ATOM     29  C   UNL     1     -19.454 -21.639  11.556  1.00  0.00    -0.003 C 
ATOM     30  C   UNL     1     -19.409 -20.192  12.045  1.00  0.00     0.004 C 
ENDBRANCH  28  29
ENDBRANCH  27  28
ENDBRANCH  26  27
ENDBRANCH  25  26
ENDBRANCH  24  25
ENDBRANCH  23  24
ENDBRANCH  22  23
ENDBRANCH  21  22
ENDBRANCH  20  21
ENDBRANCH  19  20
ENDBRANCH  18  19
ENDBRANCH  17  18
ENDBRANCH   1  17
TORSDOF 26
ENDMDL
