MODEL 1
REMARK VINA RESULT:    -5.970      0.000      0.000
REMARK INTER + INTRA:          -7.146
REMARK INTER:                  -7.017
REMARK INTRA:                  -0.129
REMARK UNBOUND:                -0.129
REMARK SMILES O=C([O-])C=Cc1ccc(O)c(O)c1
REMARK SMILES IDX 6 1 13 2 7 3 11 4 8 5 9 6 5 7 4 8 2 9 1 10 3 11 12 12 10 14
REMARK H PARENT 12 13 10 15
REMARK Flexibility Score: inf
ROOT
ATOM      1  C   UNL     1     -28.476  -6.923  -0.896  1.00  0.00    -0.022 A 
ATOM      2  C   UNL     1     -28.206  -6.295  -2.123  1.00  0.00     0.058 A 
ATOM      3  C   UNL     1     -29.207  -6.219   0.081  1.00  0.00     0.012 A 
ATOM      4  C   UNL     1     -28.633  -4.984  -2.369  1.00  0.00     0.157 A 
ATOM      5  C   UNL     1     -29.634  -4.911  -0.162  1.00  0.00     0.051 A 
ATOM      6  C   UNL     1     -29.349  -4.287  -1.382  1.00  0.00     0.157 A 
ENDROOT
BRANCH   1   7
ATOM      7  C   UNL     1     -28.010  -8.317  -0.693  1.00  0.00     0.010 C 
ATOM      8  C   UNL     1     -26.813  -8.768  -1.095  1.00  0.00     0.025 C 
BRANCH   8   9
ATOM      9  C   UNL     1     -26.397 -10.163  -0.882  1.00  0.00     0.064 C 
ATOM     10  O   UNL     1     -26.095 -10.551   0.277  1.00  0.00    -0.545 OA
ATOM     11  O   UNL     1     -26.331 -11.062  -1.940  1.00  0.00    -0.545 OA
ENDBRANCH   8   9
ENDBRANCH   1   7
BRANCH   4  12
ATOM     12  O   UNL     1     -28.336  -4.395  -3.596  1.00  0.00    -0.504 OA
ATOM     13  H   UNL     1     -27.389  -4.346  -3.955  1.00  0.00     0.293 HD
ENDBRANCH   4  12
BRANCH   6  14
ATOM     14  O   UNL     1     -29.775  -2.981  -1.619  1.00  0.00    -0.504 OA
ATOM     15  H   UNL     1     -29.130  -2.257  -1.913  1.00  0.00     0.293 HD
ENDBRANCH   6  14
TORSDOF 4
ENDMDL
MODEL 2
REMARK VINA RESULT:    -5.799      2.570      3.614
REMARK INTER + INTRA:          -6.945
REMARK INTER:                  -6.809
REMARK INTRA:                  -0.136
REMARK UNBOUND:                -0.129
REMARK SMILES O=C([O-])C=Cc1ccc(O)c(O)c1
REMARK SMILES IDX 6 1 13 2 7 3 11 4 8 5 9 6 5 7 4 8 2 9 1 10 3 11 12 12 10 14
REMARK H PARENT 12 13 10 15
REMARK Flexibility Score: inf
ROOT
ATOM      1  C   UNL     1     -29.239  -6.389  -0.086  1.00  0.00    -0.022 A 
ATOM      2  C   UNL     1     -29.590  -5.054  -0.348  1.00  0.00     0.058 A 
ATOM      3  C   UNL     1     -28.451  -7.082  -1.025  1.00  0.00     0.012 A 
ATOM      4  C   UNL     1     -29.188  -4.425  -1.533  1.00  0.00     0.157 A 
ATOM      5  C   UNL     1     -28.048  -6.456  -2.208  1.00  0.00     0.051 A 
ATOM      6  C   UNL     1     -28.414  -5.130  -2.470  1.00  0.00     0.157 A 
ENDROOT
BRANCH   1   7
ATOM      7  C   UNL     1     -29.684  -7.002   1.191  1.00  0.00     0.010 C 
ATOM      8  C   UNL     1     -29.708  -8.323   1.413  1.00  0.00     0.025 C 
BRANCH   8   9
ATOM      9  C   UNL     1     -30.167  -8.888   2.692  1.00  0.00     0.064 C 
ATOM     10  O   UNL     1     -29.323  -9.323   3.518  1.00  0.00    -0.545 OA
ATOM     11  O   UNL     1     -31.521  -8.948   3.005  1.00  0.00    -0.545 OA
ENDBRANCH   8   9
ENDBRANCH   1   7
BRANCH   4  12
ATOM     12  O   UNL     1     -29.566  -3.103  -1.759  1.00  0.00    -0.504 OA
ATOM     13  H   UNL     1     -30.456  -2.862  -2.181  1.00  0.00     0.293 HD
ENDBRANCH   4  12
BRANCH   6  14
ATOM     14  O   UNL     1     -28.011  -4.510  -3.652  1.00  0.00    -0.504 OA
ATOM     15  H   UNL     1     -27.710  -3.543  -3.668  1.00  0.00     0.293 HD
ENDBRANCH   6  14
TORSDOF 4
ENDMDL
MODEL 3
REMARK VINA RESULT:    -5.592      1.244      1.484
REMARK INTER + INTRA:          -6.701
REMARK INTER:                  -6.562
REMARK INTRA:                  -0.140
REMARK UNBOUND:                -0.129
REMARK SMILES O=C([O-])C=Cc1ccc(O)c(O)c1
REMARK SMILES IDX 6 1 13 2 7 3 11 4 8 5 9 6 5 7 4 8 2 9 1 10 3 11 12 12 10 14
REMARK H PARENT 12 13 10 15
REMARK Flexibility Score: inf
ROOT
ATOM      1  C   UNL     1     -28.574  -6.925  -0.803  1.00  0.00    -0.022 A 
ATOM      2  C   UNL     1     -28.217  -6.382  -2.049  1.00  0.00     0.058 A 
ATOM      3  C   UNL     1     -29.307  -6.130   0.100  1.00  0.00     0.012 A 
ATOM      4  C   UNL     1     -28.561  -5.067  -2.384  1.00  0.00     0.157 A 
ATOM      5  C   UNL     1     -29.651  -4.817  -0.232  1.00  0.00     0.051 A 
ATOM      6  C   UNL     1     -29.279  -4.278  -1.470  1.00  0.00     0.157 A 
ENDROOT
BRANCH   1   7
ATOM      7  C   UNL     1     -28.193  -8.328  -0.504  1.00  0.00     0.010 C 
ATOM      8  C   UNL     1     -28.637  -9.010   0.560  1.00  0.00     0.025 C 
BRANCH   8   9
ATOM      9  C   UNL     1     -28.224 -10.397   0.822  1.00  0.00     0.064 C 
ATOM     10  O   UNL     1     -28.987 -11.160   1.471  1.00  0.00    -0.545 OA
ATOM     11  O   UNL     1     -27.004 -10.882   0.364  1.00  0.00    -0.545 OA
ENDBRANCH   8   9
ENDBRANCH   1   7
BRANCH   4  12
ATOM     12  O   UNL     1     -28.179  -4.563  -3.626  1.00  0.00    -0.504 OA
ATOM     13  H   UNL     1     -28.169  -3.569  -3.825  1.00  0.00     0.293 HD
ENDBRANCH   4  12
BRANCH   6  14
ATOM     14  O   UNL     1     -29.623  -2.967  -1.797  1.00  0.00    -0.504 OA
ATOM     15  H   UNL     1     -29.202  -2.175  -1.325  1.00  0.00     0.293 HD
ENDBRANCH   6  14
TORSDOF 4
ENDMDL
MODEL 4
REMARK VINA RESULT:    -5.553      0.825      2.096
REMARK INTER + INTRA:          -6.656
REMARK INTER:                  -6.521
REMARK INTRA:                  -0.135
REMARK UNBOUND:                -0.129
REMARK SMILES O=C([O-])C=Cc1ccc(O)c(O)c1
REMARK SMILES IDX 6 1 13 2 7 3 11 4 8 5 9 6 5 7 4 8 2 9 1 10 3 11 12 12 10 14
REMARK H PARENT 12 13 10 15
REMARK Flexibility Score: inf
ROOT
ATOM      1  C   UNL     1     -28.417  -6.822  -1.151  1.00  0.00    -0.022 A 
ATOM      2  C   UNL     1     -29.034  -6.135  -0.093  1.00  0.00     0.058 A 
ATOM      3  C   UNL     1     -28.255  -6.165  -2.386  1.00  0.00     0.012 A 
ATOM      4  C   UNL     1     -29.505  -4.828  -0.264  1.00  0.00     0.157 A 
ATOM      5  C   UNL     1     -28.723  -4.860  -2.559  1.00  0.00     0.051 A 
ATOM      6  C   UNL     1     -29.352  -4.187  -1.504  1.00  0.00     0.157 A 
ENDROOT
BRANCH   1   7
ATOM      7  C   UNL     1     -27.927  -8.203  -0.911  1.00  0.00     0.010 C 
ATOM      8  C   UNL     1     -26.745  -8.661  -1.347  1.00  0.00     0.025 C 
BRANCH   8   9
ATOM      9  C   UNL     1     -26.306 -10.042  -1.094  1.00  0.00     0.064 C 
ATOM     10  O   UNL     1     -26.323 -10.880  -2.033  1.00  0.00    -0.545 OA
ATOM     11  O   UNL     1     -25.870 -10.438   0.166  1.00  0.00    -0.545 OA
ENDBRANCH   8   9
ENDBRANCH   1   7
BRANCH   4  12
ATOM     12  O   UNL     1     -30.121  -4.184   0.808  1.00  0.00    -0.504 OA
ATOM     13  H   UNL     1     -29.942  -4.449   1.770  1.00  0.00     0.293 HD
ENDBRANCH   4  12
BRANCH   6  14
ATOM     14  O   UNL     1     -29.819  -2.885  -1.682  1.00  0.00    -0.504 OA
ATOM     15  H   UNL     1     -29.565  -2.138  -1.046  1.00  0.00     0.293 HD
ENDBRANCH   6  14
TORSDOF 4
ENDMDL
MODEL 5
REMARK VINA RESULT:    -5.438      7.014     10.394
REMARK INTER + INTRA:          -6.521
REMARK INTER:                  -6.383
REMARK INTRA:                  -0.137
REMARK UNBOUND:                -0.129
REMARK SMILES O=C([O-])C=Cc1ccc(O)c(O)c1
REMARK SMILES IDX 6 1 13 2 7 3 11 4 8 5 9 6 5 7 4 8 2 9 1 10 3 11 12 12 10 14
REMARK H PARENT 12 13 10 15
REMARK Flexibility Score: inf
ROOT
ATOM      1  C   UNL     1     -26.370 -14.896   2.437  1.00  0.00    -0.022 A 
ATOM      2  C   UNL     1     -26.273 -16.208   1.945  1.00  0.00     0.058 A 
ATOM      3  C   UNL     1     -27.045 -14.674   3.653  1.00  0.00     0.012 A 
ATOM      4  C   UNL     1     -26.857 -17.278   2.634  1.00  0.00     0.157 A 
ATOM      5  C   UNL     1     -27.629 -15.740   4.342  1.00  0.00     0.051 A 
ATOM      6  C   UNL     1     -27.541 -17.044   3.838  1.00  0.00     0.157 A 
ENDROOT
BRANCH   1   7
ATOM      7  C   UNL     1     -25.723 -13.801   1.672  1.00  0.00     0.010 C 
ATOM      8  C   UNL     1     -25.075 -12.776   2.241  1.00  0.00     0.025 C 
BRANCH   8   9
ATOM      9  C   UNL     1     -24.458 -11.706   1.442  1.00  0.00     0.064 C 
ATOM     10  O   UNL     1     -23.546 -11.000   1.947  1.00  0.00    -0.545 OA
ATOM     11  O   UNL     1     -24.863 -11.462   0.134  1.00  0.00    -0.545 OA
ENDBRANCH   8   9
ENDBRANCH   1   7
BRANCH   4  12
ATOM     12  O   UNL     1     -26.747 -18.564   2.106  1.00  0.00    -0.504 OA
ATOM     13  H   UNL     1     -26.760 -18.739   1.108  1.00  0.00     0.293 HD
ENDBRANCH   4  12
BRANCH   6  14
ATOM     14  O   UNL     1     -28.126 -18.104   4.528  1.00  0.00    -0.504 OA
ATOM     15  H   UNL     1     -28.008 -18.216   5.528  1.00  0.00     0.293 HD
ENDBRANCH   6  14
TORSDOF 4
ENDMDL
MODEL 6
REMARK VINA RESULT:    -5.398      6.040      7.974
REMARK INTER + INTRA:          -6.473
REMARK INTER:                  -6.340
REMARK INTRA:                  -0.134
REMARK UNBOUND:                -0.129
REMARK SMILES O=C([O-])C=Cc1ccc(O)c(O)c1
REMARK SMILES IDX 6 1 13 2 7 3 11 4 8 5 9 6 5 7 4 8 2 9 1 10 3 11 12 12 10 14
REMARK H PARENT 12 13 10 15
REMARK Flexibility Score: inf
ROOT
ATOM      1  C   UNL     1     -25.502 -12.915   1.757  1.00  0.00    -0.022 A 
ATOM      2  C   UNL     1     -24.395 -12.219   2.270  1.00  0.00     0.058 A 
ATOM      3  C   UNL     1     -26.048 -12.511   0.523  1.00  0.00     0.012 A 
ATOM      4  C   UNL     1     -23.854 -11.125   1.583  1.00  0.00     0.157 A 
ATOM      5  C   UNL     1     -25.509 -11.420  -0.164  1.00  0.00     0.051 A 
ATOM      6  C   UNL     1     -24.414 -10.722   0.360  1.00  0.00     0.157 A 
ENDROOT
BRANCH   1   7
ATOM      7  C   UNL     1     -26.029 -14.073   2.522  1.00  0.00     0.010 C 
ATOM      8  C   UNL     1     -26.185 -15.299   2.004  1.00  0.00     0.025 C 
BRANCH   8   9
ATOM      9  C   UNL     1     -26.722 -16.415   2.798  1.00  0.00     0.064 C 
ATOM     10  O   UNL     1     -26.809 -17.560   2.281  1.00  0.00    -0.545 OA
ATOM     11  O   UNL     1     -27.134 -16.228   4.114  1.00  0.00    -0.545 OA
ENDBRANCH   8   9
ENDBRANCH   1   7
BRANCH   4  12
ATOM     12  O   UNL     1     -22.761 -10.456   2.131  1.00  0.00    -0.504 OA
ATOM     13  H   UNL     1     -21.824 -10.561   1.760  1.00  0.00     0.293 HD
ENDBRANCH   4  12
BRANCH   6  14
ATOM     14  O   UNL     1     -23.881  -9.633  -0.329  1.00  0.00    -0.504 OA
ATOM     15  H   UNL     1     -23.428  -9.744  -1.228  1.00  0.00     0.293 HD
ENDBRANCH   6  14
TORSDOF 4
ENDMDL
MODEL 7
REMARK VINA RESULT:    -5.361      5.816      7.365
REMARK INTER + INTRA:          -6.430
REMARK INTER:                  -6.302
REMARK INTRA:                  -0.128
REMARK UNBOUND:                -0.129
REMARK SMILES O=C([O-])C=Cc1ccc(O)c(O)c1
REMARK SMILES IDX 6 1 13 2 7 3 11 4 8 5 9 6 5 7 4 8 2 9 1 10 3 11 12 12 10 14
REMARK H PARENT 12 13 10 15
REMARK Flexibility Score: inf
ROOT
ATOM      1  C   UNL     1     -25.766 -12.770   1.228  1.00  0.00    -0.022 A 
ATOM      2  C   UNL     1     -26.037 -12.337  -0.081  1.00  0.00     0.058 A 
ATOM      3  C   UNL     1     -24.835 -12.051   2.003  1.00  0.00     0.012 A 
ATOM      4  C   UNL     1     -25.378 -11.225  -0.619  1.00  0.00     0.157 A 
ATOM      5  C   UNL     1     -24.177 -10.941   1.468  1.00  0.00     0.051 A 
ATOM      6  C   UNL     1     -24.442 -10.524   0.157  1.00  0.00     0.157 A 
ENDROOT
BRANCH   1   7
ATOM      7  C   UNL     1     -26.500 -13.949   1.752  1.00  0.00     0.010 C 
ATOM      8  C   UNL     1     -25.906 -15.090   2.127  1.00  0.00     0.025 C 
BRANCH   8   9
ATOM      9  C   UNL     1     -26.677 -16.238   2.631  1.00  0.00     0.064 C 
ATOM     10  O   UNL     1     -27.039 -16.261   3.836  1.00  0.00    -0.545 OA
ATOM     11  O   UNL     1     -27.013 -17.299   1.798  1.00  0.00    -0.545 OA
ENDBRANCH   8   9
ENDBRANCH   1   7
BRANCH   4  12
ATOM     12  O   UNL     1     -25.669 -10.834  -1.925  1.00  0.00    -0.504 OA
ATOM     13  H   UNL     1     -25.359 -11.369  -2.729  1.00  0.00     0.293 HD
ENDBRANCH   4  12
BRANCH   6  14
ATOM     14  O   UNL     1     -23.782  -9.417  -0.374  1.00  0.00    -0.504 OA
ATOM     15  H   UNL     1     -22.988  -8.996   0.096  1.00  0.00     0.293 HD
ENDBRANCH   6  14
TORSDOF 4
ENDMDL
MODEL 8
REMARK VINA RESULT:    -5.348      7.714     11.054
REMARK INTER + INTRA:          -6.415
REMARK INTER:                  -6.285
REMARK INTRA:                  -0.130
REMARK UNBOUND:                -0.129
REMARK SMILES O=C([O-])C=Cc1ccc(O)c(O)c1
REMARK SMILES IDX 6 1 13 2 7 3 11 4 8 5 9 6 5 7 4 8 2 9 1 10 3 11 12 12 10 14
REMARK H PARENT 12 13 10 15
REMARK Flexibility Score: inf
ROOT
ATOM      1  C   UNL     1     -26.358 -15.070   2.682  1.00  0.00    -0.022 A 
ATOM      2  C   UNL     1     -27.148 -15.863   3.530  1.00  0.00     0.058 A 
ATOM      3  C   UNL     1     -25.616 -15.696   1.661  1.00  0.00     0.012 A 
ATOM      4  C   UNL     1     -27.184 -17.256   3.384  1.00  0.00     0.157 A 
ATOM      5  C   UNL     1     -25.651 -17.085   1.513  1.00  0.00     0.051 A 
ATOM      6  C   UNL     1     -26.430 -17.871   2.371  1.00  0.00     0.157 A 
ENDROOT
BRANCH   1   7
ATOM      7  C   UNL     1     -26.365 -13.598   2.876  1.00  0.00     0.010 C 
ATOM      8  C   UNL     1     -26.342 -13.005   4.077  1.00  0.00     0.025 C 
BRANCH   8   9
ATOM      9  C   UNL     1     -26.362 -11.541   4.222  1.00  0.00     0.064 C 
ATOM     10  O   UNL     1     -27.293 -10.878   3.696  1.00  0.00    -0.545 OA
ATOM     11  O   UNL     1     -25.367 -10.876   4.931  1.00  0.00    -0.545 OA
ENDBRANCH   8   9
ENDBRANCH   1   7
BRANCH   4  12
ATOM     12  O   UNL     1     -27.973 -18.007   4.252  1.00  0.00    -0.504 OA
ATOM     13  H   UNL     1     -28.326 -17.628   5.123  1.00  0.00     0.293 HD
ENDBRANCH   4  12
BRANCH   6  14
ATOM     14  O   UNL     1     -26.459 -19.256   2.220  1.00  0.00    -0.504 OA
ATOM     15  H   UNL     1     -25.669 -19.766   1.843  1.00  0.00     0.293 HD
ENDBRANCH   6  14
TORSDOF 4
ENDMDL
MODEL 9
REMARK VINA RESULT:    -5.333      5.885      7.387
REMARK INTER + INTRA:          -6.397
REMARK INTER:                  -6.266
REMARK INTRA:                  -0.131
REMARK UNBOUND:                -0.129
REMARK SMILES O=C([O-])C=Cc1ccc(O)c(O)c1
REMARK SMILES IDX 6 1 13 2 7 3 11 4 8 5 9 6 5 7 4 8 2 9 1 10 3 11 12 12 10 14
REMARK H PARENT 12 13 10 15
REMARK Flexibility Score: inf
ROOT
ATOM      1  C   UNL     1     -25.369 -11.668   2.153  1.00  0.00    -0.022 A 
ATOM      2  C   UNL     1     -24.543 -10.685   1.581  1.00  0.00     0.058 A 
ATOM      3  C   UNL     1     -26.164 -12.464   1.306  1.00  0.00     0.012 A 
ATOM      4  C   UNL     1     -24.524 -10.480   0.196  1.00  0.00     0.157 A 
ATOM      5  C   UNL     1     -26.147 -12.261  -0.077  1.00  0.00     0.051 A 
ATOM      6  C   UNL     1     -25.332 -11.270  -0.638  1.00  0.00     0.157 A 
ENDROOT
BRANCH   1   7
ATOM      7  C   UNL     1     -25.342 -11.849   3.626  1.00  0.00     0.010 C 
ATOM      8  C   UNL     1     -26.441 -11.918   4.388  1.00  0.00     0.025 C 
BRANCH   8   9
ATOM      9  C   UNL     1     -26.366 -12.088   5.848  1.00  0.00     0.064 C 
ATOM     10  O   UNL     1     -25.902 -11.157   6.558  1.00  0.00    -0.545 OA
ATOM     11  O   UNL     1     -26.799 -13.260   6.457  1.00  0.00    -0.545 OA
ENDBRANCH   8   9
ENDBRANCH   1   7
BRANCH   4  12
ATOM     12  O   UNL     1     -23.698  -9.489  -0.330  1.00  0.00    -0.504 OA
ATOM     13  H   UNL     1     -23.852  -9.091  -1.249  1.00  0.00     0.293 HD
ENDBRANCH   4  12
BRANCH   6  14
ATOM     14  O   UNL     1     -25.319 -11.070  -2.018  1.00  0.00    -0.504 OA
ATOM     15  H   UNL     1     -24.896 -11.742  -2.647  1.00  0.00     0.293 HD
ENDBRANCH   6  14
TORSDOF 4
ENDMDL
