MODEL 1
REMARK VINA RESULT:    -5.945      0.000      0.000
REMARK INTER + INTRA:          -7.253
REMARK INTER:                  -6.988
REMARK INTRA:                  -0.265
REMARK UNBOUND:                -0.265
REMARK SMILES O=c1cc(-c2ccc(O)c(O)c2)oc2cc(O)cc(O)c12
REMARK SMILES IDX 4 1 3 2 2 3 1 4 21 5 19 6 18 7 16 8 15 9 14 10 13 11 5 12
REMARK SMILES IDX 6 13 7 14 8 15 12 16 10 17 9 18 11 20 20 22 17 24
REMARK H PARENT 9 19 11 21 20 23 17 25
REMARK Flexibility Score: inf
ROOT
ATOM      1  C   UNL     1      -4.409  -5.416  16.521  1.00  0.00     0.138 A 
ATOM      2  C   UNL     1      -5.189  -6.050  15.540  1.00  0.00     0.100 A 
ATOM      3  C   UNL     1      -5.989  -7.137  15.895  1.00  0.00     0.197 A 
ATOM      4  O   UNL     1      -6.686  -7.698  15.008  1.00  0.00    -0.289 OA
ATOM      5  C   UNL     1      -6.007  -7.580  17.232  1.00  0.00     0.107 A 
ATOM      6  C   UNL     1      -6.787  -8.673  17.677  1.00  0.00     0.134 A 
ATOM      7  C   UNL     1      -6.753  -9.049  19.027  1.00  0.00     0.093 A 
ATOM      8  C   UNL     1      -5.954  -8.352  19.941  1.00  0.00     0.123 A 
ATOM      9  C   UNL     1      -5.181  -7.272  19.508  1.00  0.00     0.094 A 
ATOM     10  C   UNL     1      -5.201  -6.883  18.165  1.00  0.00     0.146 A 
ATOM     11  O   UNL     1      -4.456  -5.853  17.778  1.00  0.00    -0.456 OA
ENDROOT
BRANCH   1  12
ATOM     12  C   UNL     1      -3.540  -4.254  16.202  1.00  0.00     0.021 A 
ATOM     13  C   UNL     1      -2.220  -4.475  15.772  1.00  0.00     0.016 A 
ATOM     14  C   UNL     1      -1.385  -3.400  15.459  1.00  0.00     0.051 A 
ATOM     15  C   UNL     1      -1.858  -2.086  15.559  1.00  0.00     0.157 A 
ATOM     16  C   UNL     1      -4.014  -2.930  16.289  1.00  0.00     0.062 A 
ATOM     17  C   UNL     1      -3.175  -1.851  15.972  1.00  0.00     0.158 A 
BRANCH  15  18
ATOM     18  O   UNL     1      -1.028  -1.010  15.249  1.00  0.00    -0.504 OA
ATOM     19  H   UNL     1      -0.059  -0.987  15.544  1.00  0.00     0.293 HD
ENDBRANCH  15  18
BRANCH  17  20
ATOM     20  O   UNL     1      -3.646  -0.542  16.060  1.00  0.00    -0.504 OA
ATOM     21  H   UNL     1      -4.612  -0.310  15.857  1.00  0.00     0.293 HD
ENDBRANCH  17  20
ENDBRANCH   1  12
BRANCH   6  22
ATOM     22  O   UNL     1      -7.593  -9.386  16.788  1.00  0.00    -0.507 OA
ATOM     23  H   UNL     1      -8.602  -9.288  16.787  1.00  0.00     0.293 HD
ENDBRANCH   6  22
BRANCH   8  24
ATOM     24  O   UNL     1      -5.921  -8.724  21.283  1.00  0.00    -0.508 OA
ATOM     25  H   UNL     1      -6.559  -9.416  21.657  1.00  0.00     0.293 HD
ENDBRANCH   8  24
TORSDOF 5
ENDMDL
MODEL 2
REMARK VINA RESULT:    -5.875      4.698      7.418
REMARK INTER + INTRA:          -7.170
REMARK INTER:                  -6.877
REMARK INTRA:                  -0.293
REMARK UNBOUND:                -0.265
REMARK SMILES O=c1cc(-c2ccc(O)c(O)c2)oc2cc(O)cc(O)c12
REMARK SMILES IDX 4 1 3 2 2 3 1 4 21 5 19 6 18 7 16 8 15 9 14 10 13 11 5 12
REMARK SMILES IDX 6 13 7 14 8 15 12 16 10 17 9 18 11 20 20 22 17 24
REMARK H PARENT 9 19 11 21 20 23 17 25
REMARK Flexibility Score: inf
ROOT
ATOM      1  C   UNL     1      -3.921   0.472  15.001  1.00  0.00     0.138 A 
ATOM      2  C   UNL     1      -4.696  -0.434  15.744  1.00  0.00     0.100 A 
ATOM      3  C   UNL     1      -4.209  -1.722  15.978  1.00  0.00     0.197 A 
ATOM      4  O   UNL     1      -4.910  -2.528  16.647  1.00  0.00    -0.289 OA
ATOM      5  C   UNL     1      -2.948  -2.092  15.470  1.00  0.00     0.107 A 
ATOM      6  C   UNL     1      -2.383  -3.375  15.660  1.00  0.00     0.134 A 
ATOM      7  C   UNL     1      -1.119  -3.664  15.125  1.00  0.00     0.093 A 
ATOM      8  C   UNL     1      -0.411  -2.694  14.406  1.00  0.00     0.123 A 
ATOM      9  C   UNL     1      -0.965  -1.426  14.215  1.00  0.00     0.094 A 
ATOM     10  C   UNL     1      -2.224  -1.120  14.739  1.00  0.00     0.146 A 
ATOM     11  O   UNL     1      -2.729   0.094  14.543  1.00  0.00    -0.456 OA
ENDROOT
BRANCH   1  12
ATOM     12  C   UNL     1      -4.386   1.855  14.722  1.00  0.00     0.021 A 
ATOM     13  C   UNL     1      -3.455   2.831  14.326  1.00  0.00     0.016 A 
ATOM     14  C   UNL     1      -3.868   4.137  14.052  1.00  0.00     0.051 A 
ATOM     15  C   UNL     1      -5.220   4.487  14.156  1.00  0.00     0.157 A 
ATOM     16  C   UNL     1      -5.747   2.211  14.813  1.00  0.00     0.062 A 
ATOM     17  C   UNL     1      -6.161   3.522  14.534  1.00  0.00     0.158 A 
BRANCH  15  18
ATOM     18  O   UNL     1      -5.636   5.789  13.884  1.00  0.00    -0.504 OA
ATOM     19  H   UNL     1      -5.530   6.198  12.963  1.00  0.00     0.293 HD
ENDBRANCH  15  18
BRANCH  17  20
ATOM     20  O   UNL     1      -7.507   3.871  14.627  1.00  0.00    -0.504 OA
ATOM     21  H   UNL     1      -8.217   3.402  14.074  1.00  0.00     0.293 HD
ENDBRANCH  17  20
ENDBRANCH   1  12
BRANCH   6  22
ATOM     22  O   UNL     1      -3.066  -4.361  16.372  1.00  0.00    -0.507 OA
ATOM     23  H   UNL     1      -2.809  -4.607  17.322  1.00  0.00     0.293 HD
ENDBRANCH   6  22
BRANCH   8  24
ATOM     24  O   UNL     1       0.845  -2.980  13.875  1.00  0.00    -0.508 OA
ATOM     25  H   UNL     1       1.434  -3.704  14.269  1.00  0.00     0.293 HD
ENDBRANCH   8  24
TORSDOF 5
ENDMDL
MODEL 3
REMARK VINA RESULT:    -5.619      3.644      6.936
REMARK INTER + INTRA:          -6.869
REMARK INTER:                  -6.596
REMARK INTRA:                  -0.273
REMARK UNBOUND:                -0.265
REMARK SMILES O=c1cc(-c2ccc(O)c(O)c2)oc2cc(O)cc(O)c12
REMARK SMILES IDX 4 1 3 2 2 3 1 4 21 5 19 6 18 7 16 8 15 9 14 10 13 11 5 12
REMARK SMILES IDX 6 13 7 14 8 15 12 16 10 17 9 18 11 20 20 22 17 24
REMARK H PARENT 9 19 11 21 20 23 17 25
REMARK Flexibility Score: inf
ROOT
ATOM      1  C   UNL     1      -3.809   0.169  14.668  1.00  0.00     0.138 A 
ATOM      2  C   UNL     1      -2.490   0.107  14.187  1.00  0.00     0.100 A 
ATOM      3  C   UNL     1      -1.769  -1.082  14.313  1.00  0.00     0.197 A 
ATOM      4  O   UNL     1      -0.587  -1.128  13.878  1.00  0.00    -0.289 OA
ATOM      5  C   UNL     1      -2.374  -2.202  14.917  1.00  0.00     0.107 A 
ATOM      6  C   UNL     1      -1.714  -3.442  15.085  1.00  0.00     0.134 A 
ATOM      7  C   UNL     1      -2.388  -4.512  15.692  1.00  0.00     0.093 A 
ATOM      8  C   UNL     1      -3.709  -4.364  16.132  1.00  0.00     0.123 A 
ATOM      9  C   UNL     1      -4.364  -3.142  15.969  1.00  0.00     0.094 A 
ATOM     10  C   UNL     1      -3.709  -2.063  15.367  1.00  0.00     0.146 A 
ATOM     11  O   UNL     1      -4.355  -0.911  15.224  1.00  0.00    -0.456 OA
ENDROOT
BRANCH   1  12
ATOM     12  C   UNL     1      -4.625   1.405  14.559  1.00  0.00     0.021 A 
ATOM     13  C   UNL     1      -5.905   1.340  13.983  1.00  0.00     0.016 A 
ATOM     14  C   UNL     1      -6.695   2.488  13.875  1.00  0.00     0.051 A 
ATOM     15  C   UNL     1      -6.224   3.717  14.353  1.00  0.00     0.157 A 
ATOM     16  C   UNL     1      -4.162   2.642  15.050  1.00  0.00     0.062 A 
ATOM     17  C   UNL     1      -4.957   3.793  14.944  1.00  0.00     0.158 A 
BRANCH  15  18
ATOM     18  O   UNL     1      -7.009   4.863  14.247  1.00  0.00    -0.504 OA
ATOM     19  H   UNL     1      -6.765   5.719  14.732  1.00  0.00     0.293 HD
ENDBRANCH  15  18
BRANCH  17  20
ATOM     20  O   UNL     1      -4.496   5.017  15.428  1.00  0.00    -0.504 OA
ATOM     21  H   UNL     1      -4.950   5.890  15.183  1.00  0.00     0.293 HD
ENDBRANCH  17  20
ENDBRANCH   1  12
BRANCH   6  22
ATOM     22  O   UNL     1      -0.398  -3.618  14.656  1.00  0.00    -0.507 OA
ATOM     23  H   UNL     1       0.254  -4.207  15.162  1.00  0.00     0.293 HD
ENDBRANCH   6  22
BRANCH   8  24
ATOM     24  O   UNL     1      -4.379  -5.427  16.734  1.00  0.00    -0.508 OA
ATOM     25  H   UNL     1      -4.812  -5.332  17.645  1.00  0.00     0.293 HD
ENDBRANCH   8  24
TORSDOF 5
ENDMDL
MODEL 4
REMARK VINA RESULT:    -5.549      3.949      6.198
REMARK INTER + INTRA:          -6.787
REMARK INTER:                  -6.523
REMARK INTRA:                  -0.264
REMARK UNBOUND:                -0.265
REMARK SMILES O=c1cc(-c2ccc(O)c(O)c2)oc2cc(O)cc(O)c12
REMARK SMILES IDX 4 1 3 2 2 3 1 4 21 5 19 6 18 7 16 8 15 9 14 10 13 11 5 12
REMARK SMILES IDX 6 13 7 14 8 15 12 16 10 17 9 18 11 20 20 22 17 24
REMARK H PARENT 9 19 11 21 20 23 17 25
REMARK Flexibility Score: inf
ROOT
ATOM      1  C   UNL     1      -7.757  -5.793  17.936  1.00  0.00     0.138 A 
ATOM      2  C   UNL     1      -6.414  -5.549  17.602  1.00  0.00     0.100 A 
ATOM      3  C   UNL     1      -5.815  -6.290  16.582  1.00  0.00     0.197 A 
ATOM      4  O   UNL     1      -4.610  -6.063  16.289  1.00  0.00    -0.289 OA
ATOM      5  C   UNL     1      -6.565  -7.268  15.900  1.00  0.00     0.107 A 
ATOM      6  C   UNL     1      -6.034  -8.063  14.856  1.00  0.00     0.134 A 
ATOM      7  C   UNL     1      -6.849  -9.013  14.224  1.00  0.00     0.093 A 
ATOM      8  C   UNL     1      -8.183  -9.182  14.614  1.00  0.00     0.123 A 
ATOM      9  C   UNL     1      -8.711  -8.400  15.644  1.00  0.00     0.094 A 
ATOM     10  C   UNL     1      -7.914  -7.448  16.288  1.00  0.00     0.146 A 
ATOM     11  O   UNL     1      -8.441  -6.718  17.265  1.00  0.00    -0.456 OA
ENDROOT
BRANCH   1  12
ATOM     12  C   UNL     1      -8.447  -5.034  19.010  1.00  0.00     0.021 A 
ATOM     13  C   UNL     1      -8.456  -5.544  20.320  1.00  0.00     0.016 A 
ATOM     14  C   UNL     1      -9.093  -4.847  21.350  1.00  0.00     0.051 A 
ATOM     15  C   UNL     1      -9.721  -3.623  21.090  1.00  0.00     0.157 A 
ATOM     16  C   UNL     1      -9.070  -3.796  18.759  1.00  0.00     0.062 A 
ATOM     17  C   UNL     1      -9.707  -3.095  19.794  1.00  0.00     0.158 A 
BRANCH  15  18
ATOM     18  O   UNL     1     -10.359  -2.925  22.114  1.00  0.00    -0.504 OA
ATOM     19  H   UNL     1     -10.287  -3.220  23.081  1.00  0.00     0.293 HD
ENDBRANCH  15  18
BRANCH  17  20
ATOM     20  O   UNL     1     -10.325  -1.871  19.541  1.00  0.00    -0.504 OA
ATOM     21  H   UNL     1     -10.694  -1.641  18.625  1.00  0.00     0.293 HD
ENDBRANCH  17  20
ENDBRANCH   1  12
BRANCH   6  22
ATOM     22  O   UNL     1      -4.709  -7.917  14.447  1.00  0.00    -0.507 OA
ATOM     23  H   UNL     1      -3.942  -7.923  15.110  1.00  0.00     0.293 HD
ENDBRANCH   6  22
BRANCH   8  24
ATOM     24  O   UNL     1      -8.992 -10.125  13.985  1.00  0.00    -0.508 OA
ATOM     25  H   UNL     1     -10.002 -10.055  14.006  1.00  0.00     0.293 HD
ENDBRANCH   8  24
TORSDOF 5
ENDMDL
MODEL 5
REMARK VINA RESULT:    -5.498      3.763      6.080
REMARK INTER + INTRA:          -6.727
REMARK INTER:                  -6.460
REMARK INTRA:                  -0.267
REMARK UNBOUND:                -0.265
REMARK SMILES O=c1cc(-c2ccc(O)c(O)c2)oc2cc(O)cc(O)c12
REMARK SMILES IDX 4 1 3 2 2 3 1 4 21 5 19 6 18 7 16 8 15 9 14 10 13 11 5 12
REMARK SMILES IDX 6 13 7 14 8 15 12 16 10 17 9 18 11 20 20 22 17 24
REMARK H PARENT 9 19 11 21 20 23 17 25
REMARK Flexibility Score: inf
ROOT
ATOM      1  C   UNL     1      -7.553  -5.715  17.987  1.00  0.00     0.138 A 
ATOM      2  C   UNL     1      -8.023  -6.908  17.415  1.00  0.00     0.100 A 
ATOM      3  C   UNL     1      -7.270  -7.536  16.422  1.00  0.00     0.197 A 
ATOM      4  O   UNL     1      -7.700  -8.608  15.914  1.00  0.00    -0.289 OA
ATOM      5  C   UNL     1      -6.048  -6.969  16.011  1.00  0.00     0.107 A 
ATOM      6  C   UNL     1      -5.225  -7.539  15.011  1.00  0.00     0.134 A 
ATOM      7  C   UNL     1      -4.019  -6.914  14.663  1.00  0.00     0.093 A 
ATOM      8  C   UNL     1      -3.621  -5.730  15.296  1.00  0.00     0.123 A 
ATOM      9  C   UNL     1      -4.430  -5.162  16.282  1.00  0.00     0.094 A 
ATOM     10  C   UNL     1      -5.637  -5.770  16.643  1.00  0.00     0.146 A 
ATOM     11  O   UNL     1      -6.388  -5.210  17.584  1.00  0.00    -0.456 OA
ENDROOT
BRANCH   1  12
ATOM     12  C   UNL     1      -8.310  -5.003  19.049  1.00  0.00     0.021 A 
ATOM     13  C   UNL     1      -8.325  -5.523  20.355  1.00  0.00     0.016 A 
ATOM     14  C   UNL     1      -9.025  -4.869  21.372  1.00  0.00     0.051 A 
ATOM     15  C   UNL     1      -9.710  -3.678  21.104  1.00  0.00     0.157 A 
ATOM     16  C   UNL     1      -8.992  -3.798  18.789  1.00  0.00     0.062 A 
ATOM     17  C   UNL     1      -9.691  -3.140  19.812  1.00  0.00     0.158 A 
BRANCH  15  18
ATOM     18  O   UNL     1     -10.410  -3.023  22.116  1.00  0.00    -0.504 OA
ATOM     19  H   UNL     1     -11.197  -2.419  21.911  1.00  0.00     0.293 HD
ENDBRANCH  15  18
BRANCH  17  20
ATOM     20  O   UNL     1     -10.366  -1.949  19.552  1.00  0.00    -0.504 OA
ATOM     21  H   UNL     1     -10.276  -1.471  18.662  1.00  0.00     0.293 HD
ENDBRANCH  17  20
ENDBRANCH   1  12
BRANCH   6  22
ATOM     22  O   UNL     1      -5.596  -8.719  14.365  1.00  0.00    -0.507 OA
ATOM     23  H   UNL     1      -6.535  -8.859  14.010  1.00  0.00     0.293 HD
ENDBRANCH   6  22
BRANCH   8  24
ATOM     24  O   UNL     1      -2.423  -5.109  14.950  1.00  0.00    -0.508 OA
ATOM     25  H   UNL     1      -1.527  -5.537  15.151  1.00  0.00     0.293 HD
ENDBRANCH   8  24
TORSDOF 5
ENDMDL
MODEL 6
REMARK VINA RESULT:    -5.471      1.387      7.111
REMARK INTER + INTRA:          -6.695
REMARK INTER:                  -6.432
REMARK INTRA:                  -0.263
REMARK UNBOUND:                -0.265
REMARK SMILES O=c1cc(-c2ccc(O)c(O)c2)oc2cc(O)cc(O)c12
REMARK SMILES IDX 4 1 3 2 2 3 1 4 21 5 19 6 18 7 16 8 15 9 14 10 13 11 5 12
REMARK SMILES IDX 6 13 7 14 8 15 12 16 10 17 9 18 11 20 20 22 17 24
REMARK H PARENT 9 19 11 21 20 23 17 25
REMARK Flexibility Score: inf
ROOT
ATOM      1  C   UNL     1      -4.398  -5.755  16.908  1.00  0.00     0.138 A 
ATOM      2  C   UNL     1      -3.104  -5.971  16.408  1.00  0.00     0.100 A 
ATOM      3  C   UNL     1      -2.386  -4.899  15.875  1.00  0.00     0.197 A 
ATOM      4  O   UNL     1      -1.225  -5.102  15.430  1.00  0.00    -0.289 OA
ATOM      5  C   UNL     1      -2.968  -3.616  15.850  1.00  0.00     0.107 A 
ATOM      6  C   UNL     1      -2.312  -2.477  15.326  1.00  0.00     0.134 A 
ATOM      7  C   UNL     1      -2.959  -1.233  15.342  1.00  0.00     0.093 A 
ATOM      8  C   UNL     1      -4.249  -1.107  15.872  1.00  0.00     0.123 A 
ATOM      9  C   UNL     1      -4.902  -2.229  16.389  1.00  0.00     0.094 A 
ATOM     10  C   UNL     1      -4.273  -3.478  16.381  1.00  0.00     0.146 A 
ATOM     11  O   UNL     1      -4.916  -4.529  16.879  1.00  0.00    -0.456 OA
ENDROOT
BRANCH   1  12
ATOM     12  C   UNL     1      -5.208  -6.858  17.489  1.00  0.00     0.021 A 
ATOM     13  C   UNL     1      -6.156  -7.516  16.686  1.00  0.00     0.016 A 
ATOM     14  C   UNL     1      -6.925  -8.560  17.207  1.00  0.00     0.051 A 
ATOM     15  C   UNL     1      -6.751  -8.971  18.534  1.00  0.00     0.157 A 
ATOM     16  C   UNL     1      -5.029  -7.285  18.819  1.00  0.00     0.062 A 
ATOM     17  C   UNL     1      -5.800  -8.336  19.340  1.00  0.00     0.158 A 
BRANCH  15  18
ATOM     18  O   UNL     1      -7.518 -10.011  19.056  1.00  0.00    -0.504 OA
ATOM     19  H   UNL     1      -7.693 -10.858  18.528  1.00  0.00     0.293 HD
ENDBRANCH  15  18
BRANCH  17  20
ATOM     20  O   UNL     1      -5.623  -8.755  20.657  1.00  0.00    -0.504 OA
ATOM     21  H   UNL     1      -6.405  -8.846  21.296  1.00  0.00     0.293 HD
ENDBRANCH  17  20
ENDBRANCH   1  12
BRANCH   6  22
ATOM     22  O   UNL     1      -1.027  -2.573  14.793  1.00  0.00    -0.507 OA
ATOM     23  H   UNL     1      -0.593  -3.470  14.604  1.00  0.00     0.293 HD
ENDBRANCH   6  22
BRANCH   8  24
ATOM     24  O   UNL     1      -4.892   0.128  15.888  1.00  0.00    -0.508 OA
ATOM     25  H   UNL     1      -4.949   0.685  16.733  1.00  0.00     0.293 HD
ENDBRANCH   8  24
TORSDOF 5
ENDMDL
MODEL 7
REMARK VINA RESULT:    -5.369      1.459      7.113
REMARK INTER + INTRA:          -6.575
REMARK INTER:                  -6.310
REMARK INTRA:                  -0.265
REMARK UNBOUND:                -0.265
REMARK SMILES O=c1cc(-c2ccc(O)c(O)c2)oc2cc(O)cc(O)c12
REMARK SMILES IDX 4 1 3 2 2 3 1 4 21 5 19 6 18 7 16 8 15 9 14 10 13 11 5 12
REMARK SMILES IDX 6 13 7 14 8 15 12 16 10 17 9 18 11 20 20 22 17 24
REMARK H PARENT 9 19 11 21 20 23 17 25
REMARK Flexibility Score: inf
ROOT
ATOM      1  C   UNL     1      -4.646  -5.676  16.852  1.00  0.00     0.138 A 
ATOM      2  C   UNL     1      -5.184  -4.378  16.832  1.00  0.00     0.100 A 
ATOM      3  C   UNL     1      -4.452  -3.341  16.252  1.00  0.00     0.197 A 
ATOM      4  O   UNL     1      -4.943  -2.180  16.237  1.00  0.00    -0.289 OA
ATOM      5  C   UNL     1      -3.188  -3.610  15.690  1.00  0.00     0.107 A 
ATOM      6  C   UNL     1      -2.381  -2.618  15.084  1.00  0.00     0.134 A 
ATOM      7  C   UNL     1      -1.136  -2.970  14.543  1.00  0.00     0.093 A 
ATOM      8  C   UNL     1      -0.684  -4.293  14.597  1.00  0.00     0.123 A 
ATOM      9  C   UNL     1      -1.475  -5.276  15.195  1.00  0.00     0.094 A 
ATOM     10  C   UNL     1      -2.720  -4.946  15.740  1.00  0.00     0.146 A 
ATOM     11  O   UNL     1      -3.453  -5.899  16.304  1.00  0.00    -0.456 OA
ENDROOT
BRANCH   1  12
ATOM     12  C   UNL     1      -5.380  -6.819  17.455  1.00  0.00     0.021 A 
ATOM     13  C   UNL     1      -6.303  -7.536  16.675  1.00  0.00     0.016 A 
ATOM     14  C   UNL     1      -7.001  -8.619  17.216  1.00  0.00     0.051 A 
ATOM     15  C   UNL     1      -6.778  -9.011  18.542  1.00  0.00     0.157 A 
ATOM     16  C   UNL     1      -5.151  -7.226  18.784  1.00  0.00     0.062 A 
ATOM     17  C   UNL     1      -5.850  -8.315  19.325  1.00  0.00     0.158 A 
BRANCH  15  18
ATOM     18  O   UNL     1      -7.473 -10.089  19.085  1.00  0.00    -0.504 OA
ATOM     19  H   UNL     1      -7.333 -11.034  18.747  1.00  0.00     0.293 HD
ENDBRANCH  15  18
BRANCH  17  20
ATOM     20  O   UNL     1      -5.623  -8.715  20.642  1.00  0.00    -0.504 OA
ATOM     21  H   UNL     1      -6.265  -9.331  21.128  1.00  0.00     0.293 HD
ENDBRANCH  17  20
ENDBRANCH   1  12
BRANCH   6  22
ATOM     22  O   UNL     1      -2.807  -1.292  15.016  1.00  0.00    -0.507 OA
ATOM     23  H   UNL     1      -2.176  -0.541  14.758  1.00  0.00     0.293 HD
ENDBRANCH   6  22
BRANCH   8  24
ATOM     24  O   UNL     1       0.553  -4.642  14.059  1.00  0.00    -0.508 OA
ATOM     25  H   UNL     1       1.399  -4.143  14.307  1.00  0.00     0.293 HD
ENDBRANCH   8  24
TORSDOF 5
ENDMDL
MODEL 8
REMARK VINA RESULT:    -5.288      3.641      6.515
REMARK INTER + INTRA:          -6.481
REMARK INTER:                  -6.208
REMARK INTRA:                  -0.272
REMARK UNBOUND:                -0.265
REMARK SMILES O=c1cc(-c2ccc(O)c(O)c2)oc2cc(O)cc(O)c12
REMARK SMILES IDX 4 1 3 2 2 3 1 4 21 5 19 6 18 7 16 8 15 9 14 10 13 11 5 12
REMARK SMILES IDX 6 13 7 14 8 15 12 16 10 17 9 18 11 20 20 22 17 24
REMARK H PARENT 9 19 11 21 20 23 17 25
REMARK Flexibility Score: inf
ROOT
ATOM      1  C   UNL     1      -6.991  -5.611  17.503  1.00  0.00     0.138 A 
ATOM      2  C   UNL     1      -6.410  -6.542  18.379  1.00  0.00     0.100 A 
ATOM      3  C   UNL     1      -5.038  -6.788  18.308  1.00  0.00     0.197 A 
ATOM      4  O   UNL     1      -4.525  -7.624  19.100  1.00  0.00    -0.289 OA
ATOM      5  C   UNL     1      -4.255  -6.096  17.363  1.00  0.00     0.107 A 
ATOM      6  C   UNL     1      -2.859  -6.286  17.224  1.00  0.00     0.134 A 
ATOM      7  C   UNL     1      -2.151  -5.553  16.261  1.00  0.00     0.093 A 
ATOM      8  C   UNL     1      -2.811  -4.635  15.435  1.00  0.00     0.123 A 
ATOM      9  C   UNL     1      -4.188  -4.445  15.568  1.00  0.00     0.094 A 
ATOM     10  C   UNL     1      -4.912  -5.166  16.522  1.00  0.00     0.146 A 
ATOM     11  O   UNL     1      -6.222  -4.966  16.628  1.00  0.00    -0.456 OA
ENDROOT
BRANCH   1  12
ATOM     12  C   UNL     1      -8.445  -5.308  17.533  1.00  0.00     0.021 A 
ATOM     13  C   UNL     1      -9.368  -6.311  17.189  1.00  0.00     0.016 A 
ATOM     14  C   UNL     1     -10.741  -6.054  17.216  1.00  0.00     0.051 A 
ATOM     15  C   UNL     1     -11.215  -4.793  17.599  1.00  0.00     0.157 A 
ATOM     16  C   UNL     1      -8.930  -4.046  17.930  1.00  0.00     0.062 A 
ATOM     17  C   UNL     1     -10.309  -3.789  17.959  1.00  0.00     0.158 A 
BRANCH  15  18
ATOM     18  O   UNL     1     -12.584  -4.532  17.626  1.00  0.00    -0.504 OA
ATOM     19  H   UNL     1     -12.976  -3.716  17.173  1.00  0.00     0.293 HD
ENDBRANCH  15  18
BRANCH  17  20
ATOM     20  O   UNL     1     -10.785  -2.539  18.350  1.00  0.00    -0.504 OA
ATOM     21  H   UNL     1     -11.693  -2.430  18.788  1.00  0.00     0.293 HD
ENDBRANCH  17  20
ENDBRANCH   1  12
BRANCH   6  22
ATOM     22  O   UNL     1      -2.176  -7.193  18.033  1.00  0.00    -0.507 OA
ATOM     23  H   UNL     1      -1.531  -7.873  17.645  1.00  0.00     0.293 HD
ENDBRANCH   6  22
BRANCH   8  24
ATOM     24  O   UNL     1      -2.107  -3.907  14.479  1.00  0.00    -0.508 OA
ATOM     25  H   UNL     1      -2.550  -3.582  13.628  1.00  0.00     0.293 HD
ENDBRANCH   8  24
TORSDOF 5
ENDMDL
MODEL 9
REMARK VINA RESULT:    -4.865      1.479      2.967
REMARK INTER + INTRA:          -5.983
REMARK INTER:                  -5.714
REMARK INTRA:                  -0.269
REMARK UNBOUND:                -0.265
REMARK SMILES O=c1cc(-c2ccc(O)c(O)c2)oc2cc(O)cc(O)c12
REMARK SMILES IDX 4 1 3 2 2 3 1 4 21 5 19 6 18 7 16 8 15 9 14 10 13 11 5 12
REMARK SMILES IDX 6 13 7 14 8 15 12 16 10 17 9 18 11 20 20 22 17 24
REMARK H PARENT 9 19 11 21 20 23 17 25
REMARK Flexibility Score: inf
ROOT
ATOM      1  C   UNL     1      -5.026  -6.128  17.047  1.00  0.00     0.138 A 
ATOM      2  C   UNL     1      -4.974  -6.713  18.323  1.00  0.00     0.100 A 
ATOM      3  C   UNL     1      -5.770  -7.825  18.601  1.00  0.00     0.197 A 
ATOM      4  O   UNL     1      -5.715  -8.344  19.748  1.00  0.00    -0.289 OA
ATOM      5  C   UNL     1      -6.611  -8.347  17.598  1.00  0.00     0.107 A 
ATOM      6  C   UNL     1      -7.450  -9.469  17.797  1.00  0.00     0.134 A 
ATOM      7  C   UNL     1      -8.255  -9.930  16.745  1.00  0.00     0.093 A 
ATOM      8  C   UNL     1      -8.235  -9.291  15.499  1.00  0.00     0.123 A 
ATOM      9  C   UNL     1      -7.409  -8.183  15.298  1.00  0.00     0.094 A 
ATOM     10  C   UNL     1      -6.600  -7.707  16.335  1.00  0.00     0.146 A 
ATOM     11  O   UNL     1      -5.824  -6.651  16.118  1.00  0.00    -0.456 OA
ENDROOT
BRANCH   1  12
ATOM     12  C   UNL     1      -4.200  -4.944  16.693  1.00  0.00     0.021 A 
ATOM     13  C   UNL     1      -2.815  -5.096  16.514  1.00  0.00     0.016 A 
ATOM     14  C   UNL     1      -2.017  -4.000  16.175  1.00  0.00     0.051 A 
ATOM     15  C   UNL     1      -2.593  -2.737  15.996  1.00  0.00     0.157 A 
ATOM     16  C   UNL     1      -4.775  -3.672  16.500  1.00  0.00     0.062 A 
ATOM     17  C   UNL     1      -3.974  -2.573  16.156  1.00  0.00     0.158 A 
BRANCH  15  18
ATOM     18  O   UNL     1      -1.801  -1.641  15.659  1.00  0.00    -0.504 OA
ATOM     19  H   UNL     1      -0.939  -1.751  15.138  1.00  0.00     0.293 HD
ENDBRANCH  15  18
BRANCH  17  20
ATOM     20  O   UNL     1      -4.545  -1.316  15.967  1.00  0.00    -0.504 OA
ATOM     21  H   UNL     1      -4.309  -0.530  16.563  1.00  0.00     0.293 HD
ENDBRANCH  17  20
ENDBRANCH   1  12
BRANCH   6  22
ATOM     22  O   UNL     1      -7.490 -10.125  19.027  1.00  0.00    -0.507 OA
ATOM     23  H   UNL     1      -8.233  -9.959  19.696  1.00  0.00     0.293 HD
ENDBRANCH   6  22
BRANCH   8  24
ATOM     24  O   UNL     1      -9.033  -9.750  14.454  1.00  0.00    -0.508 OA
ATOM     25  H   UNL     1      -9.089 -10.734  14.222  1.00  0.00     0.293 HD
ENDBRANCH   8  24
TORSDOF 5
ENDMDL
