MODEL 1
REMARK VINA RESULT:    -4.554      0.000      0.000
REMARK INTER + INTRA:          -5.799
REMARK INTER:                  -5.486
REMARK INTRA:                  -0.312
REMARK UNBOUND:                -0.312
REMARK SMILES O=c1c(O)c(-c2ccc(O)c(O)c2)oc2cc(O)cc(O)c12
REMARK SMILES IDX 5 1 3 2 2 3 1 4 22 5 20 6 19 7 17 8 16 9 15 10 14 11 6 12
REMARK SMILES IDX 7 13 8 14 9 15 13 16 11 17 10 18 12 20 4 22 21 24 18 26
REMARK H PARENT 10 19 12 21 4 23 21 25 18 27
REMARK Flexibility Score: inf
ROOT
ATOM      1  C   UNL     1       2.908  -4.856  -7.874  1.00  0.00     0.180 A 
ATOM      2  C   UNL     1       3.869  -5.333  -8.781  1.00  0.00     0.208 A 
ATOM      3  C   UNL     1       5.169  -5.596  -8.319  1.00  0.00     0.238 A 
ATOM      4  O   UNL     1       6.004  -6.093  -9.120  1.00  0.00    -0.285 OA
ATOM      5  C   UNL     1       5.507  -5.326  -6.972  1.00  0.00     0.111 A 
ATOM      6  C   UNL     1       6.806  -5.512  -6.407  1.00  0.00     0.134 A 
ATOM      7  C   UNL     1       6.997  -5.311  -5.033  1.00  0.00     0.093 A 
ATOM      8  C   UNL     1       5.956  -4.872  -4.217  1.00  0.00     0.123 A 
ATOM      9  C   UNL     1       4.697  -4.633  -4.770  1.00  0.00     0.094 A 
ATOM     10  C   UNL     1       4.465  -4.861  -6.128  1.00  0.00     0.146 A 
ATOM     11  O   UNL     1       3.246  -4.643  -6.608  1.00  0.00    -0.452 OA
ENDROOT
BRANCH   1  12
ATOM     12  C   UNL     1       1.514  -4.569  -8.281  1.00  0.00     0.025 A 
ATOM     13  C   UNL     1       1.200  -3.320  -8.840  1.00  0.00     0.016 A 
ATOM     14  C   UNL     1      -0.112  -3.020  -9.212  1.00  0.00     0.051 A 
ATOM     15  C   UNL     1      -1.133  -3.958  -9.016  1.00  0.00     0.157 A 
ATOM     16  C   UNL     1       0.481  -5.500  -8.066  1.00  0.00     0.062 A 
ATOM     17  C   UNL     1      -0.838  -5.199  -8.437  1.00  0.00     0.158 A 
BRANCH  15  18
ATOM     18  O   UNL     1      -2.444  -3.663  -9.388  1.00  0.00    -0.504 OA
ATOM     19  H   UNL     1      -3.234  -3.969  -8.831  1.00  0.00     0.293 HD
ENDBRANCH  15  18
BRANCH  17  20
ATOM     20  O   UNL     1      -1.857  -6.125  -8.230  1.00  0.00    -0.504 OA
ATOM     21  H   UNL     1      -2.674  -5.900  -7.673  1.00  0.00     0.293 HD
ENDBRANCH  17  20
ENDBRANCH   1  12
BRANCH   2  22
ATOM     22  O   UNL     1       3.537  -5.521 -10.125  1.00  0.00    -0.502 OA
ATOM     23  H   UNL     1       2.753  -5.052 -10.562  1.00  0.00     0.293 HD
ENDBRANCH   2  22
BRANCH   6  24
ATOM     24  O   UNL     1       7.939  -5.864  -7.146  1.00  0.00    -0.507 OA
ATOM     25  H   UNL     1       8.185  -6.804  -7.414  1.00  0.00     0.293 HD
ENDBRANCH   6  24
BRANCH   8  26
ATOM     26  O   UNL     1       6.187  -4.667  -2.859  1.00  0.00    -0.508 OA
ATOM     27  H   UNL     1       6.402  -3.747  -2.492  1.00  0.00     0.293 HD
ENDBRANCH   8  26
TORSDOF 6
ENDMDL
MODEL 2
REMARK VINA RESULT:    -4.493      6.662      8.425
REMARK INTER + INTRA:          -5.725
REMARK INTER:                  -5.402
REMARK INTRA:                  -0.323
REMARK UNBOUND:                -0.312
REMARK SMILES O=c1c(O)c(-c2ccc(O)c(O)c2)oc2cc(O)cc(O)c12
REMARK SMILES IDX 5 1 3 2 2 3 1 4 22 5 20 6 19 7 17 8 16 9 15 10 14 11 6 12
REMARK SMILES IDX 7 13 8 14 9 15 13 16 11 17 10 18 12 20 4 22 21 24 18 26
REMARK H PARENT 10 19 12 21 4 23 21 25 18 27
REMARK Flexibility Score: inf
ROOT
ATOM      1  C   UNL     1       6.532   1.001  -6.384  1.00  0.00     0.180 A 
ATOM      2  C   UNL     1       7.200   0.474  -5.266  1.00  0.00     0.208 A 
ATOM      3  C   UNL     1       6.908  -0.835  -4.852  1.00  0.00     0.238 A 
ATOM      4  O   UNL     1       7.563  -1.326  -3.896  1.00  0.00    -0.285 OA
ATOM      5  C   UNL     1       5.912  -1.582  -5.527  1.00  0.00     0.111 A 
ATOM      6  C   UNL     1       5.503  -2.902  -5.166  1.00  0.00     0.134 A 
ATOM      7  C   UNL     1       4.582  -3.584  -5.972  1.00  0.00     0.093 A 
ATOM      8  C   UNL     1       4.010  -2.974  -7.087  1.00  0.00     0.123 A 
ATOM      9  C   UNL     1       4.361  -1.664  -7.417  1.00  0.00     0.094 A 
ATOM     10  C   UNL     1       5.305  -0.972  -6.655  1.00  0.00     0.146 A 
ATOM     11  O   UNL     1       5.627   0.264  -7.017  1.00  0.00    -0.452 OA
ENDROOT
BRANCH   1  12
ATOM     12  C   UNL     1       6.797   2.367  -6.889  1.00  0.00     0.025 A 
ATOM     13  C   UNL     1       7.835   2.573  -7.812  1.00  0.00     0.016 A 
ATOM     14  C   UNL     1       8.116   3.856  -8.286  1.00  0.00     0.051 A 
ATOM     15  C   UNL     1       7.375   4.955  -7.833  1.00  0.00     0.157 A 
ATOM     16  C   UNL     1       6.069   3.476  -6.421  1.00  0.00     0.062 A 
ATOM     17  C   UNL     1       6.352   4.765  -6.895  1.00  0.00     0.158 A 
BRANCH  15  18
ATOM     18  O   UNL     1       7.651   6.237  -8.305  1.00  0.00    -0.504 OA
ATOM     19  H   UNL     1       8.531   6.697  -8.103  1.00  0.00     0.293 HD
ENDBRANCH  15  18
BRANCH  17  20
ATOM     20  O   UNL     1       5.625   5.861  -6.435  1.00  0.00    -0.504 OA
ATOM     21  H   UNL     1       5.638   6.136  -5.459  1.00  0.00     0.293 HD
ENDBRANCH  17  20
ENDBRANCH   1  12
BRANCH   2  22
ATOM     22  O   UNL     1       8.125   1.255  -4.566  1.00  0.00    -0.502 OA
ATOM     23  H   UNL     1       8.188   2.258  -4.684  1.00  0.00     0.293 HD
ENDBRANCH   2  22
BRANCH   6  24
ATOM     24  O   UNL     1       5.945  -3.574  -4.023  1.00  0.00    -0.507 OA
ATOM     25  H   UNL     1       5.376  -3.777  -3.216  1.00  0.00     0.293 HD
ENDBRANCH   6  24
BRANCH   8  26
ATOM     26  O   UNL     1       3.085  -3.677  -7.856  1.00  0.00    -0.508 OA
ATOM     27  H   UNL     1       2.204  -3.993  -7.466  1.00  0.00     0.293 HD
ENDBRANCH   8  26
TORSDOF 6
ENDMDL
MODEL 3
REMARK VINA RESULT:    -4.376      7.195      9.008
REMARK INTER + INTRA:          -5.583
REMARK INTER:                  -5.531
REMARK INTRA:                  -0.052
REMARK UNBOUND:                -0.312
REMARK SMILES O=c1c(O)c(-c2ccc(O)c(O)c2)oc2cc(O)cc(O)c12
REMARK SMILES IDX 5 1 3 2 2 3 1 4 22 5 20 6 19 7 17 8 16 9 15 10 14 11 6 12
REMARK SMILES IDX 7 13 8 14 9 15 13 16 11 17 10 18 12 20 4 22 21 24 18 26
REMARK H PARENT 10 19 12 21 4 23 21 25 18 27
REMARK Flexibility Score: inf
ROOT
ATOM      1  C   UNL     1       3.194   1.780  -9.263  1.00  0.00     0.180 A 
ATOM      2  C   UNL     1       4.539   2.157  -9.421  1.00  0.00     0.208 A 
ATOM      3  C   UNL     1       4.851   3.517  -9.578  1.00  0.00     0.238 A 
ATOM      4  O   UNL     1       6.062   3.854  -9.644  1.00  0.00    -0.285 OA
ATOM      5  C   UNL     1       3.813   4.478  -9.629  1.00  0.00     0.111 A 
ATOM      6  C   UNL     1       4.010   5.878  -9.829  1.00  0.00     0.134 A 
ATOM      7  C   UNL     1       2.914   6.747  -9.755  1.00  0.00     0.093 A 
ATOM      8  C   UNL     1       1.623   6.264  -9.554  1.00  0.00     0.123 A 
ATOM      9  C   UNL     1       1.411   4.892  -9.414  1.00  0.00     0.094 A 
ATOM     10  C   UNL     1       2.488   4.003  -9.443  1.00  0.00     0.146 A 
ATOM     11  O   UNL     1       2.245   2.707  -9.283  1.00  0.00    -0.452 OA
ENDROOT
BRANCH   1  12
ATOM     12  C   UNL     1       2.787   0.369  -9.079  1.00  0.00     0.025 A 
ATOM     13  C   UNL     1       1.766  -0.165  -9.880  1.00  0.00     0.016 A 
ATOM     14  C   UNL     1       1.351  -1.488  -9.710  1.00  0.00     0.051 A 
ATOM     15  C   UNL     1       1.940  -2.291  -8.726  1.00  0.00     0.157 A 
ATOM     16  C   UNL     1       3.361  -0.435  -8.077  1.00  0.00     0.062 A 
ATOM     17  C   UNL     1       2.943  -1.763  -7.904  1.00  0.00     0.158 A 
BRANCH  15  18
ATOM     18  O   UNL     1       1.530  -3.613  -8.554  1.00  0.00    -0.504 OA
ATOM     19  H   UNL     1       0.552  -3.874  -8.598  1.00  0.00     0.293 HD
ENDBRANCH  15  18
BRANCH  17  20
ATOM     20  O   UNL     1       3.518  -2.560  -6.916  1.00  0.00    -0.504 OA
ATOM     21  H   UNL     1       3.146  -2.587  -5.973  1.00  0.00     0.293 HD
ENDBRANCH  17  20
ENDBRANCH   1  12
BRANCH   2  22
ATOM     22  O   UNL     1       5.544   1.186  -9.445  1.00  0.00    -0.502 OA
ATOM     23  H   UNL     1       5.991   0.886 -10.302  1.00  0.00     0.293 HD
ENDBRANCH   2  22
BRANCH   6  24
ATOM     24  O   UNL     1       5.246   6.460 -10.125  1.00  0.00    -0.507 OA
ATOM     25  H   UNL     1       5.983   6.624  -9.457  1.00  0.00     0.293 HD
ENDBRANCH   6  24
BRANCH   8  26
ATOM     26  O   UNL     1       0.554   7.157  -9.504  1.00  0.00    -0.508 OA
ATOM     27  H   UNL     1       0.287   7.615  -8.641  1.00  0.00     0.293 HD
ENDBRANCH   8  26
TORSDOF 6
ENDMDL
MODEL 4
REMARK VINA RESULT:    -4.372     16.804     18.611
REMARK INTER + INTRA:          -5.579
REMARK INTER:                  -5.939
REMARK INTRA:                   0.360
REMARK UNBOUND:                -0.312
REMARK SMILES O=c1c(O)c(-c2ccc(O)c(O)c2)oc2cc(O)cc(O)c12
REMARK SMILES IDX 5 1 3 2 2 3 1 4 22 5 20 6 19 7 17 8 16 9 15 10 14 11 6 12
REMARK SMILES IDX 7 13 8 14 9 15 13 16 11 17 10 18 12 20 4 22 21 24 18 26
REMARK H PARENT 10 19 12 21 4 23 21 25 18 27
REMARK Flexibility Score: inf
ROOT
ATOM      1  C   UNL     1     -11.765   4.116  -5.200  1.00  0.00     0.180 A 
ATOM      2  C   UNL     1     -11.793   3.376  -6.394  1.00  0.00     0.208 A 
ATOM      3  C   UNL     1     -11.760   4.059  -7.620  1.00  0.00     0.238 A 
ATOM      4  O   UNL     1     -11.710   3.387  -8.684  1.00  0.00    -0.285 OA
ATOM      5  C   UNL     1     -11.754   5.474  -7.638  1.00  0.00     0.111 A 
ATOM      6  C   UNL     1     -11.765   6.272  -8.824  1.00  0.00     0.134 A 
ATOM      7  C   UNL     1     -11.651   7.664  -8.720  1.00  0.00     0.093 A 
ATOM      8  C   UNL     1     -11.591   8.292  -7.477  1.00  0.00     0.123 A 
ATOM      9  C   UNL     1     -11.636   7.526  -6.311  1.00  0.00     0.094 A 
ATOM     10  C   UNL     1     -11.710   6.133  -6.382  1.00  0.00     0.146 A 
ATOM     11  O   UNL     1     -11.727   5.442  -5.249  1.00  0.00    -0.452 OA
ENDROOT
BRANCH   1  12
ATOM     12  C   UNL     1     -11.784   3.467  -3.869  1.00  0.00     0.025 A 
ATOM     13  C   UNL     1     -12.121   4.225  -2.737  1.00  0.00     0.016 A 
ATOM     14  C   UNL     1     -12.125   3.639  -1.469  1.00  0.00     0.051 A 
ATOM     15  C   UNL     1     -11.774   2.292  -1.312  1.00  0.00     0.157 A 
ATOM     16  C   UNL     1     -11.412   2.121  -3.705  1.00  0.00     0.062 A 
ATOM     17  C   UNL     1     -11.413   1.532  -2.432  1.00  0.00     0.158 A 
BRANCH  15  18
ATOM     18  O   UNL     1     -11.779   1.703  -0.048  1.00  0.00    -0.504 OA
ATOM     19  H   UNL     1     -12.277   0.840   0.131  1.00  0.00     0.293 HD
ENDBRANCH  15  18
BRANCH  17  20
ATOM     20  O   UNL     1     -11.052   0.196  -2.272  1.00  0.00    -0.504 OA
ATOM     21  H   UNL     1     -10.195  -0.173  -2.668  1.00  0.00     0.293 HD
ENDBRANCH  17  20
ENDBRANCH   1  12
BRANCH   2  22
ATOM     22  O   UNL     1     -11.876   1.981  -6.356  1.00  0.00    -0.502 OA
ATOM     23  H   UNL     1     -11.715   1.404  -7.172  1.00  0.00     0.293 HD
ENDBRANCH   2  22
BRANCH   6  24
ATOM     24  O   UNL     1     -11.911   5.755 -10.114  1.00  0.00    -0.507 OA
ATOM     25  H   UNL     1     -11.229   5.183 -10.588  1.00  0.00     0.293 HD
ENDBRANCH   6  24
BRANCH   8  26
ATOM     26  O   UNL     1     -11.495   9.681  -7.413  1.00  0.00    -0.508 OA
ATOM     27  H   UNL     1     -11.058  10.216  -8.153  1.00  0.00     0.293 HD
ENDBRANCH   8  26
TORSDOF 6
ENDMDL
MODEL 5
REMARK VINA RESULT:    -4.307      3.944      4.413
REMARK INTER + INTRA:          -5.501
REMARK INTER:                  -5.283
REMARK INTRA:                  -0.217
REMARK UNBOUND:                -0.312
REMARK SMILES O=c1c(O)c(-c2ccc(O)c(O)c2)oc2cc(O)cc(O)c12
REMARK SMILES IDX 5 1 3 2 2 3 1 4 22 5 20 6 19 7 17 8 16 9 15 10 14 11 6 12
REMARK SMILES IDX 7 13 8 14 9 15 13 16 11 17 10 18 12 20 4 22 21 24 18 26
REMARK H PARENT 10 19 12 21 4 23 21 25 18 27
REMARK Flexibility Score: inf
ROOT
ATOM      1  C   UNL     1       2.894  -1.390  -8.088  1.00  0.00     0.180 A 
ATOM      2  C   UNL     1       3.394  -0.399  -8.950  1.00  0.00     0.208 A 
ATOM      3  C   UNL     1       4.583   0.264  -8.607  1.00  0.00     0.238 A 
ATOM      4  O   UNL     1       5.063   1.098  -9.420  1.00  0.00    -0.285 OA
ATOM      5  C   UNL     1       5.228  -0.031  -7.383  1.00  0.00     0.111 A 
ATOM      6  C   UNL     1       6.415   0.612  -6.914  1.00  0.00     0.134 A 
ATOM      7  C   UNL     1       7.024   0.162  -5.735  1.00  0.00     0.093 A 
ATOM      8  C   UNL     1       6.458  -0.862  -4.977  1.00  0.00     0.123 A 
ATOM      9  C   UNL     1       5.268  -1.459  -5.397  1.00  0.00     0.094 A 
ATOM     10  C   UNL     1       4.658  -1.059  -6.588  1.00  0.00     0.146 A 
ATOM     11  O   UNL     1       3.540  -1.669  -6.962  1.00  0.00    -0.452 OA
ENDROOT
BRANCH   1  12
ATOM     12  C   UNL     1       1.655  -2.144  -8.387  1.00  0.00     0.025 A 
ATOM     13  C   UNL     1       1.742  -3.490  -8.773  1.00  0.00     0.016 A 
ATOM     14  C   UNL     1       0.589  -4.215  -9.080  1.00  0.00     0.051 A 
ATOM     15  C   UNL     1      -0.668  -3.599  -9.022  1.00  0.00     0.157 A 
ATOM     16  C   UNL     1       0.394  -1.523  -8.350  1.00  0.00     0.062 A 
ATOM     17  C   UNL     1      -0.766  -2.249  -8.660  1.00  0.00     0.158 A 
BRANCH  15  18
ATOM     18  O   UNL     1      -1.823  -4.319  -9.325  1.00  0.00    -0.504 OA
ATOM     19  H   UNL     1      -1.823  -5.332  -9.350  1.00  0.00     0.293 HD
ENDBRANCH  15  18
BRANCH  17  20
ATOM     20  O   UNL     1      -2.016  -1.636  -8.616  1.00  0.00    -0.504 OA
ATOM     21  H   UNL     1      -2.612  -1.703  -7.798  1.00  0.00     0.293 HD
ENDBRANCH  17  20
ENDBRANCH   1  12
BRANCH   2  22
ATOM     22  O   UNL     1       2.701  -0.067 -10.117  1.00  0.00    -0.502 OA
ATOM     23  H   UNL     1       2.587  -0.717 -10.885  1.00  0.00     0.293 HD
ENDBRANCH   2  22
BRANCH   6  24
ATOM     24  O   UNL     1       7.017   1.703  -7.547  1.00  0.00    -0.507 OA
ATOM     25  H   UNL     1       7.971   1.729  -7.870  1.00  0.00     0.293 HD
ENDBRANCH   6  24
BRANCH   8  26
ATOM     26  O   UNL     1       7.083  -1.271  -3.800  1.00  0.00    -0.508 OA
ATOM     27  H   UNL     1       7.009  -2.225  -3.467  1.00  0.00     0.293 HD
ENDBRANCH   8  26
TORSDOF 6
ENDMDL
MODEL 6
REMARK VINA RESULT:    -4.189      3.132      7.131
REMARK INTER + INTRA:          -5.359
REMARK INTER:                  -5.036
REMARK INTRA:                  -0.322
REMARK UNBOUND:                -0.312
REMARK SMILES O=c1c(O)c(-c2ccc(O)c(O)c2)oc2cc(O)cc(O)c12
REMARK SMILES IDX 5 1 3 2 2 3 1 4 22 5 20 6 19 7 17 8 16 9 15 10 14 11 6 12
REMARK SMILES IDX 7 13 8 14 9 15 13 16 11 17 10 18 12 20 4 22 21 24 18 26
REMARK H PARENT 10 19 12 21 4 23 21 25 18 27
REMARK Flexibility Score: inf
ROOT
ATOM      1  C   UNL     1       2.740  -2.687  -8.287  1.00  0.00     0.180 A 
ATOM      2  C   UNL     1       2.758  -4.070  -8.038  1.00  0.00     0.208 A 
ATOM      3  C   UNL     1       1.573  -4.806  -8.197  1.00  0.00     0.238 A 
ATOM      4  O   UNL     1       1.614  -6.055  -8.044  1.00  0.00    -0.285 OA
ATOM      5  C   UNL     1       0.373  -4.143  -8.548  1.00  0.00     0.111 A 
ATOM      6  C   UNL     1      -0.897  -4.782  -8.693  1.00  0.00     0.134 A 
ATOM      7  C   UNL     1      -1.995  -4.041  -9.148  1.00  0.00     0.093 A 
ATOM      8  C   UNL     1      -1.887  -2.675  -9.403  1.00  0.00     0.123 A 
ATOM      9  C   UNL     1      -0.665  -2.029  -9.212  1.00  0.00     0.094 A 
ATOM     10  C   UNL     1       0.458  -2.748  -8.796  1.00  0.00     0.146 A 
ATOM     11  O   UNL     1       1.607  -2.098  -8.648  1.00  0.00    -0.452 OA
ENDROOT
BRANCH   1  12
ATOM     12  C   UNL     1       3.952  -1.847  -8.156  1.00  0.00     0.025 A 
ATOM     13  C   UNL     1       4.797  -1.676  -9.264  1.00  0.00     0.016 A 
ATOM     14  C   UNL     1       5.957  -0.905  -9.158  1.00  0.00     0.051 A 
ATOM     15  C   UNL     1       6.297  -0.307  -7.938  1.00  0.00     0.157 A 
ATOM     16  C   UNL     1       4.309  -1.262  -6.928  1.00  0.00     0.062 A 
ATOM     17  C   UNL     1       5.475  -0.489  -6.819  1.00  0.00     0.158 A 
BRANCH  15  18
ATOM     18  O   UNL     1       7.453   0.465  -7.828  1.00  0.00    -0.504 OA
ATOM     19  H   UNL     1       8.237   0.167  -7.261  1.00  0.00     0.293 HD
ENDBRANCH  15  18
BRANCH  17  20
ATOM     20  O   UNL     1       5.823   0.096  -5.604  1.00  0.00    -0.504 OA
ATOM     21  H   UNL     1       6.758   0.011  -5.222  1.00  0.00     0.293 HD
ENDBRANCH  17  20
ENDBRANCH   1  12
BRANCH   2  22
ATOM     22  O   UNL     1       3.936  -4.694  -7.617  1.00  0.00    -0.502 OA
ATOM     23  H   UNL     1       4.471  -5.308  -8.219  1.00  0.00     0.293 HD
ENDBRANCH   2  22
BRANCH   6  24
ATOM     24  O   UNL     1      -1.138  -6.123  -8.381  1.00  0.00    -0.507 OA
ATOM     25  H   UNL     1      -1.355  -6.842  -9.052  1.00  0.00     0.293 HD
ENDBRANCH   6  24
BRANCH   8  26
ATOM     26  O   UNL     1      -3.005  -1.966  -9.838  1.00  0.00    -0.508 OA
ATOM     27  H   UNL     1      -3.936  -2.191  -9.507  1.00  0.00     0.293 HD
ENDBRANCH   8  26
TORSDOF 6
ENDMDL
MODEL 7
REMARK VINA RESULT:    -4.162      6.710      8.019
REMARK INTER + INTRA:          -5.326
REMARK INTER:                  -4.995
REMARK INTRA:                  -0.331
REMARK UNBOUND:                -0.312
REMARK SMILES O=c1c(O)c(-c2ccc(O)c(O)c2)oc2cc(O)cc(O)c12
REMARK SMILES IDX 5 1 3 2 2 3 1 4 22 5 20 6 19 7 17 8 16 9 15 10 14 11 6 12
REMARK SMILES IDX 7 13 8 14 9 15 13 16 11 17 10 18 12 20 4 22 21 24 18 26
REMARK H PARENT 10 19 12 21 4 23 21 25 18 27
REMARK Flexibility Score: inf
ROOT
ATOM      1  C   UNL     1       5.763   1.055  -7.448  1.00  0.00     0.180 A 
ATOM      2  C   UNL     1       4.803   0.582  -8.359  1.00  0.00     0.208 A 
ATOM      3  C   UNL     1       4.283  -0.711  -8.188  1.00  0.00     0.238 A 
ATOM      4  O   UNL     1       3.370  -1.101  -8.963  1.00  0.00    -0.285 OA
ATOM      5  C   UNL     1       4.767  -1.534  -7.144  1.00  0.00     0.111 A 
ATOM      6  C   UNL     1       4.343  -2.878  -6.904  1.00  0.00     0.134 A 
ATOM      7  C   UNL     1       4.815  -3.559  -5.775  1.00  0.00     0.093 A 
ATOM      8  C   UNL     1       5.740  -2.974  -4.913  1.00  0.00     0.123 A 
ATOM      9  C   UNL     1       6.204  -1.682  -5.169  1.00  0.00     0.094 A 
ATOM     10  C   UNL     1       5.723  -0.962  -6.265  1.00  0.00     0.146 A 
ATOM     11  O   UNL     1       6.173   0.272  -6.458  1.00  0.00    -0.452 OA
ENDROOT
BRANCH   1  12
ATOM     12  C   UNL     1       6.347   2.412  -7.553  1.00  0.00     0.025 A 
ATOM     13  C   UNL     1       7.544   2.594  -8.263  1.00  0.00     0.016 A 
ATOM     14  C   UNL     1       8.125   3.861  -8.358  1.00  0.00     0.051 A 
ATOM     15  C   UNL     1       7.527   4.960  -7.730  1.00  0.00     0.157 A 
ATOM     16  C   UNL     1       5.762   3.514  -6.905  1.00  0.00     0.062 A 
ATOM     17  C   UNL     1       6.346   4.787  -6.998  1.00  0.00     0.158 A 
BRANCH  15  18
ATOM     18  O   UNL     1       8.103   6.227  -7.823  1.00  0.00    -0.504 OA
ATOM     19  H   UNL     1       7.780   6.906  -8.502  1.00  0.00     0.293 HD
ENDBRANCH  15  18
BRANCH  17  20
ATOM     20  O   UNL     1       5.760   5.879  -6.362  1.00  0.00    -0.504 OA
ATOM     21  H   UNL     1       5.883   6.824  -6.709  1.00  0.00     0.293 HD
ENDBRANCH  17  20
ENDBRANCH   1  12
BRANCH   2  22
ATOM     22  O   UNL     1       4.394   1.381  -9.429  1.00  0.00    -0.502 OA
ATOM     23  H   UNL     1       4.131   2.352  -9.313  1.00  0.00     0.293 HD
ENDBRANCH   2  22
BRANCH   6  24
ATOM     24  O   UNL     1       3.489  -3.592  -7.750  1.00  0.00    -0.507 OA
ATOM     25  H   UNL     1       3.530  -3.580  -8.757  1.00  0.00     0.293 HD
ENDBRANCH   6  24
BRANCH   8  26
ATOM     26  O   UNL     1       6.200  -3.689  -3.810  1.00  0.00    -0.508 OA
ATOM     27  H   UNL     1       7.138  -4.070  -3.780  1.00  0.00     0.293 HD
ENDBRANCH   8  26
TORSDOF 6
ENDMDL
MODEL 8
REMARK VINA RESULT:    -1.715      2.051      7.032
REMARK INTER + INTRA:          -2.379
REMARK INTER:                  -2.208
REMARK INTRA:                  -0.171
REMARK UNBOUND:                -0.312
REMARK SMILES O=c1c(O)c(-c2ccc(O)c(O)c2)oc2cc(O)cc(O)c12
REMARK SMILES IDX 5 1 3 2 2 3 1 4 22 5 20 6 19 7 17 8 16 9 15 10 14 11 6 12
REMARK SMILES IDX 7 13 8 14 9 15 13 16 11 17 10 18 12 20 4 22 21 24 18 26
REMARK H PARENT 10 19 12 21 4 23 21 25 18 27
REMARK Flexibility Score: inf
ROOT
ATOM      1  C   UNL     1       4.019  -3.531  -6.796  1.00  0.00     0.180 A 
ATOM      2  C   UNL     1       3.830  -2.168  -7.082  1.00  0.00     0.208 A 
ATOM      3  C   UNL     1       2.801  -1.794  -7.962  1.00  0.00     0.238 A 
ATOM      4  O   UNL     1       2.591  -0.568  -8.156  1.00  0.00    -0.285 OA
ATOM      5  C   UNL     1       2.012  -2.788  -8.588  1.00  0.00     0.111 A 
ATOM      6  C   UNL     1       0.971  -2.525  -9.531  1.00  0.00     0.134 A 
ATOM      7  C   UNL     1       0.185  -3.583 -10.004  1.00  0.00     0.093 A 
ATOM      8  C   UNL     1       0.439  -4.899  -9.620  1.00  0.00     0.123 A 
ATOM      9  C   UNL     1       1.489  -5.173  -8.742  1.00  0.00     0.094 A 
ATOM     10  C   UNL     1       2.266  -4.135  -8.222  1.00  0.00     0.146 A 
ATOM     11  O   UNL     1       3.240  -4.439  -7.372  1.00  0.00    -0.452 OA
ENDROOT
BRANCH   1  12
ATOM     12  C   UNL     1       5.071  -4.003  -5.868  1.00  0.00     0.025 A 
ATOM     13  C   UNL     1       6.422  -3.856  -6.223  1.00  0.00     0.016 A 
ATOM     14  C   UNL     1       7.431  -4.312  -5.373  1.00  0.00     0.051 A 
ATOM     15  C   UNL     1       7.106  -4.938  -4.163  1.00  0.00     0.157 A 
ATOM     16  C   UNL     1       4.749  -4.651  -4.662  1.00  0.00     0.062 A 
ATOM     17  C   UNL     1       5.762  -5.113  -3.808  1.00  0.00     0.158 A 
BRANCH  15  18
ATOM     18  O   UNL     1       8.111  -5.393  -3.310  1.00  0.00    -0.504 OA
ATOM     19  H   UNL     1       7.897  -5.945  -2.488  1.00  0.00     0.293 HD
ENDBRANCH  15  18
BRANCH  17  20
ATOM     20  O   UNL     1       5.441  -5.747  -2.611  1.00  0.00    -0.504 OA
ATOM     21  H   UNL     1       4.490  -5.771  -2.260  1.00  0.00     0.293 HD
ENDBRANCH  17  20
ENDBRANCH   1  12
BRANCH   2  22
ATOM     22  O   UNL     1       4.670  -1.207  -6.514  1.00  0.00    -0.502 OA
ATOM     23  H   UNL     1       4.528  -0.213  -6.649  1.00  0.00     0.293 HD
ENDBRANCH   2  22
BRANCH   6  24
ATOM     24  O   UNL     1       0.688  -1.259 -10.051  1.00  0.00    -0.507 OA
ATOM     25  H   UNL     1       0.179  -0.536  -9.567  1.00  0.00     0.293 HD
ENDBRANCH   6  24
BRANCH   8  26
ATOM     26  O   UNL     1      -0.353  -5.928 -10.125  1.00  0.00    -0.508 OA
ATOM     27  H   UNL     1      -0.034  -6.889 -10.125  1.00  0.00     0.293 HD
ENDBRANCH   8  26
TORSDOF 6
ENDMDL
