MODEL 1
REMARK VINA RESULT:    -1.467      0.000      0.000
REMARK INTER + INTRA:         -10.625
REMARK INTER:                  -3.869
REMARK INTRA:                  -6.757
REMARK UNBOUND:                -6.757
REMARK SMILES CCCCCCCCCCCCCCCCCCCCCCCCCCCCCC(=O)[O-]
REMARK SMILES IDX 16 1 17 2 18 3 19 4 20 5 21 6 22 7 23 8 24 9 25 10 26 11
REMARK SMILES IDX 27 12 28 13 29 14 30 15 31 16 32 17 15 18 14 19 13 20 12 21
REMARK SMILES IDX 11 22 10 23 9 24 8 25 7 26 6 27 5 28 4 29 3 30 2 31 1 32
REMARK H PARENT
REMARK Flexibility Score: inf
ROOT
ATOM      1  C   UNL     1     116.607  14.504  25.312  1.00  0.00     0.000 C 
ENDROOT
BRANCH   1   2
ATOM      2  C   UNL     1     115.823  13.190  25.446  1.00  0.00     0.000 C 
BRANCH   2   3
ATOM      3  C   UNL     1     116.225  12.149  24.391  1.00  0.00     0.000 C 
BRANCH   3   4
ATOM      4  C   UNL     1     115.150  11.959  23.308  1.00  0.00     0.000 C 
BRANCH   4   5
ATOM      5  C   UNL     1     115.701  12.209  21.894  1.00  0.00     0.000 C 
BRANCH   5   6
ATOM      6  C   UNL     1     117.171  12.666  21.907  1.00  0.00     0.000 C 
BRANCH   6   7
ATOM      7  C   UNL     1     117.370  14.066  21.292  1.00  0.00     0.000 C 
BRANCH   7   8
ATOM      8  C   UNL     1     118.398  14.958  22.010  1.00  0.00     0.000 C 
BRANCH   8   9
ATOM      9  C   UNL     1     118.139  16.458  21.792  1.00  0.00     0.000 C 
BRANCH   9  10
ATOM     10  C   UNL     1     119.166  17.353  22.507  1.00  0.00     0.000 C 
BRANCH  10  11
ATOM     11  C   UNL     1     120.405  16.622  23.061  1.00  0.00     0.000 C 
BRANCH  11  12
ATOM     12  C   UNL     1     120.691  16.858  24.554  1.00  0.00     0.000 C 
BRANCH  12  13
ATOM     13  C   UNL     1     119.439  16.717  25.430  1.00  0.00     0.006 C 
BRANCH  13  14
ATOM     14  C   UNL     1     119.409  17.795  26.517  1.00  0.00     0.053 C 
BRANCH  14  15
ATOM     15  C   UNL     1     118.873  17.241  27.801  1.00  0.00     0.041 C 
ATOM     16  O   UNL     1     118.547  18.016  28.738  1.00  0.00    -0.550 OA
ATOM     17  O   UNL     1     118.751  15.867  27.970  1.00  0.00    -0.550 OA
ENDBRANCH  14  15
ENDBRANCH  13  14
ENDBRANCH  12  13
ENDBRANCH  11  12
ENDBRANCH  10  11
ENDBRANCH   9  10
ENDBRANCH   8   9
ENDBRANCH   7   8
ENDBRANCH   6   7
ENDBRANCH   5   6
ENDBRANCH   4   5
ENDBRANCH   3   4
ENDBRANCH   2   3
ENDBRANCH   1   2
BRANCH   1  18
ATOM     18  C   UNL     1     115.817  15.523  24.477  1.00  0.00     0.000 C 
BRANCH  18  19
ATOM     19  C   UNL     1     114.295  15.336  24.594  1.00  0.00     0.000 C 
BRANCH  19  20
ATOM     20  C   UNL     1     113.533  15.989  23.428  1.00  0.00     0.000 C 
BRANCH  20  21
ATOM     21  C   UNL     1     113.971  15.392  22.082  1.00  0.00     0.000 C 
BRANCH  21  22
ATOM     22  C   UNL     1     114.467  16.457  21.087  1.00  0.00     0.000 C 
BRANCH  22  23
ATOM     23  C   UNL     1     114.193  17.918  21.495  1.00  0.00     0.000 C 
BRANCH  23  24
ATOM     24  C   UNL     1     115.457  18.802  21.574  1.00  0.00    -0.000 C 
BRANCH  24  25
ATOM     25  C   UNL     1     115.184  20.174  22.219  1.00  0.00    -0.000 C 
BRANCH  25  26
ATOM     26  C   UNL     1     115.239  20.128  23.758  1.00  0.00    -0.000 C 
BRANCH  26  27
ATOM     27  C   UNL     1     116.357  19.227  24.318  1.00  0.00    -0.000 C 
BRANCH  27  28
ATOM     28  C   UNL     1     116.238  18.991  25.831  1.00  0.00    -0.000 C 
BRANCH  28  29
ATOM     29  C   UNL     1     114.808  18.587  26.219  1.00  0.00    -0.000 C 
BRANCH  29  30
ATOM     30  C   UNL     1     114.696  18.166  27.693  1.00  0.00    -0.000 C 
BRANCH  30  31
ATOM     31  C   UNL     1     115.203  16.738  27.943  1.00  0.00    -0.003 C 
ATOM     32  C   UNL     1     114.059  15.811  28.341  1.00  0.00     0.004 C 
ENDBRANCH  30  31
ENDBRANCH  29  30
ENDBRANCH  28  29
ENDBRANCH  27  28
ENDBRANCH  26  27
ENDBRANCH  25  26
ENDBRANCH  24  25
ENDBRANCH  23  24
ENDBRANCH  22  23
ENDBRANCH  21  22
ENDBRANCH  20  21
ENDBRANCH  19  20
ENDBRANCH  18  19
ENDBRANCH   1  18
TORSDOF 28
ENDMDL
MODEL 2
REMARK VINA RESULT:    -1.443      2.112      5.236
REMARK INTER + INTRA:         -10.561
REMARK INTER:                  -4.050
REMARK INTRA:                  -6.511
REMARK UNBOUND:                -6.757
REMARK SMILES CCCCCCCCCCCCCCCCCCCCCCCCCCCCCC(=O)[O-]
REMARK SMILES IDX 16 1 17 2 18 3 19 4 20 5 21 6 22 7 23 8 24 9 25 10 26 11
REMARK SMILES IDX 27 12 28 13 29 14 30 15 31 16 32 17 15 18 14 19 13 20 12 21
REMARK SMILES IDX 11 22 10 23 9 24 8 25 7 26 6 27 5 28 4 29 3 30 2 31 1 32
REMARK H PARENT
REMARK Flexibility Score: inf
ROOT
ATOM      1  C   UNL     1     117.266  14.426  22.854  1.00  0.00     0.000 C 
ENDROOT
BRANCH   1   2
ATOM      2  C   UNL     1     116.318  14.331  24.058  1.00  0.00     0.000 C 
BRANCH   2   3
ATOM      3  C   UNL     1     116.257  12.918  24.656  1.00  0.00     0.000 C 
BRANCH   3   4
ATOM      4  C   UNL     1     115.299  12.824  25.855  1.00  0.00     0.000 C 
BRANCH   4   5
ATOM      5  C   UNL     1     114.706  14.192  26.232  1.00  0.00     0.000 C 
BRANCH   5   6
ATOM      6  C   UNL     1     114.784  14.473  27.744  1.00  0.00     0.000 C 
BRANCH   6   7
ATOM      7  C   UNL     1     115.621  13.427  28.506  1.00  0.00     0.000 C 
BRANCH   7   8
ATOM      8  C   UNL     1     117.090  13.816  28.756  1.00  0.00     0.000 C 
BRANCH   8   9
ATOM      9  C   UNL     1     117.273  15.325  28.990  1.00  0.00     0.000 C 
BRANCH   9  10
ATOM     10  C   UNL     1     118.438  15.919  28.180  1.00  0.00     0.000 C 
BRANCH  10  11
ATOM     11  C   UNL     1     118.141  16.176  26.689  1.00  0.00     0.000 C 
BRANCH  11  12
ATOM     12  C   UNL     1     117.595  17.577  26.364  1.00  0.00     0.000 C 
BRANCH  12  13
ATOM     13  C   UNL     1     116.269  17.537  25.594  1.00  0.00     0.006 C 
BRANCH  13  14
ATOM     14  C   UNL     1     115.105  17.975  26.489  1.00  0.00     0.053 C 
BRANCH  14  15
ATOM     15  C   UNL     1     114.828  19.437  26.322  1.00  0.00     0.041 C 
ATOM     16  O   UNL     1     114.615  20.160  27.330  1.00  0.00    -0.550 OA
ATOM     17  O   UNL     1     114.786  19.998  25.050  1.00  0.00    -0.550 OA
ENDBRANCH  14  15
ENDBRANCH  13  14
ENDBRANCH  12  13
ENDBRANCH  11  12
ENDBRANCH  10  11
ENDBRANCH   9  10
ENDBRANCH   8   9
ENDBRANCH   7   8
ENDBRANCH   6   7
ENDBRANCH   5   6
ENDBRANCH   4   5
ENDBRANCH   3   4
ENDBRANCH   2   3
ENDBRANCH   1   2
BRANCH   1  18
ATOM     18  C   UNL     1     118.195  15.642  22.991  1.00  0.00     0.000 C 
BRANCH  18  19
ATOM     19  C   UNL     1     119.309  15.663  21.931  1.00  0.00     0.000 C 
BRANCH  19  20
ATOM     20  C   UNL     1     120.600  16.318  22.449  1.00  0.00     0.000 C 
BRANCH  20  21
ATOM     21  C   UNL     1     120.584  16.427  23.981  1.00  0.00     0.000 C 
BRANCH  21  22
ATOM     22  C   UNL     1     121.052  17.803  24.489  1.00  0.00     0.000 C 
BRANCH  22  23
ATOM     23  C   UNL     1     120.652  19.002  23.605  1.00  0.00     0.000 C 
BRANCH  23  24
ATOM     24  C   UNL     1     119.502  19.858  24.180  1.00  0.00    -0.000 C 
BRANCH  24  25
ATOM     25  C   UNL     1     118.216  19.767  23.338  1.00  0.00    -0.000 C 
BRANCH  25  26
ATOM     26  C   UNL     1     118.489  19.342  21.883  1.00  0.00    -0.000 C 
BRANCH  26  27
ATOM     27  C   UNL     1     117.274  18.712  21.176  1.00  0.00    -0.000 C 
BRANCH  27  28
ATOM     28  C   UNL     1     116.034  18.616  22.078  1.00  0.00    -0.000 C 
BRANCH  28  29
ATOM     29  C   UNL     1     114.942  17.753  21.431  1.00  0.00    -0.000 C 
BRANCH  29  30
ATOM     30  C   UNL     1     114.249  16.826  22.443  1.00  0.00    -0.000 C 
BRANCH  30  31
ATOM     31  C   UNL     1     113.806  15.493  21.821  1.00  0.00    -0.003 C 
ATOM     32  C   UNL     1     112.423  15.087  22.320  1.00  0.00     0.004 C 
ENDBRANCH  30  31
ENDBRANCH  29  30
ENDBRANCH  28  29
ENDBRANCH  27  28
ENDBRANCH  26  27
ENDBRANCH  25  26
ENDBRANCH  24  25
ENDBRANCH  23  24
ENDBRANCH  22  23
ENDBRANCH  21  22
ENDBRANCH  20  21
ENDBRANCH  19  20
ENDBRANCH  18  19
ENDBRANCH   1  18
TORSDOF 28
ENDMDL
MODEL 3
REMARK VINA RESULT:    -1.413      2.705      6.395
REMARK INTER + INTRA:         -10.482
REMARK INTER:                  -3.923
REMARK INTRA:                  -6.560
REMARK UNBOUND:                -6.757
REMARK SMILES CCCCCCCCCCCCCCCCCCCCCCCCCCCCCC(=O)[O-]
REMARK SMILES IDX 16 1 17 2 18 3 19 4 20 5 21 6 22 7 23 8 24 9 25 10 26 11
REMARK SMILES IDX 27 12 28 13 29 14 30 15 31 16 32 17 15 18 14 19 13 20 12 21
REMARK SMILES IDX 11 22 10 23 9 24 8 25 7 26 6 27 5 28 4 29 3 30 2 31 1 32
REMARK H PARENT
REMARK Flexibility Score: inf
ROOT
ATOM      1  C   UNL     1     115.106  17.759  23.815  1.00  0.00     0.000 C 
ENDROOT
BRANCH   1   2
ATOM      2  C   UNL     1     115.721  16.413  23.404  1.00  0.00     0.000 C 
BRANCH   2   3
ATOM      3  C   UNL     1     115.759  16.218  21.881  1.00  0.00     0.000 C 
BRANCH   3   4
ATOM      4  C   UNL     1     116.197  14.800  21.478  1.00  0.00     0.000 C 
BRANCH   4   5
ATOM      5  C   UNL     1     117.058  14.129  22.561  1.00  0.00     0.000 C 
BRANCH   5   6
ATOM      6  C   UNL     1     116.981  12.592  22.506  1.00  0.00     0.000 C 
BRANCH   6   7
ATOM      7  C   UNL     1     116.653  11.957  23.872  1.00  0.00     0.000 C 
BRANCH   7   8
ATOM      8  C   UNL     1     116.231  12.949  24.972  1.00  0.00     0.000 C 
BRANCH   8   9
ATOM      9  C   UNL     1     114.816  12.677  25.506  1.00  0.00     0.000 C 
BRANCH   9  10
ATOM     10  C   UNL     1     113.948  11.876  24.521  1.00  0.00     0.000 C 
BRANCH  10  11
ATOM     11  C   UNL     1     113.039  12.721  23.606  1.00  0.00     0.000 C 
BRANCH  11  12
ATOM     12  C   UNL     1     112.970  14.217  23.954  1.00  0.00     0.000 C 
BRANCH  12  13
ATOM     13  C   UNL     1     111.633  14.621  24.588  1.00  0.00     0.006 C 
BRANCH  13  14
ATOM     14  C   UNL     1     110.810  15.482  23.624  1.00  0.00     0.053 C 
BRANCH  14  15
ATOM     15  C   UNL     1     111.522  16.762  23.315  1.00  0.00     0.041 C 
ATOM     16  O   UNL     1     111.567  17.685  24.170  1.00  0.00    -0.550 OA
ATOM     17  O   UNL     1     112.122  16.944  22.074  1.00  0.00    -0.550 OA
ENDBRANCH  14  15
ENDBRANCH  13  14
ENDBRANCH  12  13
ENDBRANCH  11  12
ENDBRANCH  10  11
ENDBRANCH   9  10
ENDBRANCH   8   9
ENDBRANCH   7   8
ENDBRANCH   6   7
ENDBRANCH   5   6
ENDBRANCH   4   5
ENDBRANCH   3   4
ENDBRANCH   2   3
ENDBRANCH   1   2
BRANCH   1  18
ATOM     18  C   UNL     1     114.880  17.810  25.333  1.00  0.00     0.000 C 
BRANCH  18  19
ATOM     19  C   UNL     1     114.863  16.415  25.980  1.00  0.00     0.000 C 
BRANCH  19  20
ATOM     20  C   UNL     1     113.865  16.321  27.145  1.00  0.00     0.000 C 
BRANCH  20  21
ATOM     21  C   UNL     1     114.585  15.995  28.463  1.00  0.00     0.000 C 
BRANCH  21  22
ATOM     22  C   UNL     1     114.808  14.486  28.667  1.00  0.00     0.000 C 
BRANCH  22  23
ATOM     23  C   UNL     1     116.243  14.080  29.061  1.00  0.00     0.000 C 
BRANCH  23  24
ATOM     24  C   UNL     1     117.342  14.666  28.149  1.00  0.00    -0.000 C 
BRANCH  24  25
ATOM     25  C   UNL     1     118.284  15.628  28.896  1.00  0.00    -0.000 C 
BRANCH  25  26
ATOM     26  C   UNL     1     118.836  16.743  27.986  1.00  0.00    -0.000 C 
BRANCH  26  27
ATOM     27  C   UNL     1     118.420  16.609  26.508  1.00  0.00    -0.000 C 
BRANCH  27  28
ATOM     28  C   UNL     1     118.396  17.953  25.766  1.00  0.00    -0.000 C 
BRANCH  28  29
ATOM     29  C   UNL     1     119.003  17.822  24.361  1.00  0.00    -0.000 C 
BRANCH  29  30
ATOM     30  C   UNL     1     119.578  16.422  24.098  1.00  0.00    -0.000 C 
BRANCH  30  31
ATOM     31  C   UNL     1     120.068  16.243  22.653  1.00  0.00    -0.003 C 
ATOM     32  C   UNL     1     119.333  17.184  21.704  1.00  0.00     0.004 C 
ENDBRANCH  30  31
ENDBRANCH  29  30
ENDBRANCH  28  29
ENDBRANCH  27  28
ENDBRANCH  26  27
ENDBRANCH  25  26
ENDBRANCH  24  25
ENDBRANCH  23  24
ENDBRANCH  22  23
ENDBRANCH  21  22
ENDBRANCH  20  21
ENDBRANCH  19  20
ENDBRANCH  18  19
ENDBRANCH   1  18
TORSDOF 28
ENDMDL
MODEL 4
REMARK VINA RESULT:    -1.388      2.493      4.737
REMARK INTER + INTRA:         -10.417
REMARK INTER:                  -4.075
REMARK INTRA:                  -6.341
REMARK UNBOUND:                -6.757
REMARK SMILES CCCCCCCCCCCCCCCCCCCCCCCCCCCCCC(=O)[O-]
REMARK SMILES IDX 16 1 17 2 18 3 19 4 20 5 21 6 22 7 23 8 24 9 25 10 26 11
REMARK SMILES IDX 27 12 28 13 29 14 30 15 31 16 32 17 15 18 14 19 13 20 12 21
REMARK SMILES IDX 11 22 10 23 9 24 8 25 7 26 6 27 5 28 4 29 3 30 2 31 1 32
REMARK H PARENT
REMARK Flexibility Score: inf
ROOT
ATOM      1  C   UNL     1     115.850  13.709  26.363  1.00  0.00     0.000 C 
ENDROOT
BRANCH   1   2
ATOM      2  C   UNL     1     114.878  12.615  25.896  1.00  0.00     0.000 C 
BRANCH   2   3
ATOM      3  C   UNL     1     115.301  11.973  24.566  1.00  0.00     0.000 C 
BRANCH   3   4
ATOM      4  C   UNL     1     116.483  12.704  23.908  1.00  0.00     0.000 C 
BRANCH   4   5
ATOM      5  C   UNL     1     117.059  11.920  22.718  1.00  0.00     0.000 C 
BRANCH   5   6
ATOM      6  C   UNL     1     116.515  12.416  21.365  1.00  0.00     0.000 C 
BRANCH   6   7
ATOM      7  C   UNL     1     117.517  13.307  20.605  1.00  0.00     0.000 C 
BRANCH   7   8
ATOM      8  C   UNL     1     117.017  14.727  20.280  1.00  0.00     0.000 C 
BRANCH   8   9
ATOM      9  C   UNL     1     117.619  15.796  21.206  1.00  0.00     0.000 C 
BRANCH   9  10
ATOM     10  C   UNL     1     118.813  15.275  22.025  1.00  0.00     0.000 C 
BRANCH  10  11
ATOM     11  C   UNL     1     120.173  15.919  21.690  1.00  0.00     0.000 C 
BRANCH  11  12
ATOM     12  C   UNL     1     120.456  17.254  22.401  1.00  0.00     0.000 C 
BRANCH  12  13
ATOM     13  C   UNL     1     120.342  18.464  21.464  1.00  0.00     0.006 C 
BRANCH  13  14
ATOM     14  C   UNL     1     119.266  19.436  21.957  1.00  0.00     0.053 C 
BRANCH  14  15
ATOM     15  C   UNL     1     118.101  19.459  21.017  1.00  0.00     0.041 C 
ATOM     16  O   UNL     1     116.969  19.838  21.418  1.00  0.00    -0.550 OA
ATOM     17  O   UNL     1     118.260  19.044  19.699  1.00  0.00    -0.550 OA
ENDBRANCH  14  15
ENDBRANCH  13  14
ENDBRANCH  12  13
ENDBRANCH  11  12
ENDBRANCH  10  11
ENDBRANCH   9  10
ENDBRANCH   8   9
ENDBRANCH   7   8
ENDBRANCH   6   7
ENDBRANCH   5   6
ENDBRANCH   4   5
ENDBRANCH   3   4
ENDBRANCH   2   3
ENDBRANCH   1   2
BRANCH   1  18
ATOM     18  C   UNL     1     116.104  13.598  27.873  1.00  0.00     0.000 C 
BRANCH  18  19
ATOM     19  C   UNL     1     115.827  14.913  28.621  1.00  0.00     0.000 C 
BRANCH  19  20
ATOM     20  C   UNL     1     115.075  15.935  27.753  1.00  0.00     0.000 C 
BRANCH  20  21
ATOM     21  C   UNL     1     115.628  17.352  27.966  1.00  0.00     0.000 C 
BRANCH  21  22
ATOM     22  C   UNL     1     116.986  17.363  28.689  1.00  0.00     0.000 C 
BRANCH  22  23
ATOM     23  C   UNL     1     118.209  17.644  27.792  1.00  0.00     0.000 C 
BRANCH  23  24
ATOM     24  C   UNL     1     118.773  16.396  27.079  1.00  0.00    -0.000 C 
BRANCH  24  25
ATOM     25  C   UNL     1     118.456  16.378  25.572  1.00  0.00    -0.000 C 
BRANCH  25  26
ATOM     26  C   UNL     1     118.084  17.771  25.028  1.00  0.00    -0.000 C 
BRANCH  26  27
ATOM     27  C   UNL     1     116.699  17.832  24.356  1.00  0.00    -0.000 C 
BRANCH  27  28
ATOM     28  C   UNL     1     115.999  16.467  24.295  1.00  0.00    -0.000 C 
BRANCH  28  29
ATOM     29  C   UNL     1     114.757  16.519  23.393  1.00  0.00    -0.000 C 
BRANCH  29  30
ATOM     30  C   UNL     1     113.836  15.304  23.589  1.00  0.00    -0.000 C 
BRANCH  30  31
ATOM     31  C   UNL     1     112.820  15.140  22.449  1.00  0.00    -0.003 C 
ATOM     32  C   UNL     1     113.423  14.367  21.281  1.00  0.00     0.004 C 
ENDBRANCH  30  31
ENDBRANCH  29  30
ENDBRANCH  28  29
ENDBRANCH  27  28
ENDBRANCH  26  27
ENDBRANCH  25  26
ENDBRANCH  24  25
ENDBRANCH  23  24
ENDBRANCH  22  23
ENDBRANCH  21  22
ENDBRANCH  20  21
ENDBRANCH  19  20
ENDBRANCH  18  19
ENDBRANCH   1  18
TORSDOF 28
ENDMDL
MODEL 5
REMARK VINA RESULT:    -1.379      2.395      5.771
REMARK INTER + INTRA:         -10.394
REMARK INTER:                  -3.574
REMARK INTRA:                  -6.820
REMARK UNBOUND:                -6.757
REMARK SMILES CCCCCCCCCCCCCCCCCCCCCCCCCCCCCC(=O)[O-]
REMARK SMILES IDX 16 1 17 2 18 3 19 4 20 5 21 6 22 7 23 8 24 9 25 10 26 11
REMARK SMILES IDX 27 12 28 13 29 14 30 15 31 16 32 17 15 18 14 19 13 20 12 21
REMARK SMILES IDX 11 22 10 23 9 24 8 25 7 26 6 27 5 28 4 29 3 30 2 31 1 32
REMARK H PARENT
REMARK Flexibility Score: inf
ROOT
ATOM      1  C   UNL     1     113.973  16.306  26.011  1.00  0.00     0.000 C 
ENDROOT
BRANCH   1   2
ATOM      2  C   UNL     1     114.006  16.543  27.528  1.00  0.00     0.000 C 
BRANCH   2   3
ATOM      3  C   UNL     1     113.644  15.287  28.333  1.00  0.00     0.000 C 
BRANCH   3   4
ATOM      4  C   UNL     1     114.847  14.706  29.096  1.00  0.00     0.000 C 
BRANCH   4   5
ATOM      5  C   UNL     1     116.065  15.644  29.058  1.00  0.00     0.000 C 
BRANCH   5   6
ATOM      6  C   UNL     1     117.297  14.983  28.414  1.00  0.00     0.000 C 
BRANCH   6   7
ATOM      7  C   UNL     1     118.487  15.952  28.263  1.00  0.00     0.000 C 
BRANCH   7   8
ATOM      8  C   UNL     1     118.842  16.333  26.814  1.00  0.00     0.000 C 
BRANCH   8   9
ATOM      9  C   UNL     1     118.883  17.854  26.593  1.00  0.00     0.000 C 
BRANCH   9  10
ATOM     10  C   UNL     1     118.679  18.251  25.120  1.00  0.00     0.000 C 
BRANCH  10  11
ATOM     11  C   UNL     1     118.921  17.125  24.095  1.00  0.00     0.000 C 
BRANCH  11  12
ATOM     12  C   UNL     1     118.812  17.550  22.620  1.00  0.00     0.000 C 
BRANCH  12  13
ATOM     13  C   UNL     1     118.018  16.550  21.769  1.00  0.00     0.006 C 
BRANCH  13  14
ATOM     14  C   UNL     1     118.510  15.119  22.006  1.00  0.00     0.053 C 
BRANCH  14  15
ATOM     15  C   UNL     1     117.803  14.158  21.102  1.00  0.00     0.041 C 
ATOM     16  O   UNL     1     116.763  13.567  21.494  1.00  0.00    -0.550 OA
ATOM     17  O   UNL     1     118.304  13.898  19.831  1.00  0.00    -0.550 OA
ENDBRANCH  14  15
ENDBRANCH  13  14
ENDBRANCH  12  13
ENDBRANCH  11  12
ENDBRANCH  10  11
ENDBRANCH   9  10
ENDBRANCH   8   9
ENDBRANCH   7   8
ENDBRANCH   6   7
ENDBRANCH   5   6
ENDBRANCH   4   5
ENDBRANCH   3   4
ENDBRANCH   2   3
ENDBRANCH   1   2
BRANCH   1  18
ATOM     18  C   UNL     1     115.378  16.457  25.408  1.00  0.00     0.000 C 
BRANCH  18  19
ATOM     19  C   UNL     1     115.712  15.352  24.393  1.00  0.00     0.000 C 
BRANCH  19  20
ATOM     20  C   UNL     1     116.613  14.259  24.990  1.00  0.00     0.000 C 
BRANCH  20  21
ATOM     21  C   UNL     1     115.919  12.889  24.948  1.00  0.00     0.000 C 
BRANCH  21  22
ATOM     22  C   UNL     1     115.095  12.594  26.214  1.00  0.00     0.000 C 
BRANCH  22  23
ATOM     23  C   UNL     1     113.588  12.363  25.981  1.00  0.00     0.000 C 
BRANCH  23  24
ATOM     24  C   UNL     1     113.163  12.405  24.497  1.00  0.00    -0.000 C 
BRANCH  24  25
ATOM     25  C   UNL     1     112.285  13.626  24.164  1.00  0.00    -0.000 C 
BRANCH  25  26
ATOM     26  C   UNL     1     112.153  13.865  22.648  1.00  0.00    -0.000 C 
BRANCH  26  27
ATOM     27  C   UNL     1     113.239  14.788  22.062  1.00  0.00    -0.000 C 
BRANCH  27  28
ATOM     28  C   UNL     1     112.845  16.273  22.088  1.00  0.00    -0.000 C 
BRANCH  28  29
ATOM     29  C   UNL     1     114.013  17.165  21.641  1.00  0.00    -0.000 C 
BRANCH  29  30
ATOM     30  C   UNL     1     114.009  18.532  22.343  1.00  0.00    -0.000 C 
BRANCH  30  31
ATOM     31  C   UNL     1     115.415  19.139  22.467  1.00  0.00    -0.003 C 
ATOM     32  C   UNL     1     115.647  19.708  23.862  1.00  0.00     0.004 C 
ENDBRANCH  30  31
ENDBRANCH  29  30
ENDBRANCH  28  29
ENDBRANCH  27  28
ENDBRANCH  26  27
ENDBRANCH  25  26
ENDBRANCH  24  25
ENDBRANCH  23  24
ENDBRANCH  22  23
ENDBRANCH  21  22
ENDBRANCH  20  21
ENDBRANCH  19  20
ENDBRANCH  18  19
ENDBRANCH   1  18
TORSDOF 28
ENDMDL
MODEL 6
REMARK VINA RESULT:    -1.365      2.950      6.924
REMARK INTER + INTRA:         -10.356
REMARK INTER:                  -3.563
REMARK INTRA:                  -6.793
REMARK UNBOUND:                -6.757
REMARK SMILES CCCCCCCCCCCCCCCCCCCCCCCCCCCCCC(=O)[O-]
REMARK SMILES IDX 16 1 17 2 18 3 19 4 20 5 21 6 22 7 23 8 24 9 25 10 26 11
REMARK SMILES IDX 27 12 28 13 29 14 30 15 31 16 32 17 15 18 14 19 13 20 12 21
REMARK SMILES IDX 11 22 10 23 9 24 8 25 7 26 6 27 5 28 4 29 3 30 2 31 1 32
REMARK H PARENT
REMARK Flexibility Score: inf
ROOT
ATOM      1  C   UNL     1     117.813  18.441  24.611  1.00  0.00     0.000 C 
ENDROOT
BRANCH   1   2
ATOM      2  C   UNL     1     119.240  18.080  25.048  1.00  0.00     0.000 C 
BRANCH   2   3
ATOM      3  C   UNL     1     119.705  16.724  24.497  1.00  0.00     0.000 C 
BRANCH   3   4
ATOM      4  C   UNL     1     118.688  16.102  23.526  1.00  0.00     0.000 C 
BRANCH   4   5
ATOM      5  C   UNL     1     119.349  15.616  22.226  1.00  0.00     0.000 C 
BRANCH   5   6
ATOM      6  C   UNL     1     120.548  16.489  21.812  1.00  0.00     0.000 C 
BRANCH   6   7
ATOM      7  C   UNL     1     120.195  17.513  20.716  1.00  0.00     0.000 C 
BRANCH   7   8
ATOM      8  C   UNL     1     119.370  18.724  21.190  1.00  0.00     0.000 C 
BRANCH   8   9
ATOM      9  C   UNL     1     118.103  18.946  20.347  1.00  0.00     0.000 C 
BRANCH   9  10
ATOM     10  C   UNL     1     116.811  18.592  21.104  1.00  0.00     0.000 C 
BRANCH  10  11
ATOM     11  C   UNL     1     116.033  17.382  20.550  1.00  0.00     0.000 C 
BRANCH  11  12
ATOM     12  C   UNL     1     115.805  16.237  21.552  1.00  0.00     0.000 C 
BRANCH  12  13
ATOM     13  C   UNL     1     114.761  16.581  22.623  1.00  0.00     0.006 C 
BRANCH  13  14
ATOM     14  C   UNL     1     113.739  15.449  22.772  1.00  0.00     0.053 C 
BRANCH  14  15
ATOM     15  C   UNL     1     112.933  15.293  21.520  1.00  0.00     0.041 C 
ATOM     16  O   UNL     1     112.846  14.170  20.959  1.00  0.00    -0.550 OA
ATOM     17  O   UNL     1     112.293  16.394  20.961  1.00  0.00    -0.550 OA
ENDBRANCH  14  15
ENDBRANCH  13  14
ENDBRANCH  12  13
ENDBRANCH  11  12
ENDBRANCH  10  11
ENDBRANCH   9  10
ENDBRANCH   8   9
ENDBRANCH   7   8
ENDBRANCH   6   7
ENDBRANCH   5   6
ENDBRANCH   4   5
ENDBRANCH   3   4
ENDBRANCH   2   3
ENDBRANCH   1   2
BRANCH   1  18
ATOM     18  C   UNL     1     116.868  18.473  25.822  1.00  0.00     0.000 C 
BRANCH  18  19
ATOM     19  C   UNL     1     116.122  17.145  26.031  1.00  0.00     0.000 C 
BRANCH  19  20
ATOM     20  C   UNL     1     116.730  16.302  27.164  1.00  0.00     0.000 C 
BRANCH  20  21
ATOM     21  C   UNL     1     116.919  14.842  26.724  1.00  0.00     0.000 C 
BRANCH  21  22
ATOM     22  C   UNL     1     116.141  14.497  25.442  1.00  0.00     0.000 C 
BRANCH  22  23
ATOM     23  C   UNL     1     115.660  13.036  25.336  1.00  0.00     0.000 C 
BRANCH  23  24
ATOM     24  C   UNL     1     116.417  12.194  24.286  1.00  0.00    -0.000 C 
BRANCH  24  25
ATOM     25  C   UNL     1     116.556  12.916  22.933  1.00  0.00    -0.000 C 
BRANCH  25  26
ATOM     26  C   UNL     1     115.770  12.220  21.805  1.00  0.00    -0.000 C 
BRANCH  26  27
ATOM     27  C   UNL     1     116.064  12.777  20.399  1.00  0.00    -0.000 C 
BRANCH  27  28
ATOM     28  C   UNL     1     117.313  12.158  19.755  1.00  0.00    -0.000 C 
BRANCH  28  29
ATOM     29  C   UNL     1     118.426  13.203  19.584  1.00  0.00    -0.000 C 
BRANCH  29  30
ATOM     30  C   UNL     1     117.900  14.533  19.022  1.00  0.00    -0.000 C 
BRANCH  30  31
ATOM     31  C   UNL     1     118.923  15.243  18.122  1.00  0.00    -0.003 C 
ATOM     32  C   UNL     1     120.315  14.646  18.296  1.00  0.00     0.004 C 
ENDBRANCH  30  31
ENDBRANCH  29  30
ENDBRANCH  28  29
ENDBRANCH  27  28
ENDBRANCH  26  27
ENDBRANCH  25  26
ENDBRANCH  24  25
ENDBRANCH  23  24
ENDBRANCH  22  23
ENDBRANCH  21  22
ENDBRANCH  20  21
ENDBRANCH  19  20
ENDBRANCH  18  19
ENDBRANCH   1  18
TORSDOF 28
ENDMDL
MODEL 7
REMARK VINA RESULT:    -1.358      2.303      6.034
REMARK INTER + INTRA:         -10.338
REMARK INTER:                  -3.695
REMARK INTRA:                  -6.643
REMARK UNBOUND:                -6.757
REMARK SMILES CCCCCCCCCCCCCCCCCCCCCCCCCCCCCC(=O)[O-]
REMARK SMILES IDX 16 1 17 2 18 3 19 4 20 5 21 6 22 7 23 8 24 9 25 10 26 11
REMARK SMILES IDX 27 12 28 13 29 14 30 15 31 16 32 17 15 18 14 19 13 20 12 21
REMARK SMILES IDX 11 22 10 23 9 24 8 25 7 26 6 27 5 28 4 29 3 30 2 31 1 32
REMARK H PARENT
REMARK Flexibility Score: inf
ROOT
ATOM      1  C   UNL     1     120.175  17.110  25.008  1.00  0.00     0.000 C 
ENDROOT
BRANCH   1   2
ATOM      2  C   UNL     1     118.925  16.392  25.539  1.00  0.00     0.000 C 
BRANCH   2   3
ATOM      3  C   UNL     1     118.637  16.713  27.012  1.00  0.00     0.000 C 
BRANCH   3   4
ATOM      4  C   UNL     1     117.851  15.595  27.717  1.00  0.00     0.000 C 
BRANCH   4   5
ATOM      5  C   UNL     1     116.887  16.145  28.781  1.00  0.00     0.000 C 
BRANCH   5   6
ATOM      6  C   UNL     1     115.488  16.444  28.211  1.00  0.00     0.000 C 
BRANCH   6   7
ATOM      7  C   UNL     1     115.103  17.933  28.315  1.00  0.00     0.000 C 
BRANCH   7   8
ATOM      8  C   UNL     1     115.159  18.719  26.992  1.00  0.00     0.000 C 
BRANCH   8   9
ATOM      9  C   UNL     1     116.325  19.720  26.944  1.00  0.00     0.000 C 
BRANCH   9  10
ATOM     10  C   UNL     1     117.121  19.650  25.630  1.00  0.00     0.000 C 
BRANCH  10  11
ATOM     11  C   UNL     1     116.298  19.279  24.380  1.00  0.00     0.000 C 
BRANCH  11  12
ATOM     12  C   UNL     1     117.101  18.635  23.237  1.00  0.00     0.000 C 
BRANCH  12  13
ATOM     13  C   UNL     1     117.203  19.536  21.999  1.00  0.00     0.006 C 
BRANCH  13  14
ATOM     14  C   UNL     1     118.629  20.070  21.829  1.00  0.00     0.053 C 
BRANCH  14  15
ATOM     15  C   UNL     1     118.709  21.509  22.231  1.00  0.00     0.041 C 
ATOM     16  O   UNL     1     119.796  22.137  22.128  1.00  0.00    -0.550 OA
ATOM     17  O   UNL     1     117.588  22.155  22.739  1.00  0.00    -0.550 OA
ENDBRANCH  14  15
ENDBRANCH  13  14
ENDBRANCH  12  13
ENDBRANCH  11  12
ENDBRANCH  10  11
ENDBRANCH   9  10
ENDBRANCH   8   9
ENDBRANCH   7   8
ENDBRANCH   6   7
ENDBRANCH   5   6
ENDBRANCH   4   5
ENDBRANCH   3   4
ENDBRANCH   2   3
ENDBRANCH   1   2
BRANCH   1  18
ATOM     18  C   UNL     1     120.758  16.361  23.801  1.00  0.00     0.000 C 
BRANCH  18  19
ATOM     19  C   UNL     1     120.145  16.815  22.465  1.00  0.00     0.000 C 
BRANCH  19  20
ATOM     20  C   UNL     1     119.541  15.647  21.670  1.00  0.00     0.000 C 
BRANCH  20  21
ATOM     21  C   UNL     1     118.236  15.156  22.317  1.00  0.00     0.000 C 
BRANCH  21  22
ATOM     22  C   UNL     1     117.003  15.383  21.425  1.00  0.00     0.000 C 
BRANCH  22  23
ATOM     23  C   UNL     1     116.484  14.132  20.687  1.00  0.00     0.000 C 
BRANCH  23  24
ATOM     24  C   UNL     1     116.546  12.833  21.520  1.00  0.00    -0.000 C 
BRANCH  24  25
ATOM     25  C   UNL     1     115.152  12.325  21.933  1.00  0.00    -0.000 C 
BRANCH  25  26
ATOM     26  C   UNL     1     115.020  12.129  23.456  1.00  0.00    -0.000 C 
BRANCH  26  27
ATOM     27  C   UNL     1     116.352  12.252  24.221  1.00  0.00    -0.000 C 
BRANCH  27  28
ATOM     28  C   UNL     1     116.347  13.383  25.260  1.00  0.00    -0.000 C 
BRANCH  28  29
ATOM     29  C   UNL     1     115.075  14.236  25.146  1.00  0.00    -0.000 C 
BRANCH  29  30
ATOM     30  C   UNL     1     115.368  15.671  24.682  1.00  0.00    -0.000 C 
BRANCH  30  31
ATOM     31  C   UNL     1     114.137  16.363  24.077  1.00  0.00    -0.003 C 
ATOM     32  C   UNL     1     113.549  15.538  22.937  1.00  0.00     0.004 C 
ENDBRANCH  30  31
ENDBRANCH  29  30
ENDBRANCH  28  29
ENDBRANCH  27  28
ENDBRANCH  26  27
ENDBRANCH  25  26
ENDBRANCH  24  25
ENDBRANCH  23  24
ENDBRANCH  22  23
ENDBRANCH  21  22
ENDBRANCH  20  21
ENDBRANCH  19  20
ENDBRANCH  18  19
ENDBRANCH   1  18
TORSDOF 28
ENDMDL
MODEL 8
REMARK VINA RESULT:    -1.357      2.571      5.831
REMARK INTER + INTRA:         -10.334
REMARK INTER:                  -3.788
REMARK INTRA:                  -6.547
REMARK UNBOUND:                -6.757
REMARK SMILES CCCCCCCCCCCCCCCCCCCCCCCCCCCCCC(=O)[O-]
REMARK SMILES IDX 16 1 17 2 18 3 19 4 20 5 21 6 22 7 23 8 24 9 25 10 26 11
REMARK SMILES IDX 27 12 28 13 29 14 30 15 31 16 32 17 15 18 14 19 13 20 12 21
REMARK SMILES IDX 11 22 10 23 9 24 8 25 7 26 6 27 5 28 4 29 3 30 2 31 1 32
REMARK H PARENT
REMARK Flexibility Score: inf
ROOT
ATOM      1  C   UNL     1     117.427  14.754  22.587  1.00  0.00     0.000 C 
ENDROOT
BRANCH   1   2
ATOM      2  C   UNL     1     118.743  15.239  21.960  1.00  0.00     0.000 C 
BRANCH   2   3
ATOM      3  C   UNL     1     118.903  16.765  22.023  1.00  0.00     0.000 C 
BRANCH   3   4
ATOM      4  C   UNL     1     120.277  17.192  22.567  1.00  0.00     0.000 C 
BRANCH   4   5
ATOM      5  C   UNL     1     120.514  16.692  24.001  1.00  0.00     0.000 C 
BRANCH   5   6
ATOM      6  C   UNL     1     120.786  17.841  24.989  1.00  0.00     0.000 C 
BRANCH   6   7
ATOM      7  C   UNL     1     120.383  19.221  24.432  1.00  0.00     0.000 C 
BRANCH   7   8
ATOM      8  C   UNL     1     119.460  20.052  25.342  1.00  0.00     0.000 C 
BRANCH   8   9
ATOM      9  C   UNL     1     118.379  20.813  24.556  1.00  0.00     0.000 C 
BRANCH   9  10
ATOM     10  C   UNL     1     118.158  20.248  23.142  1.00  0.00     0.000 C 
BRANCH  10  11
ATOM     11  C   UNL     1     116.738  19.719  22.858  1.00  0.00     0.000 C 
BRANCH  11  12
ATOM     12  C   UNL     1     115.605  20.464  23.586  1.00  0.00     0.000 C 
BRANCH  12  13
ATOM     13  C   UNL     1     114.296  19.665  23.627  1.00  0.00     0.006 C 
BRANCH  13  14
ATOM     14  C   UNL     1     114.472  18.294  22.966  1.00  0.00     0.053 C 
BRANCH  14  15
ATOM     15  C   UNL     1     113.223  17.479  23.094  1.00  0.00     0.041 C 
ATOM     16  O   UNL     1     113.021  16.787  24.126  1.00  0.00    -0.550 OA
ATOM     17  O   UNL     1     112.289  17.467  22.064  1.00  0.00    -0.550 OA
ENDBRANCH  14  15
ENDBRANCH  13  14
ENDBRANCH  12  13
ENDBRANCH  11  12
ENDBRANCH  10  11
ENDBRANCH   9  10
ENDBRANCH   8   9
ENDBRANCH   7   8
ENDBRANCH   6   7
ENDBRANCH   5   6
ENDBRANCH   4   5
ENDBRANCH   3   4
ENDBRANCH   2   3
ENDBRANCH   1   2
BRANCH   1  18
ATOM     18  C   UNL     1     116.911  13.503  21.860  1.00  0.00     0.000 C 
BRANCH  18  19
ATOM     19  C   UNL     1     116.180  12.528  22.799  1.00  0.00     0.000 C 
BRANCH  19  20
ATOM     20  C   UNL     1     116.622  12.682  24.264  1.00  0.00     0.000 C 
BRANCH  20  21
ATOM     21  C   UNL     1     115.421  12.579  25.216  1.00  0.00     0.000 C 
BRANCH  21  22
ATOM     22  C   UNL     1     114.555  13.851  25.230  1.00  0.00     0.000 C 
BRANCH  22  23
ATOM     23  C   UNL     1     114.086  14.313  26.624  1.00  0.00     0.000 C 
BRANCH  23  24
ATOM     24  C   UNL     1     114.640  13.470  27.792  1.00  0.00    -0.000 C 
BRANCH  24  25
ATOM     25  C   UNL     1     115.559  14.279  28.726  1.00  0.00    -0.000 C 
BRANCH  25  26
ATOM     26  C   UNL     1     117.040  14.213  28.304  1.00  0.00    -0.000 C 
BRANCH  26  27
ATOM     27  C   UNL     1     117.828  15.508  28.575  1.00  0.00    -0.000 C 
BRANCH  27  28
ATOM     28  C   UNL     1     118.426  16.127  27.302  1.00  0.00    -0.000 C 
BRANCH  28  29
ATOM     29  C   UNL     1     117.536  15.852  26.081  1.00  0.00    -0.000 C 
BRANCH  29  30
ATOM     30  C   UNL     1     117.045  17.144  25.408  1.00  0.00    -0.000 C 
BRANCH  30  31
ATOM     31  C   UNL     1     116.494  18.164  26.415  1.00  0.00    -0.003 C 
ATOM     32  C   UNL     1     115.080  17.795  26.852  1.00  0.00     0.004 C 
ENDBRANCH  30  31
ENDBRANCH  29  30
ENDBRANCH  28  29
ENDBRANCH  27  28
ENDBRANCH  26  27
ENDBRANCH  25  26
ENDBRANCH  24  25
ENDBRANCH  23  24
ENDBRANCH  22  23
ENDBRANCH  21  22
ENDBRANCH  20  21
ENDBRANCH  19  20
ENDBRANCH  18  19
ENDBRANCH   1  18
TORSDOF 28
ENDMDL
