MODEL 1
REMARK VINA RESULT:    -5.689      0.000      0.000
REMARK INTER + INTRA:         -11.633
REMARK INTER:                 -10.346
REMARK INTRA:                  -1.287
REMARK UNBOUND:                -1.287
REMARK SMILES CCCCCCCCCCCCCCCC(=O)[O-]
REMARK SMILES IDX 9 1 10 2 11 3 12 4 13 5 14 6 15 7 16 8 17 9 18 10 8 11 7 12
REMARK SMILES IDX 6 13 5 14 4 15 3 16 2 17 1 18
REMARK H PARENT
REMARK Flexibility Score: inf
ROOT
ATOM      1  C   UNL     1      49.681 -48.061 165.109  1.00  0.00     0.000 C 
ENDROOT
BRANCH   1   2
ATOM      2  C   UNL     1      49.733 -46.572 164.729  1.00  0.00     0.000 C 
BRANCH   2   3
ATOM      3  C   UNL     1      51.087 -45.916 165.058  1.00  0.00     0.000 C 
BRANCH   3   4
ATOM      4  C   UNL     1      52.084 -46.819 165.806  1.00  0.00     0.000 C 
BRANCH   4   5
ATOM      5  C   UNL     1      53.532 -46.304 165.729  1.00  0.00     0.000 C 
BRANCH   5   6
ATOM      6  C   UNL     1      53.621 -44.774 165.836  1.00  0.00     0.006 C 
BRANCH   6   7
ATOM      7  C   UNL     1      54.361 -44.142 164.652  1.00  0.00     0.053 C 
BRANCH   7   8
ATOM      8  C   UNL     1      54.094 -42.672 164.591  1.00  0.00     0.041 C 
ATOM      9  O   UNL     1      54.218 -42.049 163.504  1.00  0.00    -0.550 OA
ATOM     10  O   UNL     1      53.656 -41.997 165.724  1.00  0.00    -0.550 OA
ENDBRANCH   7   8
ENDBRANCH   6   7
ENDBRANCH   5   6
ENDBRANCH   4   5
ENDBRANCH   3   4
ENDBRANCH   2   3
ENDBRANCH   1   2
BRANCH   1  11
ATOM     11  C   UNL     1      48.308 -48.692 164.830  1.00  0.00     0.000 C 
BRANCH  11  12
ATOM     12  C   UNL     1      48.162 -49.172 163.377  1.00  0.00    -0.000 C 
BRANCH  12  13
ATOM     13  C   UNL     1      46.682 -49.336 163.000  1.00  0.00    -0.000 C 
BRANCH  13  14
ATOM     14  C   UNL     1      45.748 -49.253 164.217  1.00  0.00    -0.000 C 
BRANCH  14  15
ATOM     15  C   UNL     1      44.623 -48.220 164.031  1.00  0.00    -0.000 C 
BRANCH  15  16
ATOM     16  C   UNL     1      44.715 -47.068 165.054  1.00  0.00    -0.000 C 
BRANCH  16  17
ATOM     17  C   UNL     1      45.879 -46.098 164.787  1.00  0.00    -0.003 C 
ATOM     18  C   UNL     1      46.412 -45.439 166.057  1.00  0.00     0.004 C 
ENDBRANCH  16  17
ENDBRANCH  15  16
ENDBRANCH  14  15
ENDBRANCH  13  14
ENDBRANCH  12  13
ENDBRANCH  11  12
ENDBRANCH   1  11
TORSDOF 14
ENDMDL
MODEL 2
REMARK VINA RESULT:    -5.635      3.846      4.939
REMARK INTER + INTRA:         -11.534
REMARK INTER:                 -10.426
REMARK INTRA:                  -1.107
REMARK UNBOUND:                -1.287
REMARK SMILES CCCCCCCCCCCCCCCC(=O)[O-]
REMARK SMILES IDX 9 1 10 2 11 3 12 4 13 5 14 6 15 7 16 8 17 9 18 10 8 11 7 12
REMARK SMILES IDX 6 13 5 14 4 15 3 16 2 17 1 18
REMARK H PARENT
REMARK Flexibility Score: inf
ROOT
ATOM      1  C   UNL     1      49.720 -47.610 165.147  1.00  0.00     0.000 C 
ENDROOT
BRANCH   1   2
ATOM      2  C   UNL     1      50.463 -46.284 164.913  1.00  0.00     0.000 C 
BRANCH   2   3
ATOM      3  C   UNL     1      51.860 -46.256 165.561  1.00  0.00     0.000 C 
BRANCH   3   4
ATOM      4  C   UNL     1      52.464 -47.638 165.865  1.00  0.00     0.000 C 
BRANCH   4   5
ATOM      5  C   UNL     1      53.952 -47.568 166.254  1.00  0.00     0.000 C 
BRANCH   5   6
ATOM      6  C   UNL     1      54.528 -48.941 166.632  1.00  0.00     0.006 C 
BRANCH   6   7
ATOM      7  C   UNL     1      53.507 -49.830 167.352  1.00  0.00     0.053 C 
BRANCH   7   8
ATOM      8  C   UNL     1      54.041 -51.218 167.510  1.00  0.00     0.041 C 
ATOM      9  O   UNL     1      54.780 -51.717 166.622  1.00  0.00    -0.550 OA
ATOM     10  O   UNL     1      53.766 -51.943 168.663  1.00  0.00    -0.550 OA
ENDBRANCH   7   8
ENDBRANCH   6   7
ENDBRANCH   5   6
ENDBRANCH   4   5
ENDBRANCH   3   4
ENDBRANCH   2   3
ENDBRANCH   1   2
BRANCH   1  11
ATOM     11  C   UNL     1      48.221 -47.512 164.823  1.00  0.00     0.000 C 
BRANCH  11  12
ATOM     12  C   UNL     1      47.648 -46.112 165.092  1.00  0.00    -0.000 C 
BRANCH  12  13
ATOM     13  C   UNL     1      46.160 -46.191 165.464  1.00  0.00    -0.000 C 
BRANCH  13  14
ATOM     14  C   UNL     1      45.235 -45.906 164.271  1.00  0.00    -0.000 C 
BRANCH  14  15
ATOM     15  C   UNL     1      44.414 -47.137 163.850  1.00  0.00    -0.000 C 
BRANCH  15  16
ATOM     16  C   UNL     1      44.351 -48.204 164.964  1.00  0.00    -0.000 C 
BRANCH  16  17
ATOM     17  C   UNL     1      45.020 -49.535 164.581  1.00  0.00    -0.003 C 
ATOM     18  C   UNL     1      45.611 -49.524 163.173  1.00  0.00     0.004 C 
ENDBRANCH  16  17
ENDBRANCH  15  16
ENDBRANCH  14  15
ENDBRANCH  13  14
ENDBRANCH  12  13
ENDBRANCH  11  12
ENDBRANCH   1  11
TORSDOF 14
ENDMDL
MODEL 3
REMARK VINA RESULT:    -5.585      6.946     10.076
REMARK INTER + INTRA:         -11.444
REMARK INTER:                 -10.277
REMARK INTRA:                  -1.166
REMARK UNBOUND:                -1.287
REMARK SMILES CCCCCCCCCCCCCCCC(=O)[O-]
REMARK SMILES IDX 9 1 10 2 11 3 12 4 13 5 14 6 15 7 16 8 17 9 18 10 8 11 7 12
REMARK SMILES IDX 6 13 5 14 4 15 3 16 2 17 1 18
REMARK H PARENT
REMARK Flexibility Score: inf
ROOT
ATOM      1  C   UNL     1      41.405 -47.927 162.646  1.00  0.00     0.000 C 
ENDROOT
BRANCH   1   2
ATOM      2  C   UNL     1      41.628 -48.991 163.734  1.00  0.00     0.000 C 
BRANCH   2   3
ATOM      3  C   UNL     1      41.920 -48.383 165.118  1.00  0.00     0.000 C 
BRANCH   3   4
ATOM      4  C   UNL     1      43.399 -48.410 165.543  1.00  0.00     0.000 C 
BRANCH   4   5
ATOM      5  C   UNL     1      44.235 -49.418 164.736  1.00  0.00     0.000 C 
BRANCH   5   6
ATOM      6  C   UNL     1      45.540 -48.807 164.202  1.00  0.00     0.006 C 
BRANCH   6   7
ATOM      7  C   UNL     1      45.626 -48.848 162.671  1.00  0.00     0.053 C 
BRANCH   7   8
ATOM      8  C   UNL     1      44.991 -47.630 162.079  1.00  0.00     0.041 C 
ATOM      9  O   UNL     1      44.571 -47.648 160.892  1.00  0.00    -0.550 OA
ATOM     10  O   UNL     1      44.815 -46.490 162.854  1.00  0.00    -0.550 OA
ENDBRANCH   7   8
ENDBRANCH   6   7
ENDBRANCH   5   6
ENDBRANCH   4   5
ENDBRANCH   3   4
ENDBRANCH   2   3
ENDBRANCH   1   2
BRANCH   1  11
ATOM     11  C   UNL     1      40.016 -48.030 161.997  1.00  0.00     0.000 C 
BRANCH  11  12
ATOM     12  C   UNL     1      39.150 -49.134 162.624  1.00  0.00    -0.000 C 
BRANCH  12  13
ATOM     13  C   UNL     1      37.683 -48.990 162.195  1.00  0.00    -0.000 C 
BRANCH  13  14
ATOM     14  C   UNL     1      37.533 -48.377 160.794  1.00  0.00    -0.000 C 
BRANCH  14  15
ATOM     15  C   UNL     1      36.074 -48.020 160.456  1.00  0.00    -0.000 C 
BRANCH  15  16
ATOM     16  C   UNL     1      35.706 -48.389 159.004  1.00  0.00    -0.000 C 
BRANCH  16  17
ATOM     17  C   UNL     1      35.685 -49.904 158.740  1.00  0.00    -0.003 C 
ATOM     18  C   UNL     1      35.019 -50.699 159.862  1.00  0.00     0.004 C 
ENDBRANCH  16  17
ENDBRANCH  15  16
ENDBRANCH  14  15
ENDBRANCH  13  14
ENDBRANCH  12  13
ENDBRANCH  11  12
ENDBRANCH   1  11
TORSDOF 14
ENDMDL
MODEL 4
REMARK VINA RESULT:    -5.567      4.049      4.901
REMARK INTER + INTRA:         -11.411
REMARK INTER:                 -10.258
REMARK INTRA:                  -1.153
REMARK UNBOUND:                -1.287
REMARK SMILES CCCCCCCCCCCCCCCC(=O)[O-]
REMARK SMILES IDX 9 1 10 2 11 3 12 4 13 5 14 6 15 7 16 8 17 9 18 10 8 11 7 12
REMARK SMILES IDX 6 13 5 14 4 15 3 16 2 17 1 18
REMARK H PARENT
REMARK Flexibility Score: inf
ROOT
ATOM      1  C   UNL     1      50.563 -46.117 164.754  1.00  0.00     0.000 C 
ENDROOT
BRANCH   1   2
ATOM      2  C   UNL     1      51.493 -47.054 165.544  1.00  0.00     0.000 C 
BRANCH   2   3
ATOM      3  C   UNL     1      52.625 -46.303 166.270  1.00  0.00     0.000 C 
BRANCH   3   4
ATOM      4  C   UNL     1      53.722 -47.201 166.869  1.00  0.00     0.000 C 
BRANCH   4   5
ATOM      5  C   UNL     1      53.976 -48.471 166.038  1.00  0.00     0.000 C 
BRANCH   5   6
ATOM      6  C   UNL     1      54.739 -49.548 166.824  1.00  0.00     0.006 C 
BRANCH   6   7
ATOM      7  C   UNL     1      54.020 -49.954 168.116  1.00  0.00     0.053 C 
BRANCH   7   8
ATOM      8  C   UNL     1      53.737 -51.423 168.118  1.00  0.00     0.041 C 
ATOM      9  O   UNL     1      52.840 -51.896 167.372  1.00  0.00    -0.550 OA
ATOM     10  O   UNL     1      54.500 -52.277 168.904  1.00  0.00    -0.550 OA
ENDBRANCH   7   8
ENDBRANCH   6   7
ENDBRANCH   5   6
ENDBRANCH   4   5
ENDBRANCH   3   4
ENDBRANCH   2   3
ENDBRANCH   1   2
BRANCH   1  11
ATOM     11  C   UNL     1      49.100 -46.590 164.769  1.00  0.00     0.000 C 
BRANCH  11  12
ATOM     12  C   UNL     1      48.965 -48.087 165.087  1.00  0.00    -0.000 C 
BRANCH  12  13
ATOM     13  C   UNL     1      48.155 -48.807 163.999  1.00  0.00    -0.000 C 
BRANCH  13  14
ATOM     14  C   UNL     1      46.643 -48.781 164.270  1.00  0.00    -0.000 C 
BRANCH  14  15
ATOM     15  C   UNL     1      45.862 -47.998 163.200  1.00  0.00    -0.000 C 
BRANCH  15  16
ATOM     16  C   UNL     1      45.500 -46.573 163.670  1.00  0.00    -0.000 C 
BRANCH  16  17
ATOM     17  C   UNL     1      45.146 -46.490 165.165  1.00  0.00    -0.003 C 
ATOM     18  C   UNL     1      45.989 -45.467 165.924  1.00  0.00     0.004 C 
ENDBRANCH  16  17
ENDBRANCH  15  16
ENDBRANCH  14  15
ENDBRANCH  13  14
ENDBRANCH  12  13
ENDBRANCH  11  12
ENDBRANCH   1  11
TORSDOF 14
ENDMDL
MODEL 5
REMARK VINA RESULT:    -5.554      8.899     12.771
REMARK INTER + INTRA:         -11.387
REMARK INTER:                  -9.941
REMARK INTRA:                  -1.446
REMARK UNBOUND:                -1.287
REMARK SMILES CCCCCCCCCCCCCCCC(=O)[O-]
REMARK SMILES IDX 9 1 10 2 11 3 12 4 13 5 14 6 15 7 16 8 17 9 18 10 8 11 7 12
REMARK SMILES IDX 6 13 5 14 4 15 3 16 2 17 1 18
REMARK H PARENT
REMARK Flexibility Score: inf
ROOT
ATOM      1  C   UNL     1      41.165 -49.013 163.080  1.00  0.00     0.000 C 
ENDROOT
BRANCH   1   2
ATOM      2  C   UNL     1      41.140 -47.617 162.436  1.00  0.00     0.000 C 
BRANCH   2   3
ATOM      3  C   UNL     1      39.806 -47.303 161.735  1.00  0.00     0.000 C 
BRANCH   3   4
ATOM      4  C   UNL     1      38.723 -48.388 161.879  1.00  0.00     0.000 C 
BRANCH   4   5
ATOM      5  C   UNL     1      37.727 -48.399 160.706  1.00  0.00     0.000 C 
BRANCH   5   6
ATOM      6  C   UNL     1      36.323 -48.855 161.129  1.00  0.00     0.006 C 
BRANCH   6   7
ATOM      7  C   UNL     1      36.342 -49.725 162.392  1.00  0.00     0.053 C 
BRANCH   7   8
ATOM      8  C   UNL     1      35.771 -51.078 162.104  1.00  0.00     0.041 C 
ATOM      9  O   UNL     1      35.857 -51.997 162.960  1.00  0.00    -0.550 OA
ATOM     10  O   UNL     1      35.097 -51.309 160.911  1.00  0.00    -0.550 OA
ENDBRANCH   7   8
ENDBRANCH   6   7
ENDBRANCH   5   6
ENDBRANCH   4   5
ENDBRANCH   3   4
ENDBRANCH   2   3
ENDBRANCH   1   2
BRANCH   1  11
ATOM     11  C   UNL     1      41.183 -48.953 164.616  1.00  0.00     0.000 C 
BRANCH  11  12
ATOM     12  C   UNL     1      42.426 -48.237 165.165  1.00  0.00    -0.000 C 
BRANCH  12  13
ATOM     13  C   UNL     1      43.691 -49.076 164.931  1.00  0.00    -0.000 C 
BRANCH  13  14
ATOM     14  C   UNL     1      44.940 -48.213 164.694  1.00  0.00    -0.000 C 
BRANCH  14  15
ATOM     15  C   UNL     1      44.595 -46.751 164.356  1.00  0.00    -0.000 C 
BRANCH  15  16
ATOM     16  C   UNL     1      44.667 -46.472 162.840  1.00  0.00    -0.000 C 
BRANCH  16  17
ATOM     17  C   UNL     1      45.104 -47.691 162.009  1.00  0.00    -0.003 C 
ATOM     18  C   UNL     1      44.190 -47.961 160.816  1.00  0.00     0.004 C 
ENDBRANCH  16  17
ENDBRANCH  15  16
ENDBRANCH  14  15
ENDBRANCH  13  14
ENDBRANCH  12  13
ENDBRANCH  11  12
ENDBRANCH   1  11
TORSDOF 14
ENDMDL
MODEL 6
REMARK VINA RESULT:    -5.552      6.892      9.917
REMARK INTER + INTRA:         -11.383
REMARK INTER:                 -10.316
REMARK INTRA:                  -1.067
REMARK UNBOUND:                -1.287
REMARK SMILES CCCCCCCCCCCCCCCC(=O)[O-]
REMARK SMILES IDX 9 1 10 2 11 3 12 4 13 5 14 6 15 7 16 8 17 9 18 10 8 11 7 12
REMARK SMILES IDX 6 13 5 14 4 15 3 16 2 17 1 18
REMARK H PARENT
REMARK Flexibility Score: inf
ROOT
ATOM      1  C   UNL     1      40.448 -47.355 161.868  1.00  0.00     0.000 C 
ENDROOT
BRANCH   1   2
ATOM      2  C   UNL     1      40.996 -48.472 162.773  1.00  0.00     0.000 C 
BRANCH   2   3
ATOM      3  C   UNL     1      42.437 -48.208 163.246  1.00  0.00     0.000 C 
BRANCH   3   4
ATOM      4  C   UNL     1      42.639 -48.245 164.772  1.00  0.00     0.000 C 
BRANCH   4   5
ATOM      5  C   UNL     1      43.987 -48.863 165.182  1.00  0.00     0.000 C 
BRANCH   5   6
ATOM      6  C   UNL     1      44.856 -49.239 163.972  1.00  0.00     0.006 C 
BRANCH   6   7
ATOM      7  C   UNL     1      46.260 -48.625 164.043  1.00  0.00     0.053 C 
BRANCH   7   8
ATOM      8  C   UNL     1      46.179 -47.132 164.027  1.00  0.00     0.041 C 
ATOM      9  O   UNL     1      45.616 -46.538 163.071  1.00  0.00    -0.550 OA
ATOM     10  O   UNL     1      46.681 -46.397 165.095  1.00  0.00    -0.550 OA
ENDBRANCH   7   8
ENDBRANCH   6   7
ENDBRANCH   5   6
ENDBRANCH   4   5
ENDBRANCH   3   4
ENDBRANCH   2   3
ENDBRANCH   1   2
BRANCH   1  11
ATOM     11  C   UNL     1      38.995 -47.608 161.435  1.00  0.00     0.000 C 
BRANCH  11  12
ATOM     12  C   UNL     1      38.334 -48.752 162.219  1.00  0.00    -0.000 C 
BRANCH  12  13
ATOM     13  C   UNL     1      36.937 -49.063 161.662  1.00  0.00    -0.000 C 
BRANCH  13  14
ATOM     14  C   UNL     1      36.516 -48.095 160.546  1.00  0.00    -0.000 C 
BRANCH  14  15
ATOM     15  C   UNL     1      35.193 -47.371 160.856  1.00  0.00    -0.000 C 
BRANCH  15  16
ATOM     16  C   UNL     1      35.174 -45.930 160.303  1.00  0.00    -0.000 C 
BRANCH  16  17
ATOM     17  C   UNL     1      36.450 -45.551 159.531  1.00  0.00    -0.003 C 
ATOM     18  C   UNL     1      36.271 -44.314 158.652  1.00  0.00     0.004 C 
ENDBRANCH  16  17
ENDBRANCH  15  16
ENDBRANCH  14  15
ENDBRANCH  13  14
ENDBRANCH  12  13
ENDBRANCH  11  12
ENDBRANCH   1  11
TORSDOF 14
ENDMDL
MODEL 7
REMARK VINA RESULT:    -5.531      4.199      8.343
REMARK INTER + INTRA:         -11.345
REMARK INTER:                 -10.066
REMARK INTRA:                  -1.279
REMARK UNBOUND:                -1.287
REMARK SMILES CCCCCCCCCCCCCCCC(=O)[O-]
REMARK SMILES IDX 9 1 10 2 11 3 12 4 13 5 14 6 15 7 16 8 17 9 18 10 8 11 7 12
REMARK SMILES IDX 6 13 5 14 4 15 3 16 2 17 1 18
REMARK H PARENT
REMARK Flexibility Score: inf
ROOT
ATOM      1  C   UNL     1      51.418 -46.278 165.479  1.00  0.00     0.000 C 
ENDROOT
BRANCH   1   2
ATOM      2  C   UNL     1      50.059 -46.306 164.760  1.00  0.00     0.000 C 
BRANCH   2   3
ATOM      3  C   UNL     1      49.218 -47.547 165.116  1.00  0.00     0.000 C 
BRANCH   3   4
ATOM      4  C   UNL     1      47.854 -47.634 164.408  1.00  0.00     0.000 C 
BRANCH   4   5
ATOM      5  C   UNL     1      46.917 -46.468 164.771  1.00  0.00     0.000 C 
BRANCH   5   6
ATOM      6  C   UNL     1      45.433 -46.835 164.616  1.00  0.00     0.006 C 
BRANCH   6   7
ATOM      7  C   UNL     1      44.822 -46.279 163.323  1.00  0.00     0.053 C 
BRANCH   7   8
ATOM      8  C   UNL     1      44.294 -47.392 162.474  1.00  0.00     0.041 C 
ATOM      9  O   UNL     1      45.082 -48.242 161.983  1.00  0.00    -0.550 OA
ATOM     10  O   UNL     1      42.926 -47.522 162.268  1.00  0.00    -0.550 OA
ENDBRANCH   7   8
ENDBRANCH   6   7
ENDBRANCH   5   6
ENDBRANCH   4   5
ENDBRANCH   3   4
ENDBRANCH   2   3
ENDBRANCH   1   2
BRANCH   1  11
ATOM     11  C   UNL     1      51.998 -47.684 165.698  1.00  0.00     0.000 C 
BRANCH  11  12
ATOM     12  C   UNL     1      53.535 -47.693 165.728  1.00  0.00    -0.000 C 
BRANCH  12  13
ATOM     13  C   UNL     1      54.053 -47.987 167.143  1.00  0.00    -0.000 C 
BRANCH  13  14
ATOM     14  C   UNL     1      54.921 -46.850 167.704  1.00  0.00    -0.000 C 
BRANCH  14  15
ATOM     15  C   UNL     1      54.117 -45.565 167.969  1.00  0.00    -0.000 C 
BRANCH  15  16
ATOM     16  C   UNL     1      54.781 -44.322 167.341  1.00  0.00    -0.000 C 
BRANCH  16  17
ATOM     17  C   UNL     1      54.083 -43.832 166.060  1.00  0.00    -0.003 C 
ATOM     18  C   UNL     1      54.737 -44.360 164.784  1.00  0.00     0.004 C 
ENDBRANCH  16  17
ENDBRANCH  15  16
ENDBRANCH  14  15
ENDBRANCH  13  14
ENDBRANCH  12  13
ENDBRANCH  11  12
ENDBRANCH   1  11
TORSDOF 14
ENDMDL
MODEL 8
REMARK VINA RESULT:    -5.527      3.611      7.984
REMARK INTER + INTRA:         -11.338
REMARK INTER:                 -10.297
REMARK INTRA:                  -1.041
REMARK UNBOUND:                -1.287
REMARK SMILES CCCCCCCCCCCCCCCC(=O)[O-]
REMARK SMILES IDX 9 1 10 2 11 3 12 4 13 5 14 6 15 7 16 8 17 9 18 10 8 11 7 12
REMARK SMILES IDX 6 13 5 14 4 15 3 16 2 17 1 18
REMARK H PARENT
REMARK Flexibility Score: inf
ROOT
ATOM      1  C   UNL     1      48.866 -47.649 164.887  1.00  0.00     0.000 C 
ENDROOT
BRANCH   1   2
ATOM      2  C   UNL     1      48.204 -49.017 164.647  1.00  0.00     0.000 C 
BRANCH   2   3
ATOM      3  C   UNL     1      47.890 -49.279 163.162  1.00  0.00     0.000 C 
BRANCH   3   4
ATOM      4  C   UNL     1      46.406 -49.538 162.845  1.00  0.00     0.000 C 
BRANCH   4   5
ATOM      5  C   UNL     1      45.507 -49.462 164.092  1.00  0.00     0.000 C 
BRANCH   5   6
ATOM      6  C   UNL     1      44.408 -48.396 163.962  1.00  0.00     0.006 C 
BRANCH   6   7
ATOM      7  C   UNL     1      44.456 -47.361 165.093  1.00  0.00     0.053 C 
BRANCH   7   8
ATOM      8  C   UNL     1      45.422 -46.267 164.760  1.00  0.00     0.041 C 
ATOM      9  O   UNL     1      45.792 -46.090 163.571  1.00  0.00    -0.550 OA
ATOM     10  O   UNL     1      45.873 -45.411 165.757  1.00  0.00    -0.550 OA
ENDBRANCH   7   8
ENDBRANCH   6   7
ENDBRANCH   5   6
ENDBRANCH   4   5
ENDBRANCH   3   4
ENDBRANCH   2   3
ENDBRANCH   1   2
BRANCH   1  11
ATOM     11  C   UNL     1      50.305 -47.776 165.411  1.00  0.00     0.000 C 
BRANCH  11  12
ATOM     12  C   UNL     1      51.112 -46.479 165.244  1.00  0.00    -0.000 C 
BRANCH  12  13
ATOM     13  C   UNL     1      52.475 -46.587 165.944  1.00  0.00    -0.000 C 
BRANCH  13  14
ATOM     14  C   UNL     1      52.945 -48.041 166.102  1.00  0.00    -0.000 C 
BRANCH  14  15
ATOM     15  C   UNL     1      54.291 -48.151 166.841  1.00  0.00    -0.000 C 
BRANCH  15  16
ATOM     16  C   UNL     1      54.273 -49.251 167.923  1.00  0.00    -0.000 C 
BRANCH  16  17
ATOM     17  C   UNL     1      53.971 -50.654 167.370  1.00  0.00    -0.003 C 
ATOM     18  C   UNL     1      53.809 -51.707 168.465  1.00  0.00     0.004 C 
ENDBRANCH  16  17
ENDBRANCH  15  16
ENDBRANCH  14  15
ENDBRANCH  13  14
ENDBRANCH  12  13
ENDBRANCH  11  12
ENDBRANCH   1  11
TORSDOF 14
ENDMDL
MODEL 9
REMARK VINA RESULT:    -5.497      3.370      8.005
REMARK INTER + INTRA:         -11.283
REMARK INTER:                 -10.146
REMARK INTRA:                  -1.136
REMARK UNBOUND:                -1.287
REMARK SMILES CCCCCCCCCCCCCCCC(=O)[O-]
REMARK SMILES IDX 9 1 10 2 11 3 12 4 13 5 14 6 15 7 16 8 17 9 18 10 8 11 7 12
REMARK SMILES IDX 6 13 5 14 4 15 3 16 2 17 1 18
REMARK H PARENT
REMARK Flexibility Score: inf
ROOT
ATOM      1  C   UNL     1      50.149 -46.676 165.106  1.00  0.00     0.000 C 
ENDROOT
BRANCH   1   2
ATOM      2  C   UNL     1      48.733 -46.951 164.574  1.00  0.00     0.000 C 
BRANCH   2   3
ATOM      3  C   UNL     1      48.307 -48.422 164.736  1.00  0.00     0.000 C 
BRANCH   3   4
ATOM      4  C   UNL     1      47.971 -49.151 163.423  1.00  0.00     0.000 C 
BRANCH   4   5
ATOM      5  C   UNL     1      46.460 -49.207 163.139  1.00  0.00     0.000 C 
BRANCH   5   6
ATOM      6  C   UNL     1      45.618 -49.196 164.425  1.00  0.00     0.006 C 
BRANCH   6   7
ATOM      7  C   UNL     1      44.391 -48.282 164.317  1.00  0.00     0.053 C 
BRANCH   7   8
ATOM      8  C   UNL     1      44.812 -46.848 164.248  1.00  0.00     0.041 C 
ATOM      9  O   UNL     1      44.624 -46.182 163.197  1.00  0.00    -0.550 OA
ATOM     10  O   UNL     1      45.366 -46.231 165.363  1.00  0.00    -0.550 OA
ENDBRANCH   7   8
ENDBRANCH   6   7
ENDBRANCH   5   6
ENDBRANCH   4   5
ENDBRANCH   3   4
ENDBRANCH   2   3
ENDBRANCH   1   2
BRANCH   1  11
ATOM     11  C   UNL     1      50.892 -47.963 165.499  1.00  0.00     0.000 C 
BRANCH  11  12
ATOM     12  C   UNL     1      52.358 -47.707 165.880  1.00  0.00    -0.000 C 
BRANCH  12  13
ATOM     13  C   UNL     1      52.656 -46.202 165.935  1.00  0.00    -0.000 C 
BRANCH  13  14
ATOM     14  C   UNL     1      53.757 -45.852 166.948  1.00  0.00    -0.000 C 
BRANCH  14  15
ATOM     15  C   UNL     1      54.543 -44.588 166.555  1.00  0.00    -0.000 C 
BRANCH  15  16
ATOM     16  C   UNL     1      54.861 -44.545 165.045  1.00  0.00    -0.000 C 
BRANCH  16  17
ATOM     17  C   UNL     1      54.375 -43.262 164.350  1.00  0.00    -0.003 C 
ATOM     18  C   UNL     1      53.612 -42.326 165.286  1.00  0.00     0.004 C 
ENDBRANCH  16  17
ENDBRANCH  15  16
ENDBRANCH  14  15
ENDBRANCH  13  14
ENDBRANCH  12  13
ENDBRANCH  11  12
ENDBRANCH   1  11
TORSDOF 14
ENDMDL
