MODEL 1
REMARK VINA RESULT:    -7.923      0.000      0.000
REMARK INTER + INTRA:          -9.630
REMARK INTER:                  -9.544
REMARK INTRA:                  -0.086
REMARK UNBOUND:                -0.086
REMARK SMILES O=c1c(O)c(-c2ccc(O)c(O)c2)oc2cc(O)cc(O)c12
REMARK SMILES IDX 5 1 3 2 2 3 1 4 22 5 20 6 19 7 17 8 16 9 15 10 14 11 6 12
REMARK SMILES IDX 7 13 8 14 9 15 13 16 11 17 10 18 12 20 4 22 21 24 18 26
REMARK H PARENT 10 19 12 21 4 23 21 25 18 27
REMARK Flexibility Score: inf
ROOT
ATOM      1  C   UNL     1      -6.474  -9.841  26.637  1.00  0.00     0.180 A 
ATOM      2  C   UNL     1      -7.607  -9.896  27.468  1.00  0.00     0.208 A 
ATOM      3  C   UNL     1      -8.835 -10.294  26.917  1.00  0.00     0.238 A 
ATOM      4  O   UNL     1      -9.834 -10.393  27.677  1.00  0.00    -0.285 OA
ATOM      5  C   UNL     1      -8.920 -10.617  25.541  1.00  0.00     0.111 A 
ATOM      6  C   UNL     1     -10.122 -10.994  24.870  1.00  0.00     0.134 A 
ATOM      7  C   UNL     1     -10.065 -11.418  23.537  1.00  0.00     0.093 A 
ATOM      8  C   UNL     1      -8.862 -11.416  22.832  1.00  0.00     0.123 A 
ATOM      9  C   UNL     1      -7.690 -10.993  23.461  1.00  0.00     0.094 A 
ATOM     10  C   UNL     1      -7.710 -10.599  24.801  1.00  0.00     0.146 A 
ATOM     11  O   UNL     1      -6.571 -10.213  25.365  1.00  0.00    -0.452 OA
ENDROOT
BRANCH   1  12
ATOM     12  C   UNL     1      -5.150  -9.406  27.138  1.00  0.00     0.025 A 
ATOM     13  C   UNL     1      -4.530 -10.131  28.169  1.00  0.00     0.016 A 
ATOM     14  C   UNL     1      -3.272  -9.749  28.643  1.00  0.00     0.051 A 
ATOM     15  C   UNL     1      -2.608  -8.653  28.086  1.00  0.00     0.157 A 
ATOM     16  C   UNL     1      -4.473  -8.316  26.565  1.00  0.00     0.062 A 
ATOM     17  C   UNL     1      -3.208  -7.933  27.038  1.00  0.00     0.158 A 
BRANCH  15  18
ATOM     18  O   UNL     1      -1.355  -8.295  28.581  1.00  0.00    -0.504 OA
ATOM     19  H   UNL     1      -0.497  -8.534  28.099  1.00  0.00     0.293 HD
ENDBRANCH  15  18
BRANCH  17  20
ATOM     20  O   UNL     1      -2.546  -6.848  26.468  1.00  0.00    -0.504 OA
ATOM     21  H   UNL     1      -1.599  -6.929  26.116  1.00  0.00     0.293 HD
ENDBRANCH  17  20
ENDBRANCH   1  12
BRANCH   2  22
ATOM     22  O   UNL     1      -7.496  -9.593  28.827  1.00  0.00    -0.502 OA
ATOM     23  H   UNL     1      -7.300  -8.658  29.163  1.00  0.00     0.293 HD
ENDBRANCH   2  22
BRANCH   6  24
ATOM     24  O   UNL     1     -11.391 -10.943  25.454  1.00  0.00    -0.507 OA
ATOM     25  H   UNL     1     -11.786 -11.667  26.035  1.00  0.00     0.293 HD
ENDBRANCH   6  24
BRANCH   8  26
ATOM     26  O   UNL     1      -8.843 -11.830  21.502  1.00  0.00    -0.508 OA
ATOM     27  H   UNL     1      -9.373 -12.636  21.190  1.00  0.00     0.293 HD
ENDBRANCH   8  26
TORSDOF 6
ENDMDL
MODEL 2
REMARK VINA RESULT:    -7.853      3.416      9.034
REMARK INTER + INTRA:          -9.546
REMARK INTER:                  -9.546
REMARK INTRA:                   0.001
REMARK UNBOUND:                -0.086
REMARK SMILES O=c1c(O)c(-c2ccc(O)c(O)c2)oc2cc(O)cc(O)c12
REMARK SMILES IDX 5 1 3 2 2 3 1 4 22 5 20 6 19 7 17 8 16 9 15 10 14 11 6 12
REMARK SMILES IDX 7 13 8 14 9 15 13 16 11 17 10 18 12 20 4 22 21 24 18 26
REMARK H PARENT 10 19 12 21 4 23 21 25 18 27
REMARK Flexibility Score: inf
ROOT
ATOM      1  C   UNL     1      -1.716  -7.503  27.862  1.00  0.00     0.180 A 
ATOM      2  C   UNL     1      -0.767  -7.990  28.778  1.00  0.00     0.208 A 
ATOM      3  C   UNL     1       0.515  -7.416  28.799  1.00  0.00     0.238 A 
ATOM      4  O   UNL     1       1.343  -7.819  29.657  1.00  0.00    -0.285 OA
ATOM      5  C   UNL     1       0.837  -6.375  27.894  1.00  0.00     0.111 A 
ATOM      6  C   UNL     1       2.116  -5.749  27.801  1.00  0.00     0.134 A 
ATOM      7  C   UNL     1       2.283  -4.642  26.960  1.00  0.00     0.093 A 
ATOM      8  C   UNL     1       1.238  -4.180  26.161  1.00  0.00     0.123 A 
ATOM      9  C   UNL     1      -0.001  -4.822  26.201  1.00  0.00     0.094 A 
ATOM     10  C   UNL     1      -0.209  -5.906  27.057  1.00  0.00     0.146 A 
ATOM     11  O   UNL     1      -1.405  -6.482  27.071  1.00  0.00    -0.452 OA
ENDROOT
BRANCH   1  12
ATOM     12  C   UNL     1      -3.079  -8.074  27.762  1.00  0.00     0.025 A 
ATOM     13  C   UNL     1      -3.878  -8.157  28.914  1.00  0.00     0.016 A 
ATOM     14  C   UNL     1      -5.174  -8.674  28.838  1.00  0.00     0.051 A 
ATOM     15  C   UNL     1      -5.697  -9.098  27.614  1.00  0.00     0.157 A 
ATOM     16  C   UNL     1      -3.613  -8.483  26.528  1.00  0.00     0.062 A 
ATOM     17  C   UNL     1      -4.915  -8.999  26.450  1.00  0.00     0.158 A 
BRANCH  15  18
ATOM     18  O   UNL     1      -6.992  -9.611  27.570  1.00  0.00    -0.504 OA
ATOM     19  H   UNL     1      -7.408 -10.093  28.358  1.00  0.00     0.293 HD
ENDBRANCH  15  18
BRANCH  17  20
ATOM     20  O   UNL     1      -5.434  -9.408  25.223  1.00  0.00    -0.504 OA
ATOM     21  H   UNL     1      -4.900  -9.989  24.587  1.00  0.00     0.293 HD
ENDBRANCH  17  20
ENDBRANCH   1  12
BRANCH   2  22
ATOM     22  O   UNL     1      -1.111  -9.003  29.676  1.00  0.00    -0.502 OA
ATOM     23  H   UNL     1      -0.456  -9.717  29.969  1.00  0.00     0.293 HD
ENDBRANCH   2  22
BRANCH   6  24
ATOM     24  O   UNL     1       3.252  -6.190  28.486  1.00  0.00    -0.507 OA
ATOM     25  H   UNL     1       3.489  -5.934  29.432  1.00  0.00     0.293 HD
ENDBRANCH   6  24
BRANCH   8  26
ATOM     26  O   UNL     1       1.444  -3.085  25.325  1.00  0.00    -0.508 OA
ATOM     27  H   UNL     1       1.884  -2.236  25.661  1.00  0.00     0.293 HD
ENDBRANCH   8  26
TORSDOF 6
ENDMDL
MODEL 3
REMARK VINA RESULT:    -7.714      8.270     12.546
REMARK INTER + INTRA:          -9.378
REMARK INTER:                  -9.315
REMARK INTRA:                  -0.063
REMARK UNBOUND:                -0.086
REMARK SMILES O=c1c(O)c(-c2ccc(O)c(O)c2)oc2cc(O)cc(O)c12
REMARK SMILES IDX 5 1 3 2 2 3 1 4 22 5 20 6 19 7 17 8 16 9 15 10 14 11 6 12
REMARK SMILES IDX 7 13 8 14 9 15 13 16 11 17 10 18 12 20 4 22 21 24 18 26
REMARK H PARENT 10 19 12 21 4 23 21 25 18 27
REMARK Flexibility Score: inf
ROOT
ATOM      1  C   UNL     1       3.266  -2.690  25.931  1.00  0.00     0.180 A 
ATOM      2  C   UNL     1       4.176  -3.458  26.677  1.00  0.00     0.208 A 
ATOM      3  C   UNL     1       3.719  -4.623  27.315  1.00  0.00     0.238 A 
ATOM      4  O   UNL     1       4.550  -5.336  27.937  1.00  0.00    -0.285 OA
ATOM      5  C   UNL     1       2.357  -4.995  27.215  1.00  0.00     0.111 A 
ATOM      6  C   UNL     1       1.778  -6.133  27.853  1.00  0.00     0.134 A 
ATOM      7  C   UNL     1       0.450  -6.478  27.578  1.00  0.00     0.093 A 
ATOM      8  C   UNL     1      -0.339  -5.691  26.739  1.00  0.00     0.123 A 
ATOM      9  C   UNL     1       0.199  -4.544  26.156  1.00  0.00     0.094 A 
ATOM     10  C   UNL     1       1.532  -4.194  26.383  1.00  0.00     0.146 A 
ATOM     11  O   UNL     1       2.009  -3.100  25.801  1.00  0.00    -0.452 OA
ENDROOT
BRANCH   1  12
ATOM     12  C   UNL     1       3.665  -1.436  25.251  1.00  0.00     0.025 A 
ATOM     13  C   UNL     1       4.261  -0.406  25.996  1.00  0.00     0.016 A 
ATOM     14  C   UNL     1       4.663   0.777  25.370  1.00  0.00     0.051 A 
ATOM     15  C   UNL     1       4.493   0.943  23.993  1.00  0.00     0.157 A 
ATOM     16  C   UNL     1       3.512  -1.276  23.863  1.00  0.00     0.062 A 
ATOM     17  C   UNL     1       3.918  -0.090  23.232  1.00  0.00     0.158 A 
BRANCH  15  18
ATOM     18  O   UNL     1       4.902   2.135  23.397  1.00  0.00    -0.504 OA
ATOM     19  H   UNL     1       5.850   2.276  23.072  1.00  0.00     0.293 HD
ENDBRANCH  15  18
BRANCH  17  20
ATOM     20  O   UNL     1       3.758   0.063  21.857  1.00  0.00    -0.504 OA
ATOM     21  H   UNL     1       4.509   0.406  21.269  1.00  0.00     0.293 HD
ENDBRANCH  17  20
ENDBRANCH   1  12
BRANCH   2  22
ATOM     22  O   UNL     1       5.520  -3.085  26.746  1.00  0.00    -0.502 OA
ATOM     23  H   UNL     1       6.153  -3.181  25.962  1.00  0.00     0.293 HD
ENDBRANCH   2  22
BRANCH   6  24
ATOM     24  O   UNL     1       2.451  -6.933  28.781  1.00  0.00    -0.507 OA
ATOM     25  H   UNL     1       3.374  -7.317  28.647  1.00  0.00     0.293 HD
ENDBRANCH   6  24
BRANCH   8  26
ATOM     26  O   UNL     1      -1.662  -6.056  26.499  1.00  0.00    -0.508 OA
ATOM     27  H   UNL     1      -1.924  -6.595  25.681  1.00  0.00     0.293 HD
ENDBRANCH   8  26
TORSDOF 6
ENDMDL
MODEL 4
REMARK VINA RESULT:    -7.595      1.230      6.721
REMARK INTER + INTRA:          -9.236
REMARK INTER:                  -9.269
REMARK INTRA:                   0.033
REMARK UNBOUND:                -0.086
REMARK SMILES O=c1c(O)c(-c2ccc(O)c(O)c2)oc2cc(O)cc(O)c12
REMARK SMILES IDX 5 1 3 2 2 3 1 4 22 5 20 6 19 7 17 8 16 9 15 10 14 11 6 12
REMARK SMILES IDX 7 13 8 14 9 15 13 16 11 17 10 18 12 20 4 22 21 24 18 26
REMARK H PARENT 10 19 12 21 4 23 21 25 18 27
REMARK Flexibility Score: inf
ROOT
ATOM      1  C   UNL     1      -6.943 -10.204  26.410  1.00  0.00     0.180 A 
ATOM      2  C   UNL     1      -6.886 -10.708  27.721  1.00  0.00     0.208 A 
ATOM      3  C   UNL     1      -5.798 -10.359  28.537  1.00  0.00     0.238 A 
ATOM      4  O   UNL     1      -5.780 -10.769  29.727  1.00  0.00    -0.285 OA
ATOM      5  C   UNL     1      -4.772  -9.527  28.028  1.00  0.00     0.111 A 
ATOM      6  C   UNL     1      -3.604  -9.143  28.754  1.00  0.00     0.134 A 
ATOM      7  C   UNL     1      -2.721  -8.211  28.197  1.00  0.00     0.093 A 
ATOM      8  C   UNL     1      -2.927  -7.699  26.917  1.00  0.00     0.123 A 
ATOM      9  C   UNL     1      -4.035  -8.112  26.175  1.00  0.00     0.094 A 
ATOM     10  C   UNL     1      -4.954  -9.013  26.718  1.00  0.00     0.146 A 
ATOM     11  O   UNL     1      -5.999  -9.373  25.983  1.00  0.00    -0.452 OA
ENDROOT
BRANCH   1  12
ATOM     12  C   UNL     1      -8.044 -10.547  25.481  1.00  0.00     0.025 A 
ATOM     13  C   UNL     1      -9.375 -10.377  25.896  1.00  0.00     0.016 A 
ATOM     14  C   UNL     1     -10.429 -10.676  25.029  1.00  0.00     0.051 A 
ATOM     15  C   UNL     1     -10.172 -11.131  23.733  1.00  0.00     0.157 A 
ATOM     16  C   UNL     1      -7.787 -10.986  24.171  1.00  0.00     0.062 A 
ATOM     17  C   UNL     1      -8.844 -11.284  23.298  1.00  0.00     0.158 A 
BRANCH  15  18
ATOM     18  O   UNL     1     -11.244 -11.422  22.891  1.00  0.00    -0.504 OA
ATOM     19  H   UNL     1     -12.064 -11.921  23.216  1.00  0.00     0.293 HD
ENDBRANCH  15  18
BRANCH  17  20
ATOM     20  O   UNL     1      -8.581 -11.724  22.003  1.00  0.00    -0.504 OA
ATOM     21  H   UNL     1      -7.936 -11.231  21.395  1.00  0.00     0.293 HD
ENDBRANCH  17  20
ENDBRANCH   1  12
BRANCH   2  22
ATOM     22  O   UNL     1      -7.919 -11.511  28.211  1.00  0.00    -0.502 OA
ATOM     23  H   UNL     1      -7.915 -12.519  28.120  1.00  0.00     0.293 HD
ENDBRANCH   2  22
BRANCH   6  24
ATOM     24  O   UNL     1      -3.255  -9.667  30.002  1.00  0.00    -0.507 OA
ATOM     25  H   UNL     1      -3.752 -10.405  30.476  1.00  0.00     0.293 HD
ENDBRANCH   6  24
BRANCH   8  26
ATOM     26  O   UNL     1      -2.019  -6.784  26.388  1.00  0.00    -0.508 OA
ATOM     27  H   UNL     1      -1.581  -6.077  26.966  1.00  0.00     0.293 HD
ENDBRANCH   8  26
TORSDOF 6
ENDMDL
MODEL 5
REMARK VINA RESULT:    -7.390      8.127     13.145
REMARK INTER + INTRA:          -8.989
REMARK INTER:                  -9.291
REMARK INTRA:                   0.302
REMARK UNBOUND:                -0.086
REMARK SMILES O=c1c(O)c(-c2ccc(O)c(O)c2)oc2cc(O)cc(O)c12
REMARK SMILES IDX 5 1 3 2 2 3 1 4 22 5 20 6 19 7 17 8 16 9 15 10 14 11 6 12
REMARK SMILES IDX 7 13 8 14 9 15 13 16 11 17 10 18 12 20 4 22 21 24 18 26
REMARK H PARENT 10 19 12 21 4 23 21 25 18 27
REMARK Flexibility Score: inf
ROOT
ATOM      1  C   UNL     1       2.636  -3.397  26.678  1.00  0.00     0.180 A 
ATOM      2  C   UNL     1       3.639  -2.996  27.577  1.00  0.00     0.208 A 
ATOM      3  C   UNL     1       4.414  -1.866  27.271  1.00  0.00     0.238 A 
ATOM      4  O   UNL     1       5.274  -1.480  28.106  1.00  0.00    -0.285 OA
ATOM      5  C   UNL     1       4.189  -1.162  26.063  1.00  0.00     0.111 A 
ATOM      6  C   UNL     1       4.942  -0.028  25.635  1.00  0.00     0.134 A 
ATOM      7  C   UNL     1       4.547   0.669  24.486  1.00  0.00     0.093 A 
ATOM      8  C   UNL     1       3.468   0.235  23.716  1.00  0.00     0.123 A 
ATOM      9  C   UNL     1       2.761  -0.907  24.094  1.00  0.00     0.094 A 
ATOM     10  C   UNL     1       3.109  -1.602  25.255  1.00  0.00     0.146 A 
ATOM     11  O   UNL     1       2.405  -2.678  25.585  1.00  0.00    -0.452 OA
ENDROOT
BRANCH   1  12
ATOM     12  C   UNL     1       1.795  -4.592  26.918  1.00  0.00     0.025 A 
ATOM     13  C   UNL     1       2.323  -5.675  27.640  1.00  0.00     0.016 A 
ATOM     14  C   UNL     1       1.540  -6.803  27.895  1.00  0.00     0.051 A 
ATOM     15  C   UNL     1       0.217  -6.863  27.449  1.00  0.00     0.157 A 
ATOM     16  C   UNL     1       0.458  -4.645  26.487  1.00  0.00     0.062 A 
ATOM     17  C   UNL     1      -0.331  -5.777  26.744  1.00  0.00     0.158 A 
BRANCH  15  18
ATOM     18  O   UNL     1      -0.539  -8.003  27.716  1.00  0.00    -0.504 OA
ATOM     19  H   UNL     1      -0.653  -8.366  28.655  1.00  0.00     0.293 HD
ENDBRANCH  15  18
BRANCH  17  20
ATOM     20  O   UNL     1      -1.653  -5.823  26.308  1.00  0.00    -0.504 OA
ATOM     21  H   UNL     1      -2.043  -6.656  25.882  1.00  0.00     0.293 HD
ENDBRANCH  17  20
ENDBRANCH   1  12
BRANCH   2  22
ATOM     22  O   UNL     1       3.830  -3.692  28.773  1.00  0.00    -0.502 OA
ATOM     23  H   UNL     1       4.219  -4.627  28.803  1.00  0.00     0.293 HD
ENDBRANCH   2  22
BRANCH   6  24
ATOM     24  O   UNL     1       6.093   0.434  26.279  1.00  0.00    -0.507 OA
ATOM     25  H   UNL     1       6.107   0.871  27.188  1.00  0.00     0.293 HD
ENDBRANCH   6  24
BRANCH   8  26
ATOM     26  O   UNL     1       3.112   0.943  22.570  1.00  0.00    -0.508 OA
ATOM     27  H   UNL     1       2.452   1.712  22.606  1.00  0.00     0.293 HD
ENDBRANCH   8  26
TORSDOF 6
ENDMDL
MODEL 6
REMARK VINA RESULT:    -7.334      4.392     10.203
REMARK INTER + INTRA:          -8.921
REMARK INTER:                  -9.025
REMARK INTRA:                   0.104
REMARK UNBOUND:                -0.086
REMARK SMILES O=c1c(O)c(-c2ccc(O)c(O)c2)oc2cc(O)cc(O)c12
REMARK SMILES IDX 5 1 3 2 2 3 1 4 22 5 20 6 19 7 17 8 16 9 15 10 14 11 6 12
REMARK SMILES IDX 7 13 8 14 9 15 13 16 11 17 10 18 12 20 4 22 21 24 18 26
REMARK H PARENT 10 19 12 21 4 23 21 25 18 27
REMARK Flexibility Score: inf
ROOT
ATOM      1  C   UNL     1      -0.547  -6.720  27.628  1.00  0.00     0.180 A 
ATOM      2  C   UNL     1      -0.299  -5.615  26.795  1.00  0.00     0.208 A 
ATOM      3  C   UNL     1       0.991  -5.060  26.767  1.00  0.00     0.238 A 
ATOM      4  O   UNL     1       1.220  -4.105  25.979  1.00  0.00    -0.285 OA
ATOM      5  C   UNL     1       2.011  -5.605  27.584  1.00  0.00     0.111 A 
ATOM      6  C   UNL     1       3.342  -5.096  27.664  1.00  0.00     0.134 A 
ATOM      7  C   UNL     1       4.304  -5.794  28.405  1.00  0.00     0.093 A 
ATOM      8  C   UNL     1       3.968  -6.942  29.120  1.00  0.00     0.123 A 
ATOM      9  C   UNL     1       2.655  -7.415  29.096  1.00  0.00     0.094 A 
ATOM     10  C   UNL     1       1.682  -6.762  28.336  1.00  0.00     0.146 A 
ATOM     11  O   UNL     1       0.447  -7.249  28.333  1.00  0.00    -0.452 OA
ENDROOT
BRANCH   1  12
ATOM     12  C   UNL     1      -1.886  -7.344  27.731  1.00  0.00     0.025 A 
ATOM     13  C   UNL     1      -2.411  -7.644  28.998  1.00  0.00     0.016 A 
ATOM     14  C   UNL     1      -3.681  -8.215  29.120  1.00  0.00     0.051 A 
ATOM     15  C   UNL     1      -4.450  -8.479  27.983  1.00  0.00     0.157 A 
ATOM     16  C   UNL     1      -2.668  -7.591  26.590  1.00  0.00     0.062 A 
ATOM     17  C   UNL     1      -3.944  -8.162  26.710  1.00  0.00     0.158 A 
BRANCH  15  18
ATOM     18  O   UNL     1      -5.712  -9.051  28.135  1.00  0.00    -0.504 OA
ATOM     19  H   UNL     1      -5.955  -9.612  28.943  1.00  0.00     0.293 HD
ENDBRANCH  15  18
BRANCH  17  20
ATOM     20  O   UNL     1      -4.711  -8.410  25.573  1.00  0.00    -0.504 OA
ATOM     21  H   UNL     1      -4.337  -8.275  24.641  1.00  0.00     0.293 HD
ENDBRANCH  17  20
ENDBRANCH   1  12
BRANCH   2  22
ATOM     22  O   UNL     1      -1.315  -5.106  25.982  1.00  0.00    -0.502 OA
ATOM     23  H   UNL     1      -1.392  -5.336  24.998  1.00  0.00     0.293 HD
ENDBRANCH   2  22
BRANCH   6  24
ATOM     24  O   UNL     1       3.760  -3.905  27.063  1.00  0.00    -0.507 OA
ATOM     25  H   UNL     1       3.259  -3.423  26.332  1.00  0.00     0.293 HD
ENDBRANCH   6  24
BRANCH   8  26
ATOM     26  O   UNL     1       4.947  -7.603  29.860  1.00  0.00    -0.508 OA
ATOM     27  H   UNL     1       5.812  -7.915  29.434  1.00  0.00     0.293 HD
ENDBRANCH   8  26
TORSDOF 6
ENDMDL
MODEL 7
REMARK VINA RESULT:    -7.083     11.882     13.432
REMARK INTER + INTRA:          -8.619
REMARK INTER:                  -8.301
REMARK INTRA:                  -0.318
REMARK UNBOUND:                -0.086
REMARK SMILES O=c1c(O)c(-c2ccc(O)c(O)c2)oc2cc(O)cc(O)c12
REMARK SMILES IDX 5 1 3 2 2 3 1 4 22 5 20 6 19 7 17 8 16 9 15 10 14 11 6 12
REMARK SMILES IDX 7 13 8 14 9 15 13 16 11 17 10 18 12 20 4 22 21 24 18 26
REMARK H PARENT 10 19 12 21 4 23 21 25 18 27
REMARK Flexibility Score: inf
ROOT
ATOM      1  C   UNL     1      -0.886  -6.837  16.093  1.00  0.00     0.180 A 
ATOM      2  C   UNL     1      -1.373  -8.148  15.950  1.00  0.00     0.208 A 
ATOM      3  C   UNL     1      -0.550  -9.224  16.321  1.00  0.00     0.238 A 
ATOM      4  O   UNL     1      -1.012 -10.392  16.242  1.00  0.00    -0.285 OA
ATOM      5  C   UNL     1       0.754  -8.977  16.815  1.00  0.00     0.111 A 
ATOM      6  C   UNL     1       1.686  -9.992  17.183  1.00  0.00     0.134 A 
ATOM      7  C   UNL     1       2.899  -9.632  17.782  1.00  0.00     0.093 A 
ATOM      8  C   UNL     1       3.241  -8.292  17.965  1.00  0.00     0.123 A 
ATOM      9  C   UNL     1       2.362  -7.289  17.555  1.00  0.00     0.094 A 
ATOM     10  C   UNL     1       1.128  -7.619  16.988  1.00  0.00     0.146 A 
ATOM     11  O   UNL     1       0.316  -6.635  16.620  1.00  0.00    -0.452 OA
ENDROOT
BRANCH   1  12
ATOM     12  C   UNL     1      -1.684  -5.653  15.699  1.00  0.00     0.025 A 
ATOM     13  C   UNL     1      -1.673  -5.227  14.361  1.00  0.00     0.016 A 
ATOM     14  C   UNL     1      -2.434  -4.125  13.965  1.00  0.00     0.051 A 
ATOM     15  C   UNL     1      -3.228  -3.442  14.890  1.00  0.00     0.157 A 
ATOM     16  C   UNL     1      -2.498  -4.978  16.625  1.00  0.00     0.062 A 
ATOM     17  C   UNL     1      -3.264  -3.872  16.228  1.00  0.00     0.158 A 
BRANCH  15  18
ATOM     18  O   UNL     1      -3.974  -2.344  14.466  1.00  0.00    -0.504 OA
ATOM     19  H   UNL     1      -3.740  -1.397  14.737  1.00  0.00     0.293 HD
ENDBRANCH  15  18
BRANCH  17  20
ATOM     20  O   UNL     1      -4.064  -3.205  17.154  1.00  0.00    -0.504 OA
ATOM     21  H   UNL     1      -4.499  -2.316  16.937  1.00  0.00     0.293 HD
ENDBRANCH  17  20
ENDBRANCH   1  12
BRANCH   2  22
ATOM     22  O   UNL     1      -2.671  -8.369  15.481  1.00  0.00    -0.502 OA
ATOM     23  H   UNL     1      -3.333  -7.616  15.337  1.00  0.00     0.293 HD
ENDBRANCH   2  22
BRANCH   6  24
ATOM     24  O   UNL     1       1.484 -11.357  16.958  1.00  0.00    -0.507 OA
ATOM     25  H   UNL     1       2.213 -12.018  16.742  1.00  0.00     0.293 HD
ENDBRANCH   6  24
BRANCH   8  26
ATOM     26  O   UNL     1       4.464  -7.968  18.550  1.00  0.00    -0.508 OA
ATOM     27  H   UNL     1       5.342  -8.155  18.081  1.00  0.00     0.293 HD
ENDBRANCH   8  26
TORSDOF 6
ENDMDL
MODEL 8
REMARK VINA RESULT:    -7.008      6.832     11.034
REMARK INTER + INTRA:          -8.528
REMARK INTER:                  -8.460
REMARK INTRA:                  -0.068
REMARK UNBOUND:                -0.086
REMARK SMILES O=c1c(O)c(-c2ccc(O)c(O)c2)oc2cc(O)cc(O)c12
REMARK SMILES IDX 5 1 3 2 2 3 1 4 22 5 20 6 19 7 17 8 16 9 15 10 14 11 6 12
REMARK SMILES IDX 7 13 8 14 9 15 13 16 11 17 10 18 12 20 4 22 21 24 18 26
REMARK H PARENT 10 19 12 21 4 23 21 25 18 27
REMARK Flexibility Score: inf
ROOT
ATOM      1  C   UNL     1       2.504  -4.178  26.669  1.00  0.00     0.180 A 
ATOM      2  C   UNL     1       3.070  -4.723  27.834  1.00  0.00     0.208 A 
ATOM      3  C   UNL     1       2.331  -5.656  28.578  1.00  0.00     0.238 A 
ATOM      4  O   UNL     1       2.864  -6.180  29.590  1.00  0.00    -0.285 OA
ATOM      5  C   UNL     1       1.028  -6.019  28.159  1.00  0.00     0.111 A 
ATOM      6  C   UNL     1       0.174  -6.924  28.859  1.00  0.00     0.134 A 
ATOM      7  C   UNL     1      -1.042  -7.310  28.283  1.00  0.00     0.093 A 
ATOM      8  C   UNL     1      -1.465  -6.776  27.066  1.00  0.00     0.123 A 
ATOM      9  C   UNL     1      -0.665  -5.846  26.402  1.00  0.00     0.094 A 
ATOM     10  C   UNL     1       0.571  -5.468  26.933  1.00  0.00     0.146 A 
ATOM     11  O   UNL     1       1.306  -4.588  26.265  1.00  0.00    -0.452 OA
ENDROOT
BRANCH   1  12
ATOM     12  C   UNL     1       3.211  -3.170  25.845  1.00  0.00     0.025 A 
ATOM     13  C   UNL     1       4.459  -3.489  25.286  1.00  0.00     0.016 A 
ATOM     14  C   UNL     1       5.134  -2.561  24.490  1.00  0.00     0.051 A 
ATOM     15  C   UNL     1       4.569  -1.310  24.226  1.00  0.00     0.157 A 
ATOM     16  C   UNL     1       2.634  -1.920  25.563  1.00  0.00     0.062 A 
ATOM     17  C   UNL     1       3.310  -0.987  24.762  1.00  0.00     0.158 A 
BRANCH  15  18
ATOM     18  O   UNL     1       5.267  -0.404  23.430  1.00  0.00    -0.504 OA
ATOM     19  H   UNL     1       5.696   0.430  23.813  1.00  0.00     0.293 HD
ENDBRANCH  15  18
BRANCH  17  20
ATOM     20  O   UNL     1       2.734   0.252  24.492  1.00  0.00    -0.504 OA
ATOM     21  H   UNL     1       2.302   0.807  25.221  1.00  0.00     0.293 HD
ENDBRANCH  17  20
ENDBRANCH   1  12
BRANCH   2  22
ATOM     22  O   UNL     1       4.366  -4.367  28.218  1.00  0.00    -0.502 OA
ATOM     23  H   UNL     1       5.157  -4.990  28.111  1.00  0.00     0.293 HD
ENDBRANCH   2  22
BRANCH   6  24
ATOM     24  O   UNL     1       0.459  -7.444  30.124  1.00  0.00    -0.507 OA
ATOM     25  H   UNL     1       0.994  -6.968  30.834  1.00  0.00     0.293 HD
ENDBRANCH   6  24
BRANCH   8  26
ATOM     26  O   UNL     1      -2.688  -7.172  26.530  1.00  0.00    -0.508 OA
ATOM     27  H   UNL     1      -3.380  -7.659  27.088  1.00  0.00     0.293 HD
ENDBRANCH   8  26
TORSDOF 6
ENDMDL
MODEL 9
REMARK VINA RESULT:    -7.001     11.782     13.769
REMARK INTER + INTRA:          -8.520
REMARK INTER:                  -8.202
REMARK INTRA:                  -0.318
REMARK UNBOUND:                -0.086
REMARK SMILES O=c1c(O)c(-c2ccc(O)c(O)c2)oc2cc(O)cc(O)c12
REMARK SMILES IDX 5 1 3 2 2 3 1 4 22 5 20 6 19 7 17 8 16 9 15 10 14 11 6 12
REMARK SMILES IDX 7 13 8 14 9 15 13 16 11 17 10 18 12 20 4 22 21 24 18 26
REMARK H PARENT 10 19 12 21 4 23 21 25 18 27
REMARK Flexibility Score: inf
ROOT
ATOM      1  C   UNL     1      -3.179  -4.178  15.945  1.00  0.00     0.180 A 
ATOM      2  C   UNL     1      -3.349  -5.573  15.945  1.00  0.00     0.208 A 
ATOM      3  C   UNL     1      -2.233  -6.395  15.722  1.00  0.00     0.238 A 
ATOM      4  O   UNL     1      -2.381  -7.644  15.777  1.00  0.00    -0.285 OA
ATOM      5  C   UNL     1      -0.964  -5.812  15.484  1.00  0.00     0.111 A 
ATOM      6  C   UNL     1       0.226  -6.549  15.207  1.00  0.00     0.134 A 
ATOM      7  C   UNL     1       1.450  -5.875  15.117  1.00  0.00     0.093 A 
ATOM      8  C   UNL     1       1.517  -4.486  15.229  1.00  0.00     0.123 A 
ATOM      9  C   UNL     1       0.350  -3.751  15.442  1.00  0.00     0.094 A 
ATOM     10  C   UNL     1      -0.880  -4.399  15.573  1.00  0.00     0.146 A 
ATOM     11  O   UNL     1      -1.965  -3.663  15.784  1.00  0.00    -0.452 OA
ENDROOT
BRANCH   1  12
ATOM     12  C   UNL     1      -4.312  -3.246  16.148  1.00  0.00     0.025 A 
ATOM     13  C   UNL     1      -5.112  -2.883  15.052  1.00  0.00     0.016 A 
ATOM     14  C   UNL     1      -6.197  -2.021  15.225  1.00  0.00     0.051 A 
ATOM     15  C   UNL     1      -6.511  -1.522  16.492  1.00  0.00     0.157 A 
ATOM     16  C   UNL     1      -4.640  -2.759  17.425  1.00  0.00     0.062 A 
ATOM     17  C   UNL     1      -5.731  -1.895  17.601  1.00  0.00     0.158 A 
BRANCH  15  18
ATOM     18  O   UNL     1      -7.598  -0.661  16.633  1.00  0.00    -0.504 OA
ATOM     19  H   UNL     1      -7.799  -0.185  17.504  1.00  0.00     0.293 HD
ENDBRANCH  15  18
BRANCH  17  20
ATOM     20  O   UNL     1      -6.046  -1.412  18.869  1.00  0.00    -0.504 OA
ATOM     21  H   UNL     1      -6.955  -1.570  19.287  1.00  0.00     0.293 HD
ENDBRANCH  17  20
ENDBRANCH   1  12
BRANCH   2  22
ATOM     22  O   UNL     1      -4.606  -6.128  16.203  1.00  0.00    -0.502 OA
ATOM     23  H   UNL     1      -5.097  -6.700  15.527  1.00  0.00     0.293 HD
ENDBRANCH   2  22
BRANCH   6  24
ATOM     24  O   UNL     1       0.256  -7.929  14.984  1.00  0.00    -0.507 OA
ATOM     25  H   UNL     1      -0.052  -8.381  14.137  1.00  0.00     0.293 HD
ENDBRANCH   6  24
BRANCH   8  26
ATOM     26  O   UNL     1       2.750  -3.846  15.120  1.00  0.00    -0.508 OA
ATOM     27  H   UNL     1       3.550  -4.305  14.700  1.00  0.00     0.293 HD
ENDBRANCH   8  26
TORSDOF 6
ENDMDL
