MODEL 1
REMARK VINA RESULT:    -5.191      0.000      0.000
REMARK INTER + INTRA:          -6.585
REMARK INTER:                  -6.253
REMARK INTRA:                  -0.332
REMARK UNBOUND:                -0.332
REMARK SMILES O=c1c(O)c(-c2ccc(O)c(O)c2)oc2cc(O)cc(O)c12
REMARK SMILES IDX 5 1 3 2 2 3 1 4 22 5 20 6 19 7 17 8 16 9 15 10 14 11 6 12
REMARK SMILES IDX 7 13 8 14 9 15 13 16 11 17 10 18 12 20 4 22 21 24 18 26
REMARK H PARENT 10 19 12 21 4 23 21 25 18 27
REMARK Flexibility Score: inf
ROOT
ATOM      1  C   UNL     1       1.340 -15.545  10.263  1.00  0.00     0.180 A 
ATOM      2  C   UNL     1       1.751 -16.199  11.436  1.00  0.00     0.208 A 
ATOM      3  C   UNL     1       1.666 -17.599  11.502  1.00  0.00     0.238 A 
ATOM      4  O   UNL     1       2.086 -18.183  12.535  1.00  0.00    -0.285 OA
ATOM      5  C   UNL     1       1.154 -18.326  10.399  1.00  0.00     0.111 A 
ATOM      6  C   UNL     1       0.986 -19.744  10.371  1.00  0.00     0.134 A 
ATOM      7  C   UNL     1       0.595 -20.369   9.181  1.00  0.00     0.093 A 
ATOM      8  C   UNL     1       0.304 -19.624   8.038  1.00  0.00     0.123 A 
ATOM      9  C   UNL     1       0.408 -18.233   8.072  1.00  0.00     0.094 A 
ATOM     10  C   UNL     1       0.831 -17.583   9.235  1.00  0.00     0.146 A 
ATOM     11  O   UNL     1       0.927 -16.259   9.223  1.00  0.00    -0.452 OA
ENDROOT
BRANCH   1  12
ATOM     12  C   UNL     1       1.376 -14.071  10.128  1.00  0.00     0.025 A 
ATOM     13  C   UNL     1       0.303 -13.270  10.557  1.00  0.00     0.016 A 
ATOM     14  C   UNL     1       0.349 -11.883  10.398  1.00  0.00     0.051 A 
ATOM     15  C   UNL     1       1.461 -11.276   9.797  1.00  0.00     0.157 A 
ATOM     16  C   UNL     1       2.479 -13.460   9.508  1.00  0.00     0.062 A 
ATOM     17  C   UNL     1       2.528 -12.071   9.347  1.00  0.00     0.158 A 
BRANCH  15  18
ATOM     18  O   UNL     1       1.504  -9.892   9.642  1.00  0.00    -0.504 OA
ATOM     19  H   UNL     1       0.800  -9.289  10.050  1.00  0.00     0.293 HD
ENDBRANCH  15  18
BRANCH  17  20
ATOM     20  O   UNL     1       3.645 -11.498   8.740  1.00  0.00    -0.504 OA
ATOM     21  H   UNL     1       4.271 -10.878   9.238  1.00  0.00     0.293 HD
ENDBRANCH  17  20
ENDBRANCH   1  12
BRANCH   2  22
ATOM     22  O   UNL     1       2.272 -15.465  12.505  1.00  0.00    -0.502 OA
ATOM     23  H   UNL     1       3.234 -15.147  12.530  1.00  0.00     0.293 HD
ENDBRANCH   2  22
BRANCH   6  24
ATOM     24  O   UNL     1       1.161 -20.573  11.482  1.00  0.00    -0.507 OA
ATOM     25  H   UNL     1       0.636 -21.416  11.658  1.00  0.00     0.293 HD
ENDBRANCH   6  24
BRANCH   8  26
ATOM     26  O   UNL     1      -0.099 -20.278   6.875  1.00  0.00    -0.508 OA
ATOM     27  H   UNL     1      -0.230 -21.283   6.851  1.00  0.00     0.293 HD
ENDBRANCH   8  26
TORSDOF 6
ENDMDL
MODEL 2
REMARK VINA RESULT:    -4.803      1.440      1.454
REMARK INTER + INTRA:          -6.118
REMARK INTER:                  -6.401
REMARK INTRA:                   0.283
REMARK UNBOUND:                -0.332
REMARK SMILES O=c1c(O)c(-c2ccc(O)c(O)c2)oc2cc(O)cc(O)c12
REMARK SMILES IDX 5 1 3 2 2 3 1 4 22 5 20 6 19 7 17 8 16 9 15 10 14 11 6 12
REMARK SMILES IDX 7 13 8 14 9 15 13 16 11 17 10 18 12 20 4 22 21 24 18 26
REMARK H PARENT 10 19 12 21 4 23 21 25 18 27
REMARK Flexibility Score: inf
ROOT
ATOM      1  C   UNL     1       1.250 -15.991  10.655  1.00  0.00     0.180 A 
ATOM      2  C   UNL     1       0.558 -16.535  11.750  1.00  0.00     0.208 A 
ATOM      3  C   UNL     1       0.454 -17.930  11.865  1.00  0.00     0.238 A 
ATOM      4  O   UNL     1      -0.121 -18.412  12.877  1.00  0.00    -0.285 OA
ATOM      5  C   UNL     1       1.028 -18.764  10.876  1.00  0.00     0.111 A 
ATOM      6  C   UNL     1       0.949 -20.190  10.871  1.00  0.00     0.134 A 
ATOM      7  C   UNL     1       1.666 -20.918   9.914  1.00  0.00     0.093 A 
ATOM      8  C   UNL     1       2.406 -20.272   8.923  1.00  0.00     0.123 A 
ATOM      9  C   UNL     1       2.441 -18.878   8.883  1.00  0.00     0.094 A 
ATOM     10  C   UNL     1       1.766 -18.124   9.847  1.00  0.00     0.146 A 
ATOM     11  O   UNL     1       1.834 -16.800   9.779  1.00  0.00    -0.452 OA
ENDROOT
BRANCH   1  12
ATOM     12  C   UNL     1       1.380 -14.530  10.451  1.00  0.00     0.025 A 
ATOM     13  C   UNL     1       0.423 -13.632  10.955  1.00  0.00     0.016 A 
ATOM     14  C   UNL     1       0.554 -12.261  10.730  1.00  0.00     0.051 A 
ATOM     15  C   UNL     1       1.635 -11.765   9.988  1.00  0.00     0.157 A 
ATOM     16  C   UNL     1       2.450 -14.031   9.690  1.00  0.00     0.062 A 
ATOM     17  C   UNL     1       2.585 -12.657   9.463  1.00  0.00     0.158 A 
BRANCH  15  18
ATOM     18  O   UNL     1       1.763 -10.395   9.767  1.00  0.00    -0.504 OA
ATOM     19  H   UNL     1       1.693  -9.726  10.524  1.00  0.00     0.293 HD
ENDBRANCH  15  18
BRANCH  17  20
ATOM     20  O   UNL     1       3.668 -12.196   8.715  1.00  0.00    -0.504 OA
ATOM     21  H   UNL     1       3.616 -11.355   8.155  1.00  0.00     0.293 HD
ENDBRANCH  17  20
ENDBRANCH   1  12
BRANCH   2  22
ATOM     22  O   UNL     1       0.016 -15.695  12.727  1.00  0.00    -0.502 OA
ATOM     23  H   UNL     1       0.513 -15.457  13.576  1.00  0.00     0.293 HD
ENDBRANCH   2  22
BRANCH   6  24
ATOM     24  O   UNL     1       0.165 -20.931  11.759  1.00  0.00    -0.507 OA
ATOM     25  H   UNL     1       0.447 -21.800  12.187  1.00  0.00     0.293 HD
ENDBRANCH   6  24
BRANCH   8  26
ATOM     26  O   UNL     1       3.094 -21.028   7.976  1.00  0.00    -0.508 OA
ATOM     27  H   UNL     1       3.969 -21.487   8.200  1.00  0.00     0.293 HD
ENDBRANCH   8  26
TORSDOF 6
ENDMDL
MODEL 3
REMARK VINA RESULT:    -4.254      1.539      2.965
REMARK INTER + INTRA:          -5.457
REMARK INTER:                  -5.168
REMARK INTRA:                  -0.288
REMARK UNBOUND:                -0.332
REMARK SMILES O=c1c(O)c(-c2ccc(O)c(O)c2)oc2cc(O)cc(O)c12
REMARK SMILES IDX 5 1 3 2 2 3 1 4 22 5 20 6 19 7 17 8 16 9 15 10 14 11 6 12
REMARK SMILES IDX 7 13 8 14 9 15 13 16 11 17 10 18 12 20 4 22 21 24 18 26
REMARK H PARENT 10 19 12 21 4 23 21 25 18 27
REMARK Flexibility Score: inf
ROOT
ATOM      1  C   UNL     1       1.514 -16.138   9.343  1.00  0.00     0.180 A 
ATOM      2  C   UNL     1       0.715 -16.695   8.331  1.00  0.00     0.208 A 
ATOM      3  C   UNL     1       0.745 -18.084   8.126  1.00  0.00     0.238 A 
ATOM      4  O   UNL     1      -0.013 -18.583   7.254  1.00  0.00    -0.285 OA
ATOM      5  C   UNL     1       1.586 -18.895   8.925  1.00  0.00     0.111 A 
ATOM      6  C   UNL     1       1.726 -20.309   8.778  1.00  0.00     0.134 A 
ATOM      7  C   UNL     1       2.486 -21.028   9.709  1.00  0.00     0.093 A 
ATOM      8  C   UNL     1       3.163 -20.379  10.740  1.00  0.00     0.123 A 
ATOM      9  C   UNL     1       3.082 -18.991  10.857  1.00  0.00     0.094 A 
ATOM     10  C   UNL     1       2.301 -18.250   9.966  1.00  0.00     0.146 A 
ATOM     11  O   UNL     1       2.242 -16.933  10.119  1.00  0.00    -0.452 OA
ENDROOT
BRANCH   1  12
ATOM     12  C   UNL     1       1.555 -14.680   9.602  1.00  0.00     0.025 A 
ATOM     13  C   UNL     1       0.537 -14.036  10.328  1.00  0.00     0.016 A 
ATOM     14  C   UNL     1       0.585 -12.657  10.540  1.00  0.00     0.051 A 
ATOM     15  C   UNL     1       1.643 -11.897  10.020  1.00  0.00     0.157 A 
ATOM     16  C   UNL     1       2.602 -13.912   9.066  1.00  0.00     0.062 A 
ATOM     17  C   UNL     1       2.653 -12.530   9.277  1.00  0.00     0.158 A 
BRANCH  15  18
ATOM     18  O   UNL     1       1.688 -10.521  10.235  1.00  0.00    -0.504 OA
ATOM     19  H   UNL     1       2.172 -10.124  11.031  1.00  0.00     0.293 HD
ENDBRANCH  15  18
BRANCH  17  20
ATOM     20  O   UNL     1       3.715 -11.802   8.741  1.00  0.00    -0.504 OA
ATOM     21  H   UNL     1       3.571 -10.962   8.194  1.00  0.00     0.293 HD
ENDBRANCH  17  20
ENDBRANCH   1  12
BRANCH   2  22
ATOM     22  O   UNL     1      -0.124 -15.879   7.568  1.00  0.00    -0.502 OA
ATOM     23  H   UNL     1      -0.015 -15.771   6.567  1.00  0.00     0.293 HD
ENDBRANCH   2  22
BRANCH   6  24
ATOM     24  O   UNL     1       1.166 -21.044   7.729  1.00  0.00    -0.507 OA
ATOM     25  H   UNL     1       1.633 -21.248   6.858  1.00  0.00     0.293 HD
ENDBRANCH   6  24
BRANCH   8  26
ATOM     26  O   UNL     1       3.924 -21.125  11.639  1.00  0.00    -0.508 OA
ATOM     27  H   UNL     1       4.679 -20.705  12.169  1.00  0.00     0.293 HD
ENDBRANCH   8  26
TORSDOF 6
ENDMDL
MODEL 4
REMARK VINA RESULT:    -4.047      1.887      6.623
REMARK INTER + INTRA:          -5.207
REMARK INTER:                  -5.011
REMARK INTRA:                  -0.196
REMARK UNBOUND:                -0.332
REMARK SMILES O=c1c(O)c(-c2ccc(O)c(O)c2)oc2cc(O)cc(O)c12
REMARK SMILES IDX 5 1 3 2 2 3 1 4 22 5 20 6 19 7 17 8 16 9 15 10 14 11 6 12
REMARK SMILES IDX 7 13 8 14 9 15 13 16 11 17 10 18 12 20 4 22 21 24 18 26
REMARK H PARENT 10 19 12 21 4 23 21 25 18 27
REMARK Flexibility Score: inf
ROOT
ATOM      1  C   UNL     1       0.640 -15.852  10.046  1.00  0.00     0.180 A 
ATOM      2  C   UNL     1       0.404 -15.646  11.415  1.00  0.00     0.208 A 
ATOM      3  C   UNL     1       0.160 -14.342  11.875  1.00  0.00     0.238 A 
ATOM      4  O   UNL     1      -0.104 -14.171  13.094  1.00  0.00    -0.285 OA
ATOM      5  C   UNL     1       0.171 -13.260  10.963  1.00  0.00     0.111 A 
ATOM      6  C   UNL     1      -0.025 -11.892  11.326  1.00  0.00     0.134 A 
ATOM      7  C   UNL     1      -0.125 -10.920  10.323  1.00  0.00     0.093 A 
ATOM      8  C   UNL     1       0.029 -11.254   8.978  1.00  0.00     0.123 A 
ATOM      9  C   UNL     1       0.280 -12.578   8.617  1.00  0.00     0.094 A 
ATOM     10  C   UNL     1       0.348 -13.577   9.592  1.00  0.00     0.146 A 
ATOM     11  O   UNL     1       0.578 -14.826   9.206  1.00  0.00    -0.452 OA
ENDROOT
BRANCH   1  12
ATOM     12  C   UNL     1       0.930 -17.194   9.489  1.00  0.00     0.025 A 
ATOM     13  C   UNL     1       0.007 -17.860   8.664  1.00  0.00     0.016 A 
ATOM     14  C   UNL     1       0.292 -19.134   8.170  1.00  0.00     0.051 A 
ATOM     15  C   UNL     1       1.497 -19.769   8.502  1.00  0.00     0.157 A 
ATOM     16  C   UNL     1       2.127 -17.842   9.835  1.00  0.00     0.062 A 
ATOM     17  C   UNL     1       2.417 -19.119   9.342  1.00  0.00     0.158 A 
BRANCH  15  18
ATOM     18  O   UNL     1       1.779 -21.040   8.005  1.00  0.00    -0.504 OA
ATOM     19  H   UNL     1       1.215 -21.844   8.251  1.00  0.00     0.293 HD
ENDBRANCH  15  18
BRANCH  17  20
ATOM     20  O   UNL     1       3.621 -19.725   9.696  1.00  0.00    -0.504 OA
ATOM     21  H   UNL     1       3.882 -20.643   9.358  1.00  0.00     0.293 HD
ENDBRANCH  17  20
ENDBRANCH   1  12
BRANCH   2  22
ATOM     22  O   UNL     1       0.376 -16.731  12.296  1.00  0.00    -0.502 OA
ATOM     23  H   UNL     1      -0.180 -17.559  12.122  1.00  0.00     0.293 HD
ENDBRANCH   2  22
BRANCH   6  24
ATOM     24  O   UNL     1      -0.100 -11.437  12.645  1.00  0.00    -0.507 OA
ATOM     25  H   UNL     1      -0.958 -11.260  13.144  1.00  0.00     0.293 HD
ENDBRANCH   6  24
BRANCH   8  26
ATOM     26  O   UNL     1      -0.060 -10.257   8.007  1.00  0.00    -0.508 OA
ATOM     27  H   UNL     1       0.062  -9.279   8.241  1.00  0.00     0.293 HD
ENDBRANCH   8  26
TORSDOF 6
ENDMDL
MODEL 5
REMARK VINA RESULT:    -3.683      2.157      7.172
REMARK INTER + INTRA:          -4.769
REMARK INTER:                  -5.313
REMARK INTRA:                   0.543
REMARK UNBOUND:                -0.332
REMARK SMILES O=c1c(O)c(-c2ccc(O)c(O)c2)oc2cc(O)cc(O)c12
REMARK SMILES IDX 5 1 3 2 2 3 1 4 22 5 20 6 19 7 17 8 16 9 15 10 14 11 6 12
REMARK SMILES IDX 7 13 8 14 9 15 13 16 11 17 10 18 12 20 4 22 21 24 18 26
REMARK H PARENT 10 19 12 21 4 23 21 25 18 27
REMARK Flexibility Score: inf
ROOT
ATOM      1  C   UNL     1       1.356 -15.629  10.934  1.00  0.00     0.180 A 
ATOM      2  C   UNL     1       1.325 -14.851   9.764  1.00  0.00     0.208 A 
ATOM      3  C   UNL     1       0.947 -13.502   9.852  1.00  0.00     0.238 A 
ATOM      4  O   UNL     1       0.973 -12.797   8.810  1.00  0.00    -0.285 OA
ATOM      5  C   UNL     1       0.587 -12.952  11.106  1.00  0.00     0.111 A 
ATOM      6  C   UNL     1       0.149 -11.608  11.306  1.00  0.00     0.134 A 
ATOM      7  C   UNL     1      -0.054 -11.134  12.609  1.00  0.00     0.093 A 
ATOM      8  C   UNL     1       0.102 -11.973  13.712  1.00  0.00     0.123 A 
ATOM      9  C   UNL     1       0.471 -13.305  13.524  1.00  0.00     0.094 A 
ATOM     10  C   UNL     1       0.717 -13.797  12.239  1.00  0.00     0.146 A 
ATOM     11  O   UNL     1       1.077 -15.067  12.104  1.00  0.00    -0.452 OA
ENDROOT
BRANCH   1  12
ATOM     12  C   UNL     1       1.720 -17.064  10.917  1.00  0.00     0.025 A 
ATOM     13  C   UNL     1       1.733 -17.830  12.096  1.00  0.00     0.016 A 
ATOM     14  C   UNL     1       2.102 -19.176  12.060  1.00  0.00     0.051 A 
ATOM     15  C   UNL     1       2.477 -19.775  10.849  1.00  0.00     0.157 A 
ATOM     16  C   UNL     1       2.116 -17.664   9.710  1.00  0.00     0.062 A 
ATOM     17  C   UNL     1       2.486 -19.012   9.670  1.00  0.00     0.158 A 
BRANCH  15  18
ATOM     18  O   UNL     1       2.843 -21.119  10.817  1.00  0.00    -0.504 OA
ATOM     19  H   UNL     1       2.170 -21.857  10.983  1.00  0.00     0.293 HD
ENDBRANCH  15  18
BRANCH  17  20
ATOM     20  O   UNL     1       2.860 -19.576   8.451  1.00  0.00    -0.504 OA
ATOM     21  H   UNL     1       3.701 -19.296   7.963  1.00  0.00     0.293 HD
ENDBRANCH  17  20
ENDBRANCH   1  12
BRANCH   2  22
ATOM     22  O   UNL     1       1.704 -15.408   8.539  1.00  0.00    -0.502 OA
ATOM     23  H   UNL     1       1.173 -16.143   8.088  1.00  0.00     0.293 HD
ENDBRANCH   2  22
BRANCH   6  24
ATOM     24  O   UNL     1      -0.125 -10.714  10.268  1.00  0.00    -0.507 OA
ATOM     25  H   UNL     1      -0.461  -9.771  10.395  1.00  0.00     0.293 HD
ENDBRANCH   6  24
BRANCH   8  26
ATOM     26  O   UNL     1      -0.125 -11.472  14.993  1.00  0.00    -0.508 OA
ATOM     27  H   UNL     1      -0.209 -10.477  15.165  1.00  0.00     0.293 HD
ENDBRANCH   8  26
TORSDOF 6
ENDMDL
MODEL 6
REMARK VINA RESULT:    -3.456      2.413      3.664
REMARK INTER + INTRA:          -4.496
REMARK INTER:                  -4.628
REMARK INTRA:                   0.132
REMARK UNBOUND:                -0.332
REMARK SMILES O=c1c(O)c(-c2ccc(O)c(O)c2)oc2cc(O)cc(O)c12
REMARK SMILES IDX 5 1 3 2 2 3 1 4 22 5 20 6 19 7 17 8 16 9 15 10 14 11 6 12
REMARK SMILES IDX 7 13 8 14 9 15 13 16 11 17 10 18 12 20 4 22 21 24 18 26
REMARK H PARENT 10 19 12 21 4 23 21 25 18 27
REMARK Flexibility Score: inf
ROOT
ATOM      1  C   UNL     1       1.141 -15.541  11.075  1.00  0.00     0.180 A 
ATOM      2  C   UNL     1       0.577 -15.346   9.803  1.00  0.00     0.208 A 
ATOM      3  C   UNL     1       0.697 -16.362   8.842  1.00  0.00     0.238 A 
ATOM      4  O   UNL     1       0.143 -16.205   7.723  1.00  0.00    -0.285 OA
ATOM      5  C   UNL     1       1.394 -17.553   9.159  1.00  0.00     0.111 A 
ATOM      6  C   UNL     1       1.611 -18.633   8.249  1.00  0.00     0.134 A 
ATOM      7  C   UNL     1       2.199 -19.817   8.711  1.00  0.00     0.093 A 
ATOM      8  C   UNL     1       2.636 -19.938  10.029  1.00  0.00     0.123 A 
ATOM      9  C   UNL     1       2.483 -18.867  10.911  1.00  0.00     0.094 A 
ATOM     10  C   UNL     1       1.867 -17.686  10.490  1.00  0.00     0.146 A 
ATOM     11  O   UNL     1       1.731 -16.695  11.363  1.00  0.00    -0.452 OA
ENDROOT
BRANCH   1  12
ATOM     12  C   UNL     1       1.078 -14.506  12.133  1.00  0.00     0.025 A 
ATOM     13  C   UNL     1      -0.091 -13.757  12.356  1.00  0.00     0.016 A 
ATOM     14  C   UNL     1      -0.121 -12.770  13.342  1.00  0.00     0.051 A 
ATOM     15  C   UNL     1       1.021 -12.505  14.113  1.00  0.00     0.157 A 
ATOM     16  C   UNL     1       2.225 -14.223  12.893  1.00  0.00     0.062 A 
ATOM     17  C   UNL     1       2.199 -13.235  13.883  1.00  0.00     0.158 A 
BRANCH  15  18
ATOM     18  O   UNL     1       0.987 -11.521  15.098  1.00  0.00    -0.504 OA
ATOM     19  H   UNL     1       0.995 -10.535  14.865  1.00  0.00     0.293 HD
ENDBRANCH  15  18
BRANCH  17  20
ATOM     20  O   UNL     1       3.353 -12.992  14.628  1.00  0.00    -0.504 OA
ATOM     21  H   UNL     1       4.170 -12.551  14.225  1.00  0.00     0.293 HD
ENDBRANCH  17  20
ENDBRANCH   1  12
BRANCH   2  22
ATOM     22  O   UNL     1      -0.125 -14.172   9.517  1.00  0.00    -0.502 OA
ATOM     23  H   UNL     1       0.287 -13.403   9.003  1.00  0.00     0.293 HD
ENDBRANCH   2  22
BRANCH   6  24
ATOM     24  O   UNL     1       1.295 -18.582   6.889  1.00  0.00    -0.507 OA
ATOM     25  H   UNL     1       1.891 -18.919   6.148  1.00  0.00     0.293 HD
ENDBRANCH   6  24
BRANCH   8  26
ATOM     26  O   UNL     1       3.232 -21.125  10.450  1.00  0.00    -0.508 OA
ATOM     27  H   UNL     1       3.321 -21.354  11.433  1.00  0.00     0.293 HD
ENDBRANCH   8  26
TORSDOF 6
ENDMDL
MODEL 7
REMARK VINA RESULT:    -2.482      2.029      6.939
REMARK INTER + INTRA:          -3.322
REMARK INTER:                  -3.719
REMARK INTRA:                   0.398
REMARK UNBOUND:                -0.332
REMARK SMILES O=c1c(O)c(-c2ccc(O)c(O)c2)oc2cc(O)cc(O)c12
REMARK SMILES IDX 5 1 3 2 2 3 1 4 22 5 20 6 19 7 17 8 16 9 15 10 14 11 6 12
REMARK SMILES IDX 7 13 8 14 9 15 13 16 11 17 10 18 12 20 4 22 21 24 18 26
REMARK H PARENT 10 19 12 21 4 23 21 25 18 27
REMARK Flexibility Score: inf
ROOT
ATOM      1  C   UNL     1       1.144 -16.047   9.756  1.00  0.00     0.180 A 
ATOM      2  C   UNL     1       0.470 -14.943   9.207  1.00  0.00     0.208 A 
ATOM      3  C   UNL     1       0.433 -13.740   9.930  1.00  0.00     0.238 A 
ATOM      4  O   UNL     1      -0.125 -12.739   9.410  1.00  0.00    -0.285 OA
ATOM      5  C   UNL     1       1.056 -13.661  11.199  1.00  0.00     0.111 A 
ATOM      6  C   UNL     1       1.046 -12.504  12.036  1.00  0.00     0.134 A 
ATOM      7  C   UNL     1       1.806 -12.497  13.213  1.00  0.00     0.093 A 
ATOM      8  C   UNL     1       2.521 -13.624  13.615  1.00  0.00     0.123 A 
ATOM      9  C   UNL     1       2.489 -14.781  12.835  1.00  0.00     0.094 A 
ATOM     10  C   UNL     1       1.770 -14.806  11.637  1.00  0.00     0.146 A 
ATOM     11  O   UNL     1       1.774 -15.922  10.918  1.00  0.00    -0.452 OA
ENDROOT
BRANCH   1  12
ATOM     12  C   UNL     1       1.204 -17.356   9.066  1.00  0.00     0.025 A 
ATOM     13  C   UNL     1       0.350 -17.657   7.991  1.00  0.00     0.016 A 
ATOM     14  C   UNL     1       0.408 -18.907   7.370  1.00  0.00     0.051 A 
ATOM     15  C   UNL     1       1.311 -19.880   7.822  1.00  0.00     0.157 A 
ATOM     16  C   UNL     1       2.093 -18.341   9.528  1.00  0.00     0.062 A 
ATOM     17  C   UNL     1       2.154 -19.594   8.909  1.00  0.00     0.158 A 
BRANCH  15  18
ATOM     18  O   UNL     1       1.368 -21.125   7.199  1.00  0.00    -0.504 OA
ATOM     19  H   UNL     1       0.554 -21.537   6.760  1.00  0.00     0.293 HD
ENDBRANCH  15  18
BRANCH  17  20
ATOM     20  O   UNL     1       3.059 -20.542   9.386  1.00  0.00    -0.504 OA
ATOM     21  H   UNL     1       2.872 -21.536   9.339  1.00  0.00     0.293 HD
ENDBRANCH  17  20
ENDBRANCH   1  12
BRANCH   2  22
ATOM     22  O   UNL     1      -0.120 -15.035   7.944  1.00  0.00    -0.502 OA
ATOM     23  H   UNL     1      -0.916 -14.472   7.673  1.00  0.00     0.293 HD
ENDBRANCH   2  22
BRANCH   6  24
ATOM     24  O   UNL     1       0.292 -11.357  11.774  1.00  0.00    -0.507 OA
ATOM     25  H   UNL     1       0.484 -10.700  11.032  1.00  0.00     0.293 HD
ENDBRANCH   6  24
BRANCH   8  26
ATOM     26  O   UNL     1       3.253 -13.587  14.800  1.00  0.00    -0.508 OA
ATOM     27  H   UNL     1       3.047 -14.213  15.570  1.00  0.00     0.293 HD
ENDBRANCH   8  26
TORSDOF 6
ENDMDL
MODEL 8
REMARK VINA RESULT:    -2.447      2.607      3.682
REMARK INTER + INTRA:          -3.280
REMARK INTER:                  -3.138
REMARK INTRA:                  -0.142
REMARK UNBOUND:                -0.332
REMARK SMILES O=c1c(O)c(-c2ccc(O)c(O)c2)oc2cc(O)cc(O)c12
REMARK SMILES IDX 5 1 3 2 2 3 1 4 22 5 20 6 19 7 17 8 16 9 15 10 14 11 6 12
REMARK SMILES IDX 7 13 8 14 9 15 13 16 11 17 10 18 12 20 4 22 21 24 18 26
REMARK H PARENT 10 19 12 21 4 23 21 25 18 27
REMARK Flexibility Score: inf
ROOT
ATOM      1  C   UNL     1       2.117 -15.308  11.229  1.00  0.00     0.180 A 
ATOM      2  C   UNL     1       1.483 -14.743  10.109  1.00  0.00     0.208 A 
ATOM      3  C   UNL     1       0.880 -15.592   9.168  1.00  0.00     0.238 A 
ATOM      4  O   UNL     1       0.267 -15.078   8.196  1.00  0.00    -0.285 OA
ATOM      5  C   UNL     1       0.933 -16.995   9.349  1.00  0.00     0.111 A 
ATOM      6  C   UNL     1       0.390 -17.951   8.437  1.00  0.00     0.134 A 
ATOM      7  C   UNL     1       0.385 -19.308   8.782  1.00  0.00     0.093 A 
ATOM      8  C   UNL     1       0.959 -19.751   9.973  1.00  0.00     0.123 A 
ATOM      9  C   UNL     1       1.545 -18.831  10.844  1.00  0.00     0.094 A 
ATOM     10  C   UNL     1       1.534 -17.466  10.544  1.00  0.00     0.146 A 
ATOM     11  O   UNL     1       2.093 -16.623  11.404  1.00  0.00    -0.452 OA
ENDROOT
BRANCH   1  12
ATOM     12  C   UNL     1       2.797 -14.479  12.251  1.00  0.00     0.025 A 
ATOM     13  C   UNL     1       2.329 -14.420  13.576  1.00  0.00     0.016 A 
ATOM     14  C   UNL     1       2.972 -13.614  14.517  1.00  0.00     0.051 A 
ATOM     15  C   UNL     1       4.084 -12.844  14.148  1.00  0.00     0.157 A 
ATOM     16  C   UNL     1       3.899 -13.690  11.881  1.00  0.00     0.062 A 
ATOM     17  C   UNL     1       4.546 -12.882  12.822  1.00  0.00     0.158 A 
BRANCH  15  18
ATOM     18  O   UNL     1       4.724 -12.042  15.090  1.00  0.00    -0.504 OA
ATOM     19  H   UNL     1       5.652 -11.671  14.929  1.00  0.00     0.293 HD
ENDBRANCH  15  18
BRANCH  17  20
ATOM     20  O   UNL     1       5.645 -12.123  12.421  1.00  0.00    -0.504 OA
ATOM     21  H   UNL     1       5.622 -11.535  11.597  1.00  0.00     0.293 HD
ENDBRANCH  17  20
ENDBRANCH   1  12
BRANCH   2  22
ATOM     22  O   UNL     1       1.424 -13.355   9.960  1.00  0.00    -0.502 OA
ATOM     23  H   UNL     1       1.441 -12.721  10.750  1.00  0.00     0.293 HD
ENDBRANCH   2  22
BRANCH   6  24
ATOM     24  O   UNL     1      -0.125 -17.625   7.179  1.00  0.00    -0.507 OA
ATOM     25  H   UNL     1       0.302 -17.879   6.301  1.00  0.00     0.293 HD
ENDBRANCH   6  24
BRANCH   8  26
ATOM     26  O   UNL     1       0.950 -21.111  10.277  1.00  0.00    -0.508 OA
ATOM     27  H   UNL     1       0.992 -21.816   9.550  1.00  0.00     0.293 HD
ENDBRANCH   8  26
TORSDOF 6
ENDMDL
