MODEL 1
REMARK VINA RESULT:    -6.732      0.000      0.000
REMARK INTER + INTRA:          -8.190
REMARK INTER:                  -7.912
REMARK INTRA:                  -0.278
REMARK UNBOUND:                -0.278
REMARK SMILES O=c1cc(-c2ccc(O)c(O)c2)oc2cc(O)cc(O)c12
REMARK SMILES IDX 4 1 3 2 2 3 1 4 21 5 19 6 18 7 16 8 15 9 14 10 13 11 5 12
REMARK SMILES IDX 6 13 7 14 8 15 12 16 10 17 9 18 11 20 20 22 17 24
REMARK H PARENT 9 19 11 21 20 23 17 25
REMARK Flexibility Score: inf
ROOT
ATOM      1  C   UNL     1       4.859 -60.264 189.975  1.00  0.00     0.138 A 
ATOM      2  C   UNL     1       3.520 -60.568 189.695  1.00  0.00     0.100 A 
ATOM      3  C   UNL     1       3.209 -61.720 188.970  1.00  0.00     0.197 A 
ATOM      4  O   UNL     1       1.996 -61.993 188.784  1.00  0.00    -0.289 OA
ATOM      5  C   UNL     1       4.250 -62.552 188.493  1.00  0.00     0.107 A 
ATOM      6  C   UNL     1       4.055 -63.733 187.714  1.00  0.00     0.134 A 
ATOM      7  C   UNL     1       5.158 -64.531 187.384  1.00  0.00     0.093 A 
ATOM      8  C   UNL     1       6.452 -64.161 187.750  1.00  0.00     0.123 A 
ATOM      9  C   UNL     1       6.659 -62.983 188.468  1.00  0.00     0.094 A 
ATOM     10  C   UNL     1       5.577 -62.183 188.844  1.00  0.00     0.146 A 
ATOM     11  O   UNL     1       5.816 -61.079 189.543  1.00  0.00    -0.456 OA
ENDROOT
BRANCH   1  12
ATOM     12  C   UNL     1       5.246 -59.051 190.739  1.00  0.00     0.021 A 
ATOM     13  C   UNL     1       4.912 -57.782 190.235  1.00  0.00     0.016 A 
ATOM     14  C   UNL     1       5.270 -56.625 190.930  1.00  0.00     0.051 A 
ATOM     15  C   UNL     1       5.979 -56.713 192.134  1.00  0.00     0.157 A 
ATOM     16  C   UNL     1       5.971 -59.133 191.944  1.00  0.00     0.062 A 
ATOM     17  C   UNL     1       6.334 -57.974 192.640  1.00  0.00     0.158 A 
BRANCH  15  18
ATOM     18  O   UNL     1       6.335 -55.556 192.825  1.00  0.00    -0.504 OA
ATOM     19  H   UNL     1       7.285 -55.203 192.815  1.00  0.00     0.293 HD
ENDBRANCH  15  18
BRANCH  17  20
ATOM     20  O   UNL     1       7.049 -58.097 193.831  1.00  0.00    -0.504 OA
ATOM     21  H   UNL     1       7.747 -57.417 194.113  1.00  0.00     0.293 HD
ENDBRANCH  17  20
ENDBRANCH   1  12
BRANCH   6  22
ATOM     22  O   UNL     1       2.815 -64.154 187.225  1.00  0.00    -0.507 OA
ATOM     23  H   UNL     1       1.926 -63.966 187.662  1.00  0.00     0.293 HD
ENDBRANCH   6  22
BRANCH   8  24
ATOM     24  O   UNL     1       7.526 -64.971 187.389  1.00  0.00    -0.508 OA
ATOM     25  H   UNL     1       7.836 -65.734 187.978  1.00  0.00     0.293 HD
ENDBRANCH   8  24
TORSDOF 5
ENDMDL
MODEL 2
REMARK VINA RESULT:    -6.700      2.192      6.795
REMARK INTER + INTRA:          -8.153
REMARK INTER:                  -7.837
REMARK INTRA:                  -0.315
REMARK UNBOUND:                -0.278
REMARK SMILES O=c1cc(-c2ccc(O)c(O)c2)oc2cc(O)cc(O)c12
REMARK SMILES IDX 4 1 3 2 2 3 1 4 21 5 19 6 18 7 16 8 15 9 14 10 13 11 5 12
REMARK SMILES IDX 6 13 7 14 8 15 12 16 10 17 9 18 11 20 20 22 17 24
REMARK H PARENT 9 19 11 21 20 23 17 25
REMARK Flexibility Score: inf
ROOT
ATOM      1  C   UNL     1       5.321 -60.324 190.785  1.00  0.00     0.138 A 
ATOM      2  C   UNL     1       3.953 -60.071 190.609  1.00  0.00     0.100 A 
ATOM      3  C   UNL     1       3.333 -59.074 191.364  1.00  0.00     0.197 A 
ATOM      4  O   UNL     1       2.119 -58.834 191.144  1.00  0.00    -0.289 OA
ATOM      5  C   UNL     1       4.080 -58.354 192.327  1.00  0.00     0.107 A 
ATOM      6  C   UNL     1       3.546 -57.340 193.179  1.00  0.00     0.134 A 
ATOM      7  C   UNL     1       4.406 -56.626 194.024  1.00  0.00     0.093 A 
ATOM      8  C   UNL     1       5.766 -56.928 194.092  1.00  0.00     0.123 A 
ATOM      9  C   UNL     1       6.289 -57.950 193.300  1.00  0.00     0.094 A 
ATOM     10  C   UNL     1       5.465 -58.658 192.421  1.00  0.00     0.146 A 
ATOM     11  O   UNL     1       6.007 -59.612 191.672  1.00  0.00    -0.456 OA
ENDROOT
BRANCH   1  12
ATOM     12  C   UNL     1       6.031 -61.374 190.010  1.00  0.00     0.021 A 
ATOM     13  C   UNL     1       5.400 -61.957 188.898  1.00  0.00     0.016 A 
ATOM     14  C   UNL     1       6.042 -62.951 188.157  1.00  0.00     0.051 A 
ATOM     15  C   UNL     1       7.322 -63.389 188.520  1.00  0.00     0.157 A 
ATOM     16  C   UNL     1       7.313 -61.828 190.379  1.00  0.00     0.062 A 
ATOM     17  C   UNL     1       7.957 -62.826 189.638  1.00  0.00     0.158 A 
BRANCH  15  18
ATOM     18  O   UNL     1       7.960 -64.381 187.778  1.00  0.00    -0.504 OA
ATOM     19  H   UNL     1       8.027 -65.335 188.114  1.00  0.00     0.293 HD
ENDBRANCH  15  18
BRANCH  17  20
ATOM     20  O   UNL     1       9.227 -63.247 190.034  1.00  0.00    -0.504 OA
ATOM     21  H   UNL     1       9.813 -63.821 189.438  1.00  0.00     0.293 HD
ENDBRANCH  17  20
ENDBRANCH   1  12
BRANCH   6  22
ATOM     22  O   UNL     1       2.189 -57.011 193.251  1.00  0.00    -0.507 OA
ATOM     23  H   UNL     1       1.771 -56.185 192.853  1.00  0.00     0.293 HD
ENDBRANCH   6  22
BRANCH   8  24
ATOM     24  O   UNL     1       6.587 -56.207 194.956  1.00  0.00    -0.508 OA
ATOM     25  H   UNL     1       6.719 -56.489 195.920  1.00  0.00     0.293 HD
ENDBRANCH   8  24
TORSDOF 5
ENDMDL
MODEL 3
REMARK VINA RESULT:    -6.666      1.445      3.135
REMARK INTER + INTRA:          -8.112
REMARK INTER:                  -7.810
REMARK INTRA:                  -0.302
REMARK UNBOUND:                -0.278
REMARK SMILES O=c1cc(-c2ccc(O)c(O)c2)oc2cc(O)cc(O)c12
REMARK SMILES IDX 4 1 3 2 2 3 1 4 21 5 19 6 18 7 16 8 15 9 14 10 13 11 5 12
REMARK SMILES IDX 6 13 7 14 8 15 12 16 10 17 9 18 11 20 20 22 17 24
REMARK H PARENT 9 19 11 21 20 23 17 25
REMARK Flexibility Score: inf
ROOT
ATOM      1  C   UNL     1       5.571 -61.034 189.889  1.00  0.00     0.138 A 
ATOM      2  C   UNL     1       6.855 -61.588 189.786  1.00  0.00     0.100 A 
ATOM      3  C   UNL     1       7.057 -62.721 188.997  1.00  0.00     0.197 A 
ATOM      4  O   UNL     1       8.229 -63.160 188.881  1.00  0.00    -0.289 OA
ATOM      5  C   UNL     1       5.959 -63.323 188.337  1.00  0.00     0.107 A 
ATOM      6  C   UNL     1       6.039 -64.501 187.533  1.00  0.00     0.134 A 
ATOM      7  C   UNL     1       4.901 -64.946 186.847  1.00  0.00     0.093 A 
ATOM      8  C   UNL     1       3.676 -64.295 186.983  1.00  0.00     0.123 A 
ATOM      9  C   UNL     1       3.575 -63.172 187.805  1.00  0.00     0.094 A 
ATOM     10  C   UNL     1       4.698 -62.682 188.475  1.00  0.00     0.146 A 
ATOM     11  O   UNL     1       4.563 -61.599 189.234  1.00  0.00    -0.456 OA
ENDROOT
BRANCH   1  12
ATOM     12  C   UNL     1       5.299 -59.832 190.717  1.00  0.00     0.021 A 
ATOM     13  C   UNL     1       6.004 -59.646 191.919  1.00  0.00     0.016 A 
ATOM     14  C   UNL     1       5.761 -58.529 192.720  1.00  0.00     0.051 A 
ATOM     15  C   UNL     1       4.803 -57.581 192.341  1.00  0.00     0.157 A 
ATOM     16  C   UNL     1       4.326 -58.882 190.348  1.00  0.00     0.062 A 
ATOM     17  C   UNL     1       4.080 -57.762 191.151  1.00  0.00     0.158 A 
BRANCH  15  18
ATOM     18  O   UNL     1       4.564 -56.466 193.142  1.00  0.00    -0.504 OA
ATOM     19  H   UNL     1       3.670 -55.988 193.134  1.00  0.00     0.293 HD
ENDBRANCH  15  18
BRANCH  17  20
ATOM     20  O   UNL     1       3.110 -56.843 190.750  1.00  0.00    -0.504 OA
ATOM     21  H   UNL     1       3.226 -55.845 190.886  1.00  0.00     0.293 HD
ENDBRANCH  17  20
ENDBRANCH   1  12
BRANCH   6  22
ATOM     22  O   UNL     1       7.194 -65.276 187.391  1.00  0.00    -0.507 OA
ATOM     23  H   UNL     1       7.214 -66.283 187.354  1.00  0.00     0.293 HD
ENDBRANCH   6  22
BRANCH   8  24
ATOM     24  O   UNL     1       2.562 -64.777 186.299  1.00  0.00    -0.508 OA
ATOM     25  H   UNL     1       2.655 -65.297 185.435  1.00  0.00     0.293 HD
ENDBRANCH   8  24
TORSDOF 5
ENDMDL
MODEL 4
REMARK VINA RESULT:    -6.434      1.659      6.834
REMARK INTER + INTRA:          -7.840
REMARK INTER:                  -7.548
REMARK INTRA:                  -0.292
REMARK UNBOUND:                -0.278
REMARK SMILES O=c1cc(-c2ccc(O)c(O)c2)oc2cc(O)cc(O)c12
REMARK SMILES IDX 4 1 3 2 2 3 1 4 21 5 19 6 18 7 16 8 15 9 14 10 13 11 5 12
REMARK SMILES IDX 6 13 7 14 8 15 12 16 10 17 9 18 11 20 20 22 17 24
REMARK H PARENT 9 19 11 21 20 23 17 25
REMARK Flexibility Score: inf
ROOT
ATOM      1  C   UNL     1       5.183 -60.918 189.929  1.00  0.00     0.138 A 
ATOM      2  C   UNL     1       3.894 -60.450 189.636  1.00  0.00     0.100 A 
ATOM      3  C   UNL     1       3.366 -59.381 190.361  1.00  0.00     0.197 A 
ATOM      4  O   UNL     1       2.231 -58.949 190.038  1.00  0.00    -0.289 OA
ATOM      5  C   UNL     1       4.120 -58.802 191.410  1.00  0.00     0.107 A 
ATOM      6  C   UNL     1       3.671 -57.730 192.240  1.00  0.00     0.134 A 
ATOM      7  C   UNL     1       4.546 -57.174 193.182  1.00  0.00     0.093 A 
ATOM      8  C   UNL     1       5.830 -57.687 193.366  1.00  0.00     0.123 A 
ATOM      9  C   UNL     1       6.262 -58.766 192.594  1.00  0.00     0.094 A 
ATOM     10  C   UNL     1       5.426 -59.321 191.622  1.00  0.00     0.146 A 
ATOM     11  O   UNL     1       5.883 -60.337 190.897  1.00  0.00    -0.456 OA
ENDROOT
BRANCH   1  12
ATOM     12  C   UNL     1       5.792 -62.054 189.191  1.00  0.00     0.021 A 
ATOM     13  C   UNL     1       7.190 -62.195 189.173  1.00  0.00     0.016 A 
ATOM     14  C   UNL     1       7.789 -63.249 188.481  1.00  0.00     0.051 A 
ATOM     15  C   UNL     1       7.003 -64.177 187.785  1.00  0.00     0.157 A 
ATOM     16  C   UNL     1       5.007 -62.982 188.479  1.00  0.00     0.062 A 
ATOM     17  C   UNL     1       5.606 -64.038 187.782  1.00  0.00     0.158 A 
BRANCH  15  18
ATOM     18  O   UNL     1       7.604 -65.228 187.096  1.00  0.00    -0.504 OA
ATOM     19  H   UNL     1       8.581 -65.197 186.827  1.00  0.00     0.293 HD
ENDBRANCH  15  18
BRANCH  17  20
ATOM     20  O   UNL     1       4.795 -64.937 187.090  1.00  0.00    -0.504 OA
ATOM     21  H   UNL     1       5.148 -65.819 186.736  1.00  0.00     0.293 HD
ENDBRANCH  17  20
ENDBRANCH   1  12
BRANCH   6  22
ATOM     22  O   UNL     1       2.381 -57.194 192.198  1.00  0.00    -0.507 OA
ATOM     23  H   UNL     1       2.038 -56.461 192.799  1.00  0.00     0.293 HD
ENDBRANCH   6  22
BRANCH   8  24
ATOM     24  O   UNL     1       6.667 -57.118 194.323  1.00  0.00    -0.508 OA
ATOM     25  H   UNL     1       6.997 -56.165 194.240  1.00  0.00     0.293 HD
ENDBRANCH   8  24
TORSDOF 5
ENDMDL
MODEL 5
REMARK VINA RESULT:    -6.261      2.151      2.613
REMARK INTER + INTRA:          -7.637
REMARK INTER:                  -7.343
REMARK INTRA:                  -0.294
REMARK UNBOUND:                -0.278
REMARK SMILES O=c1cc(-c2ccc(O)c(O)c2)oc2cc(O)cc(O)c12
REMARK SMILES IDX 4 1 3 2 2 3 1 4 21 5 19 6 18 7 16 8 15 9 14 10 13 11 5 12
REMARK SMILES IDX 6 13 7 14 8 15 12 16 10 17 9 18 11 20 20 22 17 24
REMARK H PARENT 9 19 11 21 20 23 17 25
REMARK Flexibility Score: inf
ROOT
ATOM      1  C   UNL     1       4.915 -59.354 191.537  1.00  0.00     0.138 A 
ATOM      2  C   UNL     1       3.945 -59.662 190.573  1.00  0.00     0.100 A 
ATOM      3  C   UNL     1       4.198 -60.664 189.634  1.00  0.00     0.197 A 
ATOM      4  O   UNL     1       3.287 -60.954 188.818  1.00  0.00    -0.289 OA
ATOM      5  C   UNL     1       5.444 -61.335 189.641  1.00  0.00     0.107 A 
ATOM      6  C   UNL     1       5.827 -62.350 188.712  1.00  0.00     0.134 A 
ATOM      7  C   UNL     1       7.049 -63.013 188.880  1.00  0.00     0.093 A 
ATOM      8  C   UNL     1       7.927 -62.660 189.904  1.00  0.00     0.123 A 
ATOM      9  C   UNL     1       7.585 -61.636 190.788  1.00  0.00     0.094 A 
ATOM     10  C   UNL     1       6.358 -60.979 190.669  1.00  0.00     0.146 A 
ATOM     11  O   UNL     1       6.064 -60.022 191.542  1.00  0.00    -0.456 OA
ENDROOT
BRANCH   1  12
ATOM     12  C   UNL     1       4.700 -58.296 192.556  1.00  0.00     0.021 A 
ATOM     13  C   UNL     1       3.453 -58.198 193.198  1.00  0.00     0.016 A 
ATOM     14  C   UNL     1       3.223 -57.207 194.155  1.00  0.00     0.051 A 
ATOM     15  C   UNL     1       4.229 -56.290 194.481  1.00  0.00     0.157 A 
ATOM     16  C   UNL     1       5.705 -57.363 192.879  1.00  0.00     0.062 A 
ATOM     17  C   UNL     1       5.474 -56.367 193.837  1.00  0.00     0.158 A 
BRANCH  15  18
ATOM     18  O   UNL     1       3.996 -55.303 195.437  1.00  0.00    -0.504 OA
ATOM     19  H   UNL     1       3.585 -54.410 195.189  1.00  0.00     0.293 HD
ENDBRANCH  15  18
BRANCH  17  20
ATOM     20  O   UNL     1       6.494 -55.462 194.130  1.00  0.00    -0.504 OA
ATOM     21  H   UNL     1       7.438 -55.766 194.342  1.00  0.00     0.293 HD
ENDBRANCH  17  20
ENDBRANCH   1  12
BRANCH   6  22
ATOM     22  O   UNL     1       5.062 -62.727 187.604  1.00  0.00    -0.507 OA
ATOM     23  H   UNL     1       4.453 -62.114 187.084  1.00  0.00     0.293 HD
ENDBRANCH   6  22
BRANCH   8  24
ATOM     24  O   UNL     1       9.142 -63.331 190.030  1.00  0.00    -0.508 OA
ATOM     25  H   UNL     1       9.242 -64.137 190.635  1.00  0.00     0.293 HD
ENDBRANCH   8  24
TORSDOF 5
ENDMDL
MODEL 6
REMARK VINA RESULT:    -5.978      9.499     11.510
REMARK INTER + INTRA:          -7.304
REMARK INTER:                  -7.008
REMARK INTRA:                  -0.296
REMARK UNBOUND:                -0.278
REMARK SMILES O=c1cc(-c2ccc(O)c(O)c2)oc2cc(O)cc(O)c12
REMARK SMILES IDX 4 1 3 2 2 3 1 4 21 5 19 6 18 7 16 8 15 9 14 10 13 11 5 12
REMARK SMILES IDX 6 13 7 14 8 15 12 16 10 17 9 18 11 20 20 22 17 24
REMARK H PARENT 9 19 11 21 20 23 17 25
REMARK Flexibility Score: inf
ROOT
ATOM      1  C   UNL     1      10.951 -56.478 197.336  1.00  0.00     0.138 A 
ATOM      2  C   UNL     1       9.939 -56.182 196.412  1.00  0.00     0.100 A 
ATOM      3  C   UNL     1      10.276 -55.668 195.159  1.00  0.00     0.197 A 
ATOM      4  O   UNL     1       9.350 -55.465 194.333  1.00  0.00    -0.289 OA
ATOM      5  C   UNL     1      11.633 -55.415 194.844  1.00  0.00     0.107 A 
ATOM      6  C   UNL     1      12.093 -54.861 193.611  1.00  0.00     0.134 A 
ATOM      7  C   UNL     1      13.469 -54.749 193.376  1.00  0.00     0.093 A 
ATOM      8  C   UNL     1      14.399 -55.115 194.349  1.00  0.00     0.123 A 
ATOM      9  C   UNL     1      13.960 -55.612 195.576  1.00  0.00     0.094 A 
ATOM     10  C   UNL     1      12.595 -55.768 195.829  1.00  0.00     0.146 A 
ATOM     11  O   UNL     1      12.219 -56.262 197.004  1.00  0.00    -0.456 OA
ENDROOT
BRANCH   1  12
ATOM     12  C   UNL     1      10.649 -57.023 198.683  1.00  0.00     0.021 A 
ATOM     13  C   UNL     1       9.570 -56.498 199.415  1.00  0.00     0.016 A 
ATOM     14  C   UNL     1       9.269 -56.987 200.688  1.00  0.00     0.051 A 
ATOM     15  C   UNL     1      10.046 -58.003 201.257  1.00  0.00     0.157 A 
ATOM     16  C   UNL     1      11.435 -58.035 199.267  1.00  0.00     0.062 A 
ATOM     17  C   UNL     1      11.137 -58.526 200.544  1.00  0.00     0.158 A 
BRANCH  15  18
ATOM     18  O   UNL     1       9.743 -58.490 202.527  1.00  0.00    -0.504 OA
ATOM     19  H   UNL     1       8.790 -58.514 202.873  1.00  0.00     0.293 HD
ENDBRANCH  15  18
BRANCH  17  20
ATOM     20  O   UNL     1      11.938 -59.530 201.087  1.00  0.00    -0.504 OA
ATOM     21  H   UNL     1      11.565 -60.242 201.704  1.00  0.00     0.293 HD
ENDBRANCH  17  20
ENDBRANCH   1  12
BRANCH   6  22
ATOM     22  O   UNL     1      11.249 -54.388 192.602  1.00  0.00    -0.507 OA
ATOM     23  H   UNL     1      11.332 -54.616 191.623  1.00  0.00     0.293 HD
ENDBRANCH   6  22
BRANCH   8  24
ATOM     24  O   UNL     1      15.760 -54.975 194.085  1.00  0.00    -0.508 OA
ATOM     25  H   UNL     1      16.235 -54.089 194.210  1.00  0.00     0.293 HD
ENDBRANCH   8  24
TORSDOF 5
ENDMDL
MODEL 7
REMARK VINA RESULT:    -5.672      9.884     12.263
REMARK INTER + INTRA:          -6.945
REMARK INTER:                  -6.671
REMARK INTRA:                  -0.274
REMARK UNBOUND:                -0.278
REMARK SMILES O=c1cc(-c2ccc(O)c(O)c2)oc2cc(O)cc(O)c12
REMARK SMILES IDX 4 1 3 2 2 3 1 4 21 5 19 6 18 7 16 8 15 9 14 10 13 11 5 12
REMARK SMILES IDX 6 13 7 14 8 15 12 16 10 17 9 18 11 20 20 22 17 24
REMARK H PARENT 9 19 11 21 20 23 17 25
REMARK Flexibility Score: inf
ROOT
ATOM      1  C   UNL     1      11.952 -56.190 197.768  1.00  0.00     0.138 A 
ATOM      2  C   UNL     1      13.320 -55.897 197.677  1.00  0.00     0.100 A 
ATOM      3  C   UNL     1      13.819 -55.281 196.528  1.00  0.00     0.197 A 
ATOM      4  O   UNL     1      15.040 -54.980 196.501  1.00  0.00    -0.289 OA
ATOM      5  C   UNL     1      12.948 -54.991 195.451  1.00  0.00     0.107 A 
ATOM      6  C   UNL     1      13.350 -54.395 194.217  1.00  0.00     0.134 A 
ATOM      7  C   UNL     1      12.380 -54.064 193.262  1.00  0.00     0.093 A 
ATOM      8  C   UNL     1      11.033 -54.360 193.470  1.00  0.00     0.123 A 
ATOM      9  C   UNL     1      10.635 -54.986 194.651  1.00  0.00     0.094 A 
ATOM     10  C   UNL     1      11.573 -55.298 195.638  1.00  0.00     0.146 A 
ATOM     11  O   UNL     1      11.150 -55.878 196.756  1.00  0.00    -0.456 OA
ENDROOT
BRANCH   1  12
ATOM     12  C   UNL     1      11.368 -56.848 198.965  1.00  0.00     0.021 A 
ATOM     13  C   UNL     1      10.243 -56.278 199.586  1.00  0.00     0.016 A 
ATOM     14  C   UNL     1       9.679 -56.872 200.716  1.00  0.00     0.051 A 
ATOM     15  C   UNL     1      10.234 -58.040 201.254  1.00  0.00     0.157 A 
ATOM     16  C   UNL     1      11.931 -58.015 199.518  1.00  0.00     0.062 A 
ATOM     17  C   UNL     1      11.367 -58.610 200.654  1.00  0.00     0.158 A 
BRANCH  15  18
ATOM     18  O   UNL     1       9.668 -58.630 202.383  1.00  0.00    -0.504 OA
ATOM     19  H   UNL     1      10.226 -58.867 203.195  1.00  0.00     0.293 HD
ENDBRANCH  15  18
BRANCH  17  20
ATOM     20  O   UNL     1      11.952 -59.766 201.171  1.00  0.00    -0.504 OA
ATOM     21  H   UNL     1      11.820 -60.051 202.134  1.00  0.00     0.293 HD
ENDBRANCH  17  20
ENDBRANCH   1  12
BRANCH   6  22
ATOM     22  O   UNL     1      14.679 -54.130 193.871  1.00  0.00    -0.507 OA
ATOM     23  H   UNL     1      15.312 -54.793 193.453  1.00  0.00     0.293 HD
ENDBRANCH   6  22
BRANCH   8  24
ATOM     24  O   UNL     1      10.098 -54.030 192.491  1.00  0.00    -0.508 OA
ATOM     25  H   UNL     1       9.480 -54.727 192.093  1.00  0.00     0.293 HD
ENDBRANCH   8  24
TORSDOF 5
ENDMDL
MODEL 8
REMARK VINA RESULT:    -5.626      9.955     11.828
REMARK INTER + INTRA:          -6.890
REMARK INTER:                  -6.598
REMARK INTRA:                  -0.292
REMARK UNBOUND:                -0.278
REMARK SMILES O=c1cc(-c2ccc(O)c(O)c2)oc2cc(O)cc(O)c12
REMARK SMILES IDX 4 1 3 2 2 3 1 4 21 5 19 6 18 7 16 8 15 9 14 10 13 11 5 12
REMARK SMILES IDX 6 13 7 14 8 15 12 16 10 17 9 18 11 20 20 22 17 24
REMARK H PARENT 9 19 11 21 20 23 17 25
REMARK Flexibility Score: inf
ROOT
ATOM      1  C   UNL     1      11.852 -55.808 196.533  1.00  0.00     0.138 A 
ATOM      2  C   UNL     1      10.553 -55.617 196.042  1.00  0.00     0.100 A 
ATOM      3  C   UNL     1       9.461 -56.090 196.772  1.00  0.00     0.197 A 
ATOM      4  O   UNL     1       8.307 -55.854 196.332  1.00  0.00    -0.289 OA
ATOM      5  C   UNL     1       9.676 -56.791 197.983  1.00  0.00     0.107 A 
ATOM      6  C   UNL     1       8.641 -57.349 198.794  1.00  0.00     0.134 A 
ATOM      7  C   UNL     1       8.970 -57.934 200.024  1.00  0.00     0.093 A 
ATOM      8  C   UNL     1      10.296 -58.036 200.444  1.00  0.00     0.123 A 
ATOM      9  C   UNL     1      11.319 -57.538 199.635  1.00  0.00     0.094 A 
ATOM     10  C   UNL     1      11.022 -56.917 198.420  1.00  0.00     0.146 A 
ATOM     11  O   UNL     1      12.024 -56.441 197.689  1.00  0.00    -0.456 OA
ENDROOT
BRANCH   1  12
ATOM     12  C   UNL     1      13.049 -55.329 195.797  1.00  0.00     0.021 A 
ATOM     13  C   UNL     1      14.252 -55.124 196.494  1.00  0.00     0.016 A 
ATOM     14  C   UNL     1      15.390 -54.666 195.827  1.00  0.00     0.051 A 
ATOM     15  C   UNL     1      15.345 -54.395 194.453  1.00  0.00     0.157 A 
ATOM     16  C   UNL     1      13.005 -55.042 194.418  1.00  0.00     0.062 A 
ATOM     17  C   UNL     1      14.145 -54.581 193.748  1.00  0.00     0.158 A 
BRANCH  15  18
ATOM     18  O   UNL     1      16.483 -53.939 193.791  1.00  0.00    -0.504 OA
ATOM     19  H   UNL     1      17.348 -53.755 194.286  1.00  0.00     0.293 HD
ENDBRANCH  15  18
BRANCH  17  20
ATOM     20  O   UNL     1      14.063 -54.310 192.383  1.00  0.00    -0.504 OA
ATOM     21  H   UNL     1      13.212 -54.465 191.854  1.00  0.00     0.293 HD
ENDBRANCH  17  20
ENDBRANCH   1  12
BRANCH   6  22
ATOM     22  O   UNL     1       7.291 -57.375 198.434  1.00  0.00    -0.507 OA
ATOM     23  H   UNL     1       6.769 -56.586 198.085  1.00  0.00     0.293 HD
ENDBRANCH   6  22
BRANCH   8  24
ATOM     24  O   UNL     1      10.585 -58.639 201.665  1.00  0.00    -0.508 OA
ATOM     25  H   UNL     1      11.482 -59.076 201.841  1.00  0.00     0.293 HD
ENDBRANCH   8  24
TORSDOF 5
ENDMDL
MODEL 9
REMARK VINA RESULT:    -5.578      1.806      7.336
REMARK INTER + INTRA:          -6.834
REMARK INTER:                  -6.537
REMARK INTRA:                  -0.297
REMARK UNBOUND:                -0.278
REMARK SMILES O=c1cc(-c2ccc(O)c(O)c2)oc2cc(O)cc(O)c12
REMARK SMILES IDX 4 1 3 2 2 3 1 4 21 5 19 6 18 7 16 8 15 9 14 10 13 11 5 12
REMARK SMILES IDX 6 13 7 14 8 15 12 16 10 17 9 18 11 20 20 22 17 24
REMARK H PARENT 9 19 11 21 20 23 17 25
REMARK Flexibility Score: inf
ROOT
ATOM      1  C   UNL     1       4.383 -60.818 189.677  1.00  0.00     0.138 A 
ATOM      2  C   UNL     1       5.514 -60.887 190.502  1.00  0.00     0.100 A 
ATOM      3  C   UNL     1       5.779 -59.851 191.400  1.00  0.00     0.197 A 
ATOM      4  O   UNL     1       6.770 -59.969 192.165  1.00  0.00    -0.289 OA
ATOM      5  C   UNL     1       4.924 -58.723 191.444  1.00  0.00     0.107 A 
ATOM      6  C   UNL     1       5.113 -57.592 192.295  1.00  0.00     0.134 A 
ATOM      7  C   UNL     1       4.145 -56.580 192.321  1.00  0.00     0.093 A 
ATOM      8  C   UNL     1       3.028 -56.628 191.489  1.00  0.00     0.123 A 
ATOM      9  C   UNL     1       2.858 -57.705 190.618  1.00  0.00     0.094 A 
ATOM     10  C   UNL     1       3.788 -58.747 190.592  1.00  0.00     0.146 A 
ATOM     11  O   UNL     1       3.579 -59.763 189.761  1.00  0.00    -0.456 OA
ENDROOT
BRANCH   1  12
ATOM     12  C   UNL     1       4.056 -61.889 188.702  1.00  0.00     0.021 A 
ATOM     13  C   UNL     1       2.845 -61.829 187.991  1.00  0.00     0.016 A 
ATOM     14  C   UNL     1       2.510 -62.827 187.074  1.00  0.00     0.051 A 
ATOM     15  C   UNL     1       3.372 -63.909 186.858  1.00  0.00     0.157 A 
ATOM     16  C   UNL     1       4.914 -62.986 188.491  1.00  0.00     0.062 A 
ATOM     17  C   UNL     1       4.578 -63.989 187.573  1.00  0.00     0.158 A 
BRANCH  15  18
ATOM     18  O   UNL     1       3.035 -64.903 185.942  1.00  0.00    -0.504 OA
ATOM     19  H   UNL     1       3.595 -65.076 185.115  1.00  0.00     0.293 HD
ENDBRANCH  15  18
BRANCH  17  20
ATOM     20  O   UNL     1       5.454 -65.059 187.391  1.00  0.00    -0.504 OA
ATOM     21  H   UNL     1       5.123 -66.003 187.223  1.00  0.00     0.293 HD
ENDBRANCH  17  20
ENDBRANCH   1  12
BRANCH   6  22
ATOM     22  O   UNL     1       6.234 -57.402 193.109  1.00  0.00    -0.507 OA
ATOM     23  H   UNL     1       6.338 -56.664 193.788  1.00  0.00     0.293 HD
ENDBRANCH   6  22
BRANCH   8  24
ATOM     24  O   UNL     1       2.094 -55.595 191.531  1.00  0.00    -0.508 OA
ATOM     25  H   UNL     1       2.317 -54.665 191.198  1.00  0.00     0.293 HD
ENDBRANCH   8  24
TORSDOF 5
ENDMDL
