MODEL 1
REMARK VINA RESULT:    -4.255      0.000      0.000
REMARK INTER + INTRA:         -15.514
REMARK INTER:                 -11.221
REMARK INTRA:                  -4.294
REMARK UNBOUND:                -4.294
REMARK SMILES CCCCCCCCCCCCCCCCCCCCCCCCCCCCCC(=O)[O-]
REMARK SMILES IDX 16 1 17 2 18 3 19 4 20 5 21 6 22 7 23 8 24 9 25 10 26 11
REMARK SMILES IDX 27 12 28 13 29 14 30 15 31 16 32 17 15 18 14 19 13 20 12 21
REMARK SMILES IDX 11 22 10 23 9 24 8 25 7 26 6 27 5 28 4 29 3 30 2 31 1 32
REMARK H PARENT
REMARK Flexibility Score: inf
ROOT
ATOM      1  C   UNL     1      12.649  16.267  17.251  1.00  0.00     0.000 C 
ENDROOT
BRANCH   1   2
ATOM      2  C   UNL     1      14.149  16.592  17.323  1.00  0.00     0.000 C 
BRANCH   2   3
ATOM      3  C   UNL     1      14.867  16.174  16.031  1.00  0.00     0.000 C 
BRANCH   3   4
ATOM      4  C   UNL     1      16.253  16.826  15.873  1.00  0.00     0.000 C 
BRANCH   4   5
ATOM      5  C   UNL     1      16.400  17.774  14.669  1.00  0.00     0.000 C 
BRANCH   5   6
ATOM      6  C   UNL     1      16.121  19.244  15.023  1.00  0.00     0.000 C 
BRANCH   6   7
ATOM      7  C   UNL     1      14.637  19.628  14.872  1.00  0.00     0.000 C 
BRANCH   7   8
ATOM      8  C   UNL     1      13.927  20.042  16.175  1.00  0.00     0.000 C 
BRANCH   8   9
ATOM      9  C   UNL     1      14.906  20.451  17.289  1.00  0.00     0.000 C 
BRANCH   9  10
ATOM     10  C   UNL     1      14.457  19.955  18.681  1.00  0.00     0.000 C 
BRANCH  10  11
ATOM     11  C   UNL     1      15.621  19.605  19.626  1.00  0.00     0.000 C 
BRANCH  11  12
ATOM     12  C   UNL     1      16.492  18.414  19.181  1.00  0.00     0.000 C 
BRANCH  12  13
ATOM     13  C   UNL     1      18.012  18.667  19.223  1.00  0.00     0.006 C 
BRANCH  13  14
ATOM     14  C   UNL     1      18.584  19.096  17.867  1.00  0.00     0.053 C 
BRANCH  14  15
ATOM     15  C   UNL     1      19.501  18.041  17.332  1.00  0.00     0.041 C 
ATOM     16  O   UNL     1      20.124  17.283  18.122  1.00  0.00    -0.550 OA
ATOM     17  O   UNL     1      19.706  17.929  15.962  1.00  0.00    -0.550 OA
ENDBRANCH  14  15
ENDBRANCH  13  14
ENDBRANCH  12  13
ENDBRANCH  11  12
ENDBRANCH  10  11
ENDBRANCH   9  10
ENDBRANCH   8   9
ENDBRANCH   7   8
ENDBRANCH   6   7
ENDBRANCH   5   6
ENDBRANCH   4   5
ENDBRANCH   3   4
ENDBRANCH   2   3
ENDBRANCH   1   2
BRANCH   1  18
ATOM     18  C   UNL     1      12.151  16.031  15.812  1.00  0.00     0.000 C 
BRANCH  18  19
ATOM     19  C   UNL     1      11.061  17.007  15.333  1.00  0.00     0.000 C 
BRANCH  19  20
ATOM     20  C   UNL     1      11.488  17.829  14.107  1.00  0.00     0.000 C 
BRANCH  20  21
ATOM     21  C   UNL     1      10.361  17.872  13.063  1.00  0.00     0.000 C 
BRANCH  21  22
ATOM     22  C   UNL     1      10.277  16.589  12.223  1.00  0.00     0.000 C 
BRANCH  22  23
ATOM     23  C   UNL     1       8.826  16.150  11.953  1.00  0.00     0.000 C 
BRANCH  23  24
ATOM     24  C   UNL     1       8.487  16.136  10.453  1.00  0.00    -0.000 C 
BRANCH  24  25
ATOM     25  C   UNL     1       7.501  17.246  10.060  1.00  0.00    -0.000 C 
BRANCH  25  26
ATOM     26  C   UNL     1       8.233  18.581   9.850  1.00  0.00    -0.000 C 
BRANCH  26  27
ATOM     27  C   UNL     1       9.522  18.436   9.021  1.00  0.00    -0.000 C 
BRANCH  27  28
ATOM     28  C   UNL     1      10.744  19.179   9.590  1.00  0.00    -0.000 C 
BRANCH  28  29
ATOM     29  C   UNL     1      11.592  19.858   8.499  1.00  0.00    -0.000 C 
BRANCH  29  30
ATOM     30  C   UNL     1      11.456  19.169   7.132  1.00  0.00    -0.000 C 
BRANCH  30  31
ATOM     31  C   UNL     1      12.806  19.009   6.417  1.00  0.00    -0.003 C 
ATOM     32  C   UNL     1      13.967  19.131   7.399  1.00  0.00     0.004 C 
ENDBRANCH  30  31
ENDBRANCH  29  30
ENDBRANCH  28  29
ENDBRANCH  27  28
ENDBRANCH  26  27
ENDBRANCH  25  26
ENDBRANCH  24  25
ENDBRANCH  23  24
ENDBRANCH  22  23
ENDBRANCH  21  22
ENDBRANCH  20  21
ENDBRANCH  19  20
ENDBRANCH  18  19
ENDBRANCH   1  18
TORSDOF 28
ENDMDL
MODEL 2
REMARK VINA RESULT:    -4.070      1.764      4.839
REMARK INTER + INTRA:         -15.025
REMARK INTER:                 -10.507
REMARK INTRA:                  -4.518
REMARK UNBOUND:                -4.294
REMARK SMILES CCCCCCCCCCCCCCCCCCCCCCCCCCCCCC(=O)[O-]
REMARK SMILES IDX 16 1 17 2 18 3 19 4 20 5 21 6 22 7 23 8 24 9 25 10 26 11
REMARK SMILES IDX 27 12 28 13 29 14 30 15 31 16 32 17 15 18 14 19 13 20 12 21
REMARK SMILES IDX 11 22 10 23 9 24 8 25 7 26 6 27 5 28 4 29 3 30 2 31 1 32
REMARK H PARENT
REMARK Flexibility Score: inf
ROOT
ATOM      1  C   UNL     1      12.801  20.380  14.919  1.00  0.00     0.000 C 
ENDROOT
BRANCH   1   2
ATOM      2  C   UNL     1      11.788  19.368  15.476  1.00  0.00     0.000 C 
BRANCH   2   3
ATOM      3  C   UNL     1      11.379  18.349  14.401  1.00  0.00     0.000 C 
BRANCH   3   4
ATOM      4  C   UNL     1      11.037  16.964  14.982  1.00  0.00     0.000 C 
BRANCH   4   5
ATOM      5  C   UNL     1      11.219  16.827  16.504  1.00  0.00     0.000 C 
BRANCH   5   6
ATOM      6  C   UNL     1      11.950  15.535  16.908  1.00  0.00     0.000 C 
BRANCH   6   7
ATOM      7  C   UNL     1      13.273  15.800  17.650  1.00  0.00     0.000 C 
BRANCH   7   8
ATOM      8  C   UNL     1      14.059  17.037  17.176  1.00  0.00     0.000 C 
BRANCH   8   9
ATOM      9  C   UNL     1      14.849  16.786  15.880  1.00  0.00     0.000 C 
BRANCH   9  10
ATOM     10  C   UNL     1      15.608  18.042  15.399  1.00  0.00     0.000 C 
BRANCH  10  11
ATOM     11  C   UNL     1      16.640  17.763  14.290  1.00  0.00     0.000 C 
BRANCH  11  12
ATOM     12  C   UNL     1      17.672  18.883  14.058  1.00  0.00     0.000 C 
BRANCH  12  13
ATOM     13  C   UNL     1      18.541  19.232  15.282  1.00  0.00     0.006 C 
BRANCH  13  14
ATOM     14  C   UNL     1      19.550  18.133  15.631  1.00  0.00     0.053 C 
BRANCH  14  15
ATOM     15  C   UNL     1      19.399  17.723  17.063  1.00  0.00     0.041 C 
ATOM     16  O   UNL     1      20.269  16.992  17.608  1.00  0.00    -0.550 OA
ATOM     17  O   UNL     1      18.272  18.106  17.780  1.00  0.00    -0.550 OA
ENDBRANCH  14  15
ENDBRANCH  13  14
ENDBRANCH  12  13
ENDBRANCH  11  12
ENDBRANCH  10  11
ENDBRANCH   9  10
ENDBRANCH   8   9
ENDBRANCH   7   8
ENDBRANCH   6   7
ENDBRANCH   5   6
ENDBRANCH   4   5
ENDBRANCH   3   4
ENDBRANCH   2   3
ENDBRANCH   1   2
BRANCH   1  18
ATOM     18  C   UNL     1      13.052  20.214  13.409  1.00  0.00     0.000 C 
BRANCH  18  19
ATOM     19  C   UNL     1      14.453  20.637  12.932  1.00  0.00     0.000 C 
BRANCH  19  20
ATOM     20  C   UNL     1      14.563  20.735  11.403  1.00  0.00     0.000 C 
BRANCH  20  21
ATOM     21  C   UNL     1      15.855  20.069  10.906  1.00  0.00     0.000 C 
BRANCH  21  22
ATOM     22  C   UNL     1      15.769  19.619   9.439  1.00  0.00     0.000 C 
BRANCH  22  23
ATOM     23  C   UNL     1      14.485  20.105   8.744  1.00  0.00     0.000 C 
BRANCH  23  24
ATOM     24  C   UNL     1      14.008  19.135   7.649  1.00  0.00    -0.000 C 
BRANCH  24  25
ATOM     25  C   UNL     1      12.500  19.244   7.380  1.00  0.00    -0.000 C 
BRANCH  25  26
ATOM     26  C   UNL     1      11.942  20.573   7.910  1.00  0.00    -0.000 C 
BRANCH  26  27
ATOM     27  C   UNL     1      10.681  20.394   8.777  1.00  0.00    -0.000 C 
BRANCH  27  28
ATOM     28  C   UNL     1      10.949  20.231  10.284  1.00  0.00    -0.000 C 
BRANCH  28  29
ATOM     29  C   UNL     1      10.766  18.782  10.770  1.00  0.00    -0.000 C 
BRANCH  29  30
ATOM     30  C   UNL     1       9.330  18.492  11.233  1.00  0.00    -0.000 C 
BRANCH  30  31
ATOM     31  C   UNL     1       8.825  17.121  10.762  1.00  0.00    -0.003 C 
ATOM     32  C   UNL     1       8.408  17.162   9.295  1.00  0.00     0.004 C 
ENDBRANCH  30  31
ENDBRANCH  29  30
ENDBRANCH  28  29
ENDBRANCH  27  28
ENDBRANCH  26  27
ENDBRANCH  25  26
ENDBRANCH  24  25
ENDBRANCH  23  24
ENDBRANCH  22  23
ENDBRANCH  21  22
ENDBRANCH  20  21
ENDBRANCH  19  20
ENDBRANCH  18  19
ENDBRANCH   1  18
TORSDOF 28
ENDMDL
MODEL 3
REMARK VINA RESULT:    -4.063      1.604      2.830
REMARK INTER + INTRA:         -15.009
REMARK INTER:                 -10.396
REMARK INTRA:                  -4.613
REMARK UNBOUND:                -4.294
REMARK SMILES CCCCCCCCCCCCCCCCCCCCCCCCCCCCCC(=O)[O-]
REMARK SMILES IDX 16 1 17 2 18 3 19 4 20 5 21 6 22 7 23 8 24 9 25 10 26 11
REMARK SMILES IDX 27 12 28 13 29 14 30 15 31 16 32 17 15 18 14 19 13 20 12 21
REMARK SMILES IDX 11 22 10 23 9 24 8 25 7 26 6 27 5 28 4 29 3 30 2 31 1 32
REMARK H PARENT
REMARK Flexibility Score: inf
ROOT
ATOM      1  C   UNL     1      14.326  16.687  17.250  1.00  0.00     0.000 C 
ENDROOT
BRANCH   1   2
ATOM      2  C   UNL     1      15.150  16.231  16.037  1.00  0.00     0.000 C 
BRANCH   2   3
ATOM      3  C   UNL     1      15.826  17.426  15.347  1.00  0.00     0.000 C 
BRANCH   3   4
ATOM      4  C   UNL     1      14.935  18.681  15.305  1.00  0.00     0.000 C 
BRANCH   4   5
ATOM      5  C   UNL     1      15.671  20.017  15.517  1.00  0.00     0.000 C 
BRANCH   5   6
ATOM      6  C   UNL     1      14.960  20.942  16.519  1.00  0.00     0.000 C 
BRANCH   6   7
ATOM      7  C   UNL     1      14.026  20.184  17.481  1.00  0.00     0.000 C 
BRANCH   7   8
ATOM      8  C   UNL     1      14.380  20.304  18.975  1.00  0.00     0.000 C 
BRANCH   8   9
ATOM      9  C   UNL     1      15.528  19.372  19.398  1.00  0.00     0.000 C 
BRANCH   9  10
ATOM     10  C   UNL     1      16.815  20.146  19.759  1.00  0.00     0.000 C 
BRANCH  10  11
ATOM     11  C   UNL     1      18.092  19.571  19.119  1.00  0.00     0.000 C 
BRANCH  11  12
ATOM     12  C   UNL     1      17.858  18.477  18.059  1.00  0.00     0.000 C 
BRANCH  12  13
ATOM     13  C   UNL     1      19.077  18.159  17.171  1.00  0.00     0.006 C 
BRANCH  13  14
ATOM     14  C   UNL     1      19.929  17.007  17.716  1.00  0.00     0.053 C 
BRANCH  14  15
ATOM     15  C   UNL     1      21.168  17.538  18.366  1.00  0.00     0.041 C 
ATOM     16  O   UNL     1      21.503  18.742  18.202  1.00  0.00    -0.550 OA
ATOM     17  O   UNL     1      21.980  16.692  19.110  1.00  0.00    -0.550 OA
ENDBRANCH  14  15
ENDBRANCH  13  14
ENDBRANCH  12  13
ENDBRANCH  11  12
ENDBRANCH  10  11
ENDBRANCH   9  10
ENDBRANCH   8   9
ENDBRANCH   7   8
ENDBRANCH   6   7
ENDBRANCH   5   6
ENDBRANCH   4   5
ENDBRANCH   3   4
ENDBRANCH   2   3
ENDBRANCH   1   2
BRANCH   1  18
ATOM     18  C   UNL     1      13.143  15.752  17.563  1.00  0.00     0.000 C 
BRANCH  18  19
ATOM     19  C   UNL     1      11.940  15.883  16.611  1.00  0.00     0.000 C 
BRANCH  19  20
ATOM     20  C   UNL     1      11.184  17.210  16.778  1.00  0.00     0.000 C 
BRANCH  20  21
ATOM     21  C   UNL     1      11.384  18.108  15.548  1.00  0.00     0.000 C 
BRANCH  21  22
ATOM     22  C   UNL     1      11.493  17.312  14.238  1.00  0.00     0.000 C 
BRANCH  22  23
ATOM     23  C   UNL     1      10.320  17.583  13.280  1.00  0.00     0.000 C 
BRANCH  23  24
ATOM     24  C   UNL     1      10.265  16.574  12.120  1.00  0.00    -0.000 C 
BRANCH  24  25
ATOM     25  C   UNL     1       8.829  16.279  11.662  1.00  0.00    -0.000 C 
BRANCH  25  26
ATOM     26  C   UNL     1       8.749  16.184  10.131  1.00  0.00    -0.000 C 
BRANCH  26  27
ATOM     27  C   UNL     1       7.882  17.292   9.504  1.00  0.00    -0.000 C 
BRANCH  27  28
ATOM     28  C   UNL     1       7.071  18.127  10.511  1.00  0.00    -0.000 C 
BRANCH  28  29
ATOM     29  C   UNL     1       7.387  19.630  10.432  1.00  0.00    -0.000 C 
BRANCH  29  30
ATOM     30  C   UNL     1       8.779  19.972  10.986  1.00  0.00    -0.000 C 
BRANCH  30  31
ATOM     31  C   UNL     1       9.811  20.217   9.875  1.00  0.00    -0.003 C 
ATOM     32  C   UNL     1      11.186  19.690  10.276  1.00  0.00     0.004 C 
ENDBRANCH  30  31
ENDBRANCH  29  30
ENDBRANCH  28  29
ENDBRANCH  27  28
ENDBRANCH  26  27
ENDBRANCH  25  26
ENDBRANCH  24  25
ENDBRANCH  23  24
ENDBRANCH  22  23
ENDBRANCH  21  22
ENDBRANCH  20  21
ENDBRANCH  19  20
ENDBRANCH  18  19
ENDBRANCH   1  18
TORSDOF 28
ENDMDL
MODEL 4
REMARK VINA RESULT:    -4.050      3.248      9.884
REMARK INTER + INTRA:         -14.974
REMARK INTER:                 -11.416
REMARK INTRA:                  -3.558
REMARK UNBOUND:                -4.294
REMARK SMILES CCCCCCCCCCCCCCCCCCCCCCCCCCCCCC(=O)[O-]
REMARK SMILES IDX 16 1 17 2 18 3 19 4 20 5 21 6 22 7 23 8 24 9 25 10 26 11
REMARK SMILES IDX 27 12 28 13 29 14 30 15 31 16 32 17 15 18 14 19 13 20 12 21
REMARK SMILES IDX 11 22 10 23 9 24 8 25 7 26 6 27 5 28 4 29 3 30 2 31 1 32
REMARK H PARENT
REMARK Flexibility Score: inf
ROOT
ATOM      1  C   UNL     1      12.122  15.548  16.626  1.00  0.00     0.000 C 
ENDROOT
BRANCH   1   2
ATOM      2  C   UNL     1      10.979  16.572  16.703  1.00  0.00     0.000 C 
BRANCH   2   3
ATOM      3  C   UNL     1      11.403  17.919  16.098  1.00  0.00     0.000 C 
BRANCH   3   4
ATOM      4  C   UNL     1      11.888  17.800  14.641  1.00  0.00     0.000 C 
BRANCH   4   5
ATOM      5  C   UNL     1      11.332  18.861  13.674  1.00  0.00     0.000 C 
BRANCH   5   6
ATOM      6  C   UNL     1      10.097  18.377  12.897  1.00  0.00     0.000 C 
BRANCH   6   7
ATOM      7  C   UNL     1      10.284  16.979  12.280  1.00  0.00     0.000 C 
BRANCH   7   8
ATOM      8  C   UNL     1       9.060  16.047  12.376  1.00  0.00     0.000 C 
BRANCH   8   9
ATOM      9  C   UNL     1       8.339  15.862  11.029  1.00  0.00     0.000 C 
BRANCH   9  10
ATOM     10  C   UNL     1       7.116  16.793  10.883  1.00  0.00     0.000 C 
BRANCH  10  11
ATOM     11  C   UNL     1       7.253  17.832   9.754  1.00  0.00     0.000 C 
BRANCH  11  12
ATOM     12  C   UNL     1       7.689  19.239  10.207  1.00  0.00     0.000 C 
BRANCH  12  13
ATOM     13  C   UNL     1       9.030  19.725   9.624  1.00  0.00     0.006 C 
BRANCH  13  14
ATOM     14  C   UNL     1       9.843  18.598   8.976  1.00  0.00     0.053 C 
BRANCH  14  15
ATOM     15  C   UNL     1      11.012  19.162   8.230  1.00  0.00     0.041 C 
ATOM     16  O   UNL     1      11.916  19.785   8.848  1.00  0.00    -0.550 OA
ATOM     17  O   UNL     1      11.078  19.044   6.848  1.00  0.00    -0.550 OA
ENDBRANCH  14  15
ENDBRANCH  13  14
ENDBRANCH  12  13
ENDBRANCH  11  12
ENDBRANCH  10  11
ENDBRANCH   9  10
ENDBRANCH   8   9
ENDBRANCH   7   8
ENDBRANCH   6   7
ENDBRANCH   5   6
ENDBRANCH   4   5
ENDBRANCH   3   4
ENDBRANCH   2   3
ENDBRANCH   1   2
BRANCH   1  18
ATOM     18  C   UNL     1      13.201  15.767  17.704  1.00  0.00     0.000 C 
BRANCH  18  19
ATOM     19  C   UNL     1      14.391  16.640  17.266  1.00  0.00     0.000 C 
BRANCH  19  20
ATOM     20  C   UNL     1      15.040  16.159  15.960  1.00  0.00     0.000 C 
BRANCH  20  21
ATOM     21  C   UNL     1      16.297  16.984  15.642  1.00  0.00     0.000 C 
BRANCH  21  22
ATOM     22  C   UNL     1      16.008  18.182  14.724  1.00  0.00     0.000 C 
BRANCH  22  23
ATOM     23  C   UNL     1      17.150  18.456  13.729  1.00  0.00     0.000 C 
BRANCH  23  24
ATOM     24  C   UNL     1      17.403  19.960  13.527  1.00  0.00    -0.000 C 
BRANCH  24  25
ATOM     25  C   UNL     1      18.803  20.390  13.991  1.00  0.00    -0.000 C 
BRANCH  25  26
ATOM     26  C   UNL     1      19.008  20.079  15.481  1.00  0.00    -0.000 C 
BRANCH  26  27
ATOM     27  C   UNL     1      20.251  19.210  15.749  1.00  0.00    -0.000 C 
BRANCH  27  28
ATOM     28  C   UNL     1      19.964  17.708  15.925  1.00  0.00    -0.000 C 
BRANCH  28  29
ATOM     29  C   UNL     1      19.599  17.335  17.372  1.00  0.00    -0.000 C 
BRANCH  29  30
ATOM     30  C   UNL     1      19.471  18.565  18.285  1.00  0.00    -0.000 C 
BRANCH  30  31
ATOM     31  C   UNL     1      18.244  18.490  19.205  1.00  0.00    -0.003 C 
ATOM     32  C   UNL     1      17.010  19.075  18.524  1.00  0.00     0.004 C 
ENDBRANCH  30  31
ENDBRANCH  29  30
ENDBRANCH  28  29
ENDBRANCH  27  28
ENDBRANCH  26  27
ENDBRANCH  25  26
ENDBRANCH  24  25
ENDBRANCH  23  24
ENDBRANCH  22  23
ENDBRANCH  21  22
ENDBRANCH  20  21
ENDBRANCH  19  20
ENDBRANCH  18  19
ENDBRANCH   1  18
TORSDOF 28
ENDMDL
MODEL 5
REMARK VINA RESULT:    -3.999      1.654      2.725
REMARK INTER + INTRA:         -14.838
REMARK INTER:                 -11.271
REMARK INTRA:                  -3.567
REMARK UNBOUND:                -4.294
REMARK SMILES CCCCCCCCCCCCCCCCCCCCCCCCCCCCCC(=O)[O-]
REMARK SMILES IDX 16 1 17 2 18 3 19 4 20 5 21 6 22 7 23 8 24 9 25 10 26 11
REMARK SMILES IDX 27 12 28 13 29 14 30 15 31 16 32 17 15 18 14 19 13 20 12 21
REMARK SMILES IDX 11 22 10 23 9 24 8 25 7 26 6 27 5 28 4 29 3 30 2 31 1 32
REMARK H PARENT
REMARK Flexibility Score: inf
ROOT
ATOM      1  C   UNL     1      11.916  18.797  16.508  1.00  0.00     0.000 C 
ENDROOT
BRANCH   1   2
ATOM      2  C   UNL     1      11.439  17.400  16.930  1.00  0.00     0.000 C 
BRANCH   2   3
ATOM      3  C   UNL     1      12.353  16.307  16.355  1.00  0.00     0.000 C 
BRANCH   3   4
ATOM      4  C   UNL     1      13.733  16.254  17.036  1.00  0.00     0.000 C 
BRANCH   4   5
ATOM      5  C   UNL     1      14.932  16.545  16.115  1.00  0.00     0.000 C 
BRANCH   5   6
ATOM      6  C   UNL     1      15.827  17.683  16.633  1.00  0.00     0.000 C 
BRANCH   6   7
ATOM      7  C   UNL     1      15.617  19.006  15.876  1.00  0.00     0.000 C 
BRANCH   7   8
ATOM      8  C   UNL     1      15.946  18.965  14.371  1.00  0.00     0.000 C 
BRANCH   8   9
ATOM      9  C   UNL     1      17.387  18.507  14.084  1.00  0.00     0.000 C 
BRANCH   9  10
ATOM     10  C   UNL     1      18.399  19.671  14.150  1.00  0.00     0.000 C 
BRANCH  10  11
ATOM     11  C   UNL     1      19.634  19.377  15.023  1.00  0.00     0.000 C 
BRANCH  11  12
ATOM     12  C   UNL     1      19.666  17.975  15.662  1.00  0.00     0.000 C 
BRANCH  12  13
ATOM     13  C   UNL     1      19.503  17.953  17.194  1.00  0.00     0.006 C 
BRANCH  13  14
ATOM     14  C   UNL     1      20.218  16.768  17.854  1.00  0.00     0.053 C 
BRANCH  14  15
ATOM     15  C   UNL     1      20.596  17.107  19.262  1.00  0.00     0.041 C 
ATOM     16  O   UNL     1      21.791  17.389  19.546  1.00  0.00    -0.550 OA
ATOM     17  O   UNL     1      19.641  17.061  20.269  1.00  0.00    -0.550 OA
ENDBRANCH  14  15
ENDBRANCH  13  14
ENDBRANCH  12  13
ENDBRANCH  11  12
ENDBRANCH  10  11
ENDBRANCH   9  10
ENDBRANCH   8   9
ENDBRANCH   7   8
ENDBRANCH   6   7
ENDBRANCH   5   6
ENDBRANCH   4   5
ENDBRANCH   3   4
ENDBRANCH   2   3
ENDBRANCH   1   2
BRANCH   1  18
ATOM     18  C   UNL     1      11.967  18.981  14.979  1.00  0.00     0.000 C 
BRANCH  18  19
ATOM     19  C   UNL     1      10.681  19.547  14.349  1.00  0.00     0.000 C 
BRANCH  19  20
ATOM     20  C   UNL     1      10.211  18.748  13.124  1.00  0.00     0.000 C 
BRANCH  20  21
ATOM     21  C   UNL     1      10.433  17.243  13.339  1.00  0.00     0.000 C 
BRANCH  21  22
ATOM     22  C   UNL     1      10.267  16.425  12.048  1.00  0.00     0.000 C 
BRANCH  22  23
ATOM     23  C   UNL     1       8.798  16.074  11.753  1.00  0.00     0.000 C 
BRANCH  23  24
ATOM     24  C   UNL     1       8.382  16.447  10.320  1.00  0.00    -0.000 C 
BRANCH  24  25
ATOM     25  C   UNL     1       7.387  17.616  10.279  1.00  0.00    -0.000 C 
BRANCH  25  26
ATOM     26  C   UNL     1       8.110  18.943  10.004  1.00  0.00    -0.000 C 
BRANCH  26  27
ATOM     27  C   UNL     1       9.335  18.781   9.084  1.00  0.00    -0.000 C 
BRANCH  27  28
ATOM     28  C   UNL     1      10.644  19.369   9.641  1.00  0.00    -0.000 C 
BRANCH  28  29
ATOM     29  C   UNL     1      11.711  19.587   8.554  1.00  0.00    -0.000 C 
BRANCH  29  30
ATOM     30  C   UNL     1      11.218  19.186   7.154  1.00  0.00    -0.000 C 
BRANCH  30  31
ATOM     31  C   UNL     1      12.275  19.428   6.067  1.00  0.00    -0.003 C 
ATOM     32  C   UNL     1      13.450  18.466   6.218  1.00  0.00     0.004 C 
ENDBRANCH  30  31
ENDBRANCH  29  30
ENDBRANCH  28  29
ENDBRANCH  27  28
ENDBRANCH  26  27
ENDBRANCH  25  26
ENDBRANCH  24  25
ENDBRANCH  23  24
ENDBRANCH  22  23
ENDBRANCH  21  22
ENDBRANCH  20  21
ENDBRANCH  19  20
ENDBRANCH  18  19
ENDBRANCH   1  18
TORSDOF 28
ENDMDL
MODEL 6
REMARK VINA RESULT:    -3.994      1.725      3.275
REMARK INTER + INTRA:         -14.825
REMARK INTER:                 -10.821
REMARK INTRA:                  -4.003
REMARK UNBOUND:                -4.294
REMARK SMILES CCCCCCCCCCCCCCCCCCCCCCCCCCCCCC(=O)[O-]
REMARK SMILES IDX 16 1 17 2 18 3 19 4 20 5 21 6 22 7 23 8 24 9 25 10 26 11
REMARK SMILES IDX 27 12 28 13 29 14 30 15 31 16 32 17 15 18 14 19 13 20 12 21
REMARK SMILES IDX 11 22 10 23 9 24 8 25 7 26 6 27 5 28 4 29 3 30 2 31 1 32
REMARK H PARENT
REMARK Flexibility Score: inf
ROOT
ATOM      1  C   UNL     1      10.768  15.853  16.503  1.00  0.00     0.000 C 
ENDROOT
BRANCH   1   2
ATOM      2  C   UNL     1      11.931  15.225  17.286  1.00  0.00     0.000 C 
BRANCH   2   3
ATOM      3  C   UNL     1      13.284  15.757  16.787  1.00  0.00     0.000 C 
BRANCH   3   4
ATOM      4  C   UNL     1      14.035  16.585  17.846  1.00  0.00     0.000 C 
BRANCH   4   5
ATOM      5  C   UNL     1      15.154  17.490  17.301  1.00  0.00     0.000 C 
BRANCH   5   6
ATOM      6  C   UNL     1      15.776  16.959  15.999  1.00  0.00     0.000 C 
BRANCH   6   7
ATOM      7  C   UNL     1      15.789  18.003  14.868  1.00  0.00     0.000 C 
BRANCH   7   8
ATOM      8  C   UNL     1      17.068  18.030  14.009  1.00  0.00     0.000 C 
BRANCH   8   9
ATOM      9  C   UNL     1      17.336  19.406  13.374  1.00  0.00     0.000 C 
BRANCH   9  10
ATOM     10  C   UNL     1      18.629  20.060  13.909  1.00  0.00     0.000 C 
BRANCH  10  11
ATOM     11  C   UNL     1      18.633  20.282  15.433  1.00  0.00     0.000 C 
BRANCH  11  12
ATOM     12  C   UNL     1      19.666  19.448  16.214  1.00  0.00     0.000 C 
BRANCH  12  13
ATOM     13  C   UNL     1      19.082  18.582  17.347  1.00  0.00     0.006 C 
BRANCH  13  14
ATOM     14  C   UNL     1      19.587  17.135  17.315  1.00  0.00     0.053 C 
BRANCH  14  15
ATOM     15  C   UNL     1      20.521  16.884  18.457  1.00  0.00     0.041 C 
ATOM     16  O   UNL     1      20.363  15.875  19.195  1.00  0.00    -0.550 OA
ATOM     17  O   UNL     1      21.534  17.792  18.739  1.00  0.00    -0.550 OA
ENDBRANCH  14  15
ENDBRANCH  13  14
ENDBRANCH  12  13
ENDBRANCH  11  12
ENDBRANCH  10  11
ENDBRANCH   9  10
ENDBRANCH   8   9
ENDBRANCH   7   8
ENDBRANCH   6   7
ENDBRANCH   5   6
ENDBRANCH   4   5
ENDBRANCH   3   4
ENDBRANCH   2   3
ENDBRANCH   1   2
BRANCH   1  18
ATOM     18  C   UNL     1      11.206  17.035  15.617  1.00  0.00     0.000 C 
BRANCH  18  19
ATOM     19  C   UNL     1      11.254  18.399  16.330  1.00  0.00     0.000 C 
BRANCH  19  20
ATOM     20  C   UNL     1      12.275  19.365  15.710  1.00  0.00     0.000 C 
BRANCH  20  21
ATOM     21  C   UNL     1      11.926  19.655  14.242  1.00  0.00     0.000 C 
BRANCH  21  22
ATOM     22  C   UNL     1      10.460  20.071  14.048  1.00  0.00     0.000 C 
BRANCH  22  23
ATOM     23  C   UNL     1       9.745  19.239  12.969  1.00  0.00     0.000 C 
BRANCH  23  24
ATOM     24  C   UNL     1      10.707  18.306  12.214  1.00  0.00    -0.000 C 
BRANCH  24  25
ATOM     25  C   UNL     1      10.233  16.845  12.211  1.00  0.00    -0.000 C 
BRANCH  25  26
ATOM     26  C   UNL     1       8.724  16.758  11.936  1.00  0.00    -0.000 C 
BRANCH  26  27
ATOM     27  C   UNL     1       8.395  16.072  10.597  1.00  0.00    -0.000 C 
BRANCH  27  28
ATOM     28  C   UNL     1       8.400  17.005   9.373  1.00  0.00    -0.000 C 
BRANCH  28  29
ATOM     29  C   UNL     1       7.938  18.434   9.709  1.00  0.00    -0.000 C 
BRANCH  29  30
ATOM     30  C   UNL     1       9.003  19.492   9.380  1.00  0.00    -0.000 C 
BRANCH  30  31
ATOM     31  C   UNL     1      10.194  18.908   8.606  1.00  0.00    -0.003 C 
ATOM     32  C   UNL     1      11.411  19.825   8.695  1.00  0.00     0.004 C 
ENDBRANCH  30  31
ENDBRANCH  29  30
ENDBRANCH  28  29
ENDBRANCH  27  28
ENDBRANCH  26  27
ENDBRANCH  25  26
ENDBRANCH  24  25
ENDBRANCH  23  24
ENDBRANCH  22  23
ENDBRANCH  21  22
ENDBRANCH  20  21
ENDBRANCH  19  20
ENDBRANCH  18  19
ENDBRANCH   1  18
TORSDOF 28
ENDMDL
MODEL 7
REMARK VINA RESULT:    -3.928      3.204      9.392
REMARK INTER + INTRA:         -14.651
REMARK INTER:                  -9.808
REMARK INTRA:                  -4.843
REMARK UNBOUND:                -4.294
REMARK SMILES CCCCCCCCCCCCCCCCCCCCCCCCCCCCCC(=O)[O-]
REMARK SMILES IDX 16 1 17 2 18 3 19 4 20 5 21 6 22 7 23 8 24 9 25 10 26 11
REMARK SMILES IDX 27 12 28 13 29 14 30 15 31 16 32 17 15 18 14 19 13 20 12 21
REMARK SMILES IDX 11 22 10 23 9 24 8 25 7 26 6 27 5 28 4 29 3 30 2 31 1 32
REMARK H PARENT
REMARK Flexibility Score: inf
ROOT
ATOM      1  C   UNL     1      16.926  18.118  13.906  1.00  0.00     0.000 C 
ENDROOT
BRANCH   1   2
ATOM      2  C   UNL     1      16.434  19.377  13.175  1.00  0.00     0.000 C 
BRANCH   2   3
ATOM      3  C   UNL     1      15.210  19.982  13.881  1.00  0.00     0.000 C 
BRANCH   3   4
ATOM      4  C   UNL     1      14.100  20.409  12.904  1.00  0.00     0.000 C 
BRANCH   4   5
ATOM      5  C   UNL     1      12.666  20.315  13.456  1.00  0.00     0.000 C 
BRANCH   5   6
ATOM      6  C   UNL     1      11.694  19.618  12.490  1.00  0.00     0.000 C 
BRANCH   6   7
ATOM      7  C   UNL     1      10.646  18.750  13.211  1.00  0.00     0.000 C 
BRANCH   7   8
ATOM      8  C   UNL     1      10.586  17.278  12.761  1.00  0.00     0.000 C 
BRANCH   8   9
ATOM      9  C   UNL     1       9.281  16.928  12.025  1.00  0.00     0.000 C 
BRANCH   9  10
ATOM     10  C   UNL     1       9.513  16.602  10.534  1.00  0.00     0.000 C 
BRANCH  10  11
ATOM     11  C   UNL     1       8.788  17.555   9.565  1.00  0.00     0.000 C 
BRANCH  11  12
ATOM     12  C   UNL     1       9.121  19.049   9.743  1.00  0.00     0.000 C 
BRANCH  12  13
ATOM     13  C   UNL     1       9.980  19.663   8.620  1.00  0.00     0.006 C 
BRANCH  13  14
ATOM     14  C   UNL     1      11.480  19.415   8.813  1.00  0.00     0.053 C 
BRANCH  14  15
ATOM     15  C   UNL     1      12.134  19.133   7.496  1.00  0.00     0.041 C 
ATOM     16  O   UNL     1      11.458  19.163   6.433  1.00  0.00    -0.550 OA
ATOM     17  O   UNL     1      13.478  18.786   7.448  1.00  0.00    -0.550 OA
ENDBRANCH  14  15
ENDBRANCH  13  14
ENDBRANCH  12  13
ENDBRANCH  11  12
ENDBRANCH  10  11
ENDBRANCH   9  10
ENDBRANCH   8   9
ENDBRANCH   7   8
ENDBRANCH   6   7
ENDBRANCH   5   6
ENDBRANCH   4   5
ENDBRANCH   3   4
ENDBRANCH   2   3
ENDBRANCH   1   2
BRANCH   1  18
ATOM     18  C   UNL     1      16.356  17.986  15.331  1.00  0.00     0.000 C 
BRANCH  18  19
ATOM     19  C   UNL     1      15.956  16.557  15.741  1.00  0.00     0.000 C 
BRANCH  19  20
ATOM     20  C   UNL     1      14.691  16.515  16.611  1.00  0.00     0.000 C 
BRANCH  20  21
ATOM     21  C   UNL     1      13.431  16.662  15.744  1.00  0.00     0.000 C 
BRANCH  21  22
ATOM     22  C   UNL     1      12.591  17.894  16.116  1.00  0.00     0.000 C 
BRANCH  22  23
ATOM     23  C   UNL     1      13.062  18.562  17.420  1.00  0.00     0.000 C 
BRANCH  23  24
ATOM     24  C   UNL     1      13.649  19.964  17.183  1.00  0.00    -0.000 C 
BRANCH  24  25
ATOM     25  C   UNL     1      15.086  20.099  17.710  1.00  0.00    -0.000 C 
BRANCH  25  26
ATOM     26  C   UNL     1      15.210  19.510  19.123  1.00  0.00    -0.000 C 
BRANCH  26  27
ATOM     27  C   UNL     1      16.442  18.600  19.289  1.00  0.00    -0.000 C 
BRANCH  27  28
ATOM     28  C   UNL     1      17.747  19.164  18.699  1.00  0.00    -0.000 C 
BRANCH  28  29
ATOM     29  C   UNL     1      18.669  18.069  18.134  1.00  0.00    -0.000 C 
BRANCH  29  30
ATOM     30  C   UNL     1      19.893  18.646  17.405  1.00  0.00    -0.000 C 
BRANCH  30  31
ATOM     31  C   UNL     1      20.022  18.123  15.967  1.00  0.00    -0.003 C 
ATOM     32  C   UNL     1      20.425  19.240  15.009  1.00  0.00     0.004 C 
ENDBRANCH  30  31
ENDBRANCH  29  30
ENDBRANCH  28  29
ENDBRANCH  27  28
ENDBRANCH  26  27
ENDBRANCH  25  26
ENDBRANCH  24  25
ENDBRANCH  23  24
ENDBRANCH  22  23
ENDBRANCH  21  22
ENDBRANCH  20  21
ENDBRANCH  19  20
ENDBRANCH  18  19
ENDBRANCH   1  18
TORSDOF 28
ENDMDL
MODEL 8
REMARK VINA RESULT:    -3.914      1.692      4.034
REMARK INTER + INTRA:         -14.615
REMARK INTER:                 -10.380
REMARK INTRA:                  -4.234
REMARK UNBOUND:                -4.294
REMARK SMILES CCCCCCCCCCCCCCCCCCCCCCCCCCCCCC(=O)[O-]
REMARK SMILES IDX 16 1 17 2 18 3 19 4 20 5 21 6 22 7 23 8 24 9 25 10 26 11
REMARK SMILES IDX 27 12 28 13 29 14 30 15 31 16 32 17 15 18 14 19 13 20 12 21
REMARK SMILES IDX 11 22 10 23 9 24 8 25 7 26 6 27 5 28 4 29 3 30 2 31 1 32
REMARK H PARENT
REMARK Flexibility Score: inf
ROOT
ATOM      1  C   UNL     1      11.233  16.225  16.099  1.00  0.00     0.000 C 
ENDROOT
BRANCH   1   2
ATOM      2  C   UNL     1      12.190  15.834  17.236  1.00  0.00     0.000 C 
BRANCH   2   3
ATOM      3  C   UNL     1      13.653  16.060  16.828  1.00  0.00     0.000 C 
BRANCH   3   4
ATOM      4  C   UNL     1      14.390  17.051  17.748  1.00  0.00     0.000 C 
BRANCH   4   5
ATOM      5  C   UNL     1      14.116  18.539  17.466  1.00  0.00     0.000 C 
BRANCH   5   6
ATOM      6  C   UNL     1      15.242  19.217  16.668  1.00  0.00     0.000 C 
BRANCH   6   7
ATOM      7  C   UNL     1      15.166  18.932  15.157  1.00  0.00     0.000 C 
BRANCH   7   8
ATOM      8  C   UNL     1      16.230  17.959  14.614  1.00  0.00     0.000 C 
BRANCH   8   9
ATOM      9  C   UNL     1      17.146  18.600  13.557  1.00  0.00     0.000 C 
BRANCH   9  10
ATOM     10  C   UNL     1      18.210  19.528  14.184  1.00  0.00     0.000 C 
BRANCH  10  11
ATOM     11  C   UNL     1      19.235  18.796  15.071  1.00  0.00     0.000 C 
BRANCH  11  12
ATOM     12  C   UNL     1      19.090  19.047  16.584  1.00  0.00     0.000 C 
BRANCH  12  13
ATOM     13  C   UNL     1      18.687  17.813  17.414  1.00  0.00     0.006 C 
BRANCH  13  14
ATOM     14  C   UNL     1      19.186  17.878  18.862  1.00  0.00     0.053 C 
BRANCH  14  15
ATOM     15  C   UNL     1      20.371  16.982  19.045  1.00  0.00     0.041 C 
ATOM     16  O   UNL     1      21.456  17.240  18.459  1.00  0.00    -0.550 OA
ATOM     17  O   UNL     1      20.262  15.836  19.822  1.00  0.00    -0.550 OA
ENDBRANCH  14  15
ENDBRANCH  13  14
ENDBRANCH  12  13
ENDBRANCH  11  12
ENDBRANCH  10  11
ENDBRANCH   9  10
ENDBRANCH   8   9
ENDBRANCH   7   8
ENDBRANCH   6   7
ENDBRANCH   5   6
ENDBRANCH   4   5
ENDBRANCH   3   4
ENDBRANCH   2   3
ENDBRANCH   1   2
BRANCH   1  18
ATOM     18  C   UNL     1      11.923  17.028  14.980  1.00  0.00     0.000 C 
BRANCH  18  19
ATOM     19  C   UNL     1      10.994  17.486  13.841  1.00  0.00     0.000 C 
BRANCH  19  20
ATOM     20  C   UNL     1      10.626  18.974  13.928  1.00  0.00     0.000 C 
BRANCH  20  21
ATOM     21  C   UNL     1      11.409  19.662  15.057  1.00  0.00     0.000 C 
BRANCH  21  22
ATOM     22  C   UNL     1      12.140  20.931  14.590  1.00  0.00     0.000 C 
BRANCH  22  23
ATOM     23  C   UNL     1      12.077  21.124  13.065  1.00  0.00     0.000 C 
BRANCH  23  24
ATOM     24  C   UNL     1      13.428  20.845  12.383  1.00  0.00    -0.000 C 
BRANCH  24  25
ATOM     25  C   UNL     1      13.271  20.419  10.915  1.00  0.00    -0.000 C 
BRANCH  25  26
ATOM     26  C   UNL     1      11.865  20.751  10.395  1.00  0.00    -0.000 C 
BRANCH  26  27
ATOM     27  C   UNL     1      11.282  19.648   9.491  1.00  0.00    -0.000 C 
BRANCH  27  28
ATOM     28  C   UNL     1      10.328  18.669  10.198  1.00  0.00    -0.000 C 
BRANCH  28  29
ATOM     29  C   UNL     1       8.978  18.523   9.476  1.00  0.00    -0.000 C 
BRANCH  29  30
ATOM     30  C   UNL     1       8.469  17.072   9.461  1.00  0.00    -0.000 C 
BRANCH  30  31
ATOM     31  C   UNL     1       7.640  16.727  10.707  1.00  0.00    -0.003 C 
ATOM     32  C   UNL     1       8.458  15.911  11.704  1.00  0.00     0.004 C 
ENDBRANCH  30  31
ENDBRANCH  29  30
ENDBRANCH  28  29
ENDBRANCH  27  28
ENDBRANCH  26  27
ENDBRANCH  25  26
ENDBRANCH  24  25
ENDBRANCH  23  24
ENDBRANCH  22  23
ENDBRANCH  21  22
ENDBRANCH  20  21
ENDBRANCH  19  20
ENDBRANCH  18  19
ENDBRANCH   1  18
TORSDOF 28
ENDMDL
MODEL 9
REMARK VINA RESULT:    -3.902      1.449      3.159
REMARK INTER + INTRA:         -14.582
REMARK INTER:                  -9.644
REMARK INTRA:                  -4.938
REMARK UNBOUND:                -4.294
REMARK SMILES CCCCCCCCCCCCCCCCCCCCCCCCCCCCCC(=O)[O-]
REMARK SMILES IDX 16 1 17 2 18 3 19 4 20 5 21 6 22 7 23 8 24 9 25 10 26 11
REMARK SMILES IDX 27 12 28 13 29 14 30 15 31 16 32 17 15 18 14 19 13 20 12 21
REMARK SMILES IDX 11 22 10 23 9 24 8 25 7 26 6 27 5 28 4 29 3 30 2 31 1 32
REMARK H PARENT
REMARK Flexibility Score: inf
ROOT
ATOM      1  C   UNL     1      11.108  19.689  14.001  1.00  0.00     0.000 C 
ENDROOT
BRANCH   1   2
ATOM      2  C   UNL     1      12.264  20.673  13.764  1.00  0.00     0.000 C 
BRANCH   2   3
ATOM      3  C   UNL     1      13.624  19.975  13.912  1.00  0.00     0.000 C 
BRANCH   3   4
ATOM      4  C   UNL     1      14.531  20.637  14.966  1.00  0.00     0.000 C 
BRANCH   4   5
ATOM      5  C   UNL     1      13.877  20.876  16.339  1.00  0.00     0.000 C 
BRANCH   5   6
ATOM      6  C   UNL     1      14.418  19.941  17.434  1.00  0.00     0.000 C 
BRANCH   6   7
ATOM      7  C   UNL     1      13.583  18.657  17.595  1.00  0.00     0.000 C 
BRANCH   7   8
ATOM      8  C   UNL     1      14.381  17.341  17.544  1.00  0.00     0.000 C 
BRANCH   8   9
ATOM      9  C   UNL     1      14.471  16.746  16.128  1.00  0.00     0.000 C 
BRANCH   9  10
ATOM     10  C   UNL     1      15.922  16.413  15.719  1.00  0.00     0.000 C 
BRANCH  10  11
ATOM     11  C   UNL     1      16.610  17.521  14.899  1.00  0.00     0.000 C 
BRANCH  11  12
ATOM     12  C   UNL     1      17.439  18.526  15.721  1.00  0.00     0.000 C 
BRANCH  12  13
ATOM     13  C   UNL     1      18.940  18.195  15.834  1.00  0.00     0.006 C 
BRANCH  13  14
ATOM     14  C   UNL     1      19.296  17.474  17.139  1.00  0.00     0.053 C 
BRANCH  14  15
ATOM     15  C   UNL     1      20.123  18.362  18.015  1.00  0.00     0.041 C 
ATOM     16  O   UNL     1      21.366  18.175  18.113  1.00  0.00    -0.550 OA
ATOM     17  O   UNL     1      19.516  19.363  18.762  1.00  0.00    -0.550 OA
ENDBRANCH  14  15
ENDBRANCH  13  14
ENDBRANCH  12  13
ENDBRANCH  11  12
ENDBRANCH  10  11
ENDBRANCH   9  10
ENDBRANCH   8   9
ENDBRANCH   7   8
ENDBRANCH   6   7
ENDBRANCH   5   6
ENDBRANCH   4   5
ENDBRANCH   3   4
ENDBRANCH   2   3
ENDBRANCH   1   2
BRANCH   1  18
ATOM     18  C   UNL     1      11.583  18.309  14.495  1.00  0.00     0.000 C 
BRANCH  18  19
ATOM     19  C   UNL     1      10.900  17.106  13.821  1.00  0.00     0.000 C 
BRANCH  19  20
ATOM     20  C   UNL     1      10.298  17.448  12.450  1.00  0.00     0.000 C 
BRANCH  20  21
ATOM     21  C   UNL     1       9.454  16.279  11.920  1.00  0.00     0.000 C 
BRANCH  21  22
ATOM     22  C   UNL     1       8.935  16.516  10.493  1.00  0.00     0.000 C 
BRANCH  22  23
ATOM     23  C   UNL     1       7.458  16.950  10.463  1.00  0.00     0.000 C 
BRANCH  23  24
ATOM     24  C   UNL     1       7.296  18.462  10.233  1.00  0.00    -0.000 C 
BRANCH  24  25
ATOM     25  C   UNL     1       7.150  19.246  11.546  1.00  0.00    -0.000 C 
BRANCH  25  26
ATOM     26  C   UNL     1       8.182  20.381  11.625  1.00  0.00    -0.000 C 
BRANCH  26  27
ATOM     27  C   UNL     1       8.982  20.559  10.321  1.00  0.00    -0.000 C 
BRANCH  27  28
ATOM     28  C   UNL     1      10.511  20.582  10.497  1.00  0.00    -0.000 C 
BRANCH  28  29
ATOM     29  C   UNL     1      11.235  19.601   9.559  1.00  0.00    -0.000 C 
BRANCH  29  30
ATOM     30  C   UNL     1      10.377  19.198   8.349  1.00  0.00    -0.000 C 
BRANCH  30  31
ATOM     31  C   UNL     1      11.177  19.182   7.038  1.00  0.00    -0.003 C 
ATOM     32  C   UNL     1      12.402  20.088   7.131  1.00  0.00     0.004 C 
ENDBRANCH  30  31
ENDBRANCH  29  30
ENDBRANCH  28  29
ENDBRANCH  27  28
ENDBRANCH  26  27
ENDBRANCH  25  26
ENDBRANCH  24  25
ENDBRANCH  23  24
ENDBRANCH  22  23
ENDBRANCH  21  22
ENDBRANCH  20  21
ENDBRANCH  19  20
ENDBRANCH  18  19
ENDBRANCH   1  18
TORSDOF 28
ENDMDL
