MODEL 1
REMARK VINA RESULT:    -5.397      0.000      0.000
REMARK INTER + INTRA:         -13.280
REMARK INTER:                 -11.706
REMARK INTRA:                  -1.574
REMARK UNBOUND:                -1.574
REMARK SMILES CCCCCCCCCCCCCCCCCCCCCC(=O)[O-]
REMARK SMILES IDX 12 1 11 2 10 3 9 4 8 5 7 6 6 7 5 8 4 9 3 10 2 11 1 12 13 13
REMARK SMILES IDX 14 14 15 15 16 16 17 17 18 18 19 19 20 20 21 21 22 22 23 23
REMARK SMILES IDX 24 24
REMARK H PARENT
REMARK Flexibility Score: inf
ROOT
ATOM      1  C   UNL     1      40.008  56.052  18.308  1.00  0.00     0.000 C 
ENDROOT
BRANCH   1   2
ATOM      2  C   UNL     1      38.932  57.094  17.971  1.00  0.00     0.000 C 
BRANCH   2   3
ATOM      3  C   UNL     1      37.936  56.603  16.904  1.00  0.00     0.000 C 
BRANCH   3   4
ATOM      4  C   UNL     1      36.515  57.194  17.015  1.00  0.00    -0.000 C 
BRANCH   4   5
ATOM      5  C   UNL     1      36.108  58.135  15.866  1.00  0.00    -0.000 C 
BRANCH   5   6
ATOM      6  C   UNL     1      35.918  57.447  14.501  1.00  0.00    -0.000 C 
BRANCH   6   7
ATOM      7  C   UNL     1      34.439  57.198  14.133  1.00  0.00    -0.000 C 
BRANCH   7   8
ATOM      8  C   UNL     1      33.923  55.845  14.651  1.00  0.00    -0.000 C 
BRANCH   8   9
ATOM      9  C   UNL     1      32.482  55.926  15.182  1.00  0.00    -0.000 C 
BRANCH   9  10
ATOM     10  C   UNL     1      32.389  56.667  16.523  1.00  0.00    -0.000 C 
BRANCH  10  11
ATOM     11  C   UNL     1      30.989  56.522  17.133  1.00  0.00    -0.003 C 
ATOM     12  C   UNL     1      30.915  55.318  18.067  1.00  0.00     0.004 C 
ENDBRANCH  10  11
ENDBRANCH   9  10
ENDBRANCH   8   9
ENDBRANCH   7   8
ENDBRANCH   6   7
ENDBRANCH   5   6
ENDBRANCH   4   5
ENDBRANCH   3   4
ENDBRANCH   2   3
ENDBRANCH   1   2
BRANCH   1  13
ATOM     13  C   UNL     1      41.063  55.968  17.195  1.00  0.00     0.000 C 
BRANCH  13  14
ATOM     14  C   UNL     1      42.428  55.471  17.718  1.00  0.00     0.000 C 
BRANCH  14  15
ATOM     15  C   UNL     1      42.843  54.092  17.168  1.00  0.00     0.000 C 
BRANCH  15  16
ATOM     16  C   UNL     1      42.795  53.957  15.637  1.00  0.00     0.000 C 
BRANCH  16  17
ATOM     17  C   UNL     1      43.904  53.047  15.082  1.00  0.00     0.000 C 
BRANCH  17  18
ATOM     18  C   UNL     1      45.200  53.814  14.763  1.00  0.00     0.000 C 
BRANCH  18  19
ATOM     19  C   UNL     1      45.013  55.302  14.409  1.00  0.00     0.000 C 
BRANCH  19  20
ATOM     20  C   UNL     1      45.978  56.275  15.115  1.00  0.00     0.006 C 
BRANCH  20  21
ATOM     21  C   UNL     1      46.090  56.052  16.634  1.00  0.00     0.053 C 
BRANCH  21  22
ATOM     22  C   UNL     1      47.511  56.044  17.108  1.00  0.00     0.041 C 
ATOM     23  O   UNL     1      48.224  55.016  16.965  1.00  0.00    -0.550 OA
ATOM     24  O   UNL     1      48.061  57.184  17.682  1.00  0.00    -0.550 OA
ENDBRANCH  21  22
ENDBRANCH  20  21
ENDBRANCH  19  20
ENDBRANCH  18  19
ENDBRANCH  17  18
ENDBRANCH  16  17
ENDBRANCH  15  16
ENDBRANCH  14  15
ENDBRANCH  13  14
ENDBRANCH   1  13
TORSDOF 20
ENDMDL
MODEL 2
REMARK VINA RESULT:    -5.388      4.936     11.420
REMARK INTER + INTRA:         -13.262
REMARK INTER:                 -11.590
REMARK INTRA:                  -1.673
REMARK UNBOUND:                -1.574
REMARK SMILES CCCCCCCCCCCCCCCCCCCCCC(=O)[O-]
REMARK SMILES IDX 12 1 11 2 10 3 9 4 8 5 7 6 6 7 5 8 4 9 3 10 2 11 1 12 13 13
REMARK SMILES IDX 14 14 15 15 16 16 17 17 18 18 19 19 20 20 21 21 22 22 23 23
REMARK SMILES IDX 24 24
REMARK H PARENT
REMARK Flexibility Score: inf
ROOT
ATOM      1  C   UNL     1      42.924  54.534  16.803  1.00  0.00     0.000 C 
ENDROOT
BRANCH   1   2
ATOM      2  C   UNL     1      42.358  54.592  15.377  1.00  0.00     0.000 C 
BRANCH   2   3
ATOM      3  C   UNL     1      43.096  53.659  14.401  1.00  0.00     0.000 C 
BRANCH   3   4
ATOM      4  C   UNL     1      44.326  52.938  14.990  1.00  0.00    -0.000 C 
BRANCH   4   5
ATOM      5  C   UNL     1      45.608  53.034  14.142  1.00  0.00    -0.000 C 
BRANCH   5   6
ATOM      6  C   UNL     1      46.734  52.067  14.556  1.00  0.00    -0.000 C 
BRANCH   6   7
ATOM      7  C   UNL     1      48.052  52.776  14.935  1.00  0.00    -0.000 C 
BRANCH   7   8
ATOM      8  C   UNL     1      47.871  54.289  15.137  1.00  0.00    -0.000 C 
BRANCH   8   9
ATOM      9  C   UNL     1      48.326  54.759  16.529  1.00  0.00    -0.000 C 
BRANCH   9  10
ATOM     10  C   UNL     1      47.362  55.779  17.151  1.00  0.00    -0.000 C 
BRANCH  10  11
ATOM     11  C   UNL     1      46.122  55.968  16.268  1.00  0.00    -0.003 C 
ATOM     12  C   UNL     1      45.746  57.442  16.151  1.00  0.00     0.004 C 
ENDBRANCH  10  11
ENDBRANCH   9  10
ENDBRANCH   8   9
ENDBRANCH   7   8
ENDBRANCH   6   7
ENDBRANCH   5   6
ENDBRANCH   4   5
ENDBRANCH   3   4
ENDBRANCH   2   3
ENDBRANCH   1   2
BRANCH   1  13
ATOM     13  C   UNL     1      42.278  55.603  17.698  1.00  0.00     0.000 C 
BRANCH  13  14
ATOM     14  C   UNL     1      40.856  55.978  17.228  1.00  0.00     0.000 C 
BRANCH  14  15
ATOM     15  C   UNL     1      39.867  56.242  18.381  1.00  0.00     0.000 C 
BRANCH  15  16
ATOM     16  C   UNL     1      38.723  57.216  18.052  1.00  0.00     0.000 C 
BRANCH  16  17
ATOM     17  C   UNL     1      37.836  56.727  16.894  1.00  0.00     0.000 C 
BRANCH  17  18
ATOM     18  C   UNL     1      36.358  57.120  17.070  1.00  0.00     0.000 C 
BRANCH  18  19
ATOM     19  C   UNL     1      35.671  57.677  15.810  1.00  0.00     0.000 C 
BRANCH  19  20
ATOM     20  C   UNL     1      34.473  56.855  15.292  1.00  0.00     0.006 C 
BRANCH  20  21
ATOM     21  C   UNL     1      33.777  56.014  16.378  1.00  0.00     0.053 C 
BRANCH  21  22
ATOM     22  C   UNL     1      32.284  56.040  16.251  1.00  0.00     0.041 C 
ATOM     23  O   UNL     1      31.694  55.208  15.512  1.00  0.00    -0.550 OA
ATOM     24  O   UNL     1      31.540  56.964  16.972  1.00  0.00    -0.550 OA
ENDBRANCH  21  22
ENDBRANCH  20  21
ENDBRANCH  19  20
ENDBRANCH  18  19
ENDBRANCH  17  18
ENDBRANCH  16  17
ENDBRANCH  15  16
ENDBRANCH  14  15
ENDBRANCH  13  14
ENDBRANCH   1  13
TORSDOF 20
ENDMDL
MODEL 3
REMARK VINA RESULT:    -5.283      5.067     11.412
REMARK INTER + INTRA:         -13.034
REMARK INTER:                 -11.473
REMARK INTRA:                  -1.561
REMARK UNBOUND:                -1.574
REMARK SMILES CCCCCCCCCCCCCCCCCCCCCC(=O)[O-]
REMARK SMILES IDX 12 1 11 2 10 3 9 4 8 5 7 6 6 7 5 8 4 9 3 10 2 11 1 12 13 13
REMARK SMILES IDX 14 14 15 15 16 16 17 17 18 18 19 19 20 20 21 21 22 22 23 23
REMARK SMILES IDX 24 24
REMARK H PARENT
REMARK Flexibility Score: inf
ROOT
ATOM      1  C   UNL     1      39.847  56.105  18.356  1.00  0.00     0.000 C 
ENDROOT
BRANCH   1   2
ATOM      2  C   UNL     1      40.908  55.989  17.252  1.00  0.00     0.000 C 
BRANCH   2   3
ATOM      3  C   UNL     1      42.249  55.435  17.766  1.00  0.00     0.000 C 
BRANCH   3   4
ATOM      4  C   UNL     1      42.783  54.204  17.004  1.00  0.00    -0.000 C 
BRANCH   4   5
ATOM      5  C   UNL     1      42.284  54.066  15.554  1.00  0.00    -0.000 C 
BRANCH   5   6
ATOM      6  C   UNL     1      43.395  53.933  14.495  1.00  0.00    -0.000 C 
BRANCH   6   7
ATOM      7  C   UNL     1      44.724  53.384  15.056  1.00  0.00    -0.000 C 
BRANCH   7   8
ATOM      8  C   UNL     1      45.933  54.247  14.658  1.00  0.00    -0.000 C 
BRANCH   8   9
ATOM      9  C   UNL     1      45.749  55.729  15.025  1.00  0.00    -0.000 C 
BRANCH   9  10
ATOM     10  C   UNL     1      45.858  55.980  16.536  1.00  0.00    -0.000 C 
BRANCH  10  11
ATOM     11  C   UNL     1      47.259  56.482  16.907  1.00  0.00    -0.003 C 
ATOM     12  C   UNL     1      48.046  55.415  17.664  1.00  0.00     0.004 C 
ENDBRANCH  10  11
ENDBRANCH   9  10
ENDBRANCH   8   9
ENDBRANCH   7   8
ENDBRANCH   6   7
ENDBRANCH   5   6
ENDBRANCH   4   5
ENDBRANCH   3   4
ENDBRANCH   2   3
ENDBRANCH   1   2
BRANCH   1  13
ATOM     13  C   UNL     1      38.781  57.149  17.989  1.00  0.00     0.000 C 
BRANCH  13  14
ATOM     14  C   UNL     1      37.940  56.722  16.766  1.00  0.00     0.000 C 
BRANCH  14  15
ATOM     15  C   UNL     1      36.462  57.154  16.845  1.00  0.00     0.000 C 
BRANCH  15  16
ATOM     16  C   UNL     1      36.043  58.239  15.839  1.00  0.00     0.000 C 
BRANCH  16  17
ATOM     17  C   UNL     1      35.898  57.702  14.404  1.00  0.00     0.000 C 
BRANCH  17  18
ATOM     18  C   UNL     1      35.138  56.365  14.345  1.00  0.00     0.000 C 
BRANCH  18  19
ATOM     19  C   UNL     1      33.610  56.468  14.509  1.00  0.00     0.000 C 
BRANCH  19  20
ATOM     20  C   UNL     1      33.062  56.027  15.881  1.00  0.00     0.006 C 
BRANCH  20  21
ATOM     21  C   UNL     1      31.528  55.920  15.936  1.00  0.00     0.053 C 
BRANCH  21  22
ATOM     22  C   UNL     1      30.956  56.523  17.182  1.00  0.00     0.041 C 
ATOM     23  O   UNL     1      30.854  57.773  17.295  1.00  0.00    -0.550 OA
ATOM     24  O   UNL     1      30.508  55.703  18.211  1.00  0.00    -0.550 OA
ENDBRANCH  21  22
ENDBRANCH  20  21
ENDBRANCH  19  20
ENDBRANCH  18  19
ENDBRANCH  17  18
ENDBRANCH  16  17
ENDBRANCH  15  16
ENDBRANCH  14  15
ENDBRANCH  13  14
ENDBRANCH   1  13
TORSDOF 20
ENDMDL
MODEL 4
REMARK VINA RESULT:    -5.263      1.287      1.819
REMARK INTER + INTRA:         -12.990
REMARK INTER:                 -11.369
REMARK INTRA:                  -1.621
REMARK UNBOUND:                -1.574
REMARK SMILES CCCCCCCCCCCCCCCCCCCCCC(=O)[O-]
REMARK SMILES IDX 12 1 11 2 10 3 9 4 8 5 7 6 6 7 5 8 4 9 3 10 2 11 1 12 13 13
REMARK SMILES IDX 14 14 15 15 16 16 17 17 18 18 19 19 20 20 21 21 22 22 23 23
REMARK SMILES IDX 24 24
REMARK H PARENT
REMARK Flexibility Score: inf
ROOT
ATOM      1  C   UNL     1      41.137  55.945  17.231  1.00  0.00     0.000 C 
ENDROOT
BRANCH   1   2
ATOM      2  C   UNL     1      40.082  56.030  18.343  1.00  0.00     0.000 C 
BRANCH   2   3
ATOM      3  C   UNL     1      38.953  57.027  18.024  1.00  0.00     0.000 C 
BRANCH   3   4
ATOM      4  C   UNL     1      37.987  56.584  16.905  1.00  0.00    -0.000 C 
BRANCH   4   5
ATOM      5  C   UNL     1      36.663  57.366  16.838  1.00  0.00    -0.000 C 
BRANCH   5   6
ATOM      6  C   UNL     1      36.176  57.696  15.414  1.00  0.00    -0.000 C 
BRANCH   6   7
ATOM      7  C   UNL     1      34.795  57.095  15.076  1.00  0.00    -0.000 C 
BRANCH   7   8
ATOM      8  C   UNL     1      34.038  56.616  16.326  1.00  0.00    -0.000 C 
BRANCH   8   9
ATOM      9  C   UNL     1      32.988  55.539  16.007  1.00  0.00    -0.000 C 
BRANCH   9  10
ATOM     10  C   UNL     1      31.584  56.127  15.803  1.00  0.00    -0.000 C 
BRANCH  10  11
ATOM     11  C   UNL     1      31.032  56.691  17.118  1.00  0.00    -0.003 C 
ATOM     12  C   UNL     1      30.453  55.584  17.994  1.00  0.00     0.004 C 
ENDBRANCH  10  11
ENDBRANCH   9  10
ENDBRANCH   8   9
ENDBRANCH   7   8
ENDBRANCH   6   7
ENDBRANCH   5   6
ENDBRANCH   4   5
ENDBRANCH   3   4
ENDBRANCH   2   3
ENDBRANCH   1   2
BRANCH   1  13
ATOM     13  C   UNL     1      42.502  55.522  17.796  1.00  0.00     0.000 C 
BRANCH  13  14
ATOM     14  C   UNL     1      43.037  54.235  17.131  1.00  0.00     0.000 C 
BRANCH  14  15
ATOM     15  C   UNL     1      42.866  54.208  15.599  1.00  0.00     0.000 C 
BRANCH  15  16
ATOM     16  C   UNL     1      43.472  52.982  14.895  1.00  0.00     0.000 C 
BRANCH  16  17
ATOM     17  C   UNL     1      45.006  53.047  14.797  1.00  0.00     0.000 C 
BRANCH  17  18
ATOM     18  C   UNL     1      45.520  54.452  14.433  1.00  0.00     0.000 C 
BRANCH  18  19
ATOM     19  C   UNL     1      46.746  54.931  15.233  1.00  0.00     0.000 C 
BRANCH  19  20
ATOM     20  C   UNL     1      46.429  55.716  16.521  1.00  0.00     0.006 C 
BRANCH  20  21
ATOM     21  C   UNL     1      45.657  57.027  16.280  1.00  0.00     0.053 C 
BRANCH  21  22
ATOM     22  C   UNL     1      46.401  57.972  15.387  1.00  0.00     0.041 C 
ATOM     23  O   UNL     1      47.478  58.498  15.773  1.00  0.00    -0.550 OA
ATOM     24  O   UNL     1      45.920  58.252  14.114  1.00  0.00    -0.550 OA
ENDBRANCH  21  22
ENDBRANCH  20  21
ENDBRANCH  19  20
ENDBRANCH  18  19
ENDBRANCH  17  18
ENDBRANCH  16  17
ENDBRANCH  15  16
ENDBRANCH  14  15
ENDBRANCH  13  14
ENDBRANCH   1  13
TORSDOF 20
ENDMDL
MODEL 5
REMARK VINA RESULT:    -5.204      1.226      1.953
REMARK INTER + INTRA:         -12.864
REMARK INTER:                 -11.479
REMARK INTRA:                  -1.385
REMARK UNBOUND:                -1.574
REMARK SMILES CCCCCCCCCCCCCCCCCCCCCC(=O)[O-]
REMARK SMILES IDX 12 1 11 2 10 3 9 4 8 5 7 6 6 7 5 8 4 9 3 10 2 11 1 12 13 13
REMARK SMILES IDX 14 14 15 15 16 16 17 17 18 18 19 19 20 20 21 21 22 22 23 23
REMARK SMILES IDX 24 24
REMARK H PARENT
REMARK Flexibility Score: inf
ROOT
ATOM      1  C   UNL     1      41.048  55.842  17.025  1.00  0.00     0.000 C 
ENDROOT
BRANCH   1   2
ATOM      2  C   UNL     1      40.138  56.039  18.246  1.00  0.00     0.000 C 
BRANCH   2   3
ATOM      3  C   UNL     1      39.009  57.055  17.994  1.00  0.00     0.000 C 
BRANCH   3   4
ATOM      4  C   UNL     1      38.039  56.684  16.853  1.00  0.00    -0.000 C 
BRANCH   4   5
ATOM      5  C   UNL     1      36.571  57.085  17.087  1.00  0.00    -0.000 C 
BRANCH   5   6
ATOM      6  C   UNL     1      35.967  57.999  16.004  1.00  0.00    -0.000 C 
BRANCH   6   7
ATOM      7  C   UNL     1      36.281  57.544  14.563  1.00  0.00    -0.000 C 
BRANCH   7   8
ATOM      8  C   UNL     1      35.368  56.398  14.095  1.00  0.00    -0.000 C 
BRANCH   8   9
ATOM      9  C   UNL     1      33.888  56.645  14.432  1.00  0.00    -0.000 C 
BRANCH   9  10
ATOM     10  C   UNL     1      33.328  55.611  15.419  1.00  0.00    -0.000 C 
BRANCH  10  11
ATOM     11  C   UNL     1      32.553  56.298  16.550  1.00  0.00    -0.003 C 
ATOM     12  C   UNL     1      31.138  56.660  16.110  1.00  0.00     0.004 C 
ENDBRANCH  10  11
ENDBRANCH   9  10
ENDBRANCH   8   9
ENDBRANCH   7   8
ENDBRANCH   6   7
ENDBRANCH   5   6
ENDBRANCH   4   5
ENDBRANCH   3   4
ENDBRANCH   2   3
ENDBRANCH   1   2
BRANCH   1  13
ATOM     13  C   UNL     1      42.507  55.617  17.455  1.00  0.00     0.000 C 
BRANCH  13  14
ATOM     14  C   UNL     1      42.957  54.155  17.253  1.00  0.00     0.000 C 
BRANCH  14  15
ATOM     15  C   UNL     1      42.961  53.700  15.780  1.00  0.00     0.000 C 
BRANCH  15  16
ATOM     16  C   UNL     1      44.221  54.079  14.982  1.00  0.00     0.000 C 
BRANCH  16  17
ATOM     17  C   UNL     1      45.094  52.862  14.630  1.00  0.00     0.000 C 
BRANCH  17  18
ATOM     18  C   UNL     1      46.493  53.260  14.126  1.00  0.00     0.000 C 
BRANCH  18  19
ATOM     19  C   UNL     1      47.671  52.614  14.878  1.00  0.00     0.000 C 
BRANCH  19  20
ATOM     20  C   UNL     1      48.589  53.594  15.635  1.00  0.00     0.006 C 
BRANCH  20  21
ATOM     21  C   UNL     1      48.137  55.063  15.553  1.00  0.00     0.053 C 
BRANCH  21  22
ATOM     22  C   UNL     1      47.514  55.542  16.829  1.00  0.00     0.041 C 
ATOM     23  O   UNL     1      48.089  55.344  17.931  1.00  0.00    -0.550 OA
ATOM     24  O   UNL     1      46.310  56.234  16.799  1.00  0.00    -0.550 OA
ENDBRANCH  21  22
ENDBRANCH  20  21
ENDBRANCH  19  20
ENDBRANCH  18  19
ENDBRANCH  17  18
ENDBRANCH  16  17
ENDBRANCH  15  16
ENDBRANCH  14  15
ENDBRANCH  13  14
ENDBRANCH   1  13
TORSDOF 20
ENDMDL
MODEL 6
REMARK VINA RESULT:    -5.203      5.126     11.761
REMARK INTER + INTRA:         -12.861
REMARK INTER:                 -11.628
REMARK INTRA:                  -1.233
REMARK UNBOUND:                -1.574
REMARK SMILES CCCCCCCCCCCCCCCCCCCCCC(=O)[O-]
REMARK SMILES IDX 12 1 11 2 10 3 9 4 8 5 7 6 6 7 5 8 4 9 3 10 2 11 1 12 13 13
REMARK SMILES IDX 14 14 15 15 16 16 17 17 18 18 19 19 20 20 21 21 22 22 23 23
REMARK SMILES IDX 24 24
REMARK H PARENT
REMARK Flexibility Score: inf
ROOT
ATOM      1  C   UNL     1      39.944  56.065  18.299  1.00  0.00     0.000 C 
ENDROOT
BRANCH   1   2
ATOM      2  C   UNL     1      40.975  55.977  17.165  1.00  0.00     0.000 C 
BRANCH   2   3
ATOM      3  C   UNL     1      42.407  55.733  17.675  1.00  0.00     0.000 C 
BRANCH   3   4
ATOM      4  C   UNL     1      43.036  54.393  17.241  1.00  0.00    -0.000 C 
BRANCH   4   5
ATOM      5  C   UNL     1      43.083  54.155  15.721  1.00  0.00    -0.000 C 
BRANCH   5   6
ATOM      6  C   UNL     1      44.214  54.897  14.984  1.00  0.00    -0.000 C 
BRANCH   6   7
ATOM      7  C   UNL     1      45.431  55.219  15.877  1.00  0.00    -0.000 C 
BRANCH   7   8
ATOM      8  C   UNL     1      46.746  54.664  15.305  1.00  0.00    -0.000 C 
BRANCH   8   9
ATOM      9  C   UNL     1      47.984  55.178  16.059  1.00  0.00    -0.000 C 
BRANCH   9  10
ATOM     10  C   UNL     1      47.638  55.731  17.450  1.00  0.00    -0.000 C 
BRANCH  10  11
ATOM     11  C   UNL     1      48.232  57.131  17.645  1.00  0.00    -0.003 C 
ATOM     12  C   UNL     1      48.125  57.960  16.368  1.00  0.00     0.004 C 
ENDBRANCH  10  11
ENDBRANCH   9  10
ENDBRANCH   8   9
ENDBRANCH   7   8
ENDBRANCH   6   7
ENDBRANCH   5   6
ENDBRANCH   4   5
ENDBRANCH   3   4
ENDBRANCH   2   3
ENDBRANCH   1   2
BRANCH   1  13
ATOM     13  C   UNL     1      38.846  57.089  17.968  1.00  0.00     0.000 C 
BRANCH  13  14
ATOM     14  C   UNL     1      37.916  56.604  16.836  1.00  0.00     0.000 C 
BRANCH  14  15
ATOM     15  C   UNL     1      36.506  57.227  16.876  1.00  0.00     0.000 C 
BRANCH  15  16
ATOM     16  C   UNL     1      36.186  58.196  15.726  1.00  0.00     0.000 C 
BRANCH  16  17
ATOM     17  C   UNL     1      36.045  57.487  14.368  1.00  0.00     0.000 C 
BRANCH  17  18
ATOM     18  C   UNL     1      34.577  57.296  13.947  1.00  0.00     0.000 C 
BRANCH  18  19
ATOM     19  C   UNL     1      33.888  56.041  14.515  1.00  0.00     0.000 C 
BRANCH  19  20
ATOM     20  C   UNL     1      32.503  56.279  15.150  1.00  0.00     0.006 C 
BRANCH  20  21
ATOM     21  C   UNL     1      32.417  55.873  16.632  1.00  0.00     0.053 C 
BRANCH  21  22
ATOM     22  C   UNL     1      31.137  56.315  17.273  1.00  0.00     0.041 C 
ATOM     23  O   UNL     1      30.399  55.482  17.862  1.00  0.00    -0.550 OA
ATOM     24  O   UNL     1      30.772  57.655  17.247  1.00  0.00    -0.550 OA
ENDBRANCH  21  22
ENDBRANCH  20  21
ENDBRANCH  19  20
ENDBRANCH  18  19
ENDBRANCH  17  18
ENDBRANCH  16  17
ENDBRANCH  15  16
ENDBRANCH  14  15
ENDBRANCH  13  14
ENDBRANCH   1  13
TORSDOF 20
ENDMDL
MODEL 7
REMARK VINA RESULT:    -5.171      5.095     11.849
REMARK INTER + INTRA:         -12.792
REMARK INTER:                 -11.271
REMARK INTRA:                  -1.520
REMARK UNBOUND:                -1.574
REMARK SMILES CCCCCCCCCCCCCCCCCCCCCC(=O)[O-]
REMARK SMILES IDX 12 1 11 2 10 3 9 4 8 5 7 6 6 7 5 8 4 9 3 10 2 11 1 12 13 13
REMARK SMILES IDX 14 14 15 15 16 16 17 17 18 18 19 19 20 20 21 21 22 22 23 23
REMARK SMILES IDX 24 24
REMARK H PARENT
REMARK Flexibility Score: inf
ROOT
ATOM      1  C   UNL     1      40.891  55.888  16.956  1.00  0.00     0.000 C 
ENDROOT
BRANCH   1   2
ATOM      2  C   UNL     1      42.378  55.614  17.221  1.00  0.00     0.000 C 
BRANCH   2   3
ATOM      3  C   UNL     1      42.708  54.112  17.289  1.00  0.00     0.000 C 
BRANCH   3   4
ATOM      4  C   UNL     1      43.088  53.465  15.940  1.00  0.00    -0.000 C 
BRANCH   4   5
ATOM      5  C   UNL     1      43.556  54.448  14.853  1.00  0.00    -0.000 C 
BRANCH   5   6
ATOM      6  C   UNL     1      45.079  54.486  14.622  1.00  0.00    -0.000 C 
BRANCH   6   7
ATOM      7  C   UNL     1      45.755  55.769  15.150  1.00  0.00    -0.000 C 
BRANCH   7   8
ATOM      8  C   UNL     1      46.057  55.699  16.657  1.00  0.00    -0.000 C 
BRANCH   8   9
ATOM      9  C   UNL     1      47.564  55.723  16.960  1.00  0.00    -0.000 C 
BRANCH   9  10
ATOM     10  C   UNL     1      48.407  55.176  15.799  1.00  0.00    -0.000 C 
BRANCH  10  11
ATOM     11  C   UNL     1      48.781  53.708  16.038  1.00  0.00    -0.003 C 
ATOM     12  C   UNL     1      48.612  52.881  14.768  1.00  0.00     0.004 C 
ENDBRANCH  10  11
ENDBRANCH   9  10
ENDBRANCH   8   9
ENDBRANCH   7   8
ENDBRANCH   6   7
ENDBRANCH   5   6
ENDBRANCH   4   5
ENDBRANCH   3   4
ENDBRANCH   2   3
ENDBRANCH   1   2
BRANCH   1  13
ATOM     13  C   UNL     1      40.122  56.079  18.273  1.00  0.00     0.000 C 
BRANCH  13  14
ATOM     14  C   UNL     1      38.941  57.061  18.123  1.00  0.00     0.000 C 
BRANCH  14  15
ATOM     15  C   UNL     1      37.997  56.728  16.950  1.00  0.00     0.000 C 
BRANCH  15  16
ATOM     16  C   UNL     1      36.573  57.296  17.074  1.00  0.00     0.000 C 
BRANCH  16  17
ATOM     17  C   UNL     1      36.030  57.844  15.743  1.00  0.00     0.000 C 
BRANCH  17  18
ATOM     18  C   UNL     1      34.820  57.049  15.222  1.00  0.00     0.000 C 
BRANCH  18  19
ATOM     19  C   UNL     1      34.201  56.059  16.227  1.00  0.00     0.000 C 
BRANCH  19  20
ATOM     20  C   UNL     1      32.921  55.345  15.748  1.00  0.00     0.006 C 
BRANCH  20  21
ATOM     21  C   UNL     1      31.684  56.259  15.682  1.00  0.00     0.053 C 
BRANCH  21  22
ATOM     22  C   UNL     1      31.168  56.623  17.041  1.00  0.00     0.041 C 
ATOM     23  O   UNL     1      30.778  57.796  17.280  1.00  0.00    -0.550 OA
ATOM     24  O   UNL     1      31.090  55.658  18.038  1.00  0.00    -0.550 OA
ENDBRANCH  21  22
ENDBRANCH  20  21
ENDBRANCH  19  20
ENDBRANCH  18  19
ENDBRANCH  17  18
ENDBRANCH  16  17
ENDBRANCH  15  16
ENDBRANCH  14  15
ENDBRANCH  13  14
ENDBRANCH   1  13
TORSDOF 20
ENDMDL
MODEL 8
REMARK VINA RESULT:    -5.089      1.355      2.068
REMARK INTER + INTRA:         -12.614
REMARK INTER:                 -11.362
REMARK INTRA:                  -1.253
REMARK UNBOUND:                -1.574
REMARK SMILES CCCCCCCCCCCCCCCCCCCCCC(=O)[O-]
REMARK SMILES IDX 12 1 11 2 10 3 9 4 8 5 7 6 6 7 5 8 4 9 3 10 2 11 1 12 13 13
REMARK SMILES IDX 14 14 15 15 16 16 17 17 18 18 19 19 20 20 21 21 22 22 23 23
REMARK SMILES IDX 24 24
REMARK H PARENT
REMARK Flexibility Score: inf
ROOT
ATOM      1  C   UNL     1      38.933  57.122  18.024  1.00  0.00     0.000 C 
ENDROOT
BRANCH   1   2
ATOM      2  C   UNL     1      37.995  56.663  16.898  1.00  0.00     0.000 C 
BRANCH   2   3
ATOM      3  C   UNL     1      36.574  57.242  17.029  1.00  0.00     0.000 C 
BRANCH   3   4
ATOM      4  C   UNL     1      36.109  58.109  15.841  1.00  0.00    -0.000 C 
BRANCH   4   5
ATOM      5  C   UNL     1      35.866  57.343  14.528  1.00  0.00    -0.000 C 
BRANCH   5   6
ATOM      6  C   UNL     1      34.385  57.080  14.195  1.00  0.00    -0.000 C 
BRANCH   6   7
ATOM      7  C   UNL     1      33.797  55.847  14.914  1.00  0.00    -0.000 C 
BRANCH   7   8
ATOM      8  C   UNL     1      33.058  56.218  16.211  1.00  0.00    -0.000 C 
BRANCH   8   9
ATOM      9  C   UNL     1      31.572  56.536  15.975  1.00  0.00    -0.000 C 
BRANCH   9  10
ATOM     10  C   UNL     1      30.773  56.625  17.284  1.00  0.00    -0.000 C 
BRANCH  10  11
ATOM     11  C   UNL     1      30.920  55.336  18.102  1.00  0.00    -0.003 C 
ATOM     12  C   UNL     1      30.123  54.193  17.481  1.00  0.00     0.004 C 
ENDBRANCH  10  11
ENDBRANCH   9  10
ENDBRANCH   8   9
ENDBRANCH   7   8
ENDBRANCH   6   7
ENDBRANCH   5   6
ENDBRANCH   4   5
ENDBRANCH   3   4
ENDBRANCH   2   3
ENDBRANCH   1   2
BRANCH   1  13
ATOM     13  C   UNL     1      39.985  56.047  18.337  1.00  0.00     0.000 C 
BRANCH  13  14
ATOM     14  C   UNL     1      41.078  55.964  17.250  1.00  0.00     0.000 C 
BRANCH  14  15
ATOM     15  C   UNL     1      42.405  55.353  17.745  1.00  0.00     0.000 C 
BRANCH  15  16
ATOM     16  C   UNL     1      42.975  54.228  16.865  1.00  0.00     0.000 C 
BRANCH  16  17
ATOM     17  C   UNL     1      43.590  54.747  15.554  1.00  0.00     0.000 C 
BRANCH  17  18
ATOM     18  C   UNL     1      45.124  54.621  15.526  1.00  0.00     0.000 C 
BRANCH  18  19
ATOM     19  C   UNL     1      45.882  55.608  16.433  1.00  0.00     0.000 C 
BRANCH  19  20
ATOM     20  C   UNL     1      45.568  57.099  16.195  1.00  0.00     0.006 C 
BRANCH  20  21
ATOM     21  C   UNL     1      46.057  57.632  14.836  1.00  0.00     0.053 C 
BRANCH  21  22
ATOM     22  C   UNL     1      47.061  58.734  14.983  1.00  0.00     0.041 C 
ATOM     23  O   UNL     1      48.020  58.619  15.791  1.00  0.00    -0.550 OA
ATOM     24  O   UNL     1      46.955  59.880  14.205  1.00  0.00    -0.550 OA
ENDBRANCH  21  22
ENDBRANCH  20  21
ENDBRANCH  19  20
ENDBRANCH  18  19
ENDBRANCH  17  18
ENDBRANCH  16  17
ENDBRANCH  15  16
ENDBRANCH  14  15
ENDBRANCH  13  14
ENDBRANCH   1  13
TORSDOF 20
ENDMDL
MODEL 9
REMARK VINA RESULT:    -5.059      1.649      2.482
REMARK INTER + INTRA:         -12.548
REMARK INTER:                 -11.277
REMARK INTRA:                  -1.271
REMARK UNBOUND:                -1.574
REMARK SMILES CCCCCCCCCCCCCCCCCCCCCC(=O)[O-]
REMARK SMILES IDX 12 1 11 2 10 3 9 4 8 5 7 6 6 7 5 8 4 9 3 10 2 11 1 12 13 13
REMARK SMILES IDX 14 14 15 15 16 16 17 17 18 18 19 19 20 20 21 21 22 22 23 23
REMARK SMILES IDX 24 24
REMARK H PARENT
REMARK Flexibility Score: inf
ROOT
ATOM      1  C   UNL     1      39.915  56.151  18.370  1.00  0.00     0.000 C 
ENDROOT
BRANCH   1   2
ATOM      2  C   UNL     1      38.825  57.165  17.993  1.00  0.00     0.000 C 
BRANCH   2   3
ATOM      3  C   UNL     1      37.887  56.652  16.885  1.00  0.00     0.000 C 
BRANCH   3   4
ATOM      4  C   UNL     1      36.430  57.150  16.980  1.00  0.00    -0.000 C 
BRANCH   4   5
ATOM      5  C   UNL     1      35.983  58.083  15.840  1.00  0.00    -0.000 C 
BRANCH   5   6
ATOM      6  C   UNL     1      35.654  57.375  14.512  1.00  0.00    -0.000 C 
BRANCH   6   7
ATOM      7  C   UNL     1      34.759  56.128  14.679  1.00  0.00    -0.000 C 
BRANCH   7   8
ATOM      8  C   UNL     1      33.292  56.489  14.967  1.00  0.00    -0.000 C 
BRANCH   8   9
ATOM      9  C   UNL     1      32.930  56.350  16.455  1.00  0.00    -0.000 C 
BRANCH   9  10
ATOM     10  C   UNL     1      32.790  54.884  16.892  1.00  0.00    -0.000 C 
BRANCH  10  11
ATOM     11  C   UNL     1      31.334  54.557  17.248  1.00  0.00    -0.003 C 
ATOM     12  C   UNL     1      30.664  55.725  17.967  1.00  0.00     0.004 C 
ENDBRANCH  10  11
ENDBRANCH   9  10
ENDBRANCH   8   9
ENDBRANCH   7   8
ENDBRANCH   6   7
ENDBRANCH   5   6
ENDBRANCH   4   5
ENDBRANCH   3   4
ENDBRANCH   2   3
ENDBRANCH   1   2
BRANCH   1  13
ATOM     13  C   UNL     1      40.890  55.930  17.203  1.00  0.00     0.000 C 
BRANCH  13  14
ATOM     14  C   UNL     1      42.287  55.484  17.685  1.00  0.00     0.000 C 
BRANCH  14  15
ATOM     15  C   UNL     1      43.192  54.945  16.560  1.00  0.00     0.000 C 
BRANCH  15  16
ATOM     16  C   UNL     1      44.702  55.123  16.792  1.00  0.00     0.000 C 
BRANCH  16  17
ATOM     17  C   UNL     1      45.251  56.425  16.184  1.00  0.00     0.000 C 
BRANCH  17  18
ATOM     18  C   UNL     1      46.630  56.810  16.750  1.00  0.00     0.000 C 
BRANCH  18  19
ATOM     19  C   UNL     1      47.586  55.631  17.011  1.00  0.00     0.000 C 
BRANCH  19  20
ATOM     20  C   UNL     1      48.415  55.170  15.796  1.00  0.00     0.006 C 
BRANCH  20  21
ATOM     21  C   UNL     1      48.459  53.643  15.612  1.00  0.00     0.053 C 
BRANCH  21  22
ATOM     22  C   UNL     1      47.329  53.134  14.770  1.00  0.00     0.041 C 
ATOM     23  O   UNL     1      46.674  53.925  14.040  1.00  0.00    -0.550 OA
ATOM     24  O   UNL     1      47.016  51.781  14.768  1.00  0.00    -0.550 OA
ENDBRANCH  21  22
ENDBRANCH  20  21
ENDBRANCH  19  20
ENDBRANCH  18  19
ENDBRANCH  17  18
ENDBRANCH  16  17
ENDBRANCH  15  16
ENDBRANCH  14  15
ENDBRANCH  13  14
ENDBRANCH   1  13
TORSDOF 20
ENDMDL
