MODEL 1
REMARK VINA RESULT:    -3.125      0.000      0.000
REMARK INTER + INTRA:          -8.114
REMARK INTER:                  -5.682
REMARK INTRA:                  -2.432
REMARK UNBOUND:                -2.432
REMARK SMILES CCCCCCCCCCCCCCCC(=O)[O-]
REMARK SMILES IDX 9 1 10 2 11 3 12 4 13 5 14 6 15 7 16 8 17 9 18 10 8 11 7 12
REMARK SMILES IDX 6 13 5 14 4 15 3 16 2 17 1 18
REMARK H PARENT
REMARK Flexibility Score: inf
ROOT
ATOM      1  C   UNL     1      56.796  26.575  52.652  1.00  0.00     0.000 C 
ENDROOT
BRANCH   1   2
ATOM      2  C   UNL     1      56.766  25.427  51.630  1.00  0.00     0.000 C 
BRANCH   2   3
ATOM      3  C   UNL     1      55.324  25.046  51.274  1.00  0.00     0.000 C 
BRANCH   3   4
ATOM      4  C   UNL     1      55.057  25.238  49.777  1.00  0.00     0.000 C 
BRANCH   4   5
ATOM      5  C   UNL     1      53.809  26.097  49.546  1.00  0.00     0.000 C 
BRANCH   5   6
ATOM      6  C   UNL     1      53.506  26.970  50.773  1.00  0.00     0.006 C 
BRANCH   6   7
ATOM      7  C   UNL     1      53.899  28.437  50.554  1.00  0.00     0.053 C 
BRANCH   7   8
ATOM      8  C   UNL     1      53.920  29.203  51.840  1.00  0.00     0.041 C 
ATOM      9  O   UNL     1      54.123  30.446  51.836  1.00  0.00    -0.550 OA
ATOM     10  O   UNL     1      53.746  28.539  53.048  1.00  0.00    -0.550 OA
ENDBRANCH   7   8
ENDBRANCH   6   7
ENDBRANCH   5   6
ENDBRANCH   4   5
ENDBRANCH   3   4
ENDBRANCH   2   3
ENDBRANCH   1   2
BRANCH   1  11
ATOM     11  C   UNL     1      57.348  27.881  52.060  1.00  0.00     0.000 C 
BRANCH  11  12
ATOM     12  C   UNL     1      57.600  27.787  50.548  1.00  0.00    -0.000 C 
BRANCH  12  13
ATOM     13  C   UNL     1      58.826  28.619  50.141  1.00  0.00    -0.000 C 
BRANCH  13  14
ATOM     14  C   UNL     1      59.956  27.755  49.542  1.00  0.00    -0.000 C 
BRANCH  14  15
ATOM     15  C   UNL     1      59.718  26.240  49.677  1.00  0.00    -0.000 C 
BRANCH  15  16
ATOM     16  C   UNL     1      60.857  25.459  50.360  1.00  0.00    -0.000 C 
BRANCH  16  17
ATOM     17  C   UNL     1      60.542  24.972  51.786  1.00  0.00    -0.003 C 
ATOM     18  C   UNL     1      60.534  26.103  52.815  1.00  0.00     0.004 C 
ENDBRANCH  16  17
ENDBRANCH  15  16
ENDBRANCH  14  15
ENDBRANCH  13  14
ENDBRANCH  12  13
ENDBRANCH  11  12
ENDBRANCH   1  11
TORSDOF 14
ENDMDL
MODEL 2
REMARK VINA RESULT:    -3.124     12.342     14.162
REMARK INTER + INTRA:          -8.112
REMARK INTER:                  -6.071
REMARK INTRA:                  -2.041
REMARK UNBOUND:                -2.432
REMARK SMILES CCCCCCCCCCCCCCCC(=O)[O-]
REMARK SMILES IDX 9 1 10 2 11 3 12 4 13 5 14 6 15 7 16 8 17 9 18 10 8 11 7 12
REMARK SMILES IDX 6 13 5 14 4 15 3 16 2 17 1 18
REMARK H PARENT
REMARK Flexibility Score: inf
ROOT
ATOM      1  C   UNL     1      61.772  31.654  61.033  1.00  0.00     0.000 C 
ENDROOT
BRANCH   1   2
ATOM      2  C   UNL     1      61.539  30.279  61.680  1.00  0.00     0.000 C 
BRANCH   2   3
ATOM      3  C   UNL     1      62.237  29.171  60.882  1.00  0.00     0.000 C 
BRANCH   3   4
ATOM      4  C   UNL     1      63.560  28.767  61.542  1.00  0.00     0.000 C 
BRANCH   4   5
ATOM      5  C   UNL     1      64.580  28.306  60.494  1.00  0.00     0.000 C 
BRANCH   5   6
ATOM      6  C   UNL     1      65.782  29.261  60.438  1.00  0.00     0.006 C 
BRANCH   6   7
ATOM      7  C   UNL     1      66.984  28.642  59.714  1.00  0.00     0.053 C 
BRANCH   7   8
ATOM      8  C   UNL     1      68.148  28.451  60.636  1.00  0.00     0.041 C 
ATOM      9  O   UNL     1      67.958  28.228  61.860  1.00  0.00    -0.550 OA
ATOM     10  O   UNL     1      69.444  28.549  60.148  1.00  0.00    -0.550 OA
ENDBRANCH   7   8
ENDBRANCH   6   7
ENDBRANCH   5   6
ENDBRANCH   4   5
ENDBRANCH   3   4
ENDBRANCH   2   3
ENDBRANCH   1   2
BRANCH   1  11
ATOM     11  C   UNL     1      62.443  31.553  59.654  1.00  0.00     0.000 C 
BRANCH  11  12
ATOM     12  C   UNL     1      63.763  32.333  59.580  1.00  0.00    -0.000 C 
BRANCH  12  13
ATOM     13  C   UNL     1      64.361  32.540  60.980  1.00  0.00    -0.000 C 
BRANCH  13  14
ATOM     14  C   UNL     1      64.639  34.026  61.290  1.00  0.00    -0.000 C 
BRANCH  14  15
ATOM     15  C   UNL     1      63.778  35.005  60.469  1.00  0.00    -0.000 C 
BRANCH  15  16
ATOM     16  C   UNL     1      62.602  35.640  61.236  1.00  0.00    -0.000 C 
BRANCH  16  17
ATOM     17  C   UNL     1      61.216  35.384  60.618  1.00  0.00    -0.003 C 
ATOM     18  C   UNL     1      61.279  35.057  59.126  1.00  0.00     0.004 C 
ENDBRANCH  16  17
ENDBRANCH  15  16
ENDBRANCH  14  15
ENDBRANCH  13  14
ENDBRANCH  12  13
ENDBRANCH  11  12
ENDBRANCH   1  11
TORSDOF 14
ENDMDL
MODEL 3
REMARK VINA RESULT:    -3.096      3.151      6.506
REMARK INTER + INTRA:          -8.061
REMARK INTER:                  -6.274
REMARK INTRA:                  -1.787
REMARK UNBOUND:                -2.432
REMARK SMILES CCCCCCCCCCCCCCCC(=O)[O-]
REMARK SMILES IDX 9 1 10 2 11 3 12 4 13 5 14 6 15 7 16 8 17 9 18 10 8 11 7 12
REMARK SMILES IDX 6 13 5 14 4 15 3 16 2 17 1 18
REMARK H PARENT
REMARK Flexibility Score: inf
ROOT
ATOM      1  C   UNL     1      56.756  26.592  52.096  1.00  0.00     0.000 C 
ENDROOT
BRANCH   1   2
ATOM      2  C   UNL     1      57.158  27.606  51.013  1.00  0.00     0.000 C 
BRANCH   2   3
ATOM      3  C   UNL     1      57.954  28.769  51.617  1.00  0.00     0.000 C 
BRANCH   3   4
ATOM      4  C   UNL     1      59.394  28.782  51.092  1.00  0.00     0.000 C 
BRANCH   4   5
ATOM      5  C   UNL     1      59.457  28.279  49.645  1.00  0.00     0.000 C 
BRANCH   5   6
ATOM      6  C   UNL     1      60.521  27.182  49.489  1.00  0.00     0.006 C 
BRANCH   6   7
ATOM      7  C   UNL     1      59.997  25.800  49.900  1.00  0.00     0.053 C 
BRANCH   7   8
ATOM      8  C   UNL     1      61.064  24.973  50.546  1.00  0.00     0.041 C 
ATOM      9  O   UNL     1      61.221  23.768  50.215  1.00  0.00    -0.550 OA
ATOM     10  O   UNL     1      61.867  25.523  51.537  1.00  0.00    -0.550 OA
ENDBRANCH   7   8
ENDBRANCH   6   7
ENDBRANCH   5   6
ENDBRANCH   4   5
ENDBRANCH   3   4
ENDBRANCH   2   3
ENDBRANCH   1   2
BRANCH   1  11
ATOM     11  C   UNL     1      55.768  25.534  51.580  1.00  0.00     0.000 C 
BRANCH  11  12
ATOM     12  C   UNL     1      55.863  25.324  50.062  1.00  0.00    -0.000 C 
BRANCH  12  13
ATOM     13  C   UNL     1      54.478  25.421  49.404  1.00  0.00    -0.000 C 
BRANCH  13  14
ATOM     14  C   UNL     1      53.397  25.942  50.375  1.00  0.00    -0.000 C 
BRANCH  14  15
ATOM     15  C   UNL     1      52.875  27.349  50.028  1.00  0.00    -0.000 C 
BRANCH  15  16
ATOM     16  C   UNL     1      53.846  28.502  50.349  1.00  0.00    -0.000 C 
BRANCH  16  17
ATOM     17  C   UNL     1      53.353  29.476  51.434  1.00  0.00    -0.003 C 
ATOM     18  C   UNL     1      54.464  29.922  52.385  1.00  0.00     0.004 C 
ENDBRANCH  16  17
ENDBRANCH  15  16
ENDBRANCH  14  15
ENDBRANCH  13  14
ENDBRANCH  12  13
ENDBRANCH  11  12
ENDBRANCH   1  11
TORSDOF 14
ENDMDL
MODEL 4
REMARK VINA RESULT:    -3.081     11.472     12.943
REMARK INTER + INTRA:          -8.035
REMARK INTER:                  -6.074
REMARK INTRA:                  -1.961
REMARK UNBOUND:                -2.432
REMARK SMILES CCCCCCCCCCCCCCCC(=O)[O-]
REMARK SMILES IDX 9 1 10 2 11 3 12 4 13 5 14 6 15 7 16 8 17 9 18 10 8 11 7 12
REMARK SMILES IDX 6 13 5 14 4 15 3 16 2 17 1 18
REMARK H PARENT
REMARK Flexibility Score: inf
ROOT
ATOM      1  C   UNL     1      62.910  29.165  61.020  1.00  0.00     0.000 C 
ENDROOT
BRANCH   1   2
ATOM      2  C   UNL     1      61.854  29.738  61.979  1.00  0.00     0.000 C 
BRANCH   2   3
ATOM      3  C   UNL     1      61.228  31.015  61.405  1.00  0.00     0.000 C 
BRANCH   3   4
ATOM      4  C   UNL     1      61.379  31.066  59.881  1.00  0.00     0.000 C 
BRANCH   4   5
ATOM      5  C   UNL     1      62.007  32.391  59.434  1.00  0.00     0.000 C 
BRANCH   5   6
ATOM      6  C   UNL     1      62.352  33.273  60.643  1.00  0.00     0.006 C 
BRANCH   6   7
ATOM      7  C   UNL     1      63.865  33.427  60.838  1.00  0.00     0.053 C 
BRANCH   7   8
ATOM      8  C   UNL     1      64.212  34.743  61.463  1.00  0.00     0.041 C 
ATOM      9  O   UNL     1      65.367  34.944  61.921  1.00  0.00    -0.550 OA
ATOM     10  O   UNL     1      63.249  35.738  61.567  1.00  0.00    -0.550 OA
ENDBRANCH   7   8
ENDBRANCH   6   7
ENDBRANCH   5   6
ENDBRANCH   4   5
ENDBRANCH   3   4
ENDBRANCH   2   3
ENDBRANCH   1   2
BRANCH   1  11
ATOM     11  C   UNL     1      64.327  29.675  61.326  1.00  0.00     0.000 C 
BRANCH  11  12
ATOM     12  C   UNL     1      65.091  30.095  60.062  1.00  0.00    -0.000 C 
BRANCH  12  13
ATOM     13  C   UNL     1      66.406  29.312  59.927  1.00  0.00    -0.000 C 
BRANCH  13  14
ATOM     14  C   UNL     1      66.634  28.333  61.099  1.00  0.00    -0.000 C 
BRANCH  14  15
ATOM     15  C   UNL     1      66.735  26.858  60.668  1.00  0.00    -0.000 C 
BRANCH  15  16
ATOM     16  C   UNL     1      65.961  26.500  59.385  1.00  0.00    -0.000 C 
BRANCH  16  17
ATOM     17  C   UNL     1      64.472  26.171  59.601  1.00  0.00    -0.003 C 
ATOM     18  C   UNL     1      64.211  25.409  60.899  1.00  0.00     0.004 C 
ENDBRANCH  16  17
ENDBRANCH  15  16
ENDBRANCH  14  15
ENDBRANCH  13  14
ENDBRANCH  12  13
ENDBRANCH  11  12
ENDBRANCH   1  11
TORSDOF 14
ENDMDL
MODEL 5
REMARK VINA RESULT:    -3.037      3.219      5.977
REMARK INTER + INTRA:          -7.955
REMARK INTER:                  -5.612
REMARK INTRA:                  -2.343
REMARK UNBOUND:                -2.432
REMARK SMILES CCCCCCCCCCCCCCCC(=O)[O-]
REMARK SMILES IDX 9 1 10 2 11 3 12 4 13 5 14 6 15 7 16 8 17 9 18 10 8 11 7 12
REMARK SMILES IDX 6 13 5 14 4 15 3 16 2 17 1 18
REMARK H PARENT
REMARK Flexibility Score: inf
ROOT
ATOM      1  C   UNL     1      57.997  25.941  53.641  1.00  0.00     0.000 C 
ENDROOT
BRANCH   1   2
ATOM      2  C   UNL     1      58.990  26.886  52.948  1.00  0.00     0.000 C 
BRANCH   2   3
ATOM      3  C   UNL     1      58.545  28.348  53.087  1.00  0.00     0.000 C 
BRANCH   3   4
ATOM      4  C   UNL     1      58.994  29.177  51.878  1.00  0.00     0.000 C 
BRANCH   4   5
ATOM      5  C   UNL     1      58.379  28.637  50.582  1.00  0.00     0.000 C 
BRANCH   5   6
ATOM      6  C   UNL     1      59.447  28.477  49.489  1.00  0.00     0.006 C 
BRANCH   6   7
ATOM      7  C   UNL     1      60.112  27.096  49.524  1.00  0.00     0.053 C 
BRANCH   7   8
ATOM      8  C   UNL     1      61.549  27.182  49.934  1.00  0.00     0.041 C 
ATOM      9  O   UNL     1      62.053  28.291  50.252  1.00  0.00    -0.550 OA
ATOM     10  O   UNL     1      62.342  26.042  49.935  1.00  0.00    -0.550 OA
ENDBRANCH   7   8
ENDBRANCH   6   7
ENDBRANCH   5   6
ENDBRANCH   4   5
ENDBRANCH   3   4
ENDBRANCH   2   3
ENDBRANCH   1   2
BRANCH   1  11
ATOM     11  C   UNL     1      56.828  25.537  52.729  1.00  0.00     0.000 C 
BRANCH  11  12
ATOM     12  C   UNL     1      57.280  25.195  51.302  1.00  0.00    -0.000 C 
BRANCH  12  13
ATOM     13  C   UNL     1      56.287  25.739  50.264  1.00  0.00    -0.000 C 
BRANCH  13  14
ATOM     14  C   UNL     1      54.980  26.250  50.906  1.00  0.00    -0.000 C 
BRANCH  14  15
ATOM     15  C   UNL     1      54.253  27.320  50.070  1.00  0.00    -0.000 C 
BRANCH  15  16
ATOM     16  C   UNL     1      54.229  28.729  50.692  1.00  0.00    -0.000 C 
BRANCH  16  17
ATOM     17  C   UNL     1      55.091  28.891  51.957  1.00  0.00    -0.003 C 
ATOM     18  C   UNL     1      54.260  29.050  53.230  1.00  0.00     0.004 C 
ENDBRANCH  16  17
ENDBRANCH  15  16
ENDBRANCH  14  15
ENDBRANCH  13  14
ENDBRANCH  12  13
ENDBRANCH  11  12
ENDBRANCH   1  11
TORSDOF 14
ENDMDL
MODEL 6
REMARK VINA RESULT:    -2.994      1.533      4.790
REMARK INTER + INTRA:          -7.876
REMARK INTER:                  -5.443
REMARK INTRA:                  -2.434
REMARK UNBOUND:                -2.432
REMARK SMILES CCCCCCCCCCCCCCCC(=O)[O-]
REMARK SMILES IDX 9 1 10 2 11 3 12 4 13 5 14 6 15 7 16 8 17 9 18 10 8 11 7 12
REMARK SMILES IDX 6 13 5 14 4 15 3 16 2 17 1 18
REMARK H PARENT
REMARK Flexibility Score: inf
ROOT
ATOM      1  C   UNL     1      61.545  26.038  50.496  1.00  0.00     0.000 C 
ENDROOT
BRANCH   1   2
ATOM      2  C   UNL     1      61.496  27.323  49.654  1.00  0.00     0.000 C 
BRANCH   2   3
ATOM      3  C   UNL     1      60.655  28.402  50.347  1.00  0.00     0.000 C 
BRANCH   3   4
ATOM      4  C   UNL     1      59.346  28.651  49.590  1.00  0.00     0.000 C 
BRANCH   4   5
ATOM      5  C   UNL     1      58.154  28.701  50.552  1.00  0.00     0.000 C 
BRANCH   5   6
ATOM      6  C   UNL     1      58.614  29.021  51.982  1.00  0.00     0.006 C 
BRANCH   6   7
ATOM      7  C   UNL     1      57.543  28.684  53.028  1.00  0.00     0.053 C 
BRANCH   7   8
ATOM      8  C   UNL     1      56.463  29.721  53.068  1.00  0.00     0.041 C 
ATOM      9  O   UNL     1      56.642  30.800  53.692  1.00  0.00    -0.550 OA
ATOM     10  O   UNL     1      55.247  29.483  52.443  1.00  0.00    -0.550 OA
ENDBRANCH   7   8
ENDBRANCH   6   7
ENDBRANCH   5   6
ENDBRANCH   4   5
ENDBRANCH   3   4
ENDBRANCH   2   3
ENDBRANCH   1   2
BRANCH   1  11
ATOM     11  C   UNL     1      60.978  26.235  51.911  1.00  0.00     0.000 C 
BRANCH  11  12
ATOM     12  C   UNL     1      59.722  25.391  52.169  1.00  0.00    -0.000 C 
BRANCH  12  13
ATOM     13  C   UNL     1      59.215  24.747  50.869  1.00  0.00    -0.000 C 
BRANCH  13  14
ATOM     14  C   UNL     1      57.812  25.249  50.468  1.00  0.00    -0.000 C 
BRANCH  14  15
ATOM     15  C   UNL     1      56.782  25.200  51.612  1.00  0.00    -0.000 C 
BRANCH  15  16
ATOM     16  C   UNL     1      55.544  26.095  51.415  1.00  0.00    -0.000 C 
BRANCH  16  17
ATOM     17  C   UNL     1      55.060  26.214  49.958  1.00  0.00    -0.003 C 
ATOM     18  C   UNL     1      54.320  24.969  49.471  1.00  0.00     0.004 C 
ENDBRANCH  16  17
ENDBRANCH  15  16
ENDBRANCH  14  15
ENDBRANCH  13  14
ENDBRANCH  12  13
ENDBRANCH  11  12
ENDBRANCH   1  11
TORSDOF 14
ENDMDL
MODEL 7
REMARK VINA RESULT:    -2.993      2.309      3.155
REMARK INTER + INTRA:          -7.875
REMARK INTER:                  -5.853
REMARK INTRA:                  -2.022
REMARK UNBOUND:                -2.432
REMARK SMILES CCCCCCCCCCCCCCCC(=O)[O-]
REMARK SMILES IDX 9 1 10 2 11 3 12 4 13 5 14 6 15 7 16 8 17 9 18 10 8 11 7 12
REMARK SMILES IDX 6 13 5 14 4 15 3 16 2 17 1 18
REMARK H PARENT
REMARK Flexibility Score: inf
ROOT
ATOM      1  C   UNL     1      55.222  27.900  50.743  1.00  0.00     0.000 C 
ENDROOT
BRANCH   1   2
ATOM      2  C   UNL     1      54.222  27.001  49.999  1.00  0.00     0.000 C 
BRANCH   2   3
ATOM      3  C   UNL     1      54.859  25.655  49.633  1.00  0.00     0.000 C 
BRANCH   3   4
ATOM      4  C   UNL     1      53.934  24.490  50.000  1.00  0.00     0.000 C 
BRANCH   4   5
ATOM      5  C   UNL     1      52.876  24.927  51.019  1.00  0.00     0.000 C 
BRANCH   5   6
ATOM      6  C   UNL     1      53.170  24.339  52.407  1.00  0.00     0.006 C 
BRANCH   6   7
ATOM      7  C   UNL     1      54.025  25.279  53.268  1.00  0.00     0.053 C 
BRANCH   7   8
ATOM      8  C   UNL     1      55.314  24.637  53.676  1.00  0.00     0.041 C 
ATOM      9  O   UNL     1      55.500  24.291  54.872  1.00  0.00    -0.550 OA
ATOM     10  O   UNL     1      56.324  24.449  52.742  1.00  0.00    -0.550 OA
ENDBRANCH   7   8
ENDBRANCH   6   7
ENDBRANCH   5   6
ENDBRANCH   4   5
ENDBRANCH   3   4
ENDBRANCH   2   3
ENDBRANCH   1   2
BRANCH   1  11
ATOM     11  C   UNL     1      56.636  27.299  50.790  1.00  0.00     0.000 C 
BRANCH  11  12
ATOM     12  C   UNL     1      57.459  27.815  51.979  1.00  0.00    -0.000 C 
BRANCH  12  13
ATOM     13  C   UNL     1      58.671  28.627  51.499  1.00  0.00    -0.000 C 
BRANCH  13  14
ATOM     14  C   UNL     1      58.798  28.648  49.961  1.00  0.00    -0.000 C 
BRANCH  14  15
ATOM     15  C   UNL     1      60.060  27.943  49.431  1.00  0.00    -0.000 C 
BRANCH  15  16
ATOM     16  C   UNL     1      60.523  26.727  50.256  1.00  0.00    -0.000 C 
BRANCH  16  17
ATOM     17  C   UNL     1      59.856  25.394  49.871  1.00  0.00    -0.003 C 
ATOM     18  C   UNL     1      59.460  24.551  51.083  1.00  0.00     0.004 C 
ENDBRANCH  16  17
ENDBRANCH  15  16
ENDBRANCH  14  15
ENDBRANCH  13  14
ENDBRANCH  12  13
ENDBRANCH  11  12
ENDBRANCH   1  11
TORSDOF 14
ENDMDL
MODEL 8
REMARK VINA RESULT:    -2.952      3.281      6.642
REMARK INTER + INTRA:          -7.800
REMARK INTER:                  -5.993
REMARK INTRA:                  -1.807
REMARK UNBOUND:                -2.432
REMARK SMILES CCCCCCCCCCCCCCCC(=O)[O-]
REMARK SMILES IDX 9 1 10 2 11 3 12 4 13 5 14 6 15 7 16 8 17 9 18 10 8 11 7 12
REMARK SMILES IDX 6 13 5 14 4 15 3 16 2 17 1 18
REMARK H PARENT
REMARK Flexibility Score: inf
ROOT
ATOM      1  C   UNL     1      57.105  27.531  52.203  1.00  0.00     0.000 C 
ENDROOT
BRANCH   1   2
ATOM      2  C   UNL     1      57.296  27.906  50.725  1.00  0.00     0.000 C 
BRANCH   2   3
ATOM      3  C   UNL     1      58.566  28.743  50.530  1.00  0.00     0.000 C 
BRANCH   3   4
ATOM      4  C   UNL     1      59.381  28.238  49.334  1.00  0.00     0.000 C 
BRANCH   4   5
ATOM      5  C   UNL     1      60.119  26.940  49.680  1.00  0.00     0.000 C 
BRANCH   5   6
ATOM      6  C   UNL     1      61.640  27.154  49.680  1.00  0.00     0.006 C 
BRANCH   6   7
ATOM      7  C   UNL     1      62.137  27.805  50.977  1.00  0.00     0.053 C 
BRANCH   7   8
ATOM      8  C   UNL     1      62.835  29.103  50.714  1.00  0.00     0.041 C 
ATOM      9  O   UNL     1      64.088  29.182  50.817  1.00  0.00    -0.550 OA
ATOM     10  O   UNL     1      62.100  30.234  50.385  1.00  0.00    -0.550 OA
ENDBRANCH   7   8
ENDBRANCH   6   7
ENDBRANCH   5   6
ENDBRANCH   4   5
ENDBRANCH   3   4
ENDBRANCH   2   3
ENDBRANCH   1   2
BRANCH   1  11
ATOM     11  C   UNL     1      56.582  26.098  52.388  1.00  0.00     0.000 C 
BRANCH  11  12
ATOM     12  C   UNL     1      56.516  25.316  51.068  1.00  0.00    -0.000 C 
BRANCH  12  13
ATOM     13  C   UNL     1      55.075  24.886  50.754  1.00  0.00    -0.000 C 
BRANCH  13  14
ATOM     14  C   UNL     1      54.520  25.563  49.483  1.00  0.00    -0.000 C 
BRANCH  14  15
ATOM     15  C   UNL     1      53.236  26.380  49.723  1.00  0.00    -0.000 C 
BRANCH  15  16
ATOM     16  C   UNL     1      53.307  27.375  50.898  1.00  0.00    -0.000 C 
BRANCH  16  17
ATOM     17  C   UNL     1      53.760  28.795  50.514  1.00  0.00    -0.003 C 
ATOM     18  C   UNL     1      54.127  29.653  51.724  1.00  0.00     0.004 C 
ENDBRANCH  16  17
ENDBRANCH  15  16
ENDBRANCH  14  15
ENDBRANCH  13  14
ENDBRANCH  12  13
ENDBRANCH  11  12
ENDBRANCH   1  11
TORSDOF 14
ENDMDL
MODEL 9
REMARK VINA RESULT:    -2.925      9.810     11.626
REMARK INTER + INTRA:          -7.751
REMARK INTER:                  -5.908
REMARK INTRA:                  -1.843
REMARK UNBOUND:                -2.432
REMARK SMILES CCCCCCCCCCCCCCCC(=O)[O-]
REMARK SMILES IDX 9 1 10 2 11 3 12 4 13 5 14 6 15 7 16 8 17 9 18 10 8 11 7 12
REMARK SMILES IDX 6 13 5 14 4 15 3 16 2 17 1 18
REMARK H PARENT
REMARK Flexibility Score: inf
ROOT
ATOM      1  C   UNL     1      64.087  28.730  60.545  1.00  0.00     0.000 C 
ENDROOT
BRANCH   1   2
ATOM      2  C   UNL     1      63.427  27.359  60.762  1.00  0.00     0.000 C 
BRANCH   2   3
ATOM      3  C   UNL     1      62.421  27.051  59.647  1.00  0.00     0.000 C 
BRANCH   3   4
ATOM      4  C   UNL     1      61.125  26.468  60.220  1.00  0.00     0.000 C 
BRANCH   4   5
ATOM      5  C   UNL     1      59.903  27.249  59.724  1.00  0.00     0.000 C 
BRANCH   5   6
ATOM      6  C   UNL     1      59.016  27.690  60.899  1.00  0.00     0.006 C 
BRANCH   6   7
ATOM      7  C   UNL     1      58.429  26.497  61.664  1.00  0.00     0.053 C 
BRANCH   7   8
ATOM      8  C   UNL     1      56.992  26.720  62.021  1.00  0.00     0.041 C 
ATOM      9  O   UNL     1      56.589  27.869  62.341  1.00  0.00    -0.550 OA
ATOM     10  O   UNL     1      56.105  25.653  62.030  1.00  0.00    -0.550 OA
ENDBRANCH   7   8
ENDBRANCH   6   7
ENDBRANCH   5   6
ENDBRANCH   4   5
ENDBRANCH   3   4
ENDBRANCH   2   3
ENDBRANCH   1   2
BRANCH   1  11
ATOM     11  C   UNL     1      63.593  29.789  61.543  1.00  0.00     0.000 C 
BRANCH  11  12
ATOM     12  C   UNL     1      62.147  29.547  61.997  1.00  0.00    -0.000 C 
BRANCH  12  13
ATOM     13  C   UNL     1      61.227  30.690  61.539  1.00  0.00    -0.000 C 
BRANCH  13  14
ATOM     14  C   UNL     1      61.174  30.826  60.002  1.00  0.00    -0.000 C 
BRANCH  14  15
ATOM     15  C   UNL     1      61.630  32.203  59.484  1.00  0.00    -0.000 C 
BRANCH  15  16
ATOM     16  C   UNL     1      61.837  33.274  60.572  1.00  0.00    -0.000 C 
BRANCH  16  17
ATOM     17  C   UNL     1      63.136  34.088  60.437  1.00  0.00    -0.003 C 
ATOM     18  C   UNL     1      64.347  33.387  61.053  1.00  0.00     0.004 C 
ENDBRANCH  16  17
ENDBRANCH  15  16
ENDBRANCH  14  15
ENDBRANCH  13  14
ENDBRANCH  12  13
ENDBRANCH  11  12
ENDBRANCH   1  11
TORSDOF 14
ENDMDL
