MODEL 1
REMARK VINA RESULT:    -0.575      0.000      0.000
REMARK INTER + INTRA:          -2.115
REMARK INTER:                  -1.314
REMARK INTRA:                  -0.800
REMARK UNBOUND:                -0.800
REMARK SMILES CCCCCCCCCCCCCCCCCCCCCCCC(=O)[O-]
REMARK SMILES IDX 13 1 14 2 15 3 16 4 17 5 18 6 19 7 20 8 21 9 22 10 23 11
REMARK SMILES IDX 24 12 25 13 26 14 12 15 11 16 10 17 9 18 8 19 7 20 6 21 5 22
REMARK SMILES IDX 4 23 3 24 2 25 1 26
REMARK H PARENT
REMARK Flexibility Score: inf
ROOT
ATOM      1  C   UNL     1       4.016  10.939   4.356  1.00  0.00     0.000 C 
ENDROOT
BRANCH   1   2
ATOM      2  C   UNL     1       5.457  11.477   4.395  1.00  0.00     0.000 C 
BRANCH   2   3
ATOM      3  C   UNL     1       6.488  10.464   3.870  1.00  0.00     0.000 C 
BRANCH   3   4
ATOM      4  C   UNL     1       7.915  10.777   4.348  1.00  0.00     0.000 C 
BRANCH   4   5
ATOM      5  C   UNL     1       8.646  11.771   3.432  1.00  0.00     0.000 C 
BRANCH   5   6
ATOM      6  C   UNL     1       8.841  13.121   4.136  1.00  0.00     0.000 C 
BRANCH   6   7
ATOM      7  C   UNL     1       9.967  13.092   5.184  1.00  0.00     0.000 C 
BRANCH   7   8
ATOM      8  C   UNL     1       9.695  12.194   6.408  1.00  0.00     0.000 C 
BRANCH   8   9
ATOM      9  C   UNL     1       9.312  12.941   7.700  1.00  0.00     0.000 C 
BRANCH   9  10
ATOM     10  C   UNL     1       7.798  13.125   7.930  1.00  0.00     0.006 C 
BRANCH  10  11
ATOM     11  C   UNL     1       7.250  12.343   9.137  1.00  0.00     0.053 C 
BRANCH  11  12
ATOM     12  C   UNL     1       6.020  11.555   8.800  1.00  0.00     0.041 C 
ATOM     13  O   UNL     1       4.880  12.073   8.925  1.00  0.00    -0.550 OA
ATOM     14  O   UNL     1       6.133  10.235   8.380  1.00  0.00    -0.550 OA
ENDBRANCH  11  12
ENDBRANCH  10  11
ENDBRANCH   9  10
ENDBRANCH   8   9
ENDBRANCH   7   8
ENDBRANCH   6   7
ENDBRANCH   5   6
ENDBRANCH   4   5
ENDBRANCH   3   4
ENDBRANCH   2   3
ENDBRANCH   1   2
BRANCH   1  15
ATOM     15  C   UNL     1       3.183  11.194   5.630  1.00  0.00     0.000 C 
BRANCH  15  16
ATOM     16  C   UNL     1       3.155  10.033   6.639  1.00  0.00     0.000 C 
BRANCH  16  17
ATOM     17  C   UNL     1       2.256  10.316   7.852  1.00  0.00     0.000 C 
BRANCH  17  18
ATOM     18  C   UNL     1       2.633   9.419   9.038  1.00  0.00    -0.000 C 
BRANCH  18  19
ATOM     19  C   UNL     1       2.854  10.254  10.308  1.00  0.00    -0.000 C 
BRANCH  19  20
ATOM     20  C   UNL     1       1.699  11.229  10.585  1.00  0.00    -0.000 C 
BRANCH  20  21
ATOM     21  C   UNL     1       2.003  12.659  10.105  1.00  0.00    -0.000 C 
BRANCH  21  22
ATOM     22  C   UNL     1       1.060  13.103   8.966  1.00  0.00    -0.000 C 
BRANCH  22  23
ATOM     23  C   UNL     1      -0.425  13.109   9.366  1.00  0.00    -0.000 C 
BRANCH  23  24
ATOM     24  C   UNL     1      -1.361  12.777   8.192  1.00  0.00    -0.000 C 
BRANCH  24  25
ATOM     25  C   UNL     1      -2.838  13.034   8.525  1.00  0.00    -0.003 C 
ATOM     26  C   UNL     1      -3.752  12.878   7.310  1.00  0.00     0.004 C 
ENDBRANCH  24  25
ENDBRANCH  23  24
ENDBRANCH  22  23
ENDBRANCH  21  22
ENDBRANCH  20  21
ENDBRANCH  19  20
ENDBRANCH  18  19
ENDBRANCH  17  18
ENDBRANCH  16  17
ENDBRANCH  15  16
ENDBRANCH   1  15
TORSDOF 22
ENDMDL
MODEL 2
REMARK VINA RESULT:    -0.528      2.526      7.861
REMARK INTER + INTRA:          -2.007
REMARK INTER:                  -2.604
REMARK INTRA:                   0.597
REMARK UNBOUND:                -0.800
REMARK SMILES CCCCCCCCCCCCCCCCCCCCCCCC(=O)[O-]
REMARK SMILES IDX 13 1 14 2 15 3 16 4 17 5 18 6 19 7 20 8 21 9 22 10 23 11
REMARK SMILES IDX 24 12 25 13 26 14 12 15 11 16 10 17 9 18 8 19 7 20 6 21 5 22
REMARK SMILES IDX 4 23 3 24 2 25 1 26
REMARK H PARENT
REMARK Flexibility Score: inf
ROOT
ATOM      1  C   UNL     1       5.471  11.498   8.800  1.00  0.00     0.000 C 
ENDROOT
BRANCH   1   2
ATOM      2  C   UNL     1       6.042  10.214   8.171  1.00  0.00     0.000 C 
BRANCH   2   3
ATOM      3  C   UNL     1       5.266   9.764   6.922  1.00  0.00     0.000 C 
BRANCH   3   4
ATOM      4  C   UNL     1       3.813   9.376   7.241  1.00  0.00     0.000 C 
BRANCH   4   5
ATOM      5  C   UNL     1       2.791  10.362   6.656  1.00  0.00     0.000 C 
BRANCH   5   6
ATOM      6  C   UNL     1       2.056  11.115   7.774  1.00  0.00     0.000 C 
BRANCH   6   7
ATOM      7  C   UNL     1       2.165  10.412   9.139  1.00  0.00     0.000 C 
BRANCH   7   8
ATOM      8  C   UNL     1       1.714  11.260  10.346  1.00  0.00     0.000 C 
BRANCH   8   9
ATOM      9  C   UNL     1       1.442  12.746  10.042  1.00  0.00     0.000 C 
BRANCH   9  10
ATOM     10  C   UNL     1      -0.045  13.125   9.886  1.00  0.00     0.006 C 
BRANCH  10  11
ATOM     11  C   UNL     1      -0.632  12.796   8.501  1.00  0.00     0.053 C 
BRANCH  11  12
ATOM     12  C   UNL     1      -2.121  12.630   8.534  1.00  0.00     0.041 C 
ATOM     13  O   UNL     1      -2.791  13.106   9.487  1.00  0.00    -0.550 OA
ATOM     14  O   UNL     1      -2.765  11.920   7.529  1.00  0.00    -0.550 OA
ENDBRANCH  11  12
ENDBRANCH  10  11
ENDBRANCH   9  10
ENDBRANCH   8   9
ENDBRANCH   7   8
ENDBRANCH   6   7
ENDBRANCH   5   6
ENDBRANCH   4   5
ENDBRANCH   3   4
ENDBRANCH   2   3
ENDBRANCH   1   2
BRANCH   1  15
ATOM     15  C   UNL     1       6.477  12.658   8.957  1.00  0.00     0.000 C 
BRANCH  15  16
ATOM     16  C   UNL     1       7.484  12.814   7.804  1.00  0.00     0.000 C 
BRANCH  16  17
ATOM     17  C   UNL     1       8.513  11.675   7.750  1.00  0.00     0.000 C 
BRANCH  17  18
ATOM     18  C   UNL     1       9.855  12.172   7.200  1.00  0.00    -0.000 C 
BRANCH  18  19
ATOM     19  C   UNL     1      10.044  11.736   5.739  1.00  0.00    -0.000 C 
BRANCH  19  20
ATOM     20  C   UNL     1      10.125  12.927   4.770  1.00  0.00    -0.000 C 
BRANCH  20  21
ATOM     21  C   UNL     1       8.978  12.935   3.745  1.00  0.00    -0.000 C 
BRANCH  21  22
ATOM     22  C   UNL     1       7.728  12.192   4.264  1.00  0.00    -0.000 C 
BRANCH  22  23
ATOM     23  C   UNL     1       7.286  11.029   3.360  1.00  0.00    -0.000 C 
BRANCH  23  24
ATOM     24  C   UNL     1       5.802  10.667   3.536  1.00  0.00    -0.000 C 
BRANCH  24  25
ATOM     25  C   UNL     1       4.989  11.807   4.167  1.00  0.00    -0.003 C 
ATOM     26  C   UNL     1       5.802  12.626   5.169  1.00  0.00     0.004 C 
ENDBRANCH  24  25
ENDBRANCH  23  24
ENDBRANCH  22  23
ENDBRANCH  21  22
ENDBRANCH  20  21
ENDBRANCH  19  20
ENDBRANCH  18  19
ENDBRANCH  17  18
ENDBRANCH  16  17
ENDBRANCH  15  16
ENDBRANCH   1  15
TORSDOF 22
ENDMDL
MODEL 3
REMARK VINA RESULT:    -0.526      1.601      3.261
REMARK INTER + INTRA:          -2.003
REMARK INTER:                  -2.368
REMARK INTRA:                   0.364
REMARK UNBOUND:                -0.800
REMARK SMILES CCCCCCCCCCCCCCCCCCCCCCCC(=O)[O-]
REMARK SMILES IDX 13 1 14 2 15 3 16 4 17 5 18 6 19 7 20 8 21 9 22 10 23 11
REMARK SMILES IDX 24 12 25 13 26 14 12 15 11 16 10 17 9 18 8 19 7 20 6 21 5 22
REMARK SMILES IDX 4 23 3 24 2 25 1 26
REMARK H PARENT
REMARK Flexibility Score: inf
ROOT
ATOM      1  C   UNL     1       3.931   8.848   7.608  1.00  0.00     0.000 C 
ENDROOT
BRANCH   1   2
ATOM      2  C   UNL     1       4.678  10.152   7.274  1.00  0.00     0.000 C 
BRANCH   2   3
ATOM      3  C   UNL     1       6.180  10.080   7.595  1.00  0.00     0.000 C 
BRANCH   3   4
ATOM      4  C   UNL     1       6.600  11.098   8.668  1.00  0.00     0.000 C 
BRANCH   4   5
ATOM      5  C   UNL     1       6.952  12.472   8.078  1.00  0.00     0.000 C 
BRANCH   5   6
ATOM      6  C   UNL     1       8.473  12.650   7.977  1.00  0.00     0.000 C 
BRANCH   6   7
ATOM      7  C   UNL     1       9.152  11.535   7.162  1.00  0.00     0.000 C 
BRANCH   7   8
ATOM      8  C   UNL     1       9.914  12.015   5.910  1.00  0.00     0.000 C 
BRANCH   8   9
ATOM      9  C   UNL     1       9.102  12.899   4.944  1.00  0.00     0.000 C 
BRANCH   9  10
ATOM     10  C   UNL     1       8.530  12.173   3.709  1.00  0.00     0.006 C 
BRANCH  10  11
ATOM     11  C   UNL     1       7.419  11.160   4.039  1.00  0.00     0.053 C 
BRANCH  11  12
ATOM     12  C   UNL     1       6.133  11.825   4.428  1.00  0.00     0.041 C 
ATOM     13  O   UNL     1       6.132  12.763   5.268  1.00  0.00    -0.550 OA
ATOM     14  O   UNL     1       4.931  11.385   3.889  1.00  0.00    -0.550 OA
ENDBRANCH  11  12
ENDBRANCH  10  11
ENDBRANCH   9  10
ENDBRANCH   8   9
ENDBRANCH   7   8
ENDBRANCH   6   7
ENDBRANCH   5   6
ENDBRANCH   4   5
ENDBRANCH   3   4
ENDBRANCH   2   3
ENDBRANCH   1   2
BRANCH   1  15
ATOM     15  C   UNL     1       3.702   8.586   9.111  1.00  0.00     0.000 C 
BRANCH  15  16
ATOM     16  C   UNL     1       2.233   8.623   9.567  1.00  0.00     0.000 C 
BRANCH  16  17
ATOM     17  C   UNL     1       2.064   9.161  10.996  1.00  0.00     0.000 C 
BRANCH  17  18
ATOM     18  C   UNL     1       2.401  10.655  11.065  1.00  0.00    -0.000 C 
BRANCH  18  19
ATOM     19  C   UNL     1       3.712  10.955  10.324  1.00  0.00    -0.000 C 
BRANCH  19  20
ATOM     20  C   UNL     1       3.653  12.265   9.521  1.00  0.00    -0.000 C 
BRANCH  20  21
ATOM     21  C   UNL     1       2.297  12.979   9.652  1.00  0.00    -0.000 C 
BRANCH  21  22
ATOM     22  C   UNL     1       1.169  12.226   8.913  1.00  0.00    -0.000 C 
BRANCH  22  23
ATOM     23  C   UNL     1      -0.233  12.518   9.474  1.00  0.00    -0.000 C 
BRANCH  23  24
ATOM     24  C   UNL     1      -1.181  13.123   8.426  1.00  0.00    -0.000 C 
BRANCH  24  25
ATOM     25  C   UNL     1      -2.652  13.071   8.863  1.00  0.00    -0.003 C 
ATOM     26  C   UNL     1      -3.584  12.604   7.745  1.00  0.00     0.004 C 
ENDBRANCH  24  25
ENDBRANCH  23  24
ENDBRANCH  22  23
ENDBRANCH  21  22
ENDBRANCH  20  21
ENDBRANCH  19  20
ENDBRANCH  18  19
ENDBRANCH  17  18
ENDBRANCH  16  17
ENDBRANCH  15  16
ENDBRANCH   1  15
TORSDOF 22
ENDMDL
MODEL 4
REMARK VINA RESULT:    -0.268      1.488      3.255
REMARK INTER + INTRA:          -1.414
REMARK INTER:                  -2.756
REMARK INTRA:                   1.342
REMARK UNBOUND:                -0.800
REMARK SMILES CCCCCCCCCCCCCCCCCCCCCCCC(=O)[O-]
REMARK SMILES IDX 13 1 14 2 15 3 16 4 17 5 18 6 19 7 20 8 21 9 22 10 23 11
REMARK SMILES IDX 24 12 25 13 26 14 12 15 11 16 10 17 9 18 8 19 7 20 6 21 5 22
REMARK SMILES IDX 4 23 3 24 2 25 1 26
REMARK H PARENT
REMARK Flexibility Score: inf
ROOT
ATOM      1  C   UNL     1       3.211  11.750   8.328  1.00  0.00     0.000 C 
ENDROOT
BRANCH   1   2
ATOM      2  C   UNL     1       4.131  12.687   9.130  1.00  0.00     0.000 C 
BRANCH   2   3
ATOM      3  C   UNL     1       5.387  13.106   8.346  1.00  0.00     0.000 C 
BRANCH   3   4
ATOM      4  C   UNL     1       6.687  12.716   9.069  1.00  0.00     0.000 C 
BRANCH   4   5
ATOM      5  C   UNL     1       7.721  12.076   8.130  1.00  0.00     0.000 C 
BRANCH   5   6
ATOM      6  C   UNL     1       8.935  12.997   7.947  1.00  0.00     0.000 C 
BRANCH   6   7
ATOM      7  C   UNL     1      10.048  12.357   7.098  1.00  0.00     0.000 C 
BRANCH   7   8
ATOM      8  C   UNL     1      10.120  12.851   5.639  1.00  0.00     0.000 C 
BRANCH   8   9
ATOM      9  C   UNL     1       8.760  13.089   4.956  1.00  0.00     0.000 C 
BRANCH   9  10
ATOM     10  C   UNL     1       8.587  12.416   3.580  1.00  0.00     0.006 C 
BRANCH  10  11
ATOM     11  C   UNL     1       7.692  11.163   3.605  1.00  0.00     0.053 C 
BRANCH  11  12
ATOM     12  C   UNL     1       6.714  11.179   4.741  1.00  0.00     0.041 C 
ATOM     13  O   UNL     1       6.750  10.281   5.622  1.00  0.00    -0.550 OA
ATOM     14  O   UNL     1       5.740  12.167   4.807  1.00  0.00    -0.550 OA
ENDBRANCH  11  12
ENDBRANCH  10  11
ENDBRANCH   9  10
ENDBRANCH   8   9
ENDBRANCH   7   8
ENDBRANCH   6   7
ENDBRANCH   5   6
ENDBRANCH   4   5
ENDBRANCH   3   4
ENDBRANCH   2   3
ENDBRANCH   1   2
BRANCH   1  15
ATOM     15  C   UNL     1       3.933  10.756   7.394  1.00  0.00     0.000 C 
BRANCH  15  16
ATOM     16  C   UNL     1       3.257   9.381   7.250  1.00  0.00     0.000 C 
BRANCH  16  17
ATOM     17  C   UNL     1       2.757   8.817   8.589  1.00  0.00     0.000 C 
BRANCH  17  18
ATOM     18  C   UNL     1       3.814   8.988   9.687  1.00  0.00    -0.000 C 
BRANCH  18  19
ATOM     19  C   UNL     1       3.165   9.421  11.010  1.00  0.00    -0.000 C 
BRANCH  19  20
ATOM     20  C   UNL     1       1.700   9.852  10.838  1.00  0.00    -0.000 C 
BRANCH  20  21
ATOM     21  C   UNL     1       1.540  11.032   9.863  1.00  0.00    -0.000 C 
BRANCH  21  22
ATOM     22  C   UNL     1       0.775  12.213  10.499  1.00  0.00    -0.000 C 
BRANCH  22  23
ATOM     23  C   UNL     1       0.080  13.119   9.469  1.00  0.00    -0.000 C 
BRANCH  23  24
ATOM     24  C   UNL     1      -1.440  12.891   9.406  1.00  0.00    -0.000 C 
BRANCH  24  25
ATOM     25  C   UNL     1      -1.971  12.863   7.965  1.00  0.00    -0.003 C 
ATOM     26  C   UNL     1      -3.429  12.413   7.882  1.00  0.00     0.004 C 
ENDBRANCH  24  25
ENDBRANCH  23  24
ENDBRANCH  22  23
ENDBRANCH  21  22
ENDBRANCH  20  21
ENDBRANCH  19  20
ENDBRANCH  18  19
ENDBRANCH  17  18
ENDBRANCH  16  17
ENDBRANCH  15  16
ENDBRANCH   1  15
TORSDOF 22
ENDMDL
MODEL 5
REMARK VINA RESULT:    -0.149      2.101      7.830
REMARK INTER + INTRA:          -1.141
REMARK INTER:                  -1.317
REMARK INTRA:                   0.176
REMARK UNBOUND:                -0.800
REMARK SMILES CCCCCCCCCCCCCCCCCCCCCCCC(=O)[O-]
REMARK SMILES IDX 13 1 14 2 15 3 16 4 17 5 18 6 19 7 20 8 21 9 22 10 23 11
REMARK SMILES IDX 24 12 25 13 26 14 12 15 11 16 10 17 9 18 8 19 7 20 6 21 5 22
REMARK SMILES IDX 4 23 3 24 2 25 1 26
REMARK H PARENT
REMARK Flexibility Score: inf
ROOT
ATOM      1  C   UNL     1       6.322  11.910   8.965  1.00  0.00     0.000 C 
ENDROOT
BRANCH   1   2
ATOM      2  C   UNL     1       5.186  12.022   7.933  1.00  0.00     0.000 C 
BRANCH   2   3
ATOM      3  C   UNL     1       4.154  13.103   8.293  1.00  0.00     0.000 C 
BRANCH   3   4
ATOM      4  C   UNL     1       3.371  12.765   9.572  1.00  0.00     0.000 C 
BRANCH   4   5
ATOM      5  C   UNL     1       1.881  12.501   9.306  1.00  0.00     0.000 C 
BRANCH   5   6
ATOM      6  C   UNL     1       1.157  12.105  10.601  1.00  0.00     0.000 C 
BRANCH   6   7
ATOM      7  C   UNL     1       1.493  10.675  11.060  1.00  0.00     0.000 C 
BRANCH   7   8
ATOM      8  C   UNL     1       2.240   9.815  10.020  1.00  0.00     0.000 C 
BRANCH   8   9
ATOM      9  C   UNL     1       3.746   9.625  10.282  1.00  0.00     0.000 C 
BRANCH   9  10
ATOM     10  C   UNL     1       4.523   8.904   9.163  1.00  0.00     0.006 C 
BRANCH  10  11
ATOM     11  C   UNL     1       3.649   8.477   7.970  1.00  0.00     0.053 C 
BRANCH  11  12
ATOM     12  C   UNL     1       3.413   9.597   7.002  1.00  0.00     0.041 C 
ATOM     13  O   UNL     1       4.358  10.030   6.291  1.00  0.00    -0.550 OA
ATOM     14  O   UNL     1       2.158  10.185   6.909  1.00  0.00    -0.550 OA
ENDBRANCH  11  12
ENDBRANCH  10  11
ENDBRANCH   9  10
ENDBRANCH   8   9
ENDBRANCH   7   8
ENDBRANCH   6   7
ENDBRANCH   5   6
ENDBRANCH   4   5
ENDBRANCH   3   4
ENDBRANCH   2   3
ENDBRANCH   1   2
BRANCH   1  15
ATOM     15  C   UNL     1       7.461  12.938   8.805  1.00  0.00     0.000 C 
BRANCH  15  16
ATOM     16  C   UNL     1       8.427  13.038   9.999  1.00  0.00     0.000 C 
BRANCH  16  17
ATOM     17  C   UNL     1       9.903  12.928   9.586  1.00  0.00     0.000 C 
BRANCH  17  18
ATOM     18  C   UNL     1      10.066  13.122   8.073  1.00  0.00    -0.000 C 
BRANCH  18  19
ATOM     19  C   UNL     1      10.122  11.768   7.350  1.00  0.00    -0.000 C 
BRANCH  19  20
ATOM     20  C   UNL     1       9.228  11.726   6.100  1.00  0.00    -0.000 C 
BRANCH  20  21
ATOM     21  C   UNL     1       9.398  12.969   5.209  1.00  0.00    -0.000 C 
BRANCH  21  22
ATOM     22  C   UNL     1       9.456  12.607   3.709  1.00  0.00    -0.000 C 
BRANCH  22  23
ATOM     23  C   UNL     1       8.097  12.184   3.127  1.00  0.00    -0.000 C 
BRANCH  23  24
ATOM     24  C   UNL     1       7.541  10.907   3.779  1.00  0.00    -0.000 C 
BRANCH  24  25
ATOM     25  C   UNL     1       6.043  11.015   4.100  1.00  0.00    -0.003 C 
ATOM     26  C   UNL     1       5.582  12.461   4.283  1.00  0.00     0.004 C 
ENDBRANCH  24  25
ENDBRANCH  23  24
ENDBRANCH  22  23
ENDBRANCH  21  22
ENDBRANCH  20  21
ENDBRANCH  19  20
ENDBRANCH  18  19
ENDBRANCH  17  18
ENDBRANCH  16  17
ENDBRANCH  15  16
ENDBRANCH   1  15
TORSDOF 22
ENDMDL
MODEL 6
REMARK VINA RESULT:     0.024      2.175      6.626
REMARK INTER + INTRA:          -0.746
REMARK INTER:                  -0.785
REMARK INTRA:                   0.040
REMARK UNBOUND:                -0.800
REMARK SMILES CCCCCCCCCCCCCCCCCCCCCCCC(=O)[O-]
REMARK SMILES IDX 13 1 14 2 15 3 16 4 17 5 18 6 19 7 20 8 21 9 22 10 23 11
REMARK SMILES IDX 24 12 25 13 26 14 12 15 11 16 10 17 9 18 8 19 7 20 6 21 5 22
REMARK SMILES IDX 4 23 3 24 2 25 1 26
REMARK H PARENT
REMARK Flexibility Score: inf
ROOT
ATOM      1  C   UNL     1       6.527  12.650   4.736  1.00  0.00     0.000 C 
ENDROOT
BRANCH   1   2
ATOM      2  C   UNL     1       6.362  11.203   5.232  1.00  0.00     0.000 C 
BRANCH   2   3
ATOM      3  C   UNL     1       5.230  10.449   4.513  1.00  0.00     0.000 C 
BRANCH   3   4
ATOM      4  C   UNL     1       3.838  10.858   5.021  1.00  0.00     0.000 C 
BRANCH   4   5
ATOM      5  C   UNL     1       3.751  10.897   6.554  1.00  0.00     0.000 C 
BRANCH   5   6
ATOM      6  C   UNL     1       2.771   9.837   7.073  1.00  0.00     0.000 C 
BRANCH   6   7
ATOM      7  C   UNL     1       3.477   8.651   7.754  1.00  0.00     0.000 C 
BRANCH   7   8
ATOM      8  C   UNL     1       3.982   8.927   9.184  1.00  0.00     0.000 C 
BRANCH   8   9
ATOM      9  C   UNL     1       2.882   9.145  10.241  1.00  0.00     0.000 C 
BRANCH   9  10
ATOM     10  C   UNL     1       2.691  10.604  10.701  1.00  0.00     0.006 C 
BRANCH  10  11
ATOM     11  C   UNL     1       1.219  11.053  10.760  1.00  0.00     0.053 C 
BRANCH  11  12
ATOM     12  C   UNL     1       0.774  11.728   9.498  1.00  0.00     0.041 C 
ATOM     13  O   UNL     1       0.360  12.916   9.525  1.00  0.00    -0.550 OA
ATOM     14  O   UNL     1       0.784  11.032   8.295  1.00  0.00    -0.550 OA
ENDBRANCH  11  12
ENDBRANCH  10  11
ENDBRANCH   9  10
ENDBRANCH   8   9
ENDBRANCH   7   8
ENDBRANCH   6   7
ENDBRANCH   5   6
ENDBRANCH   4   5
ENDBRANCH   3   4
ENDBRANCH   2   3
ENDBRANCH   1   2
BRANCH   1  15
ATOM     15  C   UNL     1       7.144  12.799   3.330  1.00  0.00     0.000 C 
BRANCH  15  16
ATOM     16  C   UNL     1       8.680  12.894   3.295  1.00  0.00     0.000 C 
BRANCH  16  17
ATOM     17  C   UNL     1       9.325  12.678   4.672  1.00  0.00     0.000 C 
BRANCH  17  18
ATOM     18  C   UNL     1       9.132  11.232   5.148  1.00  0.00    -0.000 C 
BRANCH  18  19
ATOM     19  C   UNL     1       9.642  11.056   6.586  1.00  0.00    -0.000 C 
BRANCH  19  20
ATOM     20  C   UNL     1      10.125  12.376   7.210  1.00  0.00    -0.000 C 
BRANCH  20  21
ATOM     21  C   UNL     1       9.005  13.125   7.952  1.00  0.00    -0.000 C 
BRANCH  21  22
ATOM     22  C   UNL     1       8.227  12.202   8.915  1.00  0.00    -0.000 C 
BRANCH  22  23
ATOM     23  C   UNL     1       6.849  11.779   8.379  1.00  0.00    -0.000 C 
BRANCH  23  24
ATOM     24  C   UNL     1       5.761  11.778   9.467  1.00  0.00    -0.000 C 
BRANCH  24  25
ATOM     25  C   UNL     1       5.030  13.125   9.570  1.00  0.00    -0.003 C 
ATOM     26  C   UNL     1       3.661  13.106   8.890  1.00  0.00     0.004 C 
ENDBRANCH  24  25
ENDBRANCH  23  24
ENDBRANCH  22  23
ENDBRANCH  21  22
ENDBRANCH  20  21
ENDBRANCH  19  20
ENDBRANCH  18  19
ENDBRANCH  17  18
ENDBRANCH  16  17
ENDBRANCH  15  16
ENDBRANCH   1  15
TORSDOF 22
ENDMDL
MODEL 7
REMARK VINA RESULT:     0.403      1.997      6.887
REMARK INTER + INTRA:           0.120
REMARK INTER:                   1.058
REMARK INTRA:                  -0.938
REMARK UNBOUND:                -0.800
REMARK SMILES CCCCCCCCCCCCCCCCCCCCCCCC(=O)[O-]
REMARK SMILES IDX 13 1 14 2 15 3 16 4 17 5 18 6 19 7 20 8 21 9 22 10 23 11
REMARK SMILES IDX 24 12 25 13 26 14 12 15 11 16 10 17 9 18 8 19 7 20 6 21 5 22
REMARK SMILES IDX 4 23 3 24 2 25 1 26
REMARK H PARENT
REMARK Flexibility Score: inf
ROOT
ATOM      1  C   UNL     1       6.857  11.281   3.937  1.00  0.00     0.000 C 
ENDROOT
BRANCH   1   2
ATOM      2  C   UNL     1       6.775  10.600   5.315  1.00  0.00     0.000 C 
BRANCH   2   3
ATOM      3  C   UNL     1       5.423  10.824   6.014  1.00  0.00     0.000 C 
BRANCH   3   4
ATOM      4  C   UNL     1       4.252  10.883   5.020  1.00  0.00     0.000 C 
BRANCH   4   5
ATOM      5  C   UNL     1       3.029  10.084   5.494  1.00  0.00     0.000 C 
BRANCH   5   6
ATOM      6  C   UNL     1       2.952  10.059   7.026  1.00  0.00     0.000 C 
BRANCH   6   7
ATOM      7  C   UNL     1       1.807  10.924   7.582  1.00  0.00     0.000 C 
BRANCH   7   8
ATOM      8  C   UNL     1       2.226  11.949   8.655  1.00  0.00     0.000 C 
BRANCH   8   9
ATOM      9  C   UNL     1       1.075  12.524   9.502  1.00  0.00     0.000 C 
BRANCH   9  10
ATOM     10  C   UNL     1       1.030  12.042  10.966  1.00  0.00     0.006 C 
BRANCH  10  11
ATOM     11  C   UNL     1       0.671  10.553  11.123  1.00  0.00     0.053 C 
BRANCH  11  12
ATOM     12  C   UNL     1       1.878   9.665  11.089  1.00  0.00     0.041 C 
ATOM     13  O   UNL     1       1.745   8.413  11.088  1.00  0.00    -0.550 OA
ATOM     14  O   UNL     1       3.151  10.220  11.095  1.00  0.00    -0.550 OA
ENDBRANCH  11  12
ENDBRANCH  10  11
ENDBRANCH   9  10
ENDBRANCH   8   9
ENDBRANCH   7   8
ENDBRANCH   6   7
ENDBRANCH   5   6
ENDBRANCH   4   5
ENDBRANCH   3   4
ENDBRANCH   2   3
ENDBRANCH   1   2
BRANCH   1  15
ATOM     15  C   UNL     1       7.463  12.700   3.938  1.00  0.00     0.000 C 
BRANCH  15  16
ATOM     16  C   UNL     1       8.775  12.853   3.148  1.00  0.00     0.000 C 
BRANCH  16  17
ATOM     17  C   UNL     1      10.018  12.491   3.976  1.00  0.00     0.000 C 
BRANCH  17  18
ATOM     18  C   UNL     1       9.924  13.073   5.392  1.00  0.00    -0.000 C 
BRANCH  18  19
ATOM     19  C   UNL     1      10.117  11.975   6.449  1.00  0.00    -0.000 C 
BRANCH  19  20
ATOM     20  C   UNL     1       9.448  12.318   7.789  1.00  0.00    -0.000 C 
BRANCH  20  21
ATOM     21  C   UNL     1       7.998  12.806   7.620  1.00  0.00    -0.000 C 
BRANCH  21  22
ATOM     22  C   UNL     1       7.326  13.117   8.975  1.00  0.00    -0.000 C 
BRANCH  22  23
ATOM     23  C   UNL     1       5.790  13.052   8.926  1.00  0.00    -0.000 C 
BRANCH  23  24
ATOM     24  C   UNL     1       5.264  11.659   8.541  1.00  0.00    -0.000 C 
BRANCH  24  25
ATOM     25  C   UNL     1       5.720  10.566   9.518  1.00  0.00    -0.003 C 
ATOM     26  C   UNL     1       5.619   9.162   8.923  1.00  0.00     0.004 C 
ENDBRANCH  24  25
ENDBRANCH  23  24
ENDBRANCH  22  23
ENDBRANCH  21  22
ENDBRANCH  20  21
ENDBRANCH  19  20
ENDBRANCH  18  19
ENDBRANCH  17  18
ENDBRANCH  16  17
ENDBRANCH  15  16
ENDBRANCH   1  15
TORSDOF 22
ENDMDL
MODEL 8
REMARK VINA RESULT:     1.136      2.279      5.127
REMARK INTER + INTRA:           1.796
REMARK INTER:                   2.513
REMARK INTRA:                  -0.717
REMARK UNBOUND:                -0.800
REMARK SMILES CCCCCCCCCCCCCCCCCCCCCCCC(=O)[O-]
REMARK SMILES IDX 13 1 14 2 15 3 16 4 17 5 18 6 19 7 20 8 21 9 22 10 23 11
REMARK SMILES IDX 24 12 25 13 26 14 12 15 11 16 10 17 9 18 8 19 7 20 6 21 5 22
REMARK SMILES IDX 4 23 3 24 2 25 1 26
REMARK H PARENT
REMARK Flexibility Score: inf
ROOT
ATOM      1  C   UNL     1       3.366  12.807   8.953  1.00  0.00     0.000 C 
ENDROOT
BRANCH   1   2
ATOM      2  C   UNL     1       4.768  12.939   9.572  1.00  0.00     0.000 C 
BRANCH   2   3
ATOM      3  C   UNL     1       5.874  13.114   8.517  1.00  0.00     0.000 C 
BRANCH   3   4
ATOM      4  C   UNL     1       7.120  12.270   8.827  1.00  0.00     0.000 C 
BRANCH   4   5
ATOM      5  C   UNL     1       8.345  13.125   9.186  1.00  0.00     0.000 C 
BRANCH   5   6
ATOM      6  C   UNL     1       9.598  12.613   8.463  1.00  0.00     0.000 C 
BRANCH   6   7
ATOM      7  C   UNL     1       9.293  12.047   7.065  1.00  0.00     0.000 C 
BRANCH   7   8
ATOM      8  C   UNL     1       9.648  12.983   5.891  1.00  0.00     0.000 C 
BRANCH   8   9
ATOM      9  C   UNL     1       8.617  13.023   4.746  1.00  0.00     0.000 C 
BRANCH   9  10
ATOM     10  C   UNL     1       7.142  13.088   5.190  1.00  0.00     0.006 C 
BRANCH  10  11
ATOM     11  C   UNL     1       6.147  12.590   4.126  1.00  0.00     0.053 C 
BRANCH  11  12
ATOM     12  C   UNL     1       6.117  11.096   4.023  1.00  0.00     0.041 C 
ATOM     13  O   UNL     1       5.022  10.491   3.880  1.00  0.00    -0.550 OA
ATOM     14  O   UNL     1       7.296  10.367   4.119  1.00  0.00    -0.550 OA
ENDBRANCH  11  12
ENDBRANCH  10  11
ENDBRANCH   9  10
ENDBRANCH   8   9
ENDBRANCH   7   8
ENDBRANCH   6   7
ENDBRANCH   5   6
ENDBRANCH   4   5
ENDBRANCH   3   4
ENDBRANCH   2   3
ENDBRANCH   1   2
BRANCH   1  15
ATOM     15  C   UNL     1       2.193  13.125   9.905  1.00  0.00     0.000 C 
BRANCH  15  16
ATOM     16  C   UNL     1       0.892  12.352   9.623  1.00  0.00     0.000 C 
BRANCH  16  17
ATOM     17  C   UNL     1       1.141  10.958   9.028  1.00  0.00     0.000 C 
BRANCH  17  18
ATOM     18  C   UNL     1       1.583  11.056   7.563  1.00  0.00    -0.000 C 
BRANCH  18  19
ATOM     19  C   UNL     1       2.584   9.944   7.217  1.00  0.00    -0.000 C 
BRANCH  19  20
ATOM     20  C   UNL     1       3.927  10.492   6.709  1.00  0.00    -0.000 C 
BRANCH  20  21
ATOM     21  C   UNL     1       5.129   9.926   7.485  1.00  0.00    -0.000 C 
BRANCH  21  22
ATOM     22  C   UNL     1       4.748   9.500   8.919  1.00  0.00    -0.000 C 
BRANCH  22  23
ATOM     23  C   UNL     1       5.291   8.115   9.312  1.00  0.00    -0.000 C 
BRANCH  23  24
ATOM     24  C   UNL     1       4.228   7.008   9.211  1.00  0.00    -0.000 C 
BRANCH  24  25
ATOM     25  C   UNL     1       3.057   7.397   8.297  1.00  0.00    -0.003 C 
ATOM     26  C   UNL     1       2.200   6.197   7.894  1.00  0.00     0.004 C 
ENDBRANCH  24  25
ENDBRANCH  23  24
ENDBRANCH  22  23
ENDBRANCH  21  22
ENDBRANCH  20  21
ENDBRANCH  19  20
ENDBRANCH  18  19
ENDBRANCH  17  18
ENDBRANCH  16  17
ENDBRANCH  15  16
ENDBRANCH   1  15
TORSDOF 22
ENDMDL
