MODEL 1
REMARK VINA RESULT:    39.204      0.000      0.000
REMARK INTER + INTRA:          45.812
REMARK INTER:                  46.079
REMARK INTRA:                  -0.267
REMARK UNBOUND:                -0.267
REMARK SMILES O=c1cc(-c2ccc(O)c(O)c2)oc2cc(O)cc(O)c12
REMARK SMILES IDX 4 1 3 2 2 3 1 4 21 5 19 6 18 7 16 8 15 9 14 10 13 11 5 12
REMARK SMILES IDX 6 13 7 14 8 15 12 16 10 17 9 18 11 20 20 22 17 24
REMARK H PARENT 9 19 11 21 20 23 17 25
REMARK Flexibility Score: inf
ROOT
ATOM      1  C   UNL     1      17.476  41.140  10.642  1.00  0.00     0.138 A 
ATOM      2  C   UNL     1      18.409  40.175  10.231  1.00  0.00     0.100 A 
ATOM      3  C   UNL     1      19.767  40.383  10.475  1.00  0.00     0.197 A 
ATOM      4  O   UNL     1      20.597  39.510  10.104  1.00  0.00    -0.289 OA
ATOM      5  C   UNL     1      20.182  41.558  11.133  1.00  0.00     0.107 A 
ATOM      6  C   UNL     1      21.538  41.849  11.418  1.00  0.00     0.134 A 
ATOM      7  C   UNL     1      21.869  43.039  12.081  1.00  0.00     0.093 A 
ATOM      8  C   UNL     1      20.871  43.943  12.466  1.00  0.00     0.123 A 
ATOM      9  C   UNL     1      19.533  43.659  12.187  1.00  0.00     0.094 A 
ATOM     10  C   UNL     1      19.182  42.479  11.524  1.00  0.00     0.146 A 
ATOM     11  O   UNL     1      17.901  42.235  11.270  1.00  0.00    -0.456 OA
ENDROOT
BRANCH   1  12
ATOM     12  C   UNL     1      16.019  40.971  10.411  1.00  0.00     0.021 A 
ATOM     13  C   UNL     1      15.266  41.928   9.703  1.00  0.00     0.016 A 
ATOM     14  C   UNL     1      13.894  41.748   9.508  1.00  0.00     0.051 A 
ATOM     15  C   UNL     1      13.251  40.615  10.022  1.00  0.00     0.157 A 
ATOM     16  C   UNL     1      15.361  39.844  10.934  1.00  0.00     0.062 A 
ATOM     17  C   UNL     1      13.984  39.663  10.738  1.00  0.00     0.158 A 
BRANCH  15  18
ATOM     18  O   UNL     1      11.883  40.433   9.828  1.00  0.00    -0.504 OA
ATOM     19  H   UNL     1      11.512  39.575   9.437  1.00  0.00     0.293 HD
ENDBRANCH  15  18
BRANCH  17  20
ATOM     20  O   UNL     1      13.339  38.539  11.251  1.00  0.00    -0.504 OA
ATOM     21  H   UNL     1      12.660  38.613  11.999  1.00  0.00     0.293 HD
ENDBRANCH  17  20
ENDBRANCH   1  12
BRANCH   6  22
ATOM     22  O   UNL     1      22.554  40.966  11.047  1.00  0.00    -0.507 OA
ATOM     23  H   UNL     1      22.454  39.964  11.155  1.00  0.00     0.293 HD
ENDBRANCH   6  22
BRANCH   8  24
ATOM     24  O   UNL     1      21.199  45.125  13.125  1.00  0.00    -0.508 OA
ATOM     25  H   UNL     1      22.163  45.416  13.242  1.00  0.00     0.293 HD
ENDBRANCH   8  24
TORSDOF 5
ENDMDL
MODEL 2
REMARK VINA RESULT:    40.049      1.523      6.755
REMARK INTER + INTRA:          46.806
REMARK INTER:                  47.086
REMARK INTRA:                  -0.280
REMARK UNBOUND:                -0.267
REMARK SMILES O=c1cc(-c2ccc(O)c(O)c2)oc2cc(O)cc(O)c12
REMARK SMILES IDX 4 1 3 2 2 3 1 4 21 5 19 6 18 7 16 8 15 9 14 10 13 11 5 12
REMARK SMILES IDX 6 13 7 14 8 15 12 16 10 17 9 18 11 20 20 22 17 24
REMARK H PARENT 9 19 11 21 20 23 17 25
REMARK Flexibility Score: inf
ROOT
ATOM      1  C   UNL     1      18.390  41.552  10.749  1.00  0.00     0.138 A 
ATOM      2  C   UNL     1      18.821  40.450   9.994  1.00  0.00     0.100 A 
ATOM      3  C   UNL     1      17.878  39.591   9.431  1.00  0.00     0.197 A 
ATOM      4  O   UNL     1      18.275  38.604   8.753  1.00  0.00    -0.289 OA
ATOM      5  C   UNL     1      16.504  39.844   9.624  1.00  0.00     0.107 A 
ATOM      6  C   UNL     1      15.482  39.023   9.090  1.00  0.00     0.134 A 
ATOM      7  C   UNL     1      14.138  39.346   9.324  1.00  0.00     0.093 A 
ATOM      8  C   UNL     1      13.797  40.473  10.081  1.00  0.00     0.123 A 
ATOM      9  C   UNL     1      14.802  41.286  10.609  1.00  0.00     0.094 A 
ATOM     10  C   UNL     1      16.148  40.980  10.389  1.00  0.00     0.146 A 
ATOM     11  O   UNL     1      17.085  41.768  10.905  1.00  0.00    -0.456 OA
ENDROOT
BRANCH   1  12
ATOM     12  C   UNL     1      19.349  42.501  11.371  1.00  0.00     0.021 A 
ATOM     13  C   UNL     1      19.120  43.891  11.372  1.00  0.00     0.016 A 
ATOM     14  C   UNL     1      20.045  44.761  11.956  1.00  0.00     0.051 A 
ATOM     15  C   UNL     1      21.214  44.260  12.541  1.00  0.00     0.157 A 
ATOM     16  C   UNL     1      20.533  42.009  11.949  1.00  0.00     0.062 A 
ATOM     17  C   UNL     1      21.459  42.882  12.535  1.00  0.00     0.158 A 
BRANCH  15  18
ATOM     18  O   UNL     1      22.137  45.125  13.125  1.00  0.00    -0.504 OA
ATOM     19  H   UNL     1      23.035  44.795  13.460  1.00  0.00     0.293 HD
ENDBRANCH  15  18
BRANCH  17  20
ATOM     20  O   UNL     1      22.627  42.387  13.116  1.00  0.00    -0.504 OA
ATOM     21  H   UNL     1      23.028  42.812  13.943  1.00  0.00     0.293 HD
ENDBRANCH  17  20
ENDBRANCH   1  12
BRANCH   6  22
ATOM     22  O   UNL     1      15.793  37.893   8.331  1.00  0.00    -0.507 OA
ATOM     23  H   UNL     1      16.458  37.931   7.568  1.00  0.00     0.293 HD
ENDBRANCH   6  22
BRANCH   8  24
ATOM     24  O   UNL     1      12.462  40.795  10.314  1.00  0.00    -0.508 OA
ATOM     25  H   UNL     1      12.176  41.743  10.532  1.00  0.00     0.293 HD
ENDBRANCH   8  24
TORSDOF 5
ENDMDL
