MODEL 1
REMARK VINA RESULT:    -4.597      0.000      0.000
REMARK INTER + INTRA:         -11.354
REMARK INTER:                 -10.509
REMARK INTRA:                  -0.845
REMARK UNBOUND:                -0.845
REMARK SMILES CCCCCCCCCCCCCCCCCCCCCCCC(=O)[O-]
REMARK SMILES IDX 13 1 14 2 15 3 16 4 17 5 18 6 19 7 20 8 21 9 22 10 23 11
REMARK SMILES IDX 24 12 25 13 26 14 12 15 11 16 10 17 9 18 8 19 7 20 6 21 5 22
REMARK SMILES IDX 4 23 3 24 2 25 1 26
REMARK H PARENT
REMARK Flexibility Score: inf
ROOT
ATOM      1  C   UNL     1       6.780  11.228  15.147  1.00  0.00     0.000 C 
ENDROOT
BRANCH   1   2
ATOM      2  C   UNL     1       5.311  10.783  15.046  1.00  0.00     0.000 C 
BRANCH   2   3
ATOM      3  C   UNL     1       4.921   9.780  16.143  1.00  0.00     0.000 C 
BRANCH   3   4
ATOM      4  C   UNL     1       3.397   9.662  16.326  1.00  0.00     0.000 C 
BRANCH   4   5
ATOM      5  C   UNL     1       2.708   9.037  15.094  1.00  0.00     0.000 C 
BRANCH   5   6
ATOM      6  C   UNL     1       1.715   7.912  15.445  1.00  0.00     0.000 C 
BRANCH   6   7
ATOM      7  C   UNL     1       0.311   8.394  15.862  1.00  0.00     0.000 C 
BRANCH   7   8
ATOM      8  C   UNL     1       0.281   9.295  17.111  1.00  0.00     0.000 C 
BRANCH   8   9
ATOM      9  C   UNL     1      -1.098   9.428  17.784  1.00  0.00     0.000 C 
BRANCH   9  10
ATOM     10  C   UNL     1      -1.273  10.735  18.585  1.00  0.00     0.006 C 
BRANCH  10  11
ATOM     11  C   UNL     1      -1.019  10.538  20.085  1.00  0.00     0.053 C 
BRANCH  11  12
ATOM     12  C   UNL     1      -2.063   9.643  20.675  1.00  0.00     0.041 C 
ATOM     13  O   UNL     1      -3.254   9.703  20.266  1.00  0.00    -0.550 OA
ATOM     14  O   UNL     1      -1.706   8.693  21.624  1.00  0.00    -0.550 OA
ENDBRANCH  11  12
ENDBRANCH  10  11
ENDBRANCH   9  10
ENDBRANCH   8   9
ENDBRANCH   7   8
ENDBRANCH   6   7
ENDBRANCH   5   6
ENDBRANCH   4   5
ENDBRANCH   3   4
ENDBRANCH   2   3
ENDBRANCH   1   2
BRANCH   1  15
ATOM     15  C   UNL     1       7.354  11.091  16.568  1.00  0.00     0.000 C 
BRANCH  15  16
ATOM     16  C   UNL     1       8.308  12.221  16.997  1.00  0.00     0.000 C 
BRANCH  16  17
ATOM     17  C   UNL     1       9.014  11.933  18.334  1.00  0.00     0.000 C 
BRANCH  17  18
ATOM     18  C   UNL     1       9.586  13.203  18.986  1.00  0.00    -0.000 C 
BRANCH  18  19
ATOM     19  C   UNL     1       8.489  14.201  19.388  1.00  0.00    -0.000 C 
BRANCH  19  20
ATOM     20  C   UNL     1       8.750  14.775  20.785  1.00  0.00    -0.000 C 
BRANCH  20  21
ATOM     21  C   UNL     1      10.045  14.197  21.378  1.00  0.00    -0.000 C 
BRANCH  21  22
ATOM     22  C   UNL     1      10.018  14.121  22.913  1.00  0.00    -0.000 C 
BRANCH  22  23
ATOM     23  C   UNL     1       9.115  15.196  23.544  1.00  0.00    -0.000 C 
BRANCH  23  24
ATOM     24  C   UNL     1       8.175  14.627  24.623  1.00  0.00    -0.000 C 
BRANCH  24  25
ATOM     25  C   UNL     1       6.714  14.436  24.175  1.00  0.00    -0.003 C 
ATOM     26  C   UNL     1       5.747  15.401  24.863  1.00  0.00     0.004 C 
ENDBRANCH  24  25
ENDBRANCH  23  24
ENDBRANCH  22  23
ENDBRANCH  21  22
ENDBRANCH  20  21
ENDBRANCH  19  20
ENDBRANCH  18  19
ENDBRANCH  17  18
ENDBRANCH  16  17
ENDBRANCH  15  16
ENDBRANCH   1  15
TORSDOF 22
ENDMDL
MODEL 2
REMARK VINA RESULT:    -4.238      3.498      9.869
REMARK INTER + INTRA:         -10.532
REMARK INTER:                  -9.149
REMARK INTRA:                  -1.383
REMARK UNBOUND:                -0.845
REMARK SMILES CCCCCCCCCCCCCCCCCCCCCCCC(=O)[O-]
REMARK SMILES IDX 13 1 14 2 15 3 16 4 17 5 18 6 19 7 20 8 21 9 22 10 23 11
REMARK SMILES IDX 24 12 25 13 26 14 12 15 11 16 10 17 9 18 8 19 7 20 6 21 5 22
REMARK SMILES IDX 4 23 3 24 2 25 1 26
REMARK H PARENT
REMARK Flexibility Score: inf
ROOT
ATOM      1  C   UNL     1       6.355  11.057  15.825  1.00  0.00     0.000 C 
ENDROOT
BRANCH   1   2
ATOM      2  C   UNL     1       7.478  11.883  15.176  1.00  0.00     0.000 C 
BRANCH   2   3
ATOM      3  C   UNL     1       8.870  11.511  15.710  1.00  0.00     0.000 C 
BRANCH   3   4
ATOM      4  C   UNL     1       8.808  10.553  16.913  1.00  0.00     0.000 C 
BRANCH   4   5
ATOM      5  C   UNL     1       9.094  11.273  18.248  1.00  0.00     0.000 C 
BRANCH   5   6
ATOM      6  C   UNL     1       9.482  12.755  18.082  1.00  0.00     0.000 C 
BRANCH   6   7
ATOM      7  C   UNL     1       9.662  13.530  19.402  1.00  0.00     0.000 C 
BRANCH   7   8
ATOM      8  C   UNL     1       8.444  14.371  19.829  1.00  0.00     0.000 C 
BRANCH   8   9
ATOM      9  C   UNL     1       8.643  15.196  21.114  1.00  0.00     0.000 C 
BRANCH   9  10
ATOM     10  C   UNL     1       9.485  14.476  22.189  1.00  0.00     0.006 C 
BRANCH  10  11
ATOM     11  C   UNL     1       9.595  15.288  23.485  1.00  0.00     0.053 C 
BRANCH  11  12
ATOM     12  C   UNL     1       8.623  14.777  24.502  1.00  0.00     0.041 C 
ATOM     13  O   UNL     1       7.397  15.051  24.400  1.00  0.00    -0.550 OA
ATOM     14  O   UNL     1       9.061  13.940  25.521  1.00  0.00    -0.550 OA
ENDBRANCH  11  12
ENDBRANCH  10  11
ENDBRANCH   9  10
ENDBRANCH   8   9
ENDBRANCH   7   8
ENDBRANCH   6   7
ENDBRANCH   5   6
ENDBRANCH   4   5
ENDBRANCH   3   4
ENDBRANCH   2   3
ENDBRANCH   1   2
BRANCH   1  15
ATOM     15  C   UNL     1       5.760  10.001  14.876  1.00  0.00     0.000 C 
BRANCH  15  16
ATOM     16  C   UNL     1       4.256   9.729  15.066  1.00  0.00     0.000 C 
BRANCH  16  17
ATOM     17  C   UNL     1       3.835   9.693  16.545  1.00  0.00     0.000 C 
BRANCH  17  18
ATOM     18  C   UNL     1       2.311   9.606  16.725  1.00  0.00    -0.000 C 
BRANCH  18  19
ATOM     19  C   UNL     1       1.635   8.786  15.615  1.00  0.00    -0.000 C 
BRANCH  19  20
ATOM     20  C   UNL     1       0.221   8.360  16.026  1.00  0.00    -0.000 C 
BRANCH  20  21
ATOM     21  C   UNL     1      -0.059   8.741  17.489  1.00  0.00    -0.000 C 
BRANCH  21  22
ATOM     22  C   UNL     1      -1.212   9.745  17.636  1.00  0.00    -0.000 C 
BRANCH  22  23
ATOM     23  C   UNL     1      -0.930  10.820  18.700  1.00  0.00    -0.000 C 
BRANCH  23  24
ATOM     24  C   UNL     1      -1.986  10.839  19.822  1.00  0.00    -0.000 C 
BRANCH  24  25
ATOM     25  C   UNL     1      -2.448   9.450  20.300  1.00  0.00    -0.003 C 
ATOM     26  C   UNL     1      -1.706   8.971  21.548  1.00  0.00     0.004 C 
ENDBRANCH  24  25
ENDBRANCH  23  24
ENDBRANCH  22  23
ENDBRANCH  21  22
ENDBRANCH  20  21
ENDBRANCH  19  20
ENDBRANCH  18  19
ENDBRANCH  17  18
ENDBRANCH  16  17
ENDBRANCH  15  16
ENDBRANCH   1  15
TORSDOF 22
ENDMDL
MODEL 3
REMARK VINA RESULT:    -4.229      1.357      2.248
REMARK INTER + INTRA:         -10.513
REMARK INTER:                  -9.941
REMARK INTRA:                  -0.573
REMARK UNBOUND:                -0.845
REMARK SMILES CCCCCCCCCCCCCCCCCCCCCCCC(=O)[O-]
REMARK SMILES IDX 13 1 14 2 15 3 16 4 17 5 18 6 19 7 20 8 21 9 22 10 23 11
REMARK SMILES IDX 24 12 25 13 26 14 12 15 11 16 10 17 9 18 8 19 7 20 6 21 5 22
REMARK SMILES IDX 4 23 3 24 2 25 1 26
REMARK H PARENT
REMARK Flexibility Score: inf
ROOT
ATOM      1  C   UNL     1       6.644  11.142  16.682  1.00  0.00     0.000 C 
ENDROOT
BRANCH   1   2
ATOM      2  C   UNL     1       6.142  11.294  15.237  1.00  0.00     0.000 C 
BRANCH   2   3
ATOM      3  C   UNL     1       4.894  10.442  14.952  1.00  0.00     0.000 C 
BRANCH   3   4
ATOM      4  C   UNL     1       4.566   9.469  16.098  1.00  0.00     0.000 C 
BRANCH   4   5
ATOM      5  C   UNL     1       3.048   9.361  16.355  1.00  0.00     0.000 C 
BRANCH   5   6
ATOM      6  C   UNL     1       2.209   9.242  15.067  1.00  0.00     0.000 C 
BRANCH   6   7
ATOM      7  C   UNL     1       1.147   8.125  15.086  1.00  0.00     0.000 C 
BRANCH   7   8
ATOM      8  C   UNL     1       0.251   8.106  16.340  1.00  0.00     0.000 C 
BRANCH   8   9
ATOM      9  C   UNL     1       0.126   9.457  17.069  1.00  0.00     0.000 C 
BRANCH   9  10
ATOM     10  C   UNL     1      -1.239   9.664  17.759  1.00  0.00     0.006 C 
BRANCH  10  11
ATOM     11  C   UNL     1      -1.167  10.688  18.900  1.00  0.00     0.053 C 
BRANCH  11  12
ATOM     12  C   UNL     1      -1.898  10.179  20.101  1.00  0.00     0.041 C 
ATOM     13  O   UNL     1      -1.258   9.813  21.124  1.00  0.00    -0.550 OA
ATOM     14  O   UNL     1      -3.287  10.178  20.119  1.00  0.00    -0.550 OA
ENDBRANCH  11  12
ENDBRANCH  10  11
ENDBRANCH   9  10
ENDBRANCH   8   9
ENDBRANCH   7   8
ENDBRANCH   6   7
ENDBRANCH   5   6
ENDBRANCH   4   5
ENDBRANCH   3   4
ENDBRANCH   2   3
ENDBRANCH   1   2
BRANCH   1  15
ATOM     15  C   UNL     1       8.176  11.018  16.777  1.00  0.00     0.000 C 
BRANCH  15  16
ATOM     16  C   UNL     1       8.905  12.293  17.240  1.00  0.00     0.000 C 
BRANCH  16  17
ATOM     17  C   UNL     1       9.258  12.270  18.738  1.00  0.00     0.000 C 
BRANCH  17  18
ATOM     18  C   UNL     1       9.708  13.644  19.261  1.00  0.00    -0.000 C 
BRANCH  18  19
ATOM     19  C   UNL     1       8.538  14.629  19.402  1.00  0.00    -0.000 C 
BRANCH  19  20
ATOM     20  C   UNL     1       8.413  15.134  20.845  1.00  0.00    -0.000 C 
BRANCH  20  21
ATOM     21  C   UNL     1       9.334  14.337  21.783  1.00  0.00    -0.000 C 
BRANCH  21  22
ATOM     22  C   UNL     1       9.820  15.161  22.985  1.00  0.00    -0.000 C 
BRANCH  22  23
ATOM     23  C   UNL     1      10.430  14.287  24.096  1.00  0.00    -0.000 C 
BRANCH  23  24
ATOM     24  C   UNL     1      11.968  14.359  24.133  1.00  0.00    -0.000 C 
BRANCH  24  25
ATOM     25  C   UNL     1      12.615  13.744  25.388  1.00  0.00    -0.003 C 
ATOM     26  C   UNL     1      11.747  13.889  26.640  1.00  0.00     0.004 C 
ENDBRANCH  24  25
ENDBRANCH  23  24
ENDBRANCH  22  23
ENDBRANCH  21  22
ENDBRANCH  20  21
ENDBRANCH  19  20
ENDBRANCH  18  19
ENDBRANCH  17  18
ENDBRANCH  16  17
ENDBRANCH  15  16
ENDBRANCH   1  15
TORSDOF 22
ENDMDL
MODEL 4
REMARK VINA RESULT:    -4.144     13.204     17.762
REMARK INTER + INTRA:         -10.317
REMARK INTER:                  -8.025
REMARK INTRA:                  -2.293
REMARK UNBOUND:                -0.845
REMARK SMILES CCCCCCCCCCCCCCCCCCCCCCCC(=O)[O-]
REMARK SMILES IDX 13 1 14 2 15 3 16 4 17 5 18 6 19 7 20 8 21 9 22 10 23 11
REMARK SMILES IDX 24 12 25 13 26 14 12 15 11 16 10 17 9 18 8 19 7 20 6 21 5 22
REMARK SMILES IDX 4 23 3 24 2 25 1 26
REMARK H PARENT
REMARK Flexibility Score: inf
ROOT
ATOM      1  C   UNL     1       2.421  21.367  34.633  1.00  0.00     0.000 C 
ENDROOT
BRANCH   1   2
ATOM      2  C   UNL     1       3.524  20.528  33.966  1.00  0.00     0.000 C 
BRANCH   2   3
ATOM      3  C   UNL     1       3.094  19.965  32.602  1.00  0.00     0.000 C 
BRANCH   3   4
ATOM      4  C   UNL     1       2.737  18.469  32.663  1.00  0.00     0.000 C 
BRANCH   4   5
ATOM      5  C   UNL     1       2.959  17.873  34.070  1.00  0.00     0.000 C 
BRANCH   5   6
ATOM      6  C   UNL     1       4.114  16.855  34.136  1.00  0.00     0.000 C 
BRANCH   6   7
ATOM      7  C   UNL     1       5.240  17.215  35.125  1.00  0.00     0.000 C 
BRANCH   7   8
ATOM      8  C   UNL     1       6.616  17.462  34.477  1.00  0.00     0.000 C 
BRANCH   8   9
ATOM      9  C   UNL     1       6.569  18.120  33.084  1.00  0.00     0.000 C 
BRANCH   9  10
ATOM     10  C   UNL     1       7.190  17.252  31.969  1.00  0.00     0.006 C 
BRANCH  10  11
ATOM     11  C   UNL     1       7.023  15.751  32.237  1.00  0.00     0.053 C 
BRANCH  11  12
ATOM     12  C   UNL     1       7.681  14.954  31.155  1.00  0.00     0.041 C 
ATOM     13  O   UNL     1       8.933  14.994  31.010  1.00  0.00    -0.550 OA
ATOM     14  O   UNL     1       6.920  14.112  30.353  1.00  0.00    -0.550 OA
ENDBRANCH  11  12
ENDBRANCH  10  11
ENDBRANCH   9  10
ENDBRANCH   8   9
ENDBRANCH   7   8
ENDBRANCH   6   7
ENDBRANCH   5   6
ENDBRANCH   4   5
ENDBRANCH   3   4
ENDBRANCH   2   3
ENDBRANCH   1   2
BRANCH   1  15
ATOM     15  C   UNL     1       1.227  20.521  35.112  1.00  0.00     0.000 C 
BRANCH  15  16
ATOM     16  C   UNL     1      -0.149  20.993  34.609  1.00  0.00     0.000 C 
BRANCH  16  17
ATOM     17  C   UNL     1      -0.095  22.365  33.914  1.00  0.00     0.000 C 
BRANCH  17  18
ATOM     18  C   UNL     1      -0.494  22.293  32.431  1.00  0.00    -0.000 C 
BRANCH  18  19
ATOM     19  C   UNL     1       0.020  21.017  31.747  1.00  0.00    -0.000 C 
BRANCH  19  20
ATOM     20  C   UNL     1      -1.047  20.419  30.822  1.00  0.00    -0.000 C 
BRANCH  20  21
ATOM     21  C   UNL     1      -0.415  19.426  29.832  1.00  0.00    -0.000 C 
BRANCH  21  22
ATOM     22  C   UNL     1      -1.403  18.942  28.759  1.00  0.00    -0.000 C 
BRANCH  22  23
ATOM     23  C   UNL     1      -2.610  19.883  28.597  1.00  0.00    -0.000 C 
BRANCH  23  24
ATOM     24  C   UNL     1      -2.596  20.646  27.259  1.00  0.00    -0.000 C 
BRANCH  24  25
ATOM     25  C   UNL     1      -1.273  20.555  26.476  1.00  0.00    -0.003 C 
ATOM     26  C   UNL     1      -1.118  21.664  25.434  1.00  0.00     0.004 C 
ENDBRANCH  24  25
ENDBRANCH  23  24
ENDBRANCH  22  23
ENDBRANCH  21  22
ENDBRANCH  20  21
ENDBRANCH  19  20
ENDBRANCH  18  19
ENDBRANCH  17  18
ENDBRANCH  16  17
ENDBRANCH  15  16
ENDBRANCH   1  15
TORSDOF 22
ENDMDL
MODEL 5
REMARK VINA RESULT:    -4.052      9.204     14.229
REMARK INTER + INTRA:         -10.108
REMARK INTER:                  -8.780
REMARK INTRA:                  -1.327
REMARK UNBOUND:                -0.845
REMARK SMILES CCCCCCCCCCCCCCCCCCCCCCCC(=O)[O-]
REMARK SMILES IDX 13 1 14 2 15 3 16 4 17 5 18 6 19 7 20 8 21 9 22 10 23 11
REMARK SMILES IDX 24 12 25 13 26 14 12 15 11 16 10 17 9 18 8 19 7 20 6 21 5 22
REMARK SMILES IDX 4 23 3 24 2 25 1 26
REMARK H PARENT
REMARK Flexibility Score: inf
ROOT
ATOM      1  C   UNL     1       7.174  14.213  30.369  1.00  0.00     0.000 C 
ENDROOT
BRANCH   1   2
ATOM      2  C   UNL     1       8.217  14.975  31.203  1.00  0.00     0.000 C 
BRANCH   2   3
ATOM      3  C   UNL     1       7.666  16.286  31.785  1.00  0.00     0.000 C 
BRANCH   3   4
ATOM      4  C   UNL     1       6.323  16.095  32.512  1.00  0.00     0.000 C 
BRANCH   4   5
ATOM      5  C   UNL     1       6.298  16.797  33.886  1.00  0.00     0.000 C 
BRANCH   5   6
ATOM      6  C   UNL     1       5.724  18.227  33.841  1.00  0.00     0.000 C 
BRANCH   6   7
ATOM      7  C   UNL     1       4.726  18.489  32.695  1.00  0.00     0.000 C 
BRANCH   7   8
ATOM      8  C   UNL     1       3.787  19.690  32.917  1.00  0.00     0.000 C 
BRANCH   8   9
ATOM      9  C   UNL     1       2.341  19.483  32.427  1.00  0.00     0.000 C 
BRANCH   9  10
ATOM     10  C   UNL     1       1.273  19.829  33.485  1.00  0.00     0.006 C 
BRANCH  10  11
ATOM     11  C   UNL     1       1.189  21.336  33.759  1.00  0.00     0.053 C 
BRANCH  11  12
ATOM     12  C   UNL     1       0.082  21.948  32.961  1.00  0.00     0.041 C 
ATOM     13  O   UNL     1      -0.309  23.119  33.216  1.00  0.00    -0.550 OA
ATOM     14  O   UNL     1      -0.468  21.254  31.891  1.00  0.00    -0.550 OA
ENDBRANCH  11  12
ENDBRANCH  10  11
ENDBRANCH   9  10
ENDBRANCH   8   9
ENDBRANCH   7   8
ENDBRANCH   6   7
ENDBRANCH   5   6
ENDBRANCH   4   5
ENDBRANCH   3   4
ENDBRANCH   2   3
ENDBRANCH   1   2
BRANCH   1  15
ATOM     15  C   UNL     1       7.780  13.512  29.140  1.00  0.00     0.000 C 
BRANCH  15  16
ATOM     16  C   UNL     1       9.006  14.216  28.527  1.00  0.00     0.000 C 
BRANCH  16  17
ATOM     17  C   UNL     1       9.442  13.600  27.187  1.00  0.00     0.000 C 
BRANCH  17  18
ATOM     18  C   UNL     1      10.907  13.135  27.199  1.00  0.00    -0.000 C 
BRANCH  18  19
ATOM     19  C   UNL     1      11.896  14.309  27.121  1.00  0.00    -0.000 C 
BRANCH  19  20
ATOM     20  C   UNL     1      12.839  14.157  25.922  1.00  0.00    -0.000 C 
BRANCH  20  21
ATOM     21  C   UNL     1      12.081  13.624  24.696  1.00  0.00    -0.000 C 
BRANCH  21  22
ATOM     22  C   UNL     1      11.591  14.743  23.764  1.00  0.00    -0.000 C 
BRANCH  22  23
ATOM     23  C   UNL     1      10.228  14.425  23.122  1.00  0.00    -0.000 C 
BRANCH  23  24
ATOM     24  C   UNL     1       9.066  15.191  23.782  1.00  0.00    -0.000 C 
BRANCH  24  25
ATOM     25  C   UNL     1       7.999  14.301  24.447  1.00  0.00    -0.003 C 
ATOM     26  C   UNL     1       6.677  15.032  24.688  1.00  0.00     0.004 C 
ENDBRANCH  24  25
ENDBRANCH  23  24
ENDBRANCH  22  23
ENDBRANCH  21  22
ENDBRANCH  20  21
ENDBRANCH  19  20
ENDBRANCH  18  19
ENDBRANCH  17  18
ENDBRANCH  16  17
ENDBRANCH  15  16
ENDBRANCH   1  15
TORSDOF 22
ENDMDL
MODEL 6
REMARK VINA RESULT:    -4.004      3.305     10.588
REMARK INTER + INTRA:          -9.997
REMARK INTER:                  -8.787
REMARK INTRA:                  -1.210
REMARK UNBOUND:                -0.845
REMARK SMILES CCCCCCCCCCCCCCCCCCCCCCCC(=O)[O-]
REMARK SMILES IDX 13 1 14 2 15 3 16 4 17 5 18 6 19 7 20 8 21 9 22 10 23 11
REMARK SMILES IDX 24 12 25 13 26 14 12 15 11 16 10 17 9 18 8 19 7 20 6 21 5 22
REMARK SMILES IDX 4 23 3 24 2 25 1 26
REMARK H PARENT
REMARK Flexibility Score: inf
ROOT
ATOM      1  C   UNL     1       8.817  15.002  21.134  1.00  0.00     0.000 C 
ENDROOT
BRANCH   1   2
ATOM      2  C   UNL     1       9.802  14.095  21.891  1.00  0.00     0.000 C 
BRANCH   2   3
ATOM      3  C   UNL     1      10.461  14.804  23.085  1.00  0.00     0.000 C 
BRANCH   3   4
ATOM      4  C   UNL     1      11.825  14.197  23.457  1.00  0.00     0.000 C 
BRANCH   4   5
ATOM      5  C   UNL     1      12.288  14.621  24.867  1.00  0.00     0.000 C 
BRANCH   5   6
ATOM      6  C   UNL     1      12.551  13.435  25.815  1.00  0.00     0.000 C 
BRANCH   6   7
ATOM      7  C   UNL     1      11.551  13.302  26.980  1.00  0.00     0.000 C 
BRANCH   7   8
ATOM      8  C   UNL     1      10.336  14.248  26.901  1.00  0.00     0.000 C 
BRANCH   8   9
ATOM      9  C   UNL     1       9.034  13.592  26.405  1.00  0.00     0.000 C 
BRANCH   9  10
ATOM     10  C   UNL     1       8.416  14.295  25.178  1.00  0.00     0.006 C 
BRANCH  10  11
ATOM     11  C   UNL     1       7.108  15.021  25.520  1.00  0.00     0.053 C 
BRANCH  11  12
ATOM     12  C   UNL     1       6.112  14.844  24.418  1.00  0.00     0.041 C 
ATOM     13  O   UNL     1       6.174  13.835  23.664  1.00  0.00    -0.550 OA
ATOM     14  O   UNL     1       5.072  15.753  24.269  1.00  0.00    -0.550 OA
ENDBRANCH  11  12
ENDBRANCH  10  11
ENDBRANCH   9  10
ENDBRANCH   8   9
ENDBRANCH   7   8
ENDBRANCH   6   7
ENDBRANCH   5   6
ENDBRANCH   4   5
ENDBRANCH   3   4
ENDBRANCH   2   3
ENDBRANCH   1   2
BRANCH   1  15
ATOM     15  C   UNL     1       8.710  14.656  19.637  1.00  0.00     0.000 C 
BRANCH  15  16
ATOM     16  C   UNL     1       9.397  13.342  19.221  1.00  0.00     0.000 C 
BRANCH  16  17
ATOM     17  C   UNL     1       8.863  12.783  17.891  1.00  0.00     0.000 C 
BRANCH  17  18
ATOM     18  C   UNL     1       8.780  11.248  17.885  1.00  0.00    -0.000 C 
BRANCH  18  19
ATOM     19  C   UNL     1       7.604  10.727  17.045  1.00  0.00    -0.000 C 
BRANCH  19  20
ATOM     20  C   UNL     1       7.244  11.713  15.928  1.00  0.00    -0.000 C 
BRANCH  20  21
ATOM     21  C   UNL     1       6.080  11.176  15.080  1.00  0.00    -0.000 C 
BRANCH  21  22
ATOM     22  C   UNL     1       5.233  10.130  15.822  1.00  0.00    -0.000 C 
BRANCH  22  23
ATOM     23  C   UNL     1       3.844   9.934  15.190  1.00  0.00    -0.000 C 
BRANCH  23  24
ATOM     24  C   UNL     1       2.807   9.384  16.187  1.00  0.00    -0.000 C 
BRANCH  24  25
ATOM     25  C   UNL     1       1.632   8.623  15.545  1.00  0.00    -0.003 C 
ATOM     26  C   UNL     1       0.361   8.657  16.397  1.00  0.00     0.004 C 
ENDBRANCH  24  25
ENDBRANCH  23  24
ENDBRANCH  22  23
ENDBRANCH  21  22
ENDBRANCH  20  21
ENDBRANCH  19  20
ENDBRANCH  18  19
ENDBRANCH  17  18
ENDBRANCH  16  17
ENDBRANCH  15  16
ENDBRANCH   1  15
TORSDOF 22
ENDMDL
MODEL 7
REMARK VINA RESULT:    -3.866      8.381     13.880
REMARK INTER + INTRA:          -9.684
REMARK INTER:                  -8.227
REMARK INTRA:                  -1.457
REMARK UNBOUND:                -0.845
REMARK SMILES CCCCCCCCCCCCCCCCCCCCCCCC(=O)[O-]
REMARK SMILES IDX 13 1 14 2 15 3 16 4 17 5 18 6 19 7 20 8 21 9 22 10 23 11
REMARK SMILES IDX 24 12 25 13 26 14 12 15 11 16 10 17 9 18 8 19 7 20 6 21 5 22
REMARK SMILES IDX 4 23 3 24 2 25 1 26
REMARK H PARENT
REMARK Flexibility Score: inf
ROOT
ATOM      1  C   UNL     1       7.320  14.257  30.063  1.00  0.00     0.000 C 
ENDROOT
BRANCH   1   2
ATOM      2  C   UNL     1       8.459  13.484  29.376  1.00  0.00     0.000 C 
BRANCH   2   3
ATOM      3  C   UNL     1       9.058  14.249  28.185  1.00  0.00     0.000 C 
BRANCH   3   4
ATOM      4  C   UNL     1      10.585  14.083  28.080  1.00  0.00     0.000 C 
BRANCH   4   5
ATOM      5  C   UNL     1      11.012  13.450  26.739  1.00  0.00     0.000 C 
BRANCH   5   6
ATOM      6  C   UNL     1      12.239  14.127  26.097  1.00  0.00     0.000 C 
BRANCH   6   7
ATOM      7  C   UNL     1      12.396  13.883  24.584  1.00  0.00     0.000 C 
BRANCH   7   8
ATOM      8  C   UNL     1      11.619  14.864  23.686  1.00  0.00     0.000 C 
BRANCH   8   9
ATOM      9  C   UNL     1      10.291  14.319  23.126  1.00  0.00     0.000 C 
BRANCH   9  10
ATOM     10  C   UNL     1       9.053  15.121  23.580  1.00  0.00     0.006 C 
BRANCH  10  11
ATOM     11  C   UNL     1       8.273  14.410  24.692  1.00  0.00     0.053 C 
BRANCH  11  12
ATOM     12  C   UNL     1       6.804  14.639  24.525  1.00  0.00     0.041 C 
ATOM     13  O   UNL     1       6.094  13.789  23.925  1.00  0.00    -0.550 OA
ATOM     14  O   UNL     1       6.208  15.757  25.095  1.00  0.00    -0.550 OA
ENDBRANCH  11  12
ENDBRANCH  10  11
ENDBRANCH   9  10
ENDBRANCH   8   9
ENDBRANCH   7   8
ENDBRANCH   6   7
ENDBRANCH   5   6
ENDBRANCH   4   5
ENDBRANCH   3   4
ENDBRANCH   2   3
ENDBRANCH   1   2
BRANCH   1  15
ATOM     15  C   UNL     1       7.793  15.065  31.285  1.00  0.00     0.000 C 
BRANCH  15  16
ATOM     16  C   UNL     1       6.691  15.868  32.001  1.00  0.00     0.000 C 
BRANCH  16  17
ATOM     17  C   UNL     1       7.081  17.337  32.242  1.00  0.00     0.000 C 
BRANCH  17  18
ATOM     18  C   UNL     1       6.667  17.837  33.636  1.00  0.00    -0.000 C 
BRANCH  18  19
ATOM     19  C   UNL     1       5.505  17.025  34.229  1.00  0.00    -0.000 C 
BRANCH  19  20
ATOM     20  C   UNL     1       4.351  17.942  34.652  1.00  0.00    -0.000 C 
BRANCH  20  21
ATOM     21  C   UNL     1       3.467  18.297  33.445  1.00  0.00    -0.000 C 
BRANCH  21  22
ATOM     22  C   UNL     1       3.502  19.793  33.099  1.00  0.00    -0.000 C 
BRANCH  22  23
ATOM     23  C   UNL     1       2.161  20.305  32.544  1.00  0.00    -0.000 C 
BRANCH  23  24
ATOM     24  C   UNL     1       1.394  21.180  33.553  1.00  0.00    -0.000 C 
BRANCH  24  25
ATOM     25  C   UNL     1       0.032  21.699  33.056  1.00  0.00    -0.003 C 
ATOM     26  C   UNL     1      -0.398  21.075  31.728  1.00  0.00     0.004 C 
ENDBRANCH  24  25
ENDBRANCH  23  24
ENDBRANCH  22  23
ENDBRANCH  21  22
ENDBRANCH  20  21
ENDBRANCH  19  20
ENDBRANCH  18  19
ENDBRANCH  17  18
ENDBRANCH  16  17
ENDBRANCH  15  16
ENDBRANCH   1  15
TORSDOF 22
ENDMDL
MODEL 8
REMARK VINA RESULT:    -3.796      9.415     15.443
REMARK INTER + INTRA:          -9.523
REMARK INTER:                  -8.328
REMARK INTRA:                  -1.195
REMARK UNBOUND:                -0.845
REMARK SMILES CCCCCCCCCCCCCCCCCCCCCCCC(=O)[O-]
REMARK SMILES IDX 13 1 14 2 15 3 16 4 17 5 18 6 19 7 20 8 21 9 22 10 23 11
REMARK SMILES IDX 24 12 25 13 26 14 12 15 11 16 10 17 9 18 8 19 7 20 6 21 5 22
REMARK SMILES IDX 4 23 3 24 2 25 1 26
REMARK H PARENT
REMARK Flexibility Score: inf
ROOT
ATOM      1  C   UNL     1       6.616  16.084  31.702  1.00  0.00     0.000 C 
ENDROOT
BRANCH   1   2
ATOM      2  C   UNL     1       7.803  15.151  31.407  1.00  0.00     0.000 C 
BRANCH   2   3
ATOM      3  C   UNL     1       7.386  13.893  30.628  1.00  0.00     0.000 C 
BRANCH   3   4
ATOM      4  C   UNL     1       7.680  14.004  29.121  1.00  0.00     0.000 C 
BRANCH   4   5
ATOM      5  C   UNL     1       9.193  13.969  28.817  1.00  0.00     0.000 C 
BRANCH   5   6
ATOM      6  C   UNL     1       9.520  13.747  27.328  1.00  0.00     0.000 C 
BRANCH   6   7
ATOM      7  C   UNL     1      10.938  13.210  27.049  1.00  0.00     0.000 C 
BRANCH   7   8
ATOM      8  C   UNL     1      12.009  14.295  26.829  1.00  0.00     0.000 C 
BRANCH   8   9
ATOM      9  C   UNL     1      12.755  14.209  25.485  1.00  0.00     0.000 C 
BRANCH   9  10
ATOM     10  C   UNL     1      11.842  13.855  24.292  1.00  0.00     0.006 C 
BRANCH  10  11
ATOM     11  C   UNL     1      11.203  15.098  23.657  1.00  0.00     0.053 C 
BRANCH  11  12
ATOM     12  C   UNL     1       9.784  14.815  23.277  1.00  0.00     0.041 C 
ATOM     13  O   UNL     1       9.461  14.719  22.063  1.00  0.00    -0.550 OA
ATOM     14  O   UNL     1       8.834  14.587  24.264  1.00  0.00    -0.550 OA
ENDBRANCH  11  12
ENDBRANCH  10  11
ENDBRANCH   9  10
ENDBRANCH   8   9
ENDBRANCH   7   8
ENDBRANCH   6   7
ENDBRANCH   5   6
ENDBRANCH   4   5
ENDBRANCH   3   4
ENDBRANCH   2   3
ENDBRANCH   1   2
BRANCH   1  15
ATOM     15  C   UNL     1       6.866  17.015  32.903  1.00  0.00     0.000 C 
BRANCH  15  16
ATOM     16  C   UNL     1       6.144  16.610  34.202  1.00  0.00     0.000 C 
BRANCH  16  17
ATOM     17  C   UNL     1       4.899  17.468  34.487  1.00  0.00     0.000 C 
BRANCH  17  18
ATOM     18  C   UNL     1       5.242  18.950  34.715  1.00  0.00    -0.000 C 
BRANCH  18  19
ATOM     19  C   UNL     1       4.080  19.884  34.343  1.00  0.00    -0.000 C 
BRANCH  19  20
ATOM     20  C   UNL     1       3.697  19.728  32.866  1.00  0.00    -0.000 C 
BRANCH  20  21
ATOM     21  C   UNL     1       2.174  19.587  32.710  1.00  0.00    -0.000 C 
BRANCH  21  22
ATOM     22  C   UNL     1       1.402  20.013  33.969  1.00  0.00    -0.000 C 
BRANCH  22  23
ATOM     23  C   UNL     1       1.042  21.510  33.965  1.00  0.00    -0.000 C 
BRANCH  23  24
ATOM     24  C   UNL     1      -0.106  21.844  32.994  1.00  0.00    -0.000 C 
BRANCH  24  25
ATOM     25  C   UNL     1      -0.786  23.204  33.238  1.00  0.00    -0.003 C 
ATOM     26  C   UNL     1      -0.843  23.586  34.718  1.00  0.00     0.004 C 
ENDBRANCH  24  25
ENDBRANCH  23  24
ENDBRANCH  22  23
ENDBRANCH  21  22
ENDBRANCH  20  21
ENDBRANCH  19  20
ENDBRANCH  18  19
ENDBRANCH  17  18
ENDBRANCH  16  17
ENDBRANCH  15  16
ENDBRANCH   1  15
TORSDOF 22
ENDMDL
MODEL 9
REMARK VINA RESULT:    -3.795      2.521      5.899
REMARK INTER + INTRA:          -9.521
REMARK INTER:                  -7.889
REMARK INTRA:                  -1.632
REMARK UNBOUND:                -0.845
REMARK SMILES CCCCCCCCCCCCCCCCCCCCCCCC(=O)[O-]
REMARK SMILES IDX 13 1 14 2 15 3 16 4 17 5 18 6 19 7 20 8 21 9 22 10 23 11
REMARK SMILES IDX 24 12 25 13 26 14 12 15 11 16 10 17 9 18 8 19 7 20 6 21 5 22
REMARK SMILES IDX 4 23 3 24 2 25 1 26
REMARK H PARENT
REMARK Flexibility Score: inf
ROOT
ATOM      1  C   UNL     1       8.770  14.632  20.897  1.00  0.00     0.000 C 
ENDROOT
BRANCH   1   2
ATOM      2  C   UNL     1       8.858  14.391  19.380  1.00  0.00     0.000 C 
BRANCH   2   3
ATOM      3  C   UNL     1       9.582  13.082  19.031  1.00  0.00     0.000 C 
BRANCH   3   4
ATOM      4  C   UNL     1       8.692  12.102  18.246  1.00  0.00     0.000 C 
BRANCH   4   5
ATOM      5  C   UNL     1       8.690  12.399  16.732  1.00  0.00     0.000 C 
BRANCH   5   6
ATOM      6  C   UNL     1       7.452  11.851  15.994  1.00  0.00     0.000 C 
BRANCH   6   7
ATOM      7  C   UNL     1       7.075  10.400  16.352  1.00  0.00     0.000 C 
BRANCH   7   8
ATOM      8  C   UNL     1       5.561  10.131  16.453  1.00  0.00     0.000 C 
BRANCH   8   9
ATOM      9  C   UNL     1       4.747  10.529  15.208  1.00  0.00     0.000 C 
BRANCH   9  10
ATOM     10  C   UNL     1       3.524   9.622  14.952  1.00  0.00     0.006 C 
BRANCH  10  11
ATOM     11  C   UNL     1       2.747   9.315  16.239  1.00  0.00     0.053 C 
BRANCH  11  12
ATOM     12  C   UNL     1       1.456   8.631  15.915  1.00  0.00     0.041 C 
ATOM     13  O   UNL     1       1.449   7.607  15.180  1.00  0.00    -0.550 OA
ATOM     14  O   UNL     1       0.271   9.081  16.482  1.00  0.00    -0.550 OA
ENDBRANCH  11  12
ENDBRANCH  10  11
ENDBRANCH   9  10
ENDBRANCH   8   9
ENDBRANCH   7   8
ENDBRANCH   6   7
ENDBRANCH   5   6
ENDBRANCH   4   5
ENDBRANCH   3   4
ENDBRANCH   2   3
ENDBRANCH   1   2
BRANCH   1  15
ATOM     15  C   UNL     1       9.861  13.889  21.688  1.00  0.00     0.000 C 
BRANCH  15  16
ATOM     16  C   UNL     1      10.351  14.611  22.957  1.00  0.00     0.000 C 
BRANCH  16  17
ATOM     17  C   UNL     1      11.848  14.388  23.233  1.00  0.00     0.000 C 
BRANCH  17  18
ATOM     18  C   UNL     1      12.220  14.624  24.706  1.00  0.00    -0.000 C 
BRANCH  18  19
ATOM     19  C   UNL     1      12.404  13.311  25.483  1.00  0.00    -0.000 C 
BRANCH  19  20
ATOM     20  C   UNL     1      12.094  13.503  26.972  1.00  0.00    -0.000 C 
BRANCH  20  21
ATOM     21  C   UNL     1      10.771  14.262  27.160  1.00  0.00    -0.000 C 
BRANCH  21  22
ATOM     22  C   UNL     1       9.556  13.490  26.620  1.00  0.00    -0.000 C 
BRANCH  22  23
ATOM     23  C   UNL     1       8.455  14.419  26.079  1.00  0.00    -0.000 C 
BRANCH  23  24
ATOM     24  C   UNL     1       7.689  13.807  24.891  1.00  0.00    -0.000 C 
BRANCH  24  25
ATOM     25  C   UNL     1       6.835  14.806  24.088  1.00  0.00    -0.003 C 
ATOM     26  C   UNL     1       5.752  15.480  24.931  1.00  0.00     0.004 C 
ENDBRANCH  24  25
ENDBRANCH  23  24
ENDBRANCH  22  23
ENDBRANCH  21  22
ENDBRANCH  20  21
ENDBRANCH  19  20
ENDBRANCH  18  19
ENDBRANCH  17  18
ENDBRANCH  16  17
ENDBRANCH  15  16
ENDBRANCH   1  15
TORSDOF 22
ENDMDL
