MODEL 1
REMARK VINA RESULT:    -6.730      0.000      0.000
REMARK INTER + INTRA:         -10.344
REMARK INTER:                  -8.894
REMARK INTRA:                  -1.450
REMARK UNBOUND:                -1.450
REMARK SMILES CC[C@H](C=C[C@@H](C)[C@@H]1CC[C@H]2[C@H]3CC=C4C[C@@H](O)CC[C@]4(C)[C@H]3CC[C@@]21C)C(C)C
REMARK SMILES IDX 6 1 7 2 5 3 4 4 3 5 2 6 1 7 28 8 29 9 30 10 8 11 9 12 26 13
REMARK SMILES IDX 10 14 11 15 25 16 27 17 12 18 24 19 23 20 13 21 21 22 14 23
REMARK SMILES IDX 15 24 20 25 22 26 16 27 19 28 17 29 18 30
REMARK H PARENT 18 31
REMARK Flexibility Score: inf
ROOT
ATOM      1  C   UNL     1     127.873 115.182 100.961  1.00  0.00     0.012 C 
ATOM      2  C   UNL     1     129.028 114.343 101.545  1.00  0.00     0.012 C 
ENDROOT
BRANCH   1   3
ATOM      3  C   UNL     1     127.217 115.942 102.093  1.00  0.00    -0.028 C 
ATOM      4  C   UNL     1     126.373 116.963 101.865  1.00  0.00    -0.027 C 
BRANCH   4   5
ATOM      5  C   UNL     1     125.664 117.703 102.986  1.00  0.00     0.014 C 
BRANCH   5   6
ATOM      6  C   UNL     1     124.135 117.453 102.925  1.00  0.00     0.004 C 
ATOM      7  C   UNL     1     123.688 116.823 101.604  1.00  0.00     0.004 C 
ENDBRANCH   5   6
BRANCH   5   8
ATOM      8  C   UNL     1     126.276 117.345 104.379  1.00  0.00    -0.011 C 
ATOM      9  C   UNL     1     125.198 117.230 105.473  1.00  0.00     0.008 C 
ATOM     10  C   UNL     1     127.322 118.387 104.819  1.00  0.00     0.008 C 
ENDBRANCH   5   8
ENDBRANCH   4   5
ENDBRANCH   1   3
BRANCH   1  11
ATOM     11  C   UNL     1     126.771 114.399 100.164  1.00  0.00     0.002 C 
ATOM     12  C   UNL     1     127.042 112.871 100.043  1.00  0.00     0.005 C 
ATOM     13  C   UNL     1     126.452 114.852  98.699  1.00  0.00    -0.026 C 
ATOM     14  C   UNL     1     127.252 112.555  98.551  1.00  0.00     0.005 C 
ATOM     15  C   UNL     1     127.354 113.921  97.888  1.00  0.00    -0.001 C 
ATOM     16  C   UNL     1     126.790 116.313  98.311  1.00  0.00     0.007 C 
ATOM     17  C   UNL     1     124.927 114.596  98.473  1.00  0.00     0.012 C 
ATOM     18  C   UNL     1     127.290 114.048  96.346  1.00  0.00     0.000 C 
ATOM     19  C   UNL     1     126.625 116.547  96.791  1.00  0.00     0.005 C 
ATOM     20  C   UNL     1     127.414 115.538  95.887  1.00  0.00     0.003 C 
ATOM     21  C   UNL     1     126.150 113.335  95.611  1.00  0.00     0.031 C 
ATOM     22  C   UNL     1     127.180 115.735  94.309  1.00  0.00    -0.008 C 
ATOM     23  C   UNL     1     126.489 113.322  94.150  1.00  0.00    -0.027 C 
ATOM     24  C   UNL     1     127.060 114.392  93.557  1.00  0.00    -0.065 C 
ATOM     25  C   UNL     1     128.390 116.541  93.741  1.00  0.00     0.014 C 
ATOM     26  C   UNL     1     125.871 116.512  93.998  1.00  0.00     0.016 C 
ATOM     27  C   UNL     1     127.308 114.335  92.061  1.00  0.00     0.063 C 
ATOM     28  C   UNL     1     128.463 116.569  92.210  1.00  0.00     0.033 C 
ATOM     29  C   UNL     1     128.543 115.147  91.653  1.00  0.00     0.118 C 
BRANCH  29  30
ATOM     30  O   UNL     1     128.631 115.209  90.254  1.00  0.00    -0.393 OA
ATOM     31  H   UNL     1     128.511 116.161  90.000  1.00  0.00     0.210 HD
ENDBRANCH  29  30
ENDBRANCH   1  11
TORSDOF 6
ENDMDL
MODEL 2
REMARK VINA RESULT:    -6.530      2.255      4.028
REMARK INTER + INTRA:         -10.080
REMARK INTER:                  -8.930
REMARK INTRA:                  -1.150
REMARK UNBOUND:                -1.450
REMARK SMILES CC[C@H](C=C[C@@H](C)[C@@H]1CC[C@H]2[C@H]3CC=C4C[C@@H](O)CC[C@]4(C)[C@H]3CC[C@@]21C)C(C)C
REMARK SMILES IDX 6 1 7 2 5 3 4 4 3 5 2 6 1 7 28 8 29 9 30 10 8 11 9 12 26 13
REMARK SMILES IDX 10 14 11 15 25 16 27 17 12 18 24 19 23 20 13 21 21 22 14 23
REMARK SMILES IDX 15 24 20 25 22 26 16 27 19 28 17 29 18 30
REMARK H PARENT 18 31
REMARK Flexibility Score: inf
ROOT
ATOM      1  C   UNL     1     128.641 113.960 101.349  1.00  0.00     0.012 C 
ATOM      2  C   UNL     1     128.292 115.456 101.490  1.00  0.00     0.012 C 
ENDROOT
BRANCH   1   3
ATOM      3  C   UNL     1     130.067 113.848 100.856  1.00  0.00    -0.028 C 
ATOM      4  C   UNL     1     130.730 114.908 100.361  1.00  0.00    -0.027 C 
BRANCH   4   5
ATOM      5  C   UNL     1     132.178 114.828  99.910  1.00  0.00     0.014 C 
BRANCH   5   6
ATOM      6  C   UNL     1     132.276 114.939  98.367  1.00  0.00     0.004 C 
ATOM      7  C   UNL     1     131.071 115.648  97.743  1.00  0.00     0.004 C 
ENDBRANCH   5   6
BRANCH   5   8
ATOM      8  C   UNL     1     133.061 115.888 100.646  1.00  0.00    -0.011 C 
ATOM      9  C   UNL     1     133.618 115.353 101.978  1.00  0.00     0.008 C 
ATOM     10  C   UNL     1     132.273 117.183 100.920  1.00  0.00     0.008 C 
ENDBRANCH   5   8
ENDBRANCH   4   5
ENDBRANCH   1   3
BRANCH   1  11
ATOM     11  C   UNL     1     127.709 113.107 100.418  1.00  0.00     0.002 C 
ATOM     12  C   UNL     1     128.357 111.786  99.912  1.00  0.00     0.005 C 
ATOM     13  C   UNL     1     127.139 113.779  99.123  1.00  0.00    -0.026 C 
ATOM     14  C   UNL     1     128.494 111.894  98.382  1.00  0.00     0.005 C 
ATOM     15  C   UNL     1     128.170 113.349  98.077  1.00  0.00    -0.001 C 
ATOM     16  C   UNL     1     127.044 115.325  99.100  1.00  0.00     0.007 C 
ATOM     17  C   UNL     1     125.720 113.169  98.888  1.00  0.00     0.012 C 
ATOM     18  C   UNL     1     127.923 113.805  96.618  1.00  0.00     0.000 C 
ATOM     19  C   UNL     1     126.674 115.848  97.693  1.00  0.00     0.005 C 
ATOM     20  C   UNL     1     127.607 115.335  96.541  1.00  0.00     0.003 C 
ATOM     21  C   UNL     1     126.942 112.994  95.765  1.00  0.00     0.031 C 
ATOM     22  C   UNL     1     127.175 115.818  95.070  1.00  0.00    -0.008 C 
ATOM     23  C   UNL     1     127.127 113.413  94.337  1.00  0.00    -0.027 C 
ATOM     24  C   UNL     1     127.337 114.706  94.012  1.00  0.00    -0.065 C 
ATOM     25  C   UNL     1     128.070 117.037  94.683  1.00  0.00     0.014 C 
ATOM     26  C   UNL     1     125.684 116.250  95.003  1.00  0.00     0.016 C 
ATOM     27  C   UNL     1     127.443 115.067  92.541  1.00  0.00     0.063 C 
ATOM     28  C   UNL     1     127.981 117.437  93.205  1.00  0.00     0.033 C 
ATOM     29  C   UNL     1     128.376 116.261  92.309  1.00  0.00     0.118 C 
BRANCH  29  30
ATOM     30  O   UNL     1     128.305 116.666  90.968  1.00  0.00    -0.393 OA
ATOM     31  H   UNL     1     128.265 117.658  90.969  1.00  0.00     0.210 HD
ENDBRANCH  29  30
ENDBRANCH   1  11
TORSDOF 6
ENDMDL
MODEL 3
REMARK VINA RESULT:    -6.379      3.230      8.572
REMARK INTER + INTRA:          -9.880
REMARK INTER:                  -8.272
REMARK INTRA:                  -1.607
REMARK UNBOUND:                -1.450
REMARK SMILES CC[C@H](C=C[C@@H](C)[C@@H]1CC[C@H]2[C@H]3CC=C4C[C@@H](O)CC[C@]4(C)[C@H]3CC[C@@]21C)C(C)C
REMARK SMILES IDX 6 1 7 2 5 3 4 4 3 5 2 6 1 7 28 8 29 9 30 10 8 11 9 12 26 13
REMARK SMILES IDX 10 14 11 15 25 16 27 17 12 18 24 19 23 20 13 21 21 22 14 23
REMARK SMILES IDX 15 24 20 25 22 26 16 27 19 28 17 29 18 30
REMARK H PARENT 18 31
REMARK Flexibility Score: inf
ROOT
ATOM      1  C   UNL     1     126.548 112.204  97.182  1.00  0.00     0.012 C 
ATOM      2  C   UNL     1     126.645 110.667  97.266  1.00  0.00     0.012 C 
ENDROOT
BRANCH   1   3
ATOM      3  C   UNL     1     126.407 112.592  95.726  1.00  0.00    -0.028 C 
ATOM      4  C   UNL     1     127.266 113.439  95.133  1.00  0.00    -0.027 C 
BRANCH   4   5
ATOM      5  C   UNL     1     127.172 113.800  93.661  1.00  0.00     0.014 C 
BRANCH   5   6
ATOM      6  C   UNL     1     125.974 113.075  92.996  1.00  0.00     0.004 C 
ATOM      7  C   UNL     1     124.982 114.041  92.344  1.00  0.00     0.004 C 
ENDBRANCH   5   6
BRANCH   5   8
ATOM      8  C   UNL     1     127.123 115.350  93.458  1.00  0.00    -0.011 C 
ATOM      9  C   UNL     1     128.282 115.856  92.580  1.00  0.00     0.008 C 
ATOM     10  C   UNL     1     127.158 116.094  94.806  1.00  0.00     0.008 C 
ENDBRANCH   5   8
ENDBRANCH   4   5
ENDBRANCH   1   3
BRANCH   1  11
ATOM     11  C   UNL     1     127.731 113.017  97.816  1.00  0.00     0.002 C 
ATOM     12  C   UNL     1     128.606 112.194  98.806  1.00  0.00     0.005 C 
ATOM     13  C   UNL     1     127.392 114.330  98.600  1.00  0.00    -0.026 C 
ATOM     14  C   UNL     1     128.443 112.824 100.201  1.00  0.00     0.005 C 
ATOM     15  C   UNL     1     127.298 113.813 100.036  1.00  0.00    -0.001 C 
ATOM     16  C   UNL     1     126.062 115.046  98.257  1.00  0.00     0.007 C 
ATOM     17  C   UNL     1     128.584 115.312  98.366  1.00  0.00     0.012 C 
ATOM     18  C   UNL     1     127.002 114.857 101.141  1.00  0.00     0.000 C 
ATOM     19  C   UNL     1     125.763 116.192  99.251  1.00  0.00     0.005 C 
ATOM     20  C   UNL     1     125.788 115.766 100.760  1.00  0.00     0.003 C 
ATOM     21  C   UNL     1     128.171 115.690 101.677  1.00  0.00     0.031 C 
ATOM     22  C   UNL     1     125.553 116.973 101.796  1.00  0.00    -0.008 C 
ATOM     23  C   UNL     1     127.711 116.363 102.935  1.00  0.00    -0.027 C 
ATOM     24  C   UNL     1     126.464 116.872 103.038  1.00  0.00    -0.065 C 
ATOM     25  C   UNL     1     124.058 116.937 102.244  1.00  0.00     0.014 C 
ATOM     26  C   UNL     1     125.853 118.361 101.165  1.00  0.00     0.016 C 
ATOM     27  C   UNL     1     126.091 117.603 104.315  1.00  0.00     0.063 C 
ATOM     28  C   UNL     1     123.740 117.842 103.441  1.00  0.00     0.033 C 
ATOM     29  C   UNL     1     124.601 117.456 104.646  1.00  0.00     0.118 C 
BRANCH  29  30
ATOM     30  O   UNL     1     124.270 118.286 105.727  1.00  0.00    -0.393 OA
ATOM     31  H   UNL     1     124.341 119.222 105.403  1.00  0.00     0.210 HD
ENDBRANCH  29  30
ENDBRANCH   1  11
TORSDOF 6
ENDMDL
MODEL 4
REMARK VINA RESULT:    -6.350      2.109      4.419
REMARK INTER + INTRA:          -9.841
REMARK INTER:                  -8.134
REMARK INTRA:                  -1.707
REMARK UNBOUND:                -1.450
REMARK SMILES CC[C@H](C=C[C@@H](C)[C@@H]1CC[C@H]2[C@H]3CC=C4C[C@@H](O)CC[C@]4(C)[C@H]3CC[C@@]21C)C(C)C
REMARK SMILES IDX 6 1 7 2 5 3 4 4 3 5 2 6 1 7 28 8 29 9 30 10 8 11 9 12 26 13
REMARK SMILES IDX 10 14 11 15 25 16 27 17 12 18 24 19 23 20 13 21 21 22 14 23
REMARK SMILES IDX 15 24 20 25 22 26 16 27 19 28 17 29 18 30
REMARK H PARENT 18 31
REMARK Flexibility Score: inf
ROOT
ATOM      1  C   UNL     1     128.521 114.212 101.196  1.00  0.00     0.012 C 
ATOM      2  C   UNL     1     128.128 115.447 102.032  1.00  0.00     0.012 C 
ENDROOT
BRANCH   1   3
ATOM      3  C   UNL     1     129.626 114.615 100.243  1.00  0.00    -0.028 C 
ATOM      4  C   UNL     1     130.716 113.850 100.059  1.00  0.00    -0.027 C 
BRANCH   4   5
ATOM      5  C   UNL     1     131.809 114.210  99.069  1.00  0.00     0.014 C 
BRANCH   5   6
ATOM      6  C   UNL     1     132.297 112.949  98.311  1.00  0.00     0.004 C 
ATOM      7  C   UNL     1     131.414 111.724  98.563  1.00  0.00     0.004 C 
ENDBRANCH   5   6
BRANCH   5   8
ATOM      8  C   UNL     1     131.349 115.350  98.104  1.00  0.00    -0.011 C 
ATOM      9  C   UNL     1     131.267 114.873  96.642  1.00  0.00     0.008 C 
ATOM     10  C   UNL     1     132.293 116.565  98.178  1.00  0.00     0.008 C 
ENDBRANCH   5   8
ENDBRANCH   4   5
ENDBRANCH   1   3
BRANCH   1  11
ATOM     11  C   UNL     1     127.371 113.521 100.382  1.00  0.00     0.002 C 
ATOM     12  C   UNL     1     127.645 112.028 100.041  1.00  0.00     0.005 C 
ATOM     13  C   UNL     1     126.942 114.157  99.017  1.00  0.00    -0.026 C 
ATOM     14  C   UNL     1     127.749 111.914  98.509  1.00  0.00     0.005 C 
ATOM     15  C   UNL     1     127.791 113.357  98.028  1.00  0.00    -0.001 C 
ATOM     16  C   UNL     1     127.239 115.662  98.802  1.00  0.00     0.007 C 
ATOM     17  C   UNL     1     125.407 113.906  98.867  1.00  0.00     0.012 C 
ATOM     18  C   UNL     1     127.615 113.684  96.524  1.00  0.00     0.000 C 
ATOM     19  C   UNL     1     126.962 116.091  97.342  1.00  0.00     0.005 C 
ATOM     20  C   UNL     1     127.693 115.224  96.259  1.00  0.00     0.003 C 
ATOM     21  C   UNL     1     126.430 113.054  95.784  1.00  0.00     0.031 C 
ATOM     22  C   UNL     1     127.343 115.622  94.742  1.00  0.00    -0.008 C 
ATOM     23  C   UNL     1     126.662 113.239  94.314  1.00  0.00    -0.027 C 
ATOM     24  C   UNL     1     127.180 114.387  93.829  1.00  0.00    -0.065 C 
ATOM     25  C   UNL     1     128.502 116.517  94.201  1.00  0.00     0.014 C 
ATOM     26  C   UNL     1     126.008 116.409  94.629  1.00  0.00     0.016 C 
ATOM     27  C   UNL     1     127.319 114.532  92.325  1.00  0.00     0.063 C 
ATOM     28  C   UNL     1     128.463 116.748  92.686  1.00  0.00     0.033 C 
ATOM     29  C   UNL     1     128.514 115.412  91.941  1.00  0.00     0.118 C 
BRANCH  29  30
ATOM     30  O   UNL     1     128.499 115.659  90.560  1.00  0.00    -0.393 OA
ATOM     31  H   UNL     1     128.521 114.774  90.110  1.00  0.00     0.210 HD
ENDBRANCH  29  30
ENDBRANCH   1  11
TORSDOF 6
ENDMDL
MODEL 5
REMARK VINA RESULT:    -6.338      3.316      8.722
REMARK INTER + INTRA:          -9.825
REMARK INTER:                  -8.314
REMARK INTRA:                  -1.512
REMARK UNBOUND:                -1.450
REMARK SMILES CC[C@H](C=C[C@@H](C)[C@@H]1CC[C@H]2[C@H]3CC=C4C[C@@H](O)CC[C@]4(C)[C@H]3CC[C@@]21C)C(C)C
REMARK SMILES IDX 6 1 7 2 5 3 4 4 3 5 2 6 1 7 28 8 29 9 30 10 8 11 9 12 26 13
REMARK SMILES IDX 10 14 11 15 25 16 27 17 12 18 24 19 23 20 13 21 21 22 14 23
REMARK SMILES IDX 15 24 20 25 22 26 16 27 19 28 17 29 18 30
REMARK H PARENT 18 31
REMARK Flexibility Score: inf
ROOT
ATOM      1  C   UNL     1     125.241 112.997  97.091  1.00  0.00     0.012 C 
ATOM      2  C   UNL     1     125.119 111.461  97.165  1.00  0.00     0.012 C 
ENDROOT
BRANCH   1   3
ATOM      3  C   UNL     1     125.001 113.425  95.659  1.00  0.00    -0.028 C 
ATOM      4  C   UNL     1     125.816 114.292  95.033  1.00  0.00    -0.027 C 
BRANCH   4   5
ATOM      5  C   UNL     1     125.622 114.693  93.582  1.00  0.00     0.014 C 
BRANCH   5   6
ATOM      6  C   UNL     1     124.412 115.652  93.436  1.00  0.00     0.004 C 
ATOM      7  C   UNL     1     124.482 116.847  94.390  1.00  0.00     0.004 C 
ENDBRANCH   5   6
BRANCH   5   8
ATOM      8  C   UNL     1     126.935 115.288  92.976  1.00  0.00    -0.011 C 
ATOM      9  C   UNL     1     127.331 114.595  91.660  1.00  0.00     0.008 C 
ATOM     10  C   UNL     1     128.109 115.180  93.967  1.00  0.00     0.008 C 
ENDBRANCH   5   8
ENDBRANCH   4   5
ENDBRANCH   1   3
BRANCH   1  11
ATOM     11  C   UNL     1     126.593 113.618  97.591  1.00  0.00     0.002 C 
ATOM     12  C   UNL     1     127.527 112.605  98.314  1.00  0.00     0.005 C 
ATOM     13  C   UNL     1     126.531 114.847  98.560  1.00  0.00    -0.026 C 
ATOM     14  C   UNL     1     127.665 113.066  99.776  1.00  0.00     0.005 C 
ATOM     15  C   UNL     1     126.622 114.163  99.926  1.00  0.00    -0.001 C 
ATOM     16  C   UNL     1     125.247 115.713  98.539  1.00  0.00     0.007 C 
ATOM     17  C   UNL     1     127.766 115.743  98.228  1.00  0.00     0.012 C 
ATOM     18  C   UNL     1     126.626 115.081 101.173  1.00  0.00     0.000 C 
ATOM     19  C   UNL     1     125.241 116.746  99.690  1.00  0.00     0.005 C 
ATOM     20  C   UNL     1     125.470 116.133 101.115  1.00  0.00     0.003 C 
ATOM     21  C   UNL     1     127.950 115.736 101.581  1.00  0.00     0.031 C 
ATOM     22  C   UNL     1     125.541 117.216 102.301  1.00  0.00    -0.008 C 
ATOM     23  C   UNL     1     127.779 116.282 102.967  1.00  0.00    -0.027 C 
ATOM     24  C   UNL     1     126.628 116.880 103.343  1.00  0.00    -0.065 C 
ATOM     25  C   UNL     1     124.146 117.253 103.000  1.00  0.00     0.014 C 
ATOM     26  C   UNL     1     125.879 118.640 101.782  1.00  0.00     0.016 C 
ATOM     27  C   UNL     1     126.553 117.474 104.738  1.00  0.00     0.063 C 
ATOM     28  C   UNL     1     124.129 118.024 104.326  1.00  0.00     0.033 C 
ATOM     29  C   UNL     1     125.131 117.416 105.310  1.00  0.00     0.118 C 
BRANCH  29  30
ATOM     30  O   UNL     1     125.075 118.129 106.517  1.00  0.00    -0.393 OA
ATOM     31  H   UNL     1     125.528 117.570 107.202  1.00  0.00     0.210 HD
ENDBRANCH  29  30
ENDBRANCH   1  11
TORSDOF 6
ENDMDL
MODEL 6
REMARK VINA RESULT:    -6.245      3.786      7.133
REMARK INTER + INTRA:          -9.704
REMARK INTER:                  -8.334
REMARK INTRA:                  -1.369
REMARK UNBOUND:                -1.450
REMARK SMILES CC[C@H](C=C[C@@H](C)[C@@H]1CC[C@H]2[C@H]3CC=C4C[C@@H](O)CC[C@]4(C)[C@H]3CC[C@@]21C)C(C)C
REMARK SMILES IDX 6 1 7 2 5 3 4 4 3 5 2 6 1 7 28 8 29 9 30 10 8 11 9 12 26 13
REMARK SMILES IDX 10 14 11 15 25 16 27 17 12 18 24 19 23 20 13 21 21 22 14 23
REMARK SMILES IDX 15 24 20 25 22 26 16 27 19 28 17 29 18 30
REMARK H PARENT 18 31
REMARK Flexibility Score: inf
ROOT
ATOM      1  C   UNL     1     131.363 111.765  97.264  1.00  0.00     0.012 C 
ATOM      2  C   UNL     1     131.265 110.875  98.520  1.00  0.00     0.012 C 
ENDROOT
BRANCH   1   3
ATOM      3  C   UNL     1     132.137 113.014  97.626  1.00  0.00    -0.028 C 
ATOM      4  C   UNL     1     132.258 113.428  98.900  1.00  0.00    -0.027 C 
BRANCH   4   5
ATOM      5  C   UNL     1     133.073 114.648  99.288  1.00  0.00     0.014 C 
BRANCH   5   6
ATOM      6  C   UNL     1     133.251 115.596  98.074  1.00  0.00     0.004 C 
ATOM      7  C   UNL     1     132.511 116.926  98.245  1.00  0.00     0.004 C 
ENDBRANCH   5   6
BRANCH   5   8
ATOM      8  C   UNL     1     132.457 115.372 100.530  1.00  0.00    -0.011 C 
ATOM      9  C   UNL     1     133.358 115.258 101.773  1.00  0.00     0.008 C 
ATOM     10  C   UNL     1     131.064 114.812 100.872  1.00  0.00     0.008 C 
ENDBRANCH   5   8
ENDBRANCH   4   5
ENDBRANCH   1   3
BRANCH   1  11
ATOM     11  C   UNL     1     130.008 112.180  96.591  1.00  0.00     0.002 C 
ATOM     12  C   UNL     1     130.152 113.288  95.508  1.00  0.00     0.005 C 
ATOM     13  C   UNL     1     128.847 112.688  97.512  1.00  0.00    -0.026 C 
ATOM     14  C   UNL     1     129.393 114.529  96.012  1.00  0.00     0.005 C 
ATOM     15  C   UNL     1     129.056 114.202  97.459  1.00  0.00    -0.001 C 
ATOM     16  C   UNL     1     128.866 112.249  98.997  1.00  0.00     0.007 C 
ATOM     17  C   UNL     1     127.512 112.219  96.850  1.00  0.00     0.012 C 
ATOM     18  C   UNL     1     128.049 115.079  98.244  1.00  0.00     0.000 C 
ATOM     19  C   UNL     1     127.793 112.997  99.822  1.00  0.00     0.005 C 
ATOM     20  C   UNL     1     127.856 114.559  99.707  1.00  0.00     0.003 C 
ATOM     21  C   UNL     1     126.702 115.394  97.586  1.00  0.00     0.031 C 
ATOM     22  C   UNL     1     126.693 115.332 100.503  1.00  0.00    -0.008 C 
ATOM     23  C   UNL     1     126.063 116.502  98.368  1.00  0.00    -0.027 C 
ATOM     24  C   UNL     1     126.139 116.539  99.715  1.00  0.00    -0.065 C 
ATOM     25  C   UNL     1     127.287 115.827 101.859  1.00  0.00     0.014 C 
ATOM     26  C   UNL     1     125.470 114.421 100.796  1.00  0.00     0.016 C 
ATOM     27  C   UNL     1     125.406 117.650 100.445  1.00  0.00     0.063 C 
ATOM     28  C   UNL     1     126.394 116.823 102.610  1.00  0.00     0.033 C 
ATOM     29  C   UNL     1     126.118 118.052 101.742  1.00  0.00     0.118 C 
BRANCH  29  30
ATOM     30  O   UNL     1     125.318 118.951 102.464  1.00  0.00    -0.393 OA
ATOM     31  H   UNL     1     124.699 119.372 101.812  1.00  0.00     0.210 HD
ENDBRANCH  29  30
ENDBRANCH   1  11
TORSDOF 6
ENDMDL
MODEL 7
REMARK VINA RESULT:    -6.120      3.972      7.848
REMARK INTER + INTRA:          -9.537
REMARK INTER:                  -8.437
REMARK INTRA:                  -1.101
REMARK UNBOUND:                -1.450
REMARK SMILES CC[C@H](C=C[C@@H](C)[C@@H]1CC[C@H]2[C@H]3CC=C4C[C@@H](O)CC[C@]4(C)[C@H]3CC[C@@]21C)C(C)C
REMARK SMILES IDX 6 1 7 2 5 3 4 4 3 5 2 6 1 7 28 8 29 9 30 10 8 11 9 12 26 13
REMARK SMILES IDX 10 14 11 15 25 16 27 17 12 18 24 19 23 20 13 21 21 22 14 23
REMARK SMILES IDX 15 24 20 25 22 26 16 27 19 28 17 29 18 30
REMARK H PARENT 18 31
REMARK Flexibility Score: inf
ROOT
ATOM      1  C   UNL     1     126.141 111.860  97.284  1.00  0.00     0.012 C 
ATOM      2  C   UNL     1     125.566 112.315  95.927  1.00  0.00     0.012 C 
ENDROOT
BRANCH   1   3
ATOM      3  C   UNL     1     125.030 111.906  98.311  1.00  0.00    -0.028 C 
ATOM      4  C   UNL     1     124.713 110.835  99.059  1.00  0.00    -0.027 C 
BRANCH   4   5
ATOM      5  C   UNL     1     123.638 110.876 100.130  1.00  0.00     0.014 C 
BRANCH   5   6
ATOM      6  C   UNL     1     122.616 109.729  99.923  1.00  0.00     0.004 C 
ATOM      7  C   UNL     1     123.187 108.563  99.112  1.00  0.00     0.004 C 
ENDBRANCH   5   6
BRANCH   5   8
ATOM      8  C   UNL     1     124.263 110.872 101.564  1.00  0.00    -0.011 C 
ATOM      9  C   UNL     1     125.658 110.222 101.585  1.00  0.00     0.008 C 
ATOM     10  C   UNL     1     123.357 110.137 102.569  1.00  0.00     0.008 C 
ENDBRANCH   5   8
ENDBRANCH   4   5
ENDBRANCH   1   3
BRANCH   1  11
ATOM     11  C   UNL     1     127.374 112.663  97.828  1.00  0.00     0.002 C 
ATOM     12  C   UNL     1     128.268 111.859  98.816  1.00  0.00     0.005 C 
ATOM     13  C   UNL     1     127.108 114.020  98.565  1.00  0.00    -0.026 C 
ATOM     14  C   UNL     1     128.186 112.555 100.186  1.00  0.00     0.005 C 
ATOM     15  C   UNL     1     127.065 113.571 100.026  1.00  0.00    -0.001 C 
ATOM     16  C   UNL     1     125.786 114.761  98.247  1.00  0.00     0.007 C 
ATOM     17  C   UNL     1     128.317 114.953  98.234  1.00  0.00     0.012 C 
ATOM     18  C   UNL     1     126.849 114.672 101.094  1.00  0.00     0.000 C 
ATOM     19  C   UNL     1     125.565 115.959  99.201  1.00  0.00     0.005 C 
ATOM     20  C   UNL     1     125.645 115.600 100.725  1.00  0.00     0.003 C 
ATOM     21  C   UNL     1     128.065 115.492 101.540  1.00  0.00     0.031 C 
ATOM     22  C   UNL     1     125.492 116.859 101.713  1.00  0.00    -0.008 C 
ATOM     23  C   UNL     1     127.680 116.233 102.785  1.00  0.00    -0.027 C 
ATOM     24  C   UNL     1     126.455 116.784 102.918  1.00  0.00    -0.065 C 
ATOM     25  C   UNL     1     124.019 116.889 102.228  1.00  0.00     0.014 C 
ATOM     26  C   UNL     1     125.804 118.207 101.007  1.00  0.00     0.016 C 
ATOM     27  C   UNL     1     126.161 117.583 104.175  1.00  0.00     0.063 C 
ATOM     28  C   UNL     1     123.781 117.855 103.395  1.00  0.00     0.033 C 
ATOM     29  C   UNL     1     124.684 117.497 104.577  1.00  0.00     0.118 C 
BRANCH  29  30
ATOM     30  O   UNL     1     124.426 118.384 105.633  1.00  0.00    -0.393 OA
ATOM     31  H   UNL     1     124.468 119.302 105.254  1.00  0.00     0.210 HD
ENDBRANCH  29  30
ENDBRANCH   1  11
TORSDOF 6
ENDMDL
MODEL 8
REMARK VINA RESULT:    -5.791      1.798      3.305
REMARK INTER + INTRA:          -9.103
REMARK INTER:                  -8.099
REMARK INTRA:                  -1.004
REMARK UNBOUND:                -1.450
REMARK SMILES CC[C@H](C=C[C@@H](C)[C@@H]1CC[C@H]2[C@H]3CC=C4C[C@@H](O)CC[C@]4(C)[C@H]3CC[C@@]21C)C(C)C
REMARK SMILES IDX 6 1 7 2 5 3 4 4 3 5 2 6 1 7 28 8 29 9 30 10 8 11 9 12 26 13
REMARK SMILES IDX 10 14 11 15 25 16 27 17 12 18 24 19 23 20 13 21 21 22 14 23
REMARK SMILES IDX 15 24 20 25 22 26 16 27 19 28 17 29 18 30
REMARK H PARENT 18 31
REMARK Flexibility Score: inf
ROOT
ATOM      1  C   UNL     1     127.958 113.352 101.163  1.00  0.00     0.012 C 
ATOM      2  C   UNL     1     126.773 112.455 100.750  1.00  0.00     0.012 C 
ENDROOT
BRANCH   1   3
ATOM      3  C   UNL     1     127.526 114.797 101.039  1.00  0.00    -0.028 C 
ATOM      4  C   UNL     1     126.383 115.145 100.423  1.00  0.00    -0.027 C 
BRANCH   4   5
ATOM      5  C   UNL     1     125.906 116.583 100.335  1.00  0.00     0.014 C 
BRANCH   5   6
ATOM      6  C   UNL     1     125.014 116.788  99.084  1.00  0.00     0.004 C 
ATOM      7  C   UNL     1     125.539 116.046  97.852  1.00  0.00     0.004 C 
ENDBRANCH   5   6
BRANCH   5   8
ATOM      8  C   UNL     1     125.199 117.030 101.656  1.00  0.00    -0.011 C 
ATOM      9  C   UNL     1     123.690 117.263 101.455  1.00  0.00     0.008 C 
ATOM     10  C   UNL     1     125.829 118.315 102.224  1.00  0.00     0.008 C 
ENDBRANCH   5   8
ENDBRANCH   4   5
ENDBRANCH   1   3
BRANCH   1  11
ATOM     11  C   UNL     1     129.299 113.150 100.374  1.00  0.00     0.002 C 
ATOM     12  C   UNL     1     130.359 114.260 100.630  1.00  0.00     0.005 C 
ATOM     13  C   UNL     1     129.231 113.033  98.813  1.00  0.00    -0.026 C 
ATOM     14  C   UNL     1     130.585 115.000  99.299  1.00  0.00     0.005 C 
ATOM     15  C   UNL     1     129.483 114.480  98.387  1.00  0.00    -0.001 C 
ATOM     16  C   UNL     1     127.893 112.571  98.186  1.00  0.00     0.007 C 
ATOM     17  C   UNL     1     130.369 112.050  98.387  1.00  0.00     0.012 C 
ATOM     18  C   UNL     1     129.527 114.768  96.866  1.00  0.00     0.000 C 
ATOM     19  C   UNL     1     127.909 112.713  96.647  1.00  0.00     0.005 C 
ATOM     20  C   UNL     1     128.298 114.141  96.129  1.00  0.00     0.003 C 
ATOM     21  C   UNL     1     130.830 114.480  96.115  1.00  0.00     0.031 C 
ATOM     22  C   UNL     1     128.390 114.266  94.529  1.00  0.00    -0.008 C 
ATOM     23  C   UNL     1     130.736 115.140  94.772  1.00  0.00    -0.027 C 
ATOM     24  C   UNL     1     129.582 115.135  94.072  1.00  0.00    -0.065 C 
ATOM     25  C   UNL     1     127.059 114.902  94.020  1.00  0.00     0.014 C 
ATOM     26  C   UNL     1     128.583 112.888  93.838  1.00  0.00     0.016 C 
ATOM     27  C   UNL     1     129.580 115.758  92.688  1.00  0.00     0.063 C 
ATOM     28  C   UNL     1     127.098 115.350  92.553  1.00  0.00     0.033 C 
ATOM     29  C   UNL     1     128.219 116.368  92.335  1.00  0.00     0.118 C 
BRANCH  29  30
ATOM     30  O   UNL     1     128.212 116.773  90.992  1.00  0.00    -0.393 OA
ATOM     31  H   UNL     1     128.178 115.946  90.443  1.00  0.00     0.210 HD
ENDBRANCH  29  30
ENDBRANCH   1  11
TORSDOF 6
ENDMDL
MODEL 9
REMARK VINA RESULT:    -5.702      3.266      5.654
REMARK INTER + INTRA:          -8.986
REMARK INTER:                  -7.242
REMARK INTRA:                  -1.744
REMARK UNBOUND:                -1.450
REMARK SMILES CC[C@H](C=C[C@@H](C)[C@@H]1CC[C@H]2[C@H]3CC=C4C[C@@H](O)CC[C@]4(C)[C@H]3CC[C@@]21C)C(C)C
REMARK SMILES IDX 6 1 7 2 5 3 4 4 3 5 2 6 1 7 28 8 29 9 30 10 8 11 9 12 26 13
REMARK SMILES IDX 10 14 11 15 25 16 27 17 12 18 24 19 23 20 13 21 21 22 14 23
REMARK SMILES IDX 15 24 20 25 22 26 16 27 19 28 17 29 18 30
REMARK H PARENT 18 31
REMARK Flexibility Score: inf
ROOT
ATOM      1  C   UNL     1     131.862 111.558  98.495  1.00  0.00     0.012 C 
ATOM      2  C   UNL     1     132.466 110.366  97.723  1.00  0.00     0.012 C 
ENDROOT
BRANCH   1   3
ATOM      3  C   UNL     1     130.357 111.397  98.516  1.00  0.00    -0.028 C 
ATOM      4  C   UNL     1     129.622 111.753  99.583  1.00  0.00    -0.027 C 
BRANCH   4   5
ATOM      5  C   UNL     1     128.107 111.649  99.603  1.00  0.00     0.014 C 
BRANCH   5   6
ATOM      6  C   UNL     1     127.501 112.683 100.587  1.00  0.00     0.004 C 
ATOM      7  C   UNL     1     128.512 113.742 101.034  1.00  0.00     0.004 C 
ENDBRANCH   5   6
BRANCH   5   8
ATOM      8  C   UNL     1     127.510 111.769  98.163  1.00  0.00    -0.011 C 
ATOM      9  C   UNL     1     126.513 112.937  98.045  1.00  0.00     0.008 C 
ATOM     10  C   UNL     1     126.805 110.468  97.737  1.00  0.00     0.008 C 
ENDBRANCH   5   8
ENDBRANCH   4   5
ENDBRANCH   1   3
BRANCH   1  11
ATOM     11  C   UNL     1     132.216 112.991  97.962  1.00  0.00     0.002 C 
ATOM     12  C   UNL     1     132.129 114.107  99.043  1.00  0.00     0.005 C 
ATOM     13  C   UNL     1     131.395 113.557  96.755  1.00  0.00    -0.026 C 
ATOM     14  C   UNL     1     131.003 115.070  98.624  1.00  0.00     0.005 C 
ATOM     15  C   UNL     1     130.308 114.358  97.473  1.00  0.00    -0.001 C 
ATOM     16  C   UNL     1     130.703 112.536  95.817  1.00  0.00     0.007 C 
ATOM     17  C   UNL     1     132.376 114.443  95.922  1.00  0.00     0.012 C 
ATOM     18  C   UNL     1     129.291 115.116  96.585  1.00  0.00     0.000 C 
ATOM     19  C   UNL     1     129.762 113.239  94.812  1.00  0.00     0.005 C 
ATOM     20  C   UNL     1     128.703 114.192  95.469  1.00  0.00     0.003 C 
ATOM     21  C   UNL     1     129.706 116.477  96.015  1.00  0.00     0.031 C 
ATOM     22  C   UNL     1     127.776 114.980  94.419  1.00  0.00    -0.008 C 
ATOM     23  C   UNL     1     128.470 117.146  95.492  1.00  0.00    -0.027 C 
ATOM     24  C   UNL     1     127.520 116.444  94.839  1.00  0.00    -0.065 C 
ATOM     25  C   UNL     1     126.414 114.224  94.318  1.00  0.00     0.014 C 
ATOM     26  C   UNL     1     128.414 115.053  93.004  1.00  0.00     0.016 C 
ATOM     27  C   UNL     1     126.332 117.199  94.273  1.00  0.00     0.063 C 
ATOM     28  C   UNL     1     125.318 115.000  93.578  1.00  0.00     0.033 C 
ATOM     29  C   UNL     1     125.060 116.344  94.263  1.00  0.00     0.118 C 
BRANCH  29  30
ATOM     30  O   UNL     1     124.038 117.017  93.576  1.00  0.00    -0.393 OA
ATOM     31  H   UNL     1     123.187 116.791  94.033  1.00  0.00     0.210 HD
ENDBRANCH  29  30
ENDBRANCH   1  11
TORSDOF 6
ENDMDL
