MODEL 1
REMARK VINA RESULT:    22.069      0.000      0.000
REMARK INTER + INTRA:          26.523
REMARK INTER:                  25.940
REMARK INTRA:                   0.583
REMARK UNBOUND:                 0.583
REMARK SMILES O=c1c(O)c(-c2ccc(O)cc2)oc2cc(O)cc(O)c12
REMARK SMILES IDX 5 1 3 2 2 3 1 4 21 5 19 6 18 7 16 8 15 9 14 10 13 11 6 12
REMARK SMILES IDX 7 13 8 14 9 15 12 16 11 17 10 18 4 20 20 22 17 24
REMARK H PARENT 10 19 4 21 20 23 17 25
REMARK Flexibility Score: inf
ROOT
ATOM      1  C   UNL     1      -2.007  -9.605   5.294  1.00  0.00     0.180 A 
ATOM      2  C   UNL     1      -2.767  -9.752   4.120  1.00  0.00     0.208 A 
ATOM      3  C   UNL     1      -4.167  -9.803   4.218  1.00  0.00     0.238 A 
ATOM      4  O   UNL     1      -4.845  -9.880   3.160  1.00  0.00    -0.285 OA
ATOM      5  C   UNL     1      -4.789  -9.724   5.488  1.00  0.00     0.111 A 
ATOM      6  C   UNL     1      -6.196  -9.804   5.707  1.00  0.00     0.134 A 
ATOM      7  C   UNL     1      -6.708  -9.582   6.993  1.00  0.00     0.093 A 
ATOM      8  C   UNL     1      -5.858  -9.347   8.076  1.00  0.00     0.123 A 
ATOM      9  C   UNL     1      -4.480  -9.324   7.881  1.00  0.00     0.094 A 
ATOM     10  C   UNL     1      -3.941  -9.507   6.605  1.00  0.00     0.146 A 
ATOM     11  O   UNL     1      -2.621  -9.467   6.462  1.00  0.00    -0.452 OA
ENDROOT
BRANCH   1  12
ATOM     12  C   UNL     1      -0.527  -9.569   5.274  1.00  0.00     0.021 A 
ATOM     13  C   UNL     1       0.150  -9.631   4.045  1.00  0.00     0.016 A 
ATOM     14  C   UNL     1       1.547  -9.577   4.002  1.00  0.00     0.047 A 
ATOM     15  C   UNL     1       2.283  -9.445   5.182  1.00  0.00     0.115 A 
ATOM     16  C   UNL     1       0.219  -9.416   6.458  1.00  0.00     0.016 A 
ATOM     17  C   UNL     1       1.615  -9.361   6.411  1.00  0.00     0.047 A 
BRANCH  15  18
ATOM     18  O   UNL     1       3.673  -9.392   5.125  1.00  0.00    -0.508 OA
ATOM     19  H   UNL     1       4.199  -8.693   5.636  1.00  0.00     0.293 HD
ENDBRANCH  15  18
ENDBRANCH   1  12
BRANCH   2  20
ATOM     20  O   UNL     1      -2.135  -9.807   2.875  1.00  0.00    -0.502 OA
ATOM     21  H   UNL     1      -1.283  -9.297   2.675  1.00  0.00     0.293 HD
ENDBRANCH   2  20
BRANCH   6  22
ATOM     22  O   UNL     1      -7.125 -10.125   4.713  1.00  0.00    -0.507 OA
ATOM     23  H   UNL     1      -6.911 -10.639   3.872  1.00  0.00     0.293 HD
ENDBRANCH   6  22
BRANCH   8  24
ATOM     24  O   UNL     1      -6.376  -9.142   9.354  1.00  0.00    -0.508 OA
ATOM     25  H   UNL     1      -6.574  -8.211   9.702  1.00  0.00     0.293 HD
ENDBRANCH   8  24
TORSDOF 5
ENDMDL
