MODEL 1
REMARK VINA RESULT:    -6.765      0.000      0.000
REMARK INTER + INTRA:          -8.547
REMARK INTER:                  -8.149
REMARK INTRA:                  -0.398
REMARK UNBOUND:                -0.398
REMARK SMILES O=c1c(O)c(-c2ccc(O)cc2O)oc2cc(O)cc(O)c12
REMARK SMILES IDX 5 1 3 2 2 3 1 4 22 5 20 6 19 7 17 8 16 9 15 10 14 11 6 12
REMARK SMILES IDX 8 13 7 14 9 15 11 16 12 17 10 18 13 20 4 22 21 24 18 26
REMARK H PARENT 10 19 13 21 4 23 21 25 18 27
REMARK Flexibility Score: inf
ROOT
ATOM      1  C   UNL     1      -6.179   6.981 -39.648  1.00  0.00     0.184 A 
ATOM      2  C   UNL     1      -6.495   6.011 -38.683  1.00  0.00     0.208 A 
ATOM      3  C   UNL     1      -5.590   4.963 -38.451  1.00  0.00     0.238 A 
ATOM      4  O   UNL     1      -5.901   4.067 -37.624  1.00  0.00    -0.285 OA
ATOM      5  C   UNL     1      -4.374   4.909 -39.176  1.00  0.00     0.111 A 
ATOM      6  C   UNL     1      -3.366   3.915 -38.995  1.00  0.00     0.134 A 
ATOM      7  C   UNL     1      -2.263   3.886 -39.857  1.00  0.00     0.093 A 
ATOM      8  C   UNL     1      -2.100   4.852 -40.853  1.00  0.00     0.123 A 
ATOM      9  C   UNL     1      -3.049   5.861 -40.999  1.00  0.00     0.094 A 
ATOM     10  C   UNL     1      -4.179   5.896 -40.178  1.00  0.00     0.146 A 
ATOM     11  O   UNL     1      -5.064   6.869 -40.359  1.00  0.00    -0.451 OA
ENDROOT
BRANCH   1  12
ATOM     12  C   UNL     1      -7.080   8.119 -39.929  1.00  0.00     0.063 A 
ATOM     13  C   UNL     1      -8.130  10.174 -39.165  1.00  0.00     0.047 A 
ATOM     14  C   UNL     1      -7.282   9.089 -38.935  1.00  0.00     0.020 A 
ATOM     15  C   UNL     1      -8.800  10.297 -40.385  1.00  0.00     0.119 A 
ATOM     16  C   UNL     1      -8.624   9.321 -41.376  1.00  0.00     0.093 A 
ATOM     17  C   UNL     1      -7.777   8.225 -41.150  1.00  0.00     0.130 A 
BRANCH  15  18
ATOM     18  O   UNL     1      -9.639  11.386 -40.603  1.00  0.00    -0.508 OA
ATOM     19  H   UNL     1     -10.435  11.571 -40.003  1.00  0.00     0.293 HD
ENDBRANCH  15  18
BRANCH  17  20
ATOM     20  O   UNL     1      -7.649   7.236 -42.125  1.00  0.00    -0.507 OA
ATOM     21  H   UNL     1      -7.299   7.445 -43.053  1.00  0.00     0.293 HD
ENDBRANCH  17  20
ENDBRANCH   1  12
BRANCH   2  22
ATOM     22  O   UNL     1      -7.709   6.078 -37.995  1.00  0.00    -0.502 OA
ATOM     23  H   UNL     1      -8.143   5.263 -37.578  1.00  0.00     0.293 HD
ENDBRANCH   2  22
BRANCH   6  24
ATOM     24  O   UNL     1      -3.386   2.961 -37.974  1.00  0.00    -0.507 OA
ATOM     25  H   UNL     1      -3.211   1.976 -38.103  1.00  0.00     0.293 HD
ENDBRANCH   6  24
BRANCH   8  26
ATOM     26  O   UNL     1      -0.992   4.823 -41.697  1.00  0.00    -0.508 OA
ATOM     27  H   UNL     1      -0.602   5.672 -42.089  1.00  0.00     0.293 HD
ENDBRANCH   8  26
TORSDOF 6
ENDMDL
MODEL 2
REMARK VINA RESULT:    -6.651     15.219     18.662
REMARK INTER + INTRA:          -8.410
REMARK INTER:                  -8.066
REMARK INTRA:                  -0.344
REMARK UNBOUND:                -0.398
REMARK SMILES O=c1c(O)c(-c2ccc(O)cc2O)oc2cc(O)cc(O)c12
REMARK SMILES IDX 5 1 3 2 2 3 1 4 22 5 20 6 19 7 17 8 16 9 15 10 14 11 6 12
REMARK SMILES IDX 8 13 7 14 9 15 11 16 12 17 10 18 13 20 4 22 21 24 18 26
REMARK H PARENT 10 19 13 21 4 23 21 25 18 27
REMARK Flexibility Score: inf
ROOT
ATOM      1  C   UNL     1     -14.673  13.274 -26.646  1.00  0.00     0.184 A 
ATOM      2  C   UNL     1     -14.699  13.117 -25.251  1.00  0.00     0.208 A 
ATOM      3  C   UNL     1     -15.070  14.209 -24.451  1.00  0.00     0.238 A 
ATOM      4  O   UNL     1     -15.040  14.079 -23.199  1.00  0.00    -0.285 OA
ATOM      5  C   UNL     1     -15.426  15.438 -25.057  1.00  0.00     0.111 A 
ATOM      6  C   UNL     1     -15.856  16.599 -24.347  1.00  0.00     0.134 A 
ATOM      7  C   UNL     1     -16.058  17.797 -25.041  1.00  0.00     0.093 A 
ATOM      8  C   UNL     1     -15.907  17.862 -26.428  1.00  0.00     0.123 A 
ATOM      9  C   UNL     1     -15.546  16.720 -27.138  1.00  0.00     0.094 A 
ATOM     10  C   UNL     1     -15.301  15.517 -26.470  1.00  0.00     0.146 A 
ATOM     11  O   UNL     1     -14.947  14.456 -27.184  1.00  0.00    -0.451 OA
ENDROOT
BRANCH   1  12
ATOM     12  C   UNL     1     -14.308  12.159 -27.546  1.00  0.00     0.063 A 
ATOM     13  C   UNL     1     -15.011  10.446 -29.121  1.00  0.00     0.047 A 
ATOM     14  C   UNL     1     -15.320  11.506 -28.265  1.00  0.00     0.020 A 
ATOM     15  C   UNL     1     -13.689  10.016 -29.258  1.00  0.00     0.119 A 
ATOM     16  C   UNL     1     -12.673  10.647 -28.527  1.00  0.00     0.093 A 
ATOM     17  C   UNL     1     -12.977  11.709 -27.662  1.00  0.00     0.130 A 
BRANCH  15  18
ATOM     18  O   UNL     1     -13.394   8.961 -30.118  1.00  0.00    -0.508 OA
ATOM     19  H   UNL     1     -12.634   8.319 -29.928  1.00  0.00     0.293 HD
ENDBRANCH  15  18
BRANCH  17  20
ATOM     20  O   UNL     1     -11.964  12.295 -26.903  1.00  0.00    -0.507 OA
ATOM     21  H   UNL     1     -12.159  12.767 -26.027  1.00  0.00     0.293 HD
ENDBRANCH  17  20
ENDBRANCH   1  12
BRANCH   2  22
ATOM     22  O   UNL     1     -14.325  11.898 -24.677  1.00  0.00    -0.502 OA
ATOM     23  H   UNL     1     -15.004  11.223 -24.345  1.00  0.00     0.293 HD
ENDBRANCH   2  22
BRANCH   6  24
ATOM     24  O   UNL     1     -16.125  16.618 -22.975  1.00  0.00    -0.507 OA
ATOM     25  H   UNL     1     -15.485  16.307 -22.259  1.00  0.00     0.293 HD
ENDBRANCH   6  24
BRANCH   8  26
ATOM     26  O   UNL     1     -16.125  19.056 -27.112  1.00  0.00    -0.508 OA
ATOM     27  H   UNL     1     -15.406  19.473 -27.692  1.00  0.00     0.293 HD
ENDBRANCH   8  26
TORSDOF 6
ENDMDL
MODEL 3
REMARK VINA RESULT:    -6.289     15.662     19.267
REMARK INTER + INTRA:          -7.974
REMARK INTER:                  -7.559
REMARK INTRA:                  -0.414
REMARK UNBOUND:                -0.398
REMARK SMILES O=c1c(O)c(-c2ccc(O)cc2O)oc2cc(O)cc(O)c12
REMARK SMILES IDX 5 1 3 2 2 3 1 4 22 5 20 6 19 7 17 8 16 9 15 10 14 11 6 12
REMARK SMILES IDX 8 13 7 14 9 15 11 16 12 17 10 18 13 20 4 22 21 24 18 26
REMARK H PARENT 10 19 13 21 4 23 21 25 18 27
REMARK Flexibility Score: inf
ROOT
ATOM      1  C   UNL     1     -14.374  14.895 -26.318  1.00  0.00     0.184 A 
ATOM      2  C   UNL     1     -15.169  15.139 -25.187  1.00  0.00     0.208 A 
ATOM      3  C   UNL     1     -15.456  16.466 -24.831  1.00  0.00     0.238 A 
ATOM      4  O   UNL     1     -16.125  16.680 -23.786  1.00  0.00    -0.285 OA
ATOM      5  C   UNL     1     -14.959  17.530 -25.620  1.00  0.00     0.111 A 
ATOM      6  C   UNL     1     -15.220  18.912 -25.376  1.00  0.00     0.134 A 
ATOM      7  C   UNL     1     -14.570  19.884 -26.145  1.00  0.00     0.093 A 
ATOM      8  C   UNL     1     -13.716  19.524 -27.192  1.00  0.00     0.123 A 
ATOM      9  C   UNL     1     -13.501  18.178 -27.476  1.00  0.00     0.094 A 
ATOM     10  C   UNL     1     -14.107  17.184 -26.703  1.00  0.00     0.146 A 
ATOM     11  O   UNL     1     -13.866  15.913 -27.001  1.00  0.00    -0.451 OA
ENDROOT
BRANCH   1  12
ATOM     12  C   UNL     1     -14.048  13.522 -26.757  1.00  0.00     0.063 A 
ATOM     13  C   UNL     1     -14.726  11.496 -27.916  1.00  0.00     0.047 A 
ATOM     14  C   UNL     1     -15.000  12.798 -27.490  1.00  0.00     0.020 A 
ATOM     15  C   UNL     1     -13.504  10.896 -27.604  1.00  0.00     0.119 A 
ATOM     16  C   UNL     1     -12.555  11.602 -26.852  1.00  0.00     0.093 A 
ATOM     17  C   UNL     1     -12.825  12.908 -26.415  1.00  0.00     0.130 A 
BRANCH  15  18
ATOM     18  O   UNL     1     -13.243   9.599 -28.039  1.00  0.00    -0.508 OA
ATOM     19  H   UNL     1     -13.905   9.088 -28.611  1.00  0.00     0.293 HD
ENDBRANCH  15  18
BRANCH  17  20
ATOM     20  O   UNL     1     -11.893  13.581 -25.627  1.00  0.00    -0.507 OA
ATOM     21  H   UNL     1     -11.840  13.438 -24.625  1.00  0.00     0.293 HD
ENDBRANCH  17  20
ENDBRANCH   1  12
BRANCH   2  22
ATOM     22  O   UNL     1     -15.632  14.070 -24.414  1.00  0.00    -0.502 OA
ATOM     23  H   UNL     1     -15.780  14.145 -23.415  1.00  0.00     0.293 HD
ENDBRANCH   2  22
BRANCH   6  24
ATOM     24  O   UNL     1     -16.125  19.377 -24.417  1.00  0.00    -0.507 OA
ATOM     25  H   UNL     1     -15.899  20.030 -23.682  1.00  0.00     0.293 HD
ENDBRANCH   6  24
BRANCH   8  26
ATOM     26  O   UNL     1     -13.085  20.499 -27.961  1.00  0.00    -0.508 OA
ATOM     27  H   UNL     1     -13.577  20.996 -28.695  1.00  0.00     0.293 HD
ENDBRANCH   8  26
TORSDOF 6
ENDMDL
MODEL 4
REMARK VINA RESULT:    -6.287      2.171      6.503
REMARK INTER + INTRA:          -7.971
REMARK INTER:                  -7.680
REMARK INTRA:                  -0.291
REMARK UNBOUND:                -0.398
REMARK SMILES O=c1c(O)c(-c2ccc(O)cc2O)oc2cc(O)cc(O)c12
REMARK SMILES IDX 5 1 3 2 2 3 1 4 22 5 20 6 19 7 17 8 16 9 15 10 14 11 6 12
REMARK SMILES IDX 8 13 7 14 9 15 11 16 12 17 10 18 13 20 4 22 21 24 18 26
REMARK H PARENT 10 19 13 21 4 23 21 25 18 27
REMARK Flexibility Score: inf
ROOT
ATOM      1  C   UNL     1      -4.456   6.510 -39.524  1.00  0.00     0.184 A 
ATOM      2  C   UNL     1      -4.794   7.752 -38.964  1.00  0.00     0.208 A 
ATOM      3  C   UNL     1      -6.109   8.224 -39.101  1.00  0.00     0.238 A 
ATOM      4  O   UNL     1      -6.393   9.362 -38.643  1.00  0.00    -0.285 OA
ATOM      5  C   UNL     1      -7.072   7.440 -39.781  1.00  0.00     0.111 A 
ATOM      6  C   UNL     1      -8.443   7.801 -39.945  1.00  0.00     0.134 A 
ATOM      7  C   UNL     1      -9.274   7.011 -40.747  1.00  0.00     0.093 A 
ATOM      8  C   UNL     1      -8.801   5.837 -41.340  1.00  0.00     0.123 A 
ATOM      9  C   UNL     1      -7.480   5.445 -41.138  1.00  0.00     0.094 A 
ATOM     10  C   UNL     1      -6.616   6.231 -40.372  1.00  0.00     0.146 A 
ATOM     11  O   UNL     1      -5.361   5.826 -40.214  1.00  0.00    -0.451 OA
ENDROOT
BRANCH   1  12
ATOM     12  C   UNL     1      -3.095   5.947 -39.402  1.00  0.00     0.063 A 
ATOM     13  C   UNL     1      -1.253   5.258 -37.973  1.00  0.00     0.047 A 
ATOM     14  C   UNL     1      -2.539   5.782 -38.124  1.00  0.00     0.020 A 
ATOM     15  C   UNL     1      -0.500   4.906 -39.097  1.00  0.00     0.119 A 
ATOM     16  C   UNL     1      -1.037   5.089 -40.378  1.00  0.00     0.093 A 
ATOM     17  C   UNL     1      -2.326   5.619 -40.538  1.00  0.00     0.130 A 
BRANCH  15  18
ATOM     18  O   UNL     1       0.779   4.381 -38.931  1.00  0.00    -0.508 OA
ATOM     19  H   UNL     1       1.358   4.136 -39.725  1.00  0.00     0.293 HD
ENDBRANCH  15  18
BRANCH  17  20
ATOM     20  O   UNL     1      -2.830   5.842 -41.820  1.00  0.00    -0.507 OA
ATOM     21  H   UNL     1      -2.278   6.297 -42.537  1.00  0.00     0.293 HD
ENDBRANCH  17  20
ENDBRANCH   1  12
BRANCH   2  22
ATOM     22  O   UNL     1      -3.820   8.514 -38.313  1.00  0.00    -0.502 OA
ATOM     23  H   UNL     1      -3.736   9.515 -38.444  1.00  0.00     0.293 HD
ENDBRANCH   2  22
BRANCH   6  24
ATOM     24  O   UNL     1      -9.039   8.902 -39.322  1.00  0.00    -0.507 OA
ATOM     25  H   UNL     1      -8.755   9.861 -39.454  1.00  0.00     0.293 HD
ENDBRANCH   6  24
BRANCH   8  26
ATOM     26  O   UNL     1      -9.639   5.049 -42.125  1.00  0.00    -0.508 OA
ATOM     27  H   UNL     1      -9.740   4.054 -41.958  1.00  0.00     0.293 HD
ENDBRANCH   8  26
TORSDOF 6
ENDMDL
MODEL 5
REMARK VINA RESULT:    -6.202      2.384      4.257
REMARK INTER + INTRA:          -7.869
REMARK INTER:                  -7.508
REMARK INTRA:                  -0.361
REMARK UNBOUND:                -0.398
REMARK SMILES O=c1c(O)c(-c2ccc(O)cc2O)oc2cc(O)cc(O)c12
REMARK SMILES IDX 5 1 3 2 2 3 1 4 22 5 20 6 19 7 17 8 16 9 15 10 14 11 6 12
REMARK SMILES IDX 8 13 7 14 9 15 11 16 12 17 10 18 13 20 4 22 21 24 18 26
REMARK H PARENT 10 19 13 21 4 23 21 25 18 27
REMARK Flexibility Score: inf
ROOT
ATOM      1  C   UNL     1      -3.901   5.865 -39.528  1.00  0.00     0.184 A 
ATOM      2  C   UNL     1      -2.841   5.645 -40.421  1.00  0.00     0.208 A 
ATOM      3  C   UNL     1      -1.614   5.182 -39.919  1.00  0.00     0.238 A 
ATOM      4  O   UNL     1      -0.651   5.037 -40.716  1.00  0.00    -0.285 OA
ATOM      5  C   UNL     1      -1.470   4.931 -38.533  1.00  0.00     0.111 A 
ATOM      6  C   UNL     1      -0.286   4.423 -37.920  1.00  0.00     0.134 A 
ATOM      7  C   UNL     1      -0.214   4.336 -36.525  1.00  0.00     0.093 A 
ATOM      8  C   UNL     1      -1.306   4.677 -35.723  1.00  0.00     0.123 A 
ATOM      9  C   UNL     1      -2.487   5.117 -36.315  1.00  0.00     0.094 A 
ATOM     10  C   UNL     1      -2.578   5.250 -37.703  1.00  0.00     0.146 A 
ATOM     11  O   UNL     1      -3.719   5.684 -38.226  1.00  0.00    -0.451 OA
ENDROOT
BRANCH   1  12
ATOM     12  C   UNL     1      -5.224   6.335 -39.993  1.00  0.00     0.063 A 
ATOM     13  C   UNL     1      -7.209   5.949 -41.342  1.00  0.00     0.047 A 
ATOM     14  C   UNL     1      -5.959   5.532 -40.879  1.00  0.00     0.020 A 
ATOM     15  C   UNL     1      -7.735   7.178 -40.937  1.00  0.00     0.119 A 
ATOM     16  C   UNL     1      -6.999   7.998 -40.071  1.00  0.00     0.093 A 
ATOM     17  C   UNL     1      -5.740   7.589 -39.606  1.00  0.00     0.130 A 
BRANCH  15  18
ATOM     18  O   UNL     1      -8.984   7.579 -41.403  1.00  0.00    -0.508 OA
ATOM     19  H   UNL     1      -9.192   7.621 -42.394  1.00  0.00     0.293 HD
ENDBRANCH  15  18
BRANCH  17  20
ATOM     20  O   UNL     1      -4.997   8.435 -38.784  1.00  0.00    -0.507 OA
ATOM     21  H   UNL     1      -5.168   9.434 -38.753  1.00  0.00     0.293 HD
ENDBRANCH  17  20
ENDBRANCH   1  12
BRANCH   2  22
ATOM     22  O   UNL     1      -3.004   5.918 -41.782  1.00  0.00    -0.502 OA
ATOM     23  H   UNL     1      -3.631   6.639 -42.120  1.00  0.00     0.293 HD
ENDBRANCH   2  22
BRANCH   6  24
ATOM     24  O   UNL     1       0.828   3.968 -38.633  1.00  0.00    -0.507 OA
ATOM     25  H   UNL     1       1.778   3.997 -38.296  1.00  0.00     0.293 HD
ENDBRANCH   6  24
BRANCH   8  26
ATOM     26  O   UNL     1      -1.230   4.573 -34.336  1.00  0.00    -0.508 OA
ATOM     27  H   UNL     1      -0.339   4.571 -33.853  1.00  0.00     0.293 HD
ENDBRANCH   8  26
TORSDOF 6
ENDMDL
MODEL 6
REMARK VINA RESULT:    -6.167      4.487      5.952
REMARK INTER + INTRA:          -7.827
REMARK INTER:                  -7.419
REMARK INTRA:                  -0.408
REMARK UNBOUND:                -0.398
REMARK SMILES O=c1c(O)c(-c2ccc(O)cc2O)oc2cc(O)cc(O)c12
REMARK SMILES IDX 5 1 3 2 2 3 1 4 22 5 20 6 19 7 17 8 16 9 15 10 14 11 6 12
REMARK SMILES IDX 8 13 7 14 9 15 11 16 12 17 10 18 13 20 4 22 21 24 18 26
REMARK H PARENT 10 19 13 21 4 23 21 25 18 27
REMARK Flexibility Score: inf
ROOT
ATOM      1  C   UNL     1      -8.941   9.721 -38.948  1.00  0.00     0.184 A 
ATOM      2  C   UNL     1      -8.654   9.093 -40.170  1.00  0.00     0.208 A 
ATOM      3  C   UNL     1      -8.820   7.703 -40.275  1.00  0.00     0.238 A 
ATOM      4  O   UNL     1      -8.511   7.137 -41.357  1.00  0.00    -0.285 OA
ATOM      5  C   UNL     1      -9.285   6.963 -39.162  1.00  0.00     0.111 A 
ATOM      6  C   UNL     1      -9.527   5.556 -39.166  1.00  0.00     0.134 A 
ATOM      7  C   UNL     1      -9.862   4.909 -37.970  1.00  0.00     0.093 A 
ATOM      8  C   UNL     1     -10.027   5.628 -36.783  1.00  0.00     0.123 A 
ATOM      9  C   UNL     1      -9.850   7.009 -36.781  1.00  0.00     0.094 A 
ATOM     10  C   UNL     1      -9.480   7.679 -37.950  1.00  0.00     0.146 A 
ATOM     11  O   UNL     1      -9.311   8.995 -37.901  1.00  0.00    -0.451 OA
ENDROOT
BRANCH   1  12
ATOM     12  C   UNL     1      -8.804  11.183 -38.776  1.00  0.00     0.063 A 
ATOM     13  C   UNL     1      -9.814  13.391 -38.887  1.00  0.00     0.047 A 
ATOM     14  C   UNL     1      -9.910  12.006 -39.035  1.00  0.00     0.020 A 
ATOM     15  C   UNL     1      -8.607  13.974 -38.492  1.00  0.00     0.119 A 
ATOM     16  C   UNL     1      -7.489  13.163 -38.253  1.00  0.00     0.093 A 
ATOM     17  C   UNL     1      -7.577  11.771 -38.404  1.00  0.00     0.130 A 
BRANCH  15  18
ATOM     18  O   UNL     1      -8.527  15.356 -38.344  1.00  0.00    -0.508 OA
ATOM     19  H   UNL     1      -9.307  15.961 -38.575  1.00  0.00     0.293 HD
ENDBRANCH  15  18
BRANCH  17  20
ATOM     20  O   UNL     1      -6.444  10.981 -38.211  1.00  0.00    -0.507 OA
ATOM     21  H   UNL     1      -6.048  10.834 -37.290  1.00  0.00     0.293 HD
ENDBRANCH  17  20
ENDBRANCH   1  12
BRANCH   2  22
ATOM     22  O   UNL     1      -8.179   9.844 -41.249  1.00  0.00    -0.502 OA
ATOM     23  H   UNL     1      -8.122  10.855 -41.224  1.00  0.00     0.293 HD
ENDBRANCH   2  22
BRANCH   6  24
ATOM     24  O   UNL     1      -9.480   4.761 -40.315  1.00  0.00    -0.507 OA
ATOM     25  H   UNL     1      -8.882   4.932 -41.109  1.00  0.00     0.293 HD
ENDBRANCH   6  24
BRANCH   8  26
ATOM     26  O   UNL     1     -10.375   4.977 -35.602  1.00  0.00    -0.508 OA
ATOM     27  H   UNL     1     -11.189   4.376 -35.547  1.00  0.00     0.293 HD
ENDBRANCH   8  26
TORSDOF 6
ENDMDL
MODEL 7
REMARK VINA RESULT:    -6.119      4.612      6.644
REMARK INTER + INTRA:          -7.769
REMARK INTER:                  -7.352
REMARK INTRA:                  -0.418
REMARK UNBOUND:                -0.398
REMARK SMILES O=c1c(O)c(-c2ccc(O)cc2O)oc2cc(O)cc(O)c12
REMARK SMILES IDX 5 1 3 2 2 3 1 4 22 5 20 6 19 7 17 8 16 9 15 10 14 11 6 12
REMARK SMILES IDX 8 13 7 14 9 15 11 16 12 17 10 18 13 20 4 22 21 24 18 26
REMARK H PARENT 10 19 13 21 4 23 21 25 18 27
REMARK Flexibility Score: inf
ROOT
ATOM      1  C   UNL     1      -9.350   9.874 -37.578  1.00  0.00     0.184 A 
ATOM      2  C   UNL     1      -8.620   9.524 -38.724  1.00  0.00     0.208 A 
ATOM      3  C   UNL     1      -8.702   8.208 -39.207  1.00  0.00     0.238 A 
ATOM      4  O   UNL     1      -8.004   7.886 -40.204  1.00  0.00    -0.285 OA
ATOM      5  C   UNL     1      -9.525   7.265 -38.546  1.00  0.00     0.111 A 
ATOM      6  C   UNL     1      -9.715   5.915 -38.970  1.00  0.00     0.134 A 
ATOM      7  C   UNL     1     -10.449   5.036 -38.166  1.00  0.00     0.093 A 
ATOM      8  C   UNL     1     -11.055   5.473 -36.985  1.00  0.00     0.123 A 
ATOM      9  C   UNL     1     -10.925   6.803 -36.593  1.00  0.00     0.094 A 
ATOM     10  C   UNL     1     -10.168   7.696 -37.355  1.00  0.00     0.146 A 
ATOM     11  O   UNL     1     -10.061   8.953 -36.939  1.00  0.00    -0.451 OA
ENDROOT
BRANCH   1  12
ATOM     12  C   UNL     1      -9.321  11.245 -37.027  1.00  0.00     0.063 A 
ATOM     13  C   UNL     1      -8.355  12.835 -35.462  1.00  0.00     0.047 A 
ATOM     14  C   UNL     1      -8.405  11.551 -36.008  1.00  0.00     0.020 A 
ATOM     15  C   UNL     1      -9.228  13.827 -35.916  1.00  0.00     0.119 A 
ATOM     16  C   UNL     1     -10.162  13.526 -36.917  1.00  0.00     0.093 A 
ATOM     17  C   UNL     1     -10.222  12.237 -37.467  1.00  0.00     0.130 A 
BRANCH  15  18
ATOM     18  O   UNL     1      -9.164  15.104 -35.365  1.00  0.00    -0.508 OA
ATOM     19  H   UNL     1      -8.832  15.897 -35.902  1.00  0.00     0.293 HD
ENDBRANCH  15  18
BRANCH  17  20
ATOM     20  O   UNL     1     -11.189  11.938 -38.426  1.00  0.00    -0.507 OA
ATOM     21  H   UNL     1     -11.023  11.252 -39.154  1.00  0.00     0.293 HD
ENDBRANCH  17  20
ENDBRANCH   1  12
BRANCH   2  22
ATOM     22  O   UNL     1      -7.801  10.469 -39.348  1.00  0.00    -0.502 OA
ATOM     23  H   UNL     1      -7.004  10.889 -38.883  1.00  0.00     0.293 HD
ENDBRANCH   2  22
BRANCH   6  24
ATOM     24  O   UNL     1      -9.230   5.402 -40.176  1.00  0.00    -0.507 OA
ATOM     25  H   UNL     1      -9.679   4.676 -40.714  1.00  0.00     0.293 HD
ENDBRANCH   6  24
BRANCH   8  26
ATOM     26  O   UNL     1     -11.796   4.594 -36.199  1.00  0.00    -0.508 OA
ATOM     27  H   UNL     1     -12.000   4.795 -35.226  1.00  0.00     0.293 HD
ENDBRANCH   8  26
TORSDOF 6
ENDMDL
MODEL 8
REMARK VINA RESULT:    -6.118      2.525      3.012
REMARK INTER + INTRA:          -7.768
REMARK INTER:                  -7.493
REMARK INTRA:                  -0.276
REMARK UNBOUND:                -0.398
REMARK SMILES O=c1c(O)c(-c2ccc(O)cc2O)oc2cc(O)cc(O)c12
REMARK SMILES IDX 5 1 3 2 2 3 1 4 22 5 20 6 19 7 17 8 16 9 15 10 14 11 6 12
REMARK SMILES IDX 8 13 7 14 9 15 11 16 12 17 10 18 13 20 4 22 21 24 18 26
REMARK H PARENT 10 19 13 21 4 23 21 25 18 27
REMARK Flexibility Score: inf
ROOT
ATOM      1  C   UNL     1      -6.617   5.412 -38.008  1.00  0.00     0.184 A 
ATOM      2  C   UNL     1      -6.048   4.526 -37.081  1.00  0.00     0.208 A 
ATOM      3  C   UNL     1      -4.754   4.035 -37.316  1.00  0.00     0.238 A 
ATOM      4  O   UNL     1      -4.268   3.199 -36.509  1.00  0.00    -0.285 OA
ATOM      5  C   UNL     1      -4.041   4.450 -38.466  1.00  0.00     0.111 A 
ATOM      6  C   UNL     1      -2.709   4.047 -38.785  1.00  0.00     0.134 A 
ATOM      7  C   UNL     1      -2.151   4.417 -40.014  1.00  0.00     0.093 A 
ATOM      8  C   UNL     1      -2.853   5.228 -40.910  1.00  0.00     0.123 A 
ATOM      9  C   UNL     1      -4.130   5.675 -40.583  1.00  0.00     0.094 A 
ATOM     10  C   UNL     1      -4.729   5.293 -39.379  1.00  0.00     0.146 A 
ATOM     11  O   UNL     1      -5.953   5.733 -39.112  1.00  0.00    -0.451 OA
ENDROOT
BRANCH   1  12
ATOM     12  C   UNL     1      -7.968   5.979 -37.812  1.00  0.00     0.063 A 
ATOM     13  C   UNL     1      -9.360   7.920 -37.360  1.00  0.00     0.047 A 
ATOM     14  C   UNL     1      -8.099   7.352 -37.555  1.00  0.00     0.020 A 
ATOM     15  C   UNL     1     -10.506   7.121 -37.406  1.00  0.00     0.119 A 
ATOM     16  C   UNL     1     -10.384   5.744 -37.639  1.00  0.00     0.093 A 
ATOM     17  C   UNL     1      -9.120   5.166 -37.831  1.00  0.00     0.130 A 
BRANCH  15  18
ATOM     18  O   UNL     1     -11.757   7.701 -37.214  1.00  0.00    -0.508 OA
ATOM     19  H   UNL     1     -12.415   7.330 -36.538  1.00  0.00     0.293 HD
ENDBRANCH  15  18
BRANCH  17  20
ATOM     20  O   UNL     1      -9.009   3.788 -38.013  1.00  0.00    -0.507 OA
ATOM     21  H   UNL     1      -9.624   3.137 -37.540  1.00  0.00     0.293 HD
ENDBRANCH  17  20
ENDBRANCH   1  12
BRANCH   2  22
ATOM     22  O   UNL     1      -6.780   4.118 -35.962  1.00  0.00    -0.502 OA
ATOM     23  H   UNL     1      -6.340   3.886 -35.079  1.00  0.00     0.293 HD
ENDBRANCH   2  22
BRANCH   6  24
ATOM     24  O   UNL     1      -1.889   3.314 -37.922  1.00  0.00    -0.507 OA
ATOM     25  H   UNL     1      -0.950   3.574 -37.661  1.00  0.00     0.293 HD
ENDBRANCH   6  24
BRANCH   8  26
ATOM     26  O   UNL     1      -2.284   5.603 -42.125  1.00  0.00    -0.508 OA
ATOM     27  H   UNL     1      -1.302   5.845 -42.198  1.00  0.00     0.293 HD
ENDBRANCH   8  26
TORSDOF 6
ENDMDL
MODEL 9
REMARK VINA RESULT:    -6.097     16.184     18.626
REMARK INTER + INTRA:          -7.742
REMARK INTER:                  -7.389
REMARK INTRA:                  -0.354
REMARK UNBOUND:                -0.398
REMARK SMILES O=c1c(O)c(-c2ccc(O)cc2O)oc2cc(O)cc(O)c12
REMARK SMILES IDX 5 1 3 2 2 3 1 4 22 5 20 6 19 7 17 8 16 9 15 10 14 11 6 12
REMARK SMILES IDX 8 13 7 14 9 15 11 16 12 17 10 18 13 20 4 22 21 24 18 26
REMARK H PARENT 10 19 13 21 4 23 21 25 18 27
REMARK Flexibility Score: inf
ROOT
ATOM      1  C   UNL     1     -14.743  16.118 -26.249  1.00  0.00     0.184 A 
ATOM      2  C   UNL     1     -14.488  15.807 -24.904  1.00  0.00     0.208 A 
ATOM      3  C   UNL     1     -14.347  14.460 -24.533  1.00  0.00     0.238 A 
ATOM      4  O   UNL     1     -14.172  14.184 -23.317  1.00  0.00    -0.285 OA
ATOM      5  C   UNL     1     -14.447  13.445 -25.514  1.00  0.00     0.111 A 
ATOM      6  C   UNL     1     -14.282  12.050 -25.258  1.00  0.00     0.134 A 
ATOM      7  C   UNL     1     -14.530  11.127 -26.281  1.00  0.00     0.093 A 
ATOM      8  C   UNL     1     -14.876  11.550 -27.567  1.00  0.00     0.123 A 
ATOM      9  C   UNL     1     -14.981  12.911 -27.842  1.00  0.00     0.094 A 
ATOM     10  C   UNL     1     -14.775  13.856 -26.834  1.00  0.00     0.146 A 
ATOM     11  O   UNL     1     -14.897  15.143 -27.136  1.00  0.00    -0.451 OA
ENDROOT
BRANCH   1  12
ATOM     12  C   UNL     1     -14.885  17.516 -26.709  1.00  0.00     0.063 A 
ATOM     13  C   UNL     1     -16.125  19.606 -26.650  1.00  0.00     0.047 A 
ATOM     14  C   UNL     1     -15.958  18.284 -26.231  1.00  0.00     0.020 A 
ATOM     15  C   UNL     1     -15.231  20.173 -27.562  1.00  0.00     0.119 A 
ATOM     16  C   UNL     1     -14.170  19.408 -28.063  1.00  0.00     0.093 A 
ATOM     17  C   UNL     1     -13.998  18.077 -27.651  1.00  0.00     0.130 A 
BRANCH  15  18
ATOM     18  O   UNL     1     -15.407  21.494 -27.967  1.00  0.00    -0.508 OA
ATOM     19  H   UNL     1     -14.703  22.201 -27.793  1.00  0.00     0.293 HD
ENDBRANCH  15  18
BRANCH  17  20
ATOM     20  O   UNL     1     -12.967  17.311 -28.195  1.00  0.00    -0.507 OA
ATOM     21  H   UNL     1     -12.289  17.708 -28.834  1.00  0.00     0.293 HD
ENDBRANCH  17  20
ENDBRANCH   1  12
BRANCH   2  22
ATOM     22  O   UNL     1     -14.413  16.827 -23.952  1.00  0.00    -0.502 OA
ATOM     23  H   UNL     1     -15.184  17.459 -23.769  1.00  0.00     0.293 HD
ENDBRANCH   2  22
BRANCH   6  24
ATOM     24  O   UNL     1     -13.851  11.528 -24.035  1.00  0.00    -0.507 OA
ATOM     25  H   UNL     1     -13.725  12.067 -23.192  1.00  0.00     0.293 HD
ENDBRANCH   6  24
BRANCH   8  26
ATOM     26  O   UNL     1     -15.107  10.624 -28.581  1.00  0.00    -0.508 OA
ATOM     27  H   UNL     1     -14.963   9.631 -28.436  1.00  0.00     0.293 HD
ENDBRANCH   8  26
TORSDOF 6
ENDMDL
