MODEL 1
REMARK VINA RESULT:    -3.136      0.000      0.000
REMARK INTER + INTRA:         -13.084
REMARK INTER:                  -7.902
REMARK INTRA:                  -5.183
REMARK UNBOUND:                -5.183
REMARK SMILES CCCCCCCCCCCCCCCCCCCCCCCCCCCC(=O)[O-]
REMARK SMILES IDX 15 1 16 2 17 3 18 4 19 5 20 6 21 7 22 8 23 9 24 10 25 11
REMARK SMILES IDX 26 12 27 13 28 14 29 15 30 16 14 17 13 18 12 19 11 20 10 21
REMARK SMILES IDX 9 22 8 23 7 24 6 25 5 26 4 27 3 28 2 29 1 30
REMARK H PARENT
REMARK Flexibility Score: inf
ROOT
ATOM      1  C   UNL     1      56.573  28.196  50.374  1.00  0.00     0.000 C 
ENDROOT
BRANCH   1   2
ATOM      2  C   UNL     1      55.151  28.657  50.745  1.00  0.00     0.000 C 
BRANCH   2   3
ATOM      3  C   UNL     1      54.078  27.608  50.420  1.00  0.00     0.000 C 
BRANCH   3   4
ATOM      4  C   UNL     1      54.719  26.279  49.996  1.00  0.00     0.000 C 
BRANCH   4   5
ATOM      5  C   UNL     1      54.277  25.101  50.879  1.00  0.00     0.000 C 
BRANCH   5   6
ATOM      6  C   UNL     1      54.287  25.446  52.379  1.00  0.00     0.000 C 
BRANCH   6   7
ATOM      7  C   UNL     1      55.570  24.985  53.089  1.00  0.00     0.000 C 
BRANCH   7   8
ATOM      8  C   UNL     1      56.517  26.153  53.418  1.00  0.00     0.000 C 
BRANCH   8   9
ATOM      9  C   UNL     1      57.879  26.020  52.719  1.00  0.00     0.000 C 
BRANCH   9  10
ATOM     10  C   UNL     1      57.928  24.829  51.749  1.00  0.00     0.000 C 
BRANCH  10  11
ATOM     11  C   UNL     1      58.474  25.258  50.379  1.00  0.00     0.000 C 
BRANCH  11  12
ATOM     12  C   UNL     1      60.013  25.242  50.312  1.00  0.00     0.006 C 
BRANCH  12  13
ATOM     13  C   UNL     1      60.664  24.149  51.178  1.00  0.00     0.053 C 
BRANCH  13  14
ATOM     14  C   UNL     1      61.403  23.131  50.361  1.00  0.00     0.041 C 
ATOM     15  O   UNL     1      60.772  22.215  49.772  1.00  0.00    -0.550 OA
ATOM     16  O   UNL     1      62.790  23.169  50.282  1.00  0.00    -0.550 OA
ENDBRANCH  13  14
ENDBRANCH  12  13
ENDBRANCH  11  12
ENDBRANCH  10  11
ENDBRANCH   9  10
ENDBRANCH   8   9
ENDBRANCH   7   8
ENDBRANCH   6   7
ENDBRANCH   5   6
ENDBRANCH   4   5
ENDBRANCH   3   4
ENDBRANCH   2   3
ENDBRANCH   1   2
BRANCH   1  17
ATOM     17  C   UNL     1      57.677  29.260  50.551  1.00  0.00     0.000 C 
BRANCH  17  18
ATOM     18  C   UNL     1      58.763  29.257  49.461  1.00  0.00     0.000 C 
BRANCH  18  19
ATOM     19  C   UNL     1      60.118  28.741  49.976  1.00  0.00     0.000 C 
BRANCH  19  20
ATOM     20  C   UNL     1      60.902  29.806  50.762  1.00  0.00     0.000 C 
BRANCH  20  21
ATOM     21  C   UNL     1      61.347  29.376  52.175  1.00  0.00     0.000 C 
BRANCH  21  22
ATOM     22  C   UNL     1      61.185  27.864  52.418  1.00  0.00    -0.000 C 
BRANCH  22  23
ATOM     23  C   UNL     1      62.529  27.139  52.600  1.00  0.00    -0.000 C 
BRANCH  23  24
ATOM     24  C   UNL     1      63.553  27.504  51.510  1.00  0.00    -0.000 C 
BRANCH  24  25
ATOM     25  C   UNL     1      63.261  26.807  50.172  1.00  0.00    -0.000 C 
BRANCH  25  26
ATOM     26  C   UNL     1      63.604  27.687  48.960  1.00  0.00    -0.000 C 
BRANCH  26  27
ATOM     27  C   UNL     1      64.615  28.779  49.344  1.00  0.00    -0.000 C 
BRANCH  27  28
ATOM     28  C   UNL     1      64.150  30.187  48.942  1.00  0.00    -0.000 C 
BRANCH  28  29
ATOM     29  C   UNL     1      64.559  31.260  49.961  1.00  0.00    -0.003 C 
ATOM     30  C   UNL     1      63.455  32.297  50.141  1.00  0.00     0.004 C 
ENDBRANCH  28  29
ENDBRANCH  27  28
ENDBRANCH  26  27
ENDBRANCH  25  26
ENDBRANCH  24  25
ENDBRANCH  23  24
ENDBRANCH  22  23
ENDBRANCH  21  22
ENDBRANCH  20  21
ENDBRANCH  19  20
ENDBRANCH  18  19
ENDBRANCH  17  18
ENDBRANCH   1  17
TORSDOF 26
ENDMDL
MODEL 2
REMARK VINA RESULT:    -3.114      9.594     13.272
REMARK INTER + INTRA:         -13.030
REMARK INTER:                  -8.249
REMARK INTRA:                  -4.781
REMARK UNBOUND:                -5.183
REMARK SMILES CCCCCCCCCCCCCCCCCCCCCCCCCCCC(=O)[O-]
REMARK SMILES IDX 15 1 16 2 17 3 18 4 19 5 20 6 21 7 22 8 23 9 24 10 25 11
REMARK SMILES IDX 26 12 27 13 28 14 29 15 30 16 14 17 13 18 12 19 11 20 10 21
REMARK SMILES IDX 9 22 8 23 7 24 6 25 5 26 4 27 3 28 2 29 1 30
REMARK H PARENT
REMARK Flexibility Score: inf
ROOT
ATOM      1  C   UNL     1      62.581  33.269  58.234  1.00  0.00     0.000 C 
ENDROOT
BRANCH   1   2
ATOM      2  C   UNL     1      61.063  33.517  58.297  1.00  0.00     0.000 C 
BRANCH   2   3
ATOM      3  C   UNL     1      60.631  34.272  59.562  1.00  0.00     0.000 C 
BRANCH   3   4
ATOM      4  C   UNL     1      61.837  34.559  60.469  1.00  0.00     0.000 C 
BRANCH   4   5
ATOM      5  C   UNL     1      61.919  36.033  60.896  1.00  0.00     0.000 C 
BRANCH   5   6
ATOM      6  C   UNL     1      63.340  36.454  61.312  1.00  0.00     0.000 C 
BRANCH   6   7
ATOM      7  C   UNL     1      64.352  35.300  61.229  1.00  0.00     0.000 C 
BRANCH   7   8
ATOM      8  C   UNL     1      65.642  35.697  60.488  1.00  0.00     0.000 C 
BRANCH   8   9
ATOM      9  C   UNL     1      65.428  35.843  58.973  1.00  0.00     0.000 C 
BRANCH   9  10
ATOM     10  C   UNL     1      66.481  35.079  58.155  1.00  0.00     0.000 C 
BRANCH  10  11
ATOM     11  C   UNL     1      67.543  36.036  57.595  1.00  0.00     0.000 C 
BRANCH  11  12
ATOM     12  C   UNL     1      68.876  35.974  58.365  1.00  0.00     0.006 C 
BRANCH  12  13
ATOM     13  C   UNL     1      70.025  35.328  57.571  1.00  0.00     0.053 C 
BRANCH  13  14
ATOM     14  C   UNL     1      70.243  33.891  57.938  1.00  0.00     0.041 C 
ATOM     15  O   UNL     1      69.408  33.016  57.589  1.00  0.00    -0.550 OA
ATOM     16  O   UNL     1      71.347  33.522  58.697  1.00  0.00    -0.550 OA
ENDBRANCH  13  14
ENDBRANCH  12  13
ENDBRANCH  11  12
ENDBRANCH  10  11
ENDBRANCH   9  10
ENDBRANCH   8   9
ENDBRANCH   7   8
ENDBRANCH   6   7
ENDBRANCH   5   6
ENDBRANCH   4   5
ENDBRANCH   3   4
ENDBRANCH   2   3
ENDBRANCH   1   2
BRANCH   1  17
ATOM     17  C   UNL     1      63.001  31.899  57.660  1.00  0.00     0.000 C 
BRANCH  17  18
ATOM     18  C   UNL     1      64.202  31.240  58.362  1.00  0.00     0.000 C 
BRANCH  18  19
ATOM     19  C   UNL     1      64.741  32.084  59.530  1.00  0.00     0.000 C 
BRANCH  19  20
ATOM     20  C   UNL     1      64.415  31.476  60.906  1.00  0.00     0.000 C 
BRANCH  20  21
ATOM     21  C   UNL     1      63.833  30.049  60.865  1.00  0.00     0.000 C 
BRANCH  21  22
ATOM     22  C   UNL     1      62.512  29.919  61.644  1.00  0.00    -0.000 C 
BRANCH  22  23
ATOM     23  C   UNL     1      61.552  31.094  61.394  1.00  0.00    -0.000 C 
BRANCH  23  24
ATOM     24  C   UNL     1      60.157  30.634  60.932  1.00  0.00    -0.000 C 
BRANCH  24  25
ATOM     25  C   UNL     1      60.129  30.250  59.444  1.00  0.00    -0.000 C 
BRANCH  25  26
ATOM     26  C   UNL     1      59.384  28.931  59.189  1.00  0.00    -0.000 C 
BRANCH  26  27
ATOM     27  C   UNL     1      58.689  28.436  60.468  1.00  0.00    -0.000 C 
BRANCH  27  28
ATOM     28  C   UNL     1      59.231  27.083  60.953  1.00  0.00    -0.000 C 
BRANCH  28  29
ATOM     29  C   UNL     1      60.374  26.553  60.075  1.00  0.00    -0.003 C 
ATOM     30  C   UNL     1      61.675  26.458  60.865  1.00  0.00     0.004 C 
ENDBRANCH  28  29
ENDBRANCH  27  28
ENDBRANCH  26  27
ENDBRANCH  25  26
ENDBRANCH  24  25
ENDBRANCH  23  24
ENDBRANCH  22  23
ENDBRANCH  21  22
ENDBRANCH  20  21
ENDBRANCH  19  20
ENDBRANCH  18  19
ENDBRANCH  17  18
ENDBRANCH   1  17
TORSDOF 26
ENDMDL
MODEL 3
REMARK VINA RESULT:    -3.112      8.795     11.694
REMARK INTER + INTRA:         -13.025
REMARK INTER:                  -7.941
REMARK INTRA:                  -5.084
REMARK UNBOUND:                -5.183
REMARK SMILES CCCCCCCCCCCCCCCCCCCCCCCCCCCC(=O)[O-]
REMARK SMILES IDX 15 1 16 2 17 3 18 4 19 5 20 6 21 7 22 8 23 9 24 10 25 11
REMARK SMILES IDX 26 12 27 13 28 14 29 15 30 16 14 17 13 18 12 19 11 20 10 21
REMARK SMILES IDX 9 22 8 23 7 24 6 25 5 26 4 27 3 28 2 29 1 30
REMARK H PARENT
REMARK Flexibility Score: inf
ROOT
ATOM      1  C   UNL     1      64.494  34.009  60.681  1.00  0.00     0.000 C 
ENDROOT
BRANCH   1   2
ATOM      2  C   UNL     1      64.518  32.562  60.155  1.00  0.00     0.000 C 
BRANCH   2   3
ATOM      3  C   UNL     1      64.852  32.474  58.659  1.00  0.00     0.000 C 
BRANCH   3   4
ATOM      4  C   UNL     1      63.623  32.809  57.800  1.00  0.00     0.000 C 
BRANCH   4   5
ATOM      5  C   UNL     1      63.173  31.627  56.927  1.00  0.00     0.000 C 
BRANCH   5   6
ATOM      6  C   UNL     1      63.314  30.271  57.642  1.00  0.00     0.000 C 
BRANCH   6   7
ATOM      7  C   UNL     1      62.047  29.408  57.540  1.00  0.00     0.000 C 
BRANCH   7   8
ATOM      8  C   UNL     1      62.321  27.919  57.816  1.00  0.00     0.000 C 
BRANCH   8   9
ATOM      9  C   UNL     1      61.039  27.072  57.799  1.00  0.00     0.000 C 
BRANCH   9  10
ATOM     10  C   UNL     1      59.842  27.806  58.424  1.00  0.00     0.000 C 
BRANCH  10  11
ATOM     11  C   UNL     1      59.169  26.943  59.501  1.00  0.00     0.000 C 
BRANCH  11  12
ATOM     12  C   UNL     1      58.474  27.778  60.594  1.00  0.00     0.006 C 
BRANCH  12  13
ATOM     13  C   UNL     1      57.759  26.933  61.663  1.00  0.00     0.053 C 
BRANCH  13  14
ATOM     14  C   UNL     1      56.290  27.224  61.741  1.00  0.00     0.041 C 
ATOM     15  O   UNL     1      55.875  28.202  62.415  1.00  0.00    -0.550 OA
ATOM     16  O   UNL     1      55.377  26.392  61.103  1.00  0.00    -0.550 OA
ENDBRANCH  13  14
ENDBRANCH  12  13
ENDBRANCH  11  12
ENDBRANCH  10  11
ENDBRANCH   9  10
ENDBRANCH   8   9
ENDBRANCH   7   8
ENDBRANCH   6   7
ENDBRANCH   5   6
ENDBRANCH   4   5
ENDBRANCH   3   4
ENDBRANCH   2   3
ENDBRANCH   1   2
BRANCH   1  17
ATOM     17  C   UNL     1      63.087  34.606  60.899  1.00  0.00     0.000 C 
BRANCH  17  18
ATOM     18  C   UNL     1      63.057  36.122  61.162  1.00  0.00     0.000 C 
BRANCH  18  19
ATOM     19  C   UNL     1      61.698  36.755  60.819  1.00  0.00     0.000 C 
BRANCH  19  20
ATOM     20  C   UNL     1      60.596  35.709  60.576  1.00  0.00     0.000 C 
BRANCH  20  21
ATOM     21  C   UNL     1      59.901  35.803  59.203  1.00  0.00     0.000 C 
BRANCH  21  22
ATOM     22  C   UNL     1      60.784  35.291  58.050  1.00  0.00    -0.000 C 
BRANCH  22  23
ATOM     23  C   UNL     1      60.199  34.051  57.353  1.00  0.00    -0.000 C 
BRANCH  23  24
ATOM     24  C   UNL     1      59.179  33.302  58.230  1.00  0.00    -0.000 C 
BRANCH  24  25
ATOM     25  C   UNL     1      59.687  31.920  58.672  1.00  0.00    -0.000 C 
BRANCH  25  26
ATOM     26  C   UNL     1      60.641  31.998  59.873  1.00  0.00    -0.000 C 
BRANCH  26  27
ATOM     27  C   UNL     1      60.637  30.681  60.664  1.00  0.00    -0.000 C 
BRANCH  27  28
ATOM     28  C   UNL     1      61.776  30.601  61.693  1.00  0.00    -0.000 C 
BRANCH  28  29
ATOM     29  C   UNL     1      62.801  29.508  61.359  1.00  0.00    -0.003 C 
ATOM     30  C   UNL     1      62.184  28.119  61.487  1.00  0.00     0.004 C 
ENDBRANCH  28  29
ENDBRANCH  27  28
ENDBRANCH  26  27
ENDBRANCH  25  26
ENDBRANCH  24  25
ENDBRANCH  23  24
ENDBRANCH  22  23
ENDBRANCH  21  22
ENDBRANCH  20  21
ENDBRANCH  19  20
ENDBRANCH  18  19
ENDBRANCH  17  18
ENDBRANCH   1  17
TORSDOF 26
ENDMDL
MODEL 4
REMARK VINA RESULT:    -3.072      9.191     11.815
REMARK INTER + INTRA:         -12.924
REMARK INTER:                  -8.011
REMARK INTRA:                  -4.913
REMARK UNBOUND:                -5.183
REMARK SMILES CCCCCCCCCCCCCCCCCCCCCCCCCCCC(=O)[O-]
REMARK SMILES IDX 15 1 16 2 17 3 18 4 19 5 20 6 21 7 22 8 23 9 24 10 25 11
REMARK SMILES IDX 26 12 27 13 28 14 29 15 30 16 14 17 13 18 12 19 11 20 10 21
REMARK SMILES IDX 9 22 8 23 7 24 6 25 5 26 4 27 3 28 2 29 1 30
REMARK H PARENT
REMARK Flexibility Score: inf
ROOT
ATOM      1  C   UNL     1      63.661  30.458  61.603  1.00  0.00     0.000 C 
ENDROOT
BRANCH   1   2
ATOM      2  C   UNL     1      63.826  31.717  60.731  1.00  0.00     0.000 C 
BRANCH   2   3
ATOM      3  C   UNL     1      64.886  31.550  59.633  1.00  0.00     0.000 C 
BRANCH   3   4
ATOM      4  C   UNL     1      64.245  31.606  58.238  1.00  0.00     0.000 C 
BRANCH   4   5
ATOM      5  C   UNL     1      64.411  30.291  57.458  1.00  0.00     0.000 C 
BRANCH   5   6
ATOM      6  C   UNL     1      64.483  29.059  58.378  1.00  0.00     0.000 C 
BRANCH   6   7
ATOM      7  C   UNL     1      63.481  27.962  57.986  1.00  0.00     0.000 C 
BRANCH   7   8
ATOM      8  C   UNL     1      62.822  27.299  59.209  1.00  0.00     0.000 C 
BRANCH   8   9
ATOM      9  C   UNL     1      63.851  26.662  60.158  1.00  0.00     0.000 C 
BRANCH   9  10
ATOM     10  C   UNL     1      63.187  25.878  61.301  1.00  0.00     0.000 C 
BRANCH  10  11
ATOM     11  C   UNL     1      61.855  26.523  61.710  1.00  0.00     0.000 C 
BRANCH  11  12
ATOM     12  C   UNL     1      60.688  25.518  61.758  1.00  0.00     0.006 C 
BRANCH  12  13
ATOM     13  C   UNL     1      59.567  25.817  60.747  1.00  0.00     0.053 C 
BRANCH  13  14
ATOM     14  C   UNL     1      58.204  25.785  61.372  1.00  0.00     0.041 C 
ATOM     15  O   UNL     1      57.521  24.728  61.344  1.00  0.00    -0.550 OA
ATOM     16  O   UNL     1      57.672  26.932  61.950  1.00  0.00    -0.550 OA
ENDBRANCH  13  14
ENDBRANCH  12  13
ENDBRANCH  11  12
ENDBRANCH  10  11
ENDBRANCH   9  10
ENDBRANCH   8   9
ENDBRANCH   7   8
ENDBRANCH   6   7
ENDBRANCH   5   6
ENDBRANCH   4   5
ENDBRANCH   3   4
ENDBRANCH   2   3
ENDBRANCH   1   2
BRANCH   1  17
ATOM     17  C   UNL     1      62.228  29.889  61.671  1.00  0.00     0.000 C 
BRANCH  17  18
ATOM     18  C   UNL     1      61.107  30.944  61.655  1.00  0.00     0.000 C 
BRANCH  18  19
ATOM     19  C   UNL     1      60.099  30.718  60.516  1.00  0.00     0.000 C 
BRANCH  19  20
ATOM     20  C   UNL     1      60.777  30.371  59.178  1.00  0.00     0.000 C 
BRANCH  20  21
ATOM     21  C   UNL     1      60.681  31.465  58.096  1.00  0.00     0.000 C 
BRANCH  21  22
ATOM     22  C   UNL     1      60.220  32.822  58.659  1.00  0.00    -0.000 C 
BRANCH  22  23
ATOM     23  C   UNL     1      61.384  33.797  58.900  1.00  0.00    -0.000 C 
BRANCH  23  24
ATOM     24  C   UNL     1      61.299  34.499  60.267  1.00  0.00    -0.000 C 
BRANCH  24  25
ATOM     25  C   UNL     1      61.084  36.015  60.136  1.00  0.00    -0.000 C 
BRANCH  25  26
ATOM     26  C   UNL     1      61.885  36.817  61.173  1.00  0.00    -0.000 C 
BRANCH  26  27
ATOM     27  C   UNL     1      63.346  36.988  60.726  1.00  0.00    -0.000 C 
BRANCH  27  28
ATOM     28  C   UNL     1      64.348  36.405  61.735  1.00  0.00    -0.000 C 
BRANCH  28  29
ATOM     29  C   UNL     1      65.148  35.226  61.162  1.00  0.00    -0.003 C 
ATOM     30  C   UNL     1      65.053  35.185  59.641  1.00  0.00     0.004 C 
ENDBRANCH  28  29
ENDBRANCH  27  28
ENDBRANCH  26  27
ENDBRANCH  25  26
ENDBRANCH  24  25
ENDBRANCH  23  24
ENDBRANCH  22  23
ENDBRANCH  21  22
ENDBRANCH  20  21
ENDBRANCH  19  20
ENDBRANCH  18  19
ENDBRANCH  17  18
ENDBRANCH   1  17
TORSDOF 26
ENDMDL
MODEL 5
REMARK VINA RESULT:    -3.040      8.758     12.091
REMARK INTER + INTRA:         -12.844
REMARK INTER:                  -6.829
REMARK INTRA:                  -6.015
REMARK UNBOUND:                -5.183
REMARK SMILES CCCCCCCCCCCCCCCCCCCCCCCCCCCC(=O)[O-]
REMARK SMILES IDX 15 1 16 2 17 3 18 4 19 5 20 6 21 7 22 8 23 9 24 10 25 11
REMARK SMILES IDX 26 12 27 13 28 14 29 15 30 16 14 17 13 18 12 19 11 20 10 21
REMARK SMILES IDX 9 22 8 23 7 24 6 25 5 26 4 27 3 28 2 29 1 30
REMARK H PARENT
REMARK Flexibility Score: inf
ROOT
ATOM      1  C   UNL     1      64.512  32.694  60.128  1.00  0.00     0.000 C 
ENDROOT
BRANCH   1   2
ATOM      2  C   UNL     1      64.645  34.219  59.959  1.00  0.00     0.000 C 
BRANCH   2   3
ATOM      3  C   UNL     1      64.679  34.969  61.299  1.00  0.00     0.000 C 
BRANCH   3   4
ATOM      4  C   UNL     1      63.608  36.069  61.340  1.00  0.00     0.000 C 
BRANCH   4   5
ATOM      5  C   UNL     1      62.211  35.548  60.967  1.00  0.00     0.000 C 
BRANCH   5   6
ATOM      6  C   UNL     1      61.208  36.682  60.690  1.00  0.00     0.000 C 
BRANCH   6   7
ATOM      7  C   UNL     1      60.815  36.784  59.208  1.00  0.00     0.000 C 
BRANCH   7   8
ATOM      8  C   UNL     1      61.396  35.636  58.363  1.00  0.00     0.000 C 
BRANCH   8   9
ATOM      9  C   UNL     1      62.393  36.133  57.303  1.00  0.00     0.000 C 
BRANCH   9  10
ATOM     10  C   UNL     1      63.067  34.978  56.544  1.00  0.00     0.000 C 
BRANCH  10  11
ATOM     11  C   UNL     1      62.194  33.716  56.577  1.00  0.00     0.000 C 
BRANCH  11  12
ATOM     12  C   UNL     1      61.274  33.587  55.348  1.00  0.00     0.006 C 
BRANCH  12  13
ATOM     13  C   UNL     1      59.774  33.685  55.679  1.00  0.00     0.053 C 
BRANCH  13  14
ATOM     14  C   UNL     1      59.192  35.022  55.329  1.00  0.00     0.041 C 
ATOM     15  O   UNL     1      58.050  35.343  55.748  1.00  0.00    -0.550 OA
ATOM     16  O   UNL     1      59.894  35.897  54.508  1.00  0.00    -0.550 OA
ENDBRANCH  13  14
ENDBRANCH  12  13
ENDBRANCH  11  12
ENDBRANCH  10  11
ENDBRANCH   9  10
ENDBRANCH   8   9
ENDBRANCH   7   8
ENDBRANCH   6   7
ENDBRANCH   5   6
ENDBRANCH   4   5
ENDBRANCH   3   4
ENDBRANCH   2   3
ENDBRANCH   1   2
BRANCH   1  17
ATOM     17  C   UNL     1      64.379  31.896  58.814  1.00  0.00     0.000 C 
BRANCH  17  18
ATOM     18  C   UNL     1      64.814  30.422  58.901  1.00  0.00     0.000 C 
BRANCH  18  19
ATOM     19  C   UNL     1      64.387  29.756  60.221  1.00  0.00     0.000 C 
BRANCH  19  20
ATOM     20  C   UNL     1      63.141  28.866  60.064  1.00  0.00     0.000 C 
BRANCH  20  21
ATOM     21  C   UNL     1      62.193  28.854  61.279  1.00  0.00     0.000 C 
BRANCH  21  22
ATOM     22  C   UNL     1      62.052  30.237  61.941  1.00  0.00    -0.000 C 
BRANCH  22  23
ATOM     23  C   UNL     1      60.767  30.972  61.524  1.00  0.00    -0.000 C 
BRANCH  23  24
ATOM     24  C   UNL     1      61.031  32.110  60.521  1.00  0.00    -0.000 C 
BRANCH  24  25
ATOM     25  C   UNL     1      60.439  31.817  59.133  1.00  0.00    -0.000 C 
BRANCH  25  26
ATOM     26  C   UNL     1      59.550  30.565  59.122  1.00  0.00    -0.000 C 
BRANCH  26  27
ATOM     27  C   UNL     1      60.033  29.558  58.067  1.00  0.00    -0.000 C 
BRANCH  27  28
ATOM     28  C   UNL     1      60.793  30.227  56.911  1.00  0.00    -0.000 C 
BRANCH  28  29
ATOM     29  C   UNL     1      62.143  29.556  56.622  1.00  0.00    -0.003 C 
ATOM     30  C   UNL     1      62.847  30.222  55.444  1.00  0.00     0.004 C 
ENDBRANCH  28  29
ENDBRANCH  27  28
ENDBRANCH  26  27
ENDBRANCH  25  26
ENDBRANCH  24  25
ENDBRANCH  23  24
ENDBRANCH  22  23
ENDBRANCH  21  22
ENDBRANCH  20  21
ENDBRANCH  19  20
ENDBRANCH  18  19
ENDBRANCH  17  18
ENDBRANCH   1  17
TORSDOF 26
ENDMDL
MODEL 6
REMARK VINA RESULT:    -3.015      2.429      5.654
REMARK INTER + INTRA:         -12.779
REMARK INTER:                  -7.601
REMARK INTRA:                  -5.179
REMARK UNBOUND:                -5.183
REMARK SMILES CCCCCCCCCCCCCCCCCCCCCCCCCCCC(=O)[O-]
REMARK SMILES IDX 15 1 16 2 17 3 18 4 19 5 20 6 21 7 22 8 23 9 24 10 25 11
REMARK SMILES IDX 26 12 27 13 28 14 29 15 30 16 14 17 13 18 12 19 11 20 10 21
REMARK SMILES IDX 9 22 8 23 7 24 6 25 5 26 4 27 3 28 2 29 1 30
REMARK H PARENT
REMARK Flexibility Score: inf
ROOT
ATOM      1  C   UNL     1      53.867  28.637  51.395  1.00  0.00     0.000 C 
ENDROOT
BRANCH   1   2
ATOM      2  C   UNL     1      55.311  29.003  51.787  1.00  0.00     0.000 C 
BRANCH   2   3
ATOM      3  C   UNL     1      56.204  29.294  50.572  1.00  0.00     0.000 C 
BRANCH   3   4
ATOM      4  C   UNL     1      57.592  28.658  50.746  1.00  0.00     0.000 C 
BRANCH   4   5
ATOM      5  C   UNL     1      58.622  29.206  49.745  1.00  0.00     0.000 C 
BRANCH   5   6
ATOM      6  C   UNL     1      59.614  28.131  49.266  1.00  0.00     0.000 C 
BRANCH   6   7
ATOM      7  C   UNL     1      59.311  26.739  49.843  1.00  0.00     0.000 C 
BRANCH   7   8
ATOM      8  C   UNL     1      60.580  26.004  50.310  1.00  0.00     0.000 C 
BRANCH   8   9
ATOM      9  C   UNL     1      61.792  26.941  50.431  1.00  0.00     0.000 C 
BRANCH   9  10
ATOM     10  C   UNL     1      63.129  26.184  50.374  1.00  0.00     0.000 C 
BRANCH  10  11
ATOM     11  C   UNL     1      64.240  27.072  49.796  1.00  0.00     0.000 C 
BRANCH  11  12
ATOM     12  C   UNL     1      63.811  27.815  48.515  1.00  0.00     0.006 C 
BRANCH  12  13
ATOM     13  C   UNL     1      64.414  29.224  48.382  1.00  0.00     0.053 C 
BRANCH  13  14
ATOM     14  C   UNL     1      64.046  30.120  49.527  1.00  0.00     0.041 C 
ATOM     15  O   UNL     1      62.836  30.306  49.819  1.00  0.00    -0.550 OA
ATOM     16  O   UNL     1      65.036  30.780  50.246  1.00  0.00    -0.550 OA
ENDBRANCH  13  14
ENDBRANCH  12  13
ENDBRANCH  11  12
ENDBRANCH  10  11
ENDBRANCH   9  10
ENDBRANCH   8   9
ENDBRANCH   7   8
ENDBRANCH   6   7
ENDBRANCH   5   6
ENDBRANCH   4   5
ENDBRANCH   3   4
ENDBRANCH   2   3
ENDBRANCH   1   2
BRANCH   1  17
ATOM     17  C   UNL     1      53.714  27.932  50.031  1.00  0.00     0.000 C 
BRANCH  17  18
ATOM     18  C   UNL     1      53.585  26.400  50.101  1.00  0.00     0.000 C 
BRANCH  18  19
ATOM     19  C   UNL     1      54.865  25.676  49.650  1.00  0.00     0.000 C 
BRANCH  19  20
ATOM     20  C   UNL     1      55.846  25.422  50.808  1.00  0.00     0.000 C 
BRANCH  20  21
ATOM     21  C   UNL     1      55.187  25.226  52.188  1.00  0.00     0.000 C 
BRANCH  21  22
ATOM     22  C   UNL     1      56.020  25.822  53.338  1.00  0.00    -0.000 C 
BRANCH  22  23
ATOM     23  C   UNL     1      57.528  25.834  53.041  1.00  0.00    -0.000 C 
BRANCH  23  24
ATOM     24  C   UNL     1      58.351  26.488  54.165  1.00  0.00    -0.000 C 
BRANCH  24  25
ATOM     25  C   UNL     1      59.643  27.139  53.646  1.00  0.00    -0.000 C 
BRANCH  25  26
ATOM     26  C   UNL     1      59.587  28.674  53.684  1.00  0.00    -0.000 C 
BRANCH  26  27
ATOM     27  C   UNL     1      60.791  29.285  52.948  1.00  0.00    -0.000 C 
BRANCH  27  28
ATOM     28  C   UNL     1      61.819  29.907  53.906  1.00  0.00    -0.000 C 
BRANCH  28  29
ATOM     29  C   UNL     1      63.181  30.147  53.239  1.00  0.00    -0.003 C 
ATOM     30  C   UNL     1      63.942  28.838  53.058  1.00  0.00     0.004 C 
ENDBRANCH  28  29
ENDBRANCH  27  28
ENDBRANCH  26  27
ENDBRANCH  25  26
ENDBRANCH  24  25
ENDBRANCH  23  24
ENDBRANCH  22  23
ENDBRANCH  21  22
ENDBRANCH  20  21
ENDBRANCH  19  20
ENDBRANCH  18  19
ENDBRANCH  17  18
ENDBRANCH   1  17
TORSDOF 26
ENDMDL
MODEL 7
REMARK VINA RESULT:    -3.012      3.223      7.101
REMARK INTER + INTRA:         -12.773
REMARK INTER:                  -8.307
REMARK INTRA:                  -4.465
REMARK UNBOUND:                -5.183
REMARK SMILES CCCCCCCCCCCCCCCCCCCCCCCCCCCC(=O)[O-]
REMARK SMILES IDX 15 1 16 2 17 3 18 4 19 5 20 6 21 7 22 8 23 9 24 10 25 11
REMARK SMILES IDX 26 12 27 13 28 14 29 15 30 16 14 17 13 18 12 19 11 20 10 21
REMARK SMILES IDX 9 22 8 23 7 24 6 25 5 26 4 27 3 28 2 29 1 30
REMARK H PARENT
REMARK Flexibility Score: inf
ROOT
ATOM      1  C   UNL     1      54.934  29.160  51.316  1.00  0.00     0.000 C 
ENDROOT
BRANCH   1   2
ATOM      2  C   UNL     1      56.363  29.256  50.752  1.00  0.00     0.000 C 
BRANCH   2   3
ATOM      3  C   UNL     1      57.436  29.319  51.849  1.00  0.00     0.000 C 
BRANCH   3   4
ATOM      4  C   UNL     1      58.846  29.244  51.244  1.00  0.00     0.000 C 
BRANCH   4   5
ATOM      5  C   UNL     1      58.827  29.157  49.710  1.00  0.00     0.000 C 
BRANCH   5   6
ATOM      6  C   UNL     1      59.573  27.921  49.175  1.00  0.00     0.000 C 
BRANCH   6   7
ATOM      7  C   UNL     1      60.473  27.263  50.232  1.00  0.00     0.000 C 
BRANCH   7   8
ATOM      8  C   UNL     1      61.955  27.246  49.819  1.00  0.00     0.000 C 
BRANCH   8   9
ATOM      9  C   UNL     1      62.892  27.644  50.972  1.00  0.00     0.000 C 
BRANCH   9  10
ATOM     10  C   UNL     1      63.503  29.041  50.776  1.00  0.00     0.000 C 
BRANCH  10  11
ATOM     11  C   UNL     1      62.405  30.104  50.621  1.00  0.00     0.000 C 
BRANCH  11  12
ATOM     12  C   UNL     1      62.893  31.373  49.895  1.00  0.00     0.006 C 
BRANCH  12  13
ATOM     13  C   UNL     1      62.420  32.684  50.546  1.00  0.00     0.053 C 
BRANCH  13  14
ATOM     14  C   UNL     1      62.637  33.877  49.664  1.00  0.00     0.041 C 
ATOM     15  O   UNL     1      62.390  33.805  48.432  1.00  0.00    -0.550 OA
ATOM     16  O   UNL     1      63.148  35.056  50.194  1.00  0.00    -0.550 OA
ENDBRANCH  13  14
ENDBRANCH  12  13
ENDBRANCH  11  12
ENDBRANCH  10  11
ENDBRANCH   9  10
ENDBRANCH   8   9
ENDBRANCH   7   8
ENDBRANCH   6   7
ENDBRANCH   5   6
ENDBRANCH   4   5
ENDBRANCH   3   4
ENDBRANCH   2   3
ENDBRANCH   1   2
BRANCH   1  17
ATOM     17  C   UNL     1      53.830  28.895  50.269  1.00  0.00     0.000 C 
BRANCH  17  18
ATOM     18  C   UNL     1      53.402  27.423  50.134  1.00  0.00     0.000 C 
BRANCH  18  19
ATOM     19  C   UNL     1      53.776  26.582  51.366  1.00  0.00     0.000 C 
BRANCH  19  20
ATOM     20  C   UNL     1      54.619  25.345  51.010  1.00  0.00     0.000 C 
BRANCH  20  21
ATOM     21  C   UNL     1      55.744  25.596  49.986  1.00  0.00     0.000 C 
BRANCH  21  22
ATOM     22  C   UNL     1      57.139  25.663  50.635  1.00  0.00    -0.000 C 
BRANCH  22  23
ATOM     23  C   UNL     1      57.092  25.559  52.168  1.00  0.00    -0.000 C 
BRANCH  23  24
ATOM     24  C   UNL     1      58.493  25.506  52.804  1.00  0.00    -0.000 C 
BRANCH  24  25
ATOM     25  C   UNL     1      58.762  24.172  53.520  1.00  0.00    -0.000 C 
BRANCH  25  26
ATOM     26  C   UNL     1      60.262  23.878  53.676  1.00  0.00    -0.000 C 
BRANCH  26  27
ATOM     27  C   UNL     1      61.083  24.641  52.624  1.00  0.00    -0.000 C 
BRANCH  27  28
ATOM     28  C   UNL     1      61.647  23.721  51.529  1.00  0.00    -0.000 C 
BRANCH  28  29
ATOM     29  C   UNL     1      60.688  23.553  50.343  1.00  0.00    -0.003 C 
ATOM     30  C   UNL     1      60.727  22.128  49.801  1.00  0.00     0.004 C 
ENDBRANCH  28  29
ENDBRANCH  27  28
ENDBRANCH  26  27
ENDBRANCH  25  26
ENDBRANCH  24  25
ENDBRANCH  23  24
ENDBRANCH  22  23
ENDBRANCH  21  22
ENDBRANCH  20  21
ENDBRANCH  19  20
ENDBRANCH  18  19
ENDBRANCH  17  18
ENDBRANCH   1  17
TORSDOF 26
ENDMDL
MODEL 8
REMARK VINA RESULT:    -2.987      1.564      7.143
REMARK INTER + INTRA:         -12.709
REMARK INTER:                  -7.464
REMARK INTRA:                  -5.246
REMARK UNBOUND:                -5.183
REMARK SMILES CCCCCCCCCCCCCCCCCCCCCCCCCCCC(=O)[O-]
REMARK SMILES IDX 15 1 16 2 17 3 18 4 19 5 20 6 21 7 22 8 23 9 24 10 25 11
REMARK SMILES IDX 26 12 27 13 28 14 29 15 30 16 14 17 13 18 12 19 11 20 10 21
REMARK SMILES IDX 9 22 8 23 7 24 6 25 5 26 4 27 3 28 2 29 1 30
REMARK H PARENT
REMARK Flexibility Score: inf
ROOT
ATOM      1  C   UNL     1      58.320  28.607  53.240  1.00  0.00     0.000 C 
ENDROOT
BRANCH   1   2
ATOM      2  C   UNL     1      59.810  28.467  53.603  1.00  0.00     0.000 C 
BRANCH   2   3
ATOM      3  C   UNL     1      60.691  29.532  52.934  1.00  0.00     0.000 C 
BRANCH   3   4
ATOM      4  C   UNL     1      62.068  28.957  52.569  1.00  0.00     0.000 C 
BRANCH   4   5
ATOM      5  C   UNL     1      62.694  29.651  51.349  1.00  0.00     0.000 C 
BRANCH   5   6
ATOM      6  C   UNL     1      61.874  30.862  50.868  1.00  0.00     0.000 C 
BRANCH   6   7
ATOM      7  C   UNL     1      62.651  31.758  49.891  1.00  0.00     0.000 C 
BRANCH   7   8
ATOM      8  C   UNL     1      64.156  31.812  50.207  1.00  0.00     0.000 C 
BRANCH   8   9
ATOM      9  C   UNL     1      65.023  31.383  49.012  1.00  0.00     0.000 C 
BRANCH   9  10
ATOM     10  C   UNL     1      65.444  29.907  49.092  1.00  0.00     0.000 C 
BRANCH  10  11
ATOM     11  C   UNL     1      64.964  29.132  47.856  1.00  0.00     0.000 C 
BRANCH  11  12
ATOM     12  C   UNL     1      64.774  27.627  48.125  1.00  0.00     0.006 C 
BRANCH  12  13
ATOM     13  C   UNL     1      63.775  27.317  49.254  1.00  0.00     0.053 C 
BRANCH  13  14
ATOM     14  C   UNL     1      64.361  26.435  50.316  1.00  0.00     0.041 C 
ATOM     15  O   UNL     1      64.150  25.194  50.294  1.00  0.00    -0.550 OA
ATOM     16  O   UNL     1      65.106  26.986  51.352  1.00  0.00    -0.550 OA
ENDBRANCH  13  14
ENDBRANCH  12  13
ENDBRANCH  11  12
ENDBRANCH  10  11
ENDBRANCH   9  10
ENDBRANCH   8   9
ENDBRANCH   7   8
ENDBRANCH   6   7
ENDBRANCH   5   6
ENDBRANCH   4   5
ENDBRANCH   3   4
ENDBRANCH   2   3
ENDBRANCH   1   2
BRANCH   1  17
ATOM     17  C   UNL     1      58.016  29.561  52.065  1.00  0.00     0.000 C 
BRANCH  17  18
ATOM     18  C   UNL     1      57.790  28.870  50.708  1.00  0.00     0.000 C 
BRANCH  18  19
ATOM     19  C   UNL     1      58.821  29.296  49.648  1.00  0.00     0.000 C 
BRANCH  19  20
ATOM     20  C   UNL     1      59.733  28.139  49.205  1.00  0.00     0.000 C 
BRANCH  20  21
ATOM     21  C   UNL     1      59.360  26.758  49.780  1.00  0.00     0.000 C 
BRANCH  21  22
ATOM     22  C   UNL     1      60.421  26.209  50.751  1.00  0.00    -0.000 C 
BRANCH  22  23
ATOM     23  C   UNL     1      59.873  25.112  51.678  1.00  0.00    -0.000 C 
BRANCH  23  24
ATOM     24  C   UNL     1      58.369  24.856  51.472  1.00  0.00    -0.000 C 
BRANCH  24  25
ATOM     25  C   UNL     1      57.515  25.413  52.622  1.00  0.00    -0.000 C 
BRANCH  25  26
ATOM     26  C   UNL     1      56.061  25.677  52.203  1.00  0.00    -0.000 C 
BRANCH  26  27
ATOM     27  C   UNL     1      55.872  25.442  50.696  1.00  0.00    -0.000 C 
BRANCH  27  28
ATOM     28  C   UNL     1      55.118  26.589  50.005  1.00  0.00    -0.000 C 
BRANCH  28  29
ATOM     29  C   UNL     1      54.425  27.528  51.003  1.00  0.00    -0.003 C 
ATOM     30  C   UNL     1      53.332  28.345  50.321  1.00  0.00     0.004 C 
ENDBRANCH  28  29
ENDBRANCH  27  28
ENDBRANCH  26  27
ENDBRANCH  25  26
ENDBRANCH  24  25
ENDBRANCH  23  24
ENDBRANCH  22  23
ENDBRANCH  21  22
ENDBRANCH  20  21
ENDBRANCH  19  20
ENDBRANCH  18  19
ENDBRANCH  17  18
ENDBRANCH   1  17
TORSDOF 26
ENDMDL
MODEL 9
REMARK VINA RESULT:    -2.972      8.499     10.906
REMARK INTER + INTRA:         -12.671
REMARK INTER:                  -6.602
REMARK INTRA:                  -6.068
REMARK UNBOUND:                -5.183
REMARK SMILES CCCCCCCCCCCCCCCCCCCCCCCCCCCC(=O)[O-]
REMARK SMILES IDX 15 1 16 2 17 3 18 4 19 5 20 6 21 7 22 8 23 9 24 10 25 11
REMARK SMILES IDX 26 12 27 13 28 14 29 15 30 16 14 17 13 18 12 19 11 20 10 21
REMARK SMILES IDX 9 22 8 23 7 24 6 25 5 26 4 27 3 28 2 29 1 30
REMARK H PARENT
REMARK Flexibility Score: inf
ROOT
ATOM      1  C   UNL     1      61.569  32.312  60.656  1.00  0.00     0.000 C 
ENDROOT
BRANCH   1   2
ATOM      2  C   UNL     1      60.948  31.064  61.310  1.00  0.00     0.000 C 
BRANCH   2   3
ATOM      3  C   UNL     1      62.000  30.041  61.764  1.00  0.00     0.000 C 
BRANCH   3   4
ATOM      4  C   UNL     1      63.411  30.481  61.347  1.00  0.00     0.000 C 
BRANCH   4   5
ATOM      5  C   UNL     1      64.001  29.599  60.235  1.00  0.00     0.000 C 
BRANCH   5   6
ATOM      6  C   UNL     1      63.204  28.299  60.021  1.00  0.00     0.000 C 
BRANCH   6   7
ATOM      7  C   UNL     1      62.549  28.223  58.633  1.00  0.00     0.000 C 
BRANCH   7   8
ATOM      8  C   UNL     1      62.764  29.503  57.807  1.00  0.00     0.000 C 
BRANCH   8   9
ATOM      9  C   UNL     1      61.448  30.242  57.514  1.00  0.00     0.000 C 
BRANCH   9  10
ATOM     10  C   UNL     1      60.232  29.553  58.154  1.00  0.00     0.000 C 
BRANCH  10  11
ATOM     11  C   UNL     1      59.017  29.601  57.217  1.00  0.00     0.000 C 
BRANCH  11  12
ATOM     12  C   UNL     1      58.861  30.956  56.501  1.00  0.00     0.006 C 
BRANCH  12  13
ATOM     13  C   UNL     1      58.160  32.032  57.348  1.00  0.00     0.053 C 
BRANCH  13  14
ATOM     14  C   UNL     1      57.646  33.173  56.522  1.00  0.00     0.041 C 
ATOM     15  O   UNL     1      57.042  34.130  57.073  1.00  0.00    -0.550 OA
ATOM     16  O   UNL     1      57.800  33.162  55.140  1.00  0.00    -0.550 OA
ENDBRANCH  13  14
ENDBRANCH  12  13
ENDBRANCH  11  12
ENDBRANCH  10  11
ENDBRANCH   9  10
ENDBRANCH   8   9
ENDBRANCH   7   8
ENDBRANCH   6   7
ENDBRANCH   5   6
ENDBRANCH   4   5
ENDBRANCH   3   4
ENDBRANCH   2   3
ENDBRANCH   1   2
BRANCH   1  17
ATOM     17  C   UNL     1      60.626  33.105  59.726  1.00  0.00     0.000 C 
BRANCH  17  18
ATOM     18  C   UNL     1      61.073  34.547  59.423  1.00  0.00     0.000 C 
BRANCH  18  19
ATOM     19  C   UNL     1      60.688  35.533  60.539  1.00  0.00     0.000 C 
BRANCH  19  20
ATOM     20  C   UNL     1      61.837  36.483  60.919  1.00  0.00     0.000 C 
BRANCH  20  21
ATOM     21  C   UNL     1      63.214  36.103  60.338  1.00  0.00     0.000 C 
BRANCH  21  22
ATOM     22  C   UNL     1      64.094  35.334  61.340  1.00  0.00    -0.000 C 
BRANCH  22  23
ATOM     23  C   UNL     1      64.634  34.012  60.771  1.00  0.00    -0.000 C 
BRANCH  23  24
ATOM     24  C   UNL     1      64.905  34.083  59.257  1.00  0.00    -0.000 C 
BRANCH  24  25
ATOM     25  C   UNL     1      64.349  32.865  58.502  1.00  0.00    -0.000 C 
BRANCH  25  26
ATOM     26  C   UNL     1      64.096  33.157  57.015  1.00  0.00    -0.000 C 
BRANCH  26  27
ATOM     27  C   UNL     1      63.570  34.588  56.818  1.00  0.00    -0.000 C 
BRANCH  27  28
ATOM     28  C   UNL     1      62.486  34.678  55.732  1.00  0.00    -0.000 C 
BRANCH  28  29
ATOM     29  C   UNL     1      61.447  33.553  55.837  1.00  0.00    -0.003 C 
ATOM     30  C   UNL     1      61.293  32.822  54.507  1.00  0.00     0.004 C 
ENDBRANCH  28  29
ENDBRANCH  27  28
ENDBRANCH  26  27
ENDBRANCH  25  26
ENDBRANCH  24  25
ENDBRANCH  23  24
ENDBRANCH  22  23
ENDBRANCH  21  22
ENDBRANCH  20  21
ENDBRANCH  19  20
ENDBRANCH  18  19
ENDBRANCH  17  18
ENDBRANCH   1  17
TORSDOF 26
ENDMDL
