MODEL 1
REMARK VINA RESULT:    10.510      0.000      0.000
REMARK INTER + INTRA:          19.607
REMARK INTER:                  20.341
REMARK INTRA:                  -0.734
REMARK UNBOUND:                -0.734
REMARK SMILES CCCCCCCCCCCCCCCCCC(=O)[O-]
REMARK SMILES IDX 10 1 11 2 12 3 13 4 14 5 15 6 16 7 17 8 18 9 19 10 20 11
REMARK SMILES IDX 9 12 8 13 7 14 6 15 5 16 4 17 3 18 2 19 1 20
REMARK H PARENT
REMARK Flexibility Score: inf
ROOT
ATOM      1  C   UNL     1       0.521   7.238  -4.328  1.00  0.00     0.000 C 
ENDROOT
BRANCH   1   2
ATOM      2  C   UNL     1       0.368   8.739  -4.620  1.00  0.00     0.000 C 
BRANCH   2   3
ATOM      3  C   UNL     1       0.941   9.125  -6.000  1.00  0.00     0.000 C 
BRANCH   3   4
ATOM      4  C   UNL     1       0.645   8.093  -7.102  1.00  0.00     0.000 C 
BRANCH   4   5
ATOM      5  C   UNL     1       1.276   8.467  -8.453  1.00  0.00     0.000 C 
BRANCH   5   6
ATOM      6  C   UNL     1       2.655   9.131  -8.296  1.00  0.00     0.000 C 
BRANCH   6   7
ATOM      7  C   UNL     1       3.428   9.211  -9.624  1.00  0.00     0.006 C 
BRANCH   7   8
ATOM      8  C   UNL     1       3.078  10.474 -10.422  1.00  0.00     0.053 C 
BRANCH   8   9
ATOM      9  C   UNL     1       3.144  10.236 -11.900  1.00  0.00     0.041 C 
ATOM     10  O   UNL     1       3.685   9.193 -12.350  1.00  0.00    -0.550 OA
ATOM     11  O   UNL     1       2.636  11.183 -12.781  1.00  0.00    -0.550 OA
ENDBRANCH   8   9
ENDBRANCH   7   8
ENDBRANCH   6   7
ENDBRANCH   5   6
ENDBRANCH   4   5
ENDBRANCH   3   4
ENDBRANCH   2   3
ENDBRANCH   1   2
BRANCH   1  12
ATOM     12  C   UNL     1       1.369   7.003  -3.072  1.00  0.00     0.000 C 
BRANCH  12  13
ATOM     13  C   UNL     1       2.798   7.528  -3.268  1.00  0.00    -0.000 C 
BRANCH  13  14
ATOM     14  C   UNL     1       3.716   7.207  -2.077  1.00  0.00    -0.000 C 
BRANCH  14  15
ATOM     15  C   UNL     1       5.183   7.577  -2.343  1.00  0.00    -0.000 C 
BRANCH  15  16
ATOM     16  C   UNL     1       6.013   6.331  -2.671  1.00  0.00    -0.000 C 
BRANCH  16  17
ATOM     17  C   UNL     1       5.293   5.441  -3.696  1.00  0.00    -0.000 C 
BRANCH  17  18
ATOM     18  C   UNL     1       6.150   4.230  -4.121  1.00  0.00    -0.000 C 
BRANCH  18  19
ATOM     19  C   UNL     1       6.977   3.628  -2.974  1.00  0.00    -0.003 C 
ATOM     20  C   UNL     1       7.137   2.113  -3.081  1.00  0.00     0.004 C 
ENDBRANCH  18  19
ENDBRANCH  17  18
ENDBRANCH  16  17
ENDBRANCH  15  16
ENDBRANCH  14  15
ENDBRANCH  13  14
ENDBRANCH  12  13
ENDBRANCH   1  12
TORSDOF 16
ENDMDL
MODEL 2
REMARK VINA RESULT:    10.795      0.741      1.519
REMARK INTER + INTRA:          20.159
REMARK INTER:                  20.917
REMARK INTRA:                  -0.758
REMARK UNBOUND:                -0.734
REMARK SMILES CCCCCCCCCCCCCCCCCC(=O)[O-]
REMARK SMILES IDX 10 1 11 2 12 3 13 4 14 5 15 6 16 7 17 8 18 9 19 10 20 11
REMARK SMILES IDX 9 12 8 13 7 14 6 15 5 16 4 17 3 18 2 19 1 20
REMARK H PARENT
REMARK Flexibility Score: inf
ROOT
ATOM      1  C   UNL     1       0.231   8.725  -4.582  1.00  0.00     0.000 C 
ENDROOT
BRANCH   1   2
ATOM      2  C   UNL     1       0.883   9.128  -5.915  1.00  0.00     0.000 C 
BRANCH   2   3
ATOM      3  C   UNL     1       0.363   8.283  -7.096  1.00  0.00     0.000 C 
BRANCH   3   4
ATOM      4  C   UNL     1       1.256   8.356  -8.348  1.00  0.00     0.000 C 
BRANCH   4   5
ATOM      5  C   UNL     1       2.580   9.096  -8.093  1.00  0.00     0.000 C 
BRANCH   5   6
ATOM      6  C   UNL     1       3.446   9.206  -9.359  1.00  0.00     0.000 C 
BRANCH   6   7
ATOM      7  C   UNL     1       2.949  10.296 -10.324  1.00  0.00     0.006 C 
BRANCH   7   8
ATOM      8  C   UNL     1       3.139   9.898 -11.794  1.00  0.00     0.053 C 
BRANCH   8   9
ATOM      9  C   UNL     1       2.649  10.963 -12.728  1.00  0.00     0.041 C 
ATOM     10  O   UNL     1       1.963  10.655 -13.736  1.00  0.00    -0.550 OA
ATOM     11  O   UNL     1       2.979  12.294 -12.499  1.00  0.00    -0.550 OA
ENDBRANCH   8   9
ENDBRANCH   7   8
ENDBRANCH   6   7
ENDBRANCH   5   6
ENDBRANCH   4   5
ENDBRANCH   3   4
ENDBRANCH   2   3
ENDBRANCH   1   2
BRANCH   1  12
ATOM     12  C   UNL     1       0.552   7.267  -4.230  1.00  0.00     0.000 C 
BRANCH  12  13
ATOM     13  C   UNL     1       1.416   7.186  -2.964  1.00  0.00    -0.000 C 
BRANCH  13  14
ATOM     14  C   UNL     1       2.880   7.579  -3.219  1.00  0.00    -0.000 C 
BRANCH  14  15
ATOM     15  C   UNL     1       3.802   7.229  -2.041  1.00  0.00    -0.000 C 
BRANCH  15  16
ATOM     16  C   UNL     1       5.265   7.538  -2.379  1.00  0.00    -0.000 C 
BRANCH  16  17
ATOM     17  C   UNL     1       6.050   6.249  -2.665  1.00  0.00    -0.000 C 
BRANCH  17  18
ATOM     18  C   UNL     1       5.310   5.320  -3.650  1.00  0.00    -0.000 C 
BRANCH  18  19
ATOM     19  C   UNL     1       6.231   4.308  -4.352  1.00  0.00    -0.003 C 
ATOM     20  C   UNL     1       6.864   3.307  -3.389  1.00  0.00     0.004 C 
ENDBRANCH  18  19
ENDBRANCH  17  18
ENDBRANCH  16  17
ENDBRANCH  15  16
ENDBRANCH  14  15
ENDBRANCH  13  14
ENDBRANCH  12  13
ENDBRANCH   1  12
TORSDOF 16
ENDMDL
MODEL 3
REMARK VINA RESULT:    11.077      3.160      8.159
REMARK INTER + INTRA:          20.704
REMARK INTER:                  21.472
REMARK INTRA:                  -0.767
REMARK UNBOUND:                -0.734
REMARK SMILES CCCCCCCCCCCCCCCCCC(=O)[O-]
REMARK SMILES IDX 10 1 11 2 12 3 13 4 14 5 15 6 16 7 17 8 18 9 19 10 20 11
REMARK SMILES IDX 9 12 8 13 7 14 6 15 5 16 4 17 3 18 2 19 1 20
REMARK H PARENT
REMARK Flexibility Score: inf
ROOT
ATOM      1  C   UNL     1       0.170   8.705  -4.558  1.00  0.00     0.000 C 
ENDROOT
BRANCH   1   2
ATOM      2  C   UNL     1       0.406   7.214  -4.265  1.00  0.00     0.000 C 
BRANCH   2   3
ATOM      3  C   UNL     1       1.278   6.998  -3.011  1.00  0.00     0.000 C 
BRANCH   3   4
ATOM      4  C   UNL     1       2.717   7.521  -3.161  1.00  0.00     0.000 C 
BRANCH   4   5
ATOM      5  C   UNL     1       3.617   7.139  -1.974  1.00  0.00     0.000 C 
BRANCH   5   6
ATOM      6  C   UNL     1       5.052   7.669  -2.128  1.00  0.00     0.000 C 
BRANCH   6   7
ATOM      7  C   UNL     1       5.990   6.653  -2.803  1.00  0.00     0.006 C 
BRANCH   7   8
ATOM      8  C   UNL     1       5.260   5.358  -3.186  1.00  0.00     0.053 C 
BRANCH   8   9
ATOM      9  C   UNL     1       6.068   4.523  -4.133  1.00  0.00     0.041 C 
ATOM     10  O   UNL     1       6.050   4.767  -5.366  1.00  0.00    -0.550 OA
ATOM     11  O   UNL     1       6.814   3.453  -3.653  1.00  0.00    -0.550 OA
ENDBRANCH   8   9
ENDBRANCH   7   8
ENDBRANCH   6   7
ENDBRANCH   5   6
ENDBRANCH   4   5
ENDBRANCH   3   4
ENDBRANCH   2   3
ENDBRANCH   1   2
BRANCH   1  12
ATOM     12  C   UNL     1       0.877   9.132  -5.851  1.00  0.00     0.000 C 
BRANCH  12  13
ATOM     13  C   UNL     1       0.385   8.303  -7.046  1.00  0.00    -0.000 C 
BRANCH  13  14
ATOM     14  C   UNL     1       1.271   8.474  -8.290  1.00  0.00    -0.000 C 
BRANCH  14  15
ATOM     15  C   UNL     1       2.660   9.038  -7.955  1.00  0.00    -0.000 C 
BRANCH  15  16
ATOM     16  C   UNL     1       3.511   9.188  -9.221  1.00  0.00    -0.000 C 
BRANCH  16  17
ATOM     17  C   UNL     1       2.736   9.926 -10.324  1.00  0.00    -0.000 C 
BRANCH  17  18
ATOM     18  C   UNL     1       3.546  10.036 -11.633  1.00  0.00    -0.000 C 
BRANCH  18  19
ATOM     19  C   UNL     1       2.673  10.044 -12.898  1.00  0.00    -0.003 C 
ATOM     20  C   UNL     1       2.334  11.452 -13.383  1.00  0.00     0.004 C 
ENDBRANCH  18  19
ENDBRANCH  17  18
ENDBRANCH  16  17
ENDBRANCH  15  16
ENDBRANCH  14  15
ENDBRANCH  13  14
ENDBRANCH  12  13
ENDBRANCH   1  12
TORSDOF 16
ENDMDL
MODEL 4
REMARK VINA RESULT:    11.211      2.025      2.450
REMARK INTER + INTRA:          20.964
REMARK INTER:                  21.782
REMARK INTRA:                  -0.818
REMARK UNBOUND:                -0.734
REMARK SMILES CCCCCCCCCCCCCCCCCC(=O)[O-]
REMARK SMILES IDX 10 1 11 2 12 3 13 4 14 5 15 6 16 7 17 8 18 9 19 10 20 11
REMARK SMILES IDX 9 12 8 13 7 14 6 15 5 16 4 17 3 18 2 19 1 20
REMARK H PARENT
REMARK Flexibility Score: inf
ROOT
ATOM      1  C   UNL     1       0.264   7.764  -4.047  1.00  0.00     0.000 C 
ENDROOT
BRANCH   1   2
ATOM      2  C   UNL     1       0.992   8.763  -4.960  1.00  0.00     0.000 C 
BRANCH   2   3
ATOM      3  C   UNL     1       0.463   8.720  -6.409  1.00  0.00     0.000 C 
BRANCH   3   4
ATOM      4  C   UNL     1       1.575   8.631  -7.470  1.00  0.00     0.000 C 
BRANCH   4   5
ATOM      5  C   UNL     1       1.086   8.025  -8.795  1.00  0.00     0.000 C 
BRANCH   5   6
ATOM      6  C   UNL     1      -0.387   8.358  -9.088  1.00  0.00     0.000 C 
BRANCH   6   7
ATOM      7  C   UNL     1      -0.627   8.731 -10.561  1.00  0.00     0.006 C 
BRANCH   7   8
ATOM      8  C   UNL     1      -0.758   7.493 -11.459  1.00  0.00     0.053 C 
BRANCH   8   9
ATOM      9  C   UNL     1      -0.214   7.741 -12.833  1.00  0.00     0.041 C 
ATOM     10  O   UNL     1      -0.535   8.781 -13.463  1.00  0.00    -0.550 OA
ATOM     11  O   UNL     1       0.622   6.804 -13.429  1.00  0.00    -0.550 OA
ENDBRANCH   8   9
ENDBRANCH   7   8
ENDBRANCH   6   7
ENDBRANCH   5   6
ENDBRANCH   4   5
ENDBRANCH   3   4
ENDBRANCH   2   3
ENDBRANCH   1   2
BRANCH   1  12
ATOM     12  C   UNL     1       1.261   6.940  -3.223  1.00  0.00     0.000 C 
BRANCH  12  13
ATOM     13  C   UNL     1       2.672   7.542  -3.307  1.00  0.00    -0.000 C 
BRANCH  13  14
ATOM     14  C   UNL     1       3.620   6.979  -2.236  1.00  0.00    -0.000 C 
BRANCH  14  15
ATOM     15  C   UNL     1       4.998   7.656  -2.251  1.00  0.00    -0.000 C 
BRANCH  15  16
ATOM     16  C   UNL     1       6.093   6.664  -2.659  1.00  0.00    -0.000 C 
BRANCH  16  17
ATOM     17  C   UNL     1       5.484   5.353  -3.180  1.00  0.00    -0.000 C 
BRANCH  17  18
ATOM     18  C   UNL     1       6.380   4.672  -4.236  1.00  0.00    -0.000 C 
BRANCH  18  19
ATOM     19  C   UNL     1       6.506   3.152  -4.048  1.00  0.00    -0.003 C 
ATOM     20  C   UNL     1       7.311   2.767  -2.808  1.00  0.00     0.004 C 
ENDBRANCH  18  19
ENDBRANCH  17  18
ENDBRANCH  16  17
ENDBRANCH  15  16
ENDBRANCH  14  15
ENDBRANCH  13  14
ENDBRANCH  12  13
ENDBRANCH   1  12
TORSDOF 16
ENDMDL
MODEL 5
REMARK VINA RESULT:    11.683      3.553      8.311
REMARK INTER + INTRA:          21.877
REMARK INTER:                  22.686
REMARK INTRA:                  -0.809
REMARK UNBOUND:                -0.734
REMARK SMILES CCCCCCCCCCCCCCCCCC(=O)[O-]
REMARK SMILES IDX 10 1 11 2 12 3 13 4 14 5 15 6 16 7 17 8 18 9 19 10 20 11
REMARK SMILES IDX 9 12 8 13 7 14 6 15 5 16 4 17 3 18 2 19 1 20
REMARK H PARENT
REMARK Flexibility Score: inf
ROOT
ATOM      1  C   UNL     1       0.184   8.630  -4.216  1.00  0.00     0.000 C 
ENDROOT
BRANCH   1   2
ATOM      2  C   UNL     1       0.517   7.131  -4.140  1.00  0.00     0.000 C 
BRANCH   2   3
ATOM      3  C   UNL     1       1.512   6.812  -3.005  1.00  0.00     0.000 C 
BRANCH   3   4
ATOM      4  C   UNL     1       2.862   7.538  -3.145  1.00  0.00     0.000 C 
BRANCH   4   5
ATOM      5  C   UNL     1       3.792   7.302  -1.944  1.00  0.00     0.000 C 
BRANCH   5   6
ATOM      6  C   UNL     1       5.254   7.666  -2.251  1.00  0.00     0.000 C 
BRANCH   6   7
ATOM      7  C   UNL     1       6.091   6.447  -2.677  1.00  0.00     0.006 C 
BRANCH   7   8
ATOM      8  C   UNL     1       5.236   5.363  -3.346  1.00  0.00     0.053 C 
BRANCH   8   9
ATOM      9  C   UNL     1       6.058   4.462  -4.216  1.00  0.00     0.041 C 
ATOM     10  O   UNL     1       6.820   3.605  -3.699  1.00  0.00    -0.550 OA
ATOM     11  O   UNL     1       6.006   4.592  -5.599  1.00  0.00    -0.550 OA
ENDBRANCH   8   9
ENDBRANCH   7   8
ENDBRANCH   6   7
ENDBRANCH   5   6
ENDBRANCH   4   5
ENDBRANCH   3   4
ENDBRANCH   2   3
ENDBRANCH   1   2
BRANCH   1  12
ATOM     12  C   UNL     1       0.244   9.136  -5.662  1.00  0.00     0.000 C 
BRANCH  12  13
ATOM     13  C   UNL     1       1.628   8.883  -6.276  1.00  0.00    -0.000 C 
BRANCH  13  14
ATOM     14  C   UNL     1       1.556   8.504  -7.764  1.00  0.00    -0.000 C 
BRANCH  14  15
ATOM     15  C   UNL     1       0.199   7.902  -8.157  1.00  0.00    -0.000 C 
BRANCH  15  16
ATOM     16  C   UNL     1      -0.481   8.743  -9.242  1.00  0.00    -0.000 C 
BRANCH  16  17
ATOM     17  C   UNL     1       0.047   8.377 -10.638  1.00  0.00    -0.000 C 
BRANCH  17  18
ATOM     18  C   UNL     1      -0.978   7.565 -11.457  1.00  0.00    -0.000 C 
BRANCH  18  19
ATOM     19  C   UNL     1      -0.649   7.492 -12.956  1.00  0.00    -0.003 C 
ATOM     20  C   UNL     1       0.413   8.501 -13.386  1.00  0.00     0.004 C 
ENDBRANCH  18  19
ENDBRANCH  17  18
ENDBRANCH  16  17
ENDBRANCH  15  16
ENDBRANCH  14  15
ENDBRANCH  13  14
ENDBRANCH  12  13
ENDBRANCH   1  12
TORSDOF 16
ENDMDL
MODEL 6
REMARK VINA RESULT:    11.697      4.115      8.627
REMARK INTER + INTRA:          21.903
REMARK INTER:                  22.728
REMARK INTRA:                  -0.825
REMARK UNBOUND:                -0.734
REMARK SMILES CCCCCCCCCCCCCCCCCC(=O)[O-]
REMARK SMILES IDX 10 1 11 2 12 3 13 4 14 5 15 6 16 7 17 8 18 9 19 10 20 11
REMARK SMILES IDX 9 12 8 13 7 14 6 15 5 16 4 17 3 18 2 19 1 20
REMARK H PARENT
REMARK Flexibility Score: inf
ROOT
ATOM      1  C   UNL     1       0.477   7.885  -3.671  1.00  0.00     0.000 C 
ENDROOT
BRANCH   1   2
ATOM      2  C   UNL     1       1.625   6.938  -3.287  1.00  0.00     0.000 C 
BRANCH   2   3
ATOM      3  C   UNL     1       2.991   7.655  -3.275  1.00  0.00     0.000 C 
BRANCH   3   4
ATOM      4  C   UNL     1       3.873   7.284  -2.069  1.00  0.00     0.000 C 
BRANCH   4   5
ATOM      5  C   UNL     1       5.352   7.648  -2.278  1.00  0.00     0.000 C 
BRANCH   5   6
ATOM      6  C   UNL     1       6.231   6.414  -2.541  1.00  0.00     0.000 C 
BRANCH   6   7
ATOM      7  C   UNL     1       5.467   5.283  -3.251  1.00  0.00     0.006 C 
BRANCH   7   8
ATOM      8  C   UNL     1       6.341   4.549  -4.277  1.00  0.00     0.053 C 
BRANCH   8   9
ATOM      9  C   UNL     1       6.810   3.222  -3.761  1.00  0.00     0.041 C 
ATOM     10  O   UNL     1       6.820   2.217  -4.517  1.00  0.00    -0.550 OA
ATOM     11  O   UNL     1       7.206   3.092  -2.436  1.00  0.00    -0.550 OA
ENDBRANCH   8   9
ENDBRANCH   7   8
ENDBRANCH   6   7
ENDBRANCH   5   6
ENDBRANCH   4   5
ENDBRANCH   3   4
ENDBRANCH   2   3
ENDBRANCH   1   2
BRANCH   1  12
ATOM     12  C   UNL     1       0.179   7.811  -5.173  1.00  0.00     0.000 C 
BRANCH  12  13
ATOM     13  C   UNL     1       0.803   9.002  -5.916  1.00  0.00    -0.000 C 
BRANCH  13  14
ATOM     14  C   UNL     1       1.595   8.574  -7.162  1.00  0.00    -0.000 C 
BRANCH  14  15
ATOM     15  C   UNL     1       0.689   8.070  -8.296  1.00  0.00    -0.000 C 
BRANCH  15  16
ATOM     16  C   UNL     1      -0.442   9.066  -8.577  1.00  0.00    -0.000 C 
BRANCH  16  17
ATOM     17  C   UNL     1      -1.076   8.808  -9.953  1.00  0.00    -0.000 C 
BRANCH  17  18
ATOM     18  C   UNL     1      -0.246   7.824 -10.804  1.00  0.00    -0.000 C 
BRANCH  18  19
ATOM     19  C   UNL     1      -0.871   7.518 -12.174  1.00  0.00    -0.003 C 
ATOM     20  C   UNL     1      -0.097   8.136 -13.336  1.00  0.00     0.004 C 
ENDBRANCH  18  19
ENDBRANCH  17  18
ENDBRANCH  16  17
ENDBRANCH  15  16
ENDBRANCH  14  15
ENDBRANCH  13  14
ENDBRANCH  12  13
ENDBRANCH   1  12
TORSDOF 16
ENDMDL
MODEL 7
REMARK VINA RESULT:    11.870      1.834      3.317
REMARK INTER + INTRA:          22.238
REMARK INTER:                  22.966
REMARK INTRA:                  -0.728
REMARK UNBOUND:                -0.734
REMARK SMILES CCCCCCCCCCCCCCCCCC(=O)[O-]
REMARK SMILES IDX 10 1 11 2 12 3 13 4 14 5 15 6 16 7 17 8 18 9 19 10 20 11
REMARK SMILES IDX 9 12 8 13 7 14 6 15 5 16 4 17 3 18 2 19 1 20
REMARK H PARENT
REMARK Flexibility Score: inf
ROOT
ATOM      1  C   UNL     1       0.269   8.018  -7.138  1.00  0.00     0.000 C 
ENDROOT
BRANCH   1   2
ATOM      2  C   UNL     1       0.638   8.406  -8.579  1.00  0.00     0.000 C 
BRANCH   2   3
ATOM      3  C   UNL     1      -0.263   7.707  -9.619  1.00  0.00     0.000 C 
BRANCH   3   4
ATOM      4  C   UNL     1      -0.353   8.455 -10.960  1.00  0.00     0.000 C 
BRANCH   4   5
ATOM      5  C   UNL     1      -0.703   7.530 -12.137  1.00  0.00     0.000 C 
BRANCH   5   6
ATOM      6  C   UNL     1       0.209   7.755 -13.355  1.00  0.00     0.000 C 
BRANCH   6   7
ATOM      7  C   UNL     1       0.814   9.169 -13.388  1.00  0.00     0.006 C 
BRANCH   7   8
ATOM      8  C   UNL     1       2.330   9.157 -13.148  1.00  0.00     0.053 C 
BRANCH   8   9
ATOM      9  C   UNL     1       2.787  10.378 -12.409  1.00  0.00     0.041 C 
ATOM     10  O   UNL     1       3.290  10.272 -11.261  1.00  0.00    -0.550 OA
ATOM     11  O   UNL     1       2.626  11.636 -12.978  1.00  0.00    -0.550 OA
ENDBRANCH   8   9
ENDBRANCH   7   8
ENDBRANCH   6   7
ENDBRANCH   5   6
ENDBRANCH   4   5
ENDBRANCH   3   4
ENDBRANCH   2   3
ENDBRANCH   1   2
BRANCH   1  12
ATOM     12  C   UNL     1       1.147   8.762  -6.125  1.00  0.00     0.000 C 
BRANCH  12  13
ATOM     13  C   UNL     1       0.512   8.740  -4.727  1.00  0.00    -0.000 C 
BRANCH  13  14
ATOM     14  C   UNL     1       1.139   7.679  -3.808  1.00  0.00    -0.000 C 
BRANCH  14  15
ATOM     15  C   UNL     1       2.669   7.798  -3.723  1.00  0.00    -0.000 C 
BRANCH  15  16
ATOM     16  C   UNL     1       3.215   7.010  -2.528  1.00  0.00    -0.000 C 
BRANCH  16  17
ATOM     17  C   UNL     1       4.615   7.505  -2.132  1.00  0.00    -0.000 C 
BRANCH  17  18
ATOM     18  C   UNL     1       5.736   6.670  -2.786  1.00  0.00    -0.000 C 
BRANCH  18  19
ATOM     19  C   UNL     1       5.269   5.289  -3.273  1.00  0.00    -0.003 C 
ATOM     20  C   UNL     1       6.221   4.658  -4.287  1.00  0.00     0.004 C 
ENDBRANCH  18  19
ENDBRANCH  17  18
ENDBRANCH  16  17
ENDBRANCH  15  16
ENDBRANCH  14  15
ENDBRANCH  13  14
ENDBRANCH  12  13
ENDBRANCH   1  12
TORSDOF 16
ENDMDL
MODEL 8
REMARK VINA RESULT:    11.992      5.005      6.497
REMARK INTER + INTRA:          22.474
REMARK INTER:                  23.161
REMARK INTRA:                  -0.687
REMARK UNBOUND:                -0.734
REMARK SMILES CCCCCCCCCCCCCCCCCC(=O)[O-]
REMARK SMILES IDX 10 1 11 2 12 3 13 4 14 5 15 6 16 7 17 8 18 9 19 10 20 11
REMARK SMILES IDX 9 12 8 13 7 14 6 15 5 16 4 17 3 18 2 19 1 20
REMARK H PARENT
REMARK Flexibility Score: inf
ROOT
ATOM      1  C   UNL     1      -0.739   9.746  -3.143  1.00  0.00     0.000 C 
ENDROOT
BRANCH   1   2
ATOM      2  C   UNL     1      -1.191  11.181  -2.832  1.00  0.00     0.000 C 
BRANCH   2   3
ATOM      3  C   UNL     1      -1.397  11.413  -1.321  1.00  0.00     0.000 C 
BRANCH   3   4
ATOM      4  C   UNL     1      -0.660  12.651  -0.780  1.00  0.00     0.000 C 
BRANCH   4   5
ATOM      5  C   UNL     1      -0.763  13.863  -1.720  1.00  0.00     0.000 C 
BRANCH   5   6
ATOM      6  C   UNL     1       0.069  15.061  -1.230  1.00  0.00     0.000 C 
BRANCH   6   7
ATOM      7  C   UNL     1       0.351  16.082  -2.346  1.00  0.00     0.006 C 
BRANCH   7   8
ATOM      8  C   UNL     1       1.829  16.092  -2.761  1.00  0.00     0.053 C 
BRANCH   8   9
ATOM      9  C   UNL     1       1.991  15.968  -4.245  1.00  0.00     0.041 C 
ATOM     10  O   UNL     1       0.982  15.833  -4.984  1.00  0.00    -0.550 OA
ATOM     11  O   UNL     1       3.262  15.970  -4.808  1.00  0.00    -0.550 OA
ENDBRANCH   8   9
ENDBRANCH   7   8
ENDBRANCH   6   7
ENDBRANCH   5   6
ENDBRANCH   4   5
ENDBRANCH   3   4
ENDBRANCH   2   3
ENDBRANCH   1   2
BRANCH   1  12
ATOM     12  C   UNL     1       0.134   9.702  -4.403  1.00  0.00     0.000 C 
BRANCH  12  13
ATOM     13  C   UNL     1       0.510   8.257  -4.761  1.00  0.00    -0.000 C 
BRANCH  13  14
ATOM     14  C   UNL     1       1.152   7.503  -3.585  1.00  0.00    -0.000 C 
BRANCH  14  15
ATOM     15  C   UNL     1       2.678   7.673  -3.536  1.00  0.00    -0.000 C 
BRANCH  15  16
ATOM     16  C   UNL     1       3.290   6.809  -2.427  1.00  0.00    -0.000 C 
BRANCH  16  17
ATOM     17  C   UNL     1       4.643   7.376  -1.968  1.00  0.00    -0.000 C 
BRANCH  17  18
ATOM     18  C   UNL     1       5.831   6.712  -2.697  1.00  0.00    -0.000 C 
BRANCH  18  19
ATOM     19  C   UNL     1       5.410   5.610  -3.682  1.00  0.00    -0.003 C 
ATOM     20  C   UNL     1       6.233   4.332  -3.538  1.00  0.00     0.004 C 
ENDBRANCH  18  19
ENDBRANCH  17  18
ENDBRANCH  16  17
ENDBRANCH  15  16
ENDBRANCH  14  15
ENDBRANCH  13  14
ENDBRANCH  12  13
ENDBRANCH   1  12
TORSDOF 16
ENDMDL
