MODEL 1
REMARK VINA RESULT:    -2.942      0.000      0.000
REMARK INTER + INTRA:         -10.389
REMARK INTER:                  -7.414
REMARK INTRA:                  -2.975
REMARK UNBOUND:                -2.975
REMARK SMILES CCCCCCCCCCCCCCCCCCCCCCCCCCCC(=O)[O-]
REMARK SMILES IDX 15 1 16 2 17 3 18 4 19 5 20 6 21 7 22 8 23 9 24 10 25 11
REMARK SMILES IDX 26 12 27 13 28 14 29 15 30 16 14 17 13 18 12 19 11 20 10 21
REMARK SMILES IDX 9 22 8 23 7 24 6 25 5 26 4 27 3 28 2 29 1 30
REMARK H PARENT
REMARK Flexibility Score: inf
ROOT
ATOM      1  C   UNL     1     -46.473  27.904   3.196  1.00  0.00     0.000 C 
ENDROOT
BRANCH   1   2
ATOM      2  C   UNL     1     -47.125  27.179   4.386  1.00  0.00     0.000 C 
BRANCH   2   3
ATOM      3  C   UNL     1     -47.096  28.018   5.682  1.00  0.00     0.000 C 
BRANCH   3   4
ATOM      4  C   UNL     1     -46.567  27.265   6.917  1.00  0.00     0.000 C 
BRANCH   4   5
ATOM      5  C   UNL     1     -46.991  27.839   8.282  1.00  0.00     0.000 C 
BRANCH   5   6
ATOM      6  C   UNL     1     -45.851  28.444   9.125  1.00  0.00     0.000 C 
BRANCH   6   7
ATOM      7  C   UNL     1     -44.455  28.105   8.587  1.00  0.00     0.000 C 
BRANCH   7   8
ATOM      8  C   UNL     1     -43.622  29.382   8.402  1.00  0.00     0.000 C 
BRANCH   8   9
ATOM      9  C   UNL     1     -42.471  29.205   7.397  1.00  0.00     0.000 C 
BRANCH   9  10
ATOM     10  C   UNL     1     -42.873  28.558   6.055  1.00  0.00     0.000 C 
BRANCH  10  11
ATOM     11  C   UNL     1     -43.055  29.542   4.886  1.00  0.00     0.000 C 
BRANCH  11  12
ATOM     12  C   UNL     1     -42.318  29.097   3.610  1.00  0.00     0.006 C 
BRANCH  12  13
ATOM     13  C   UNL     1     -43.227  29.127   2.375  1.00  0.00     0.053 C 
BRANCH  13  14
ATOM     14  C   UNL     1     -43.094  27.878   1.560  1.00  0.00     0.041 C 
ATOM     15  O   UNL     1     -42.514  27.909   0.442  1.00  0.00    -0.550 OA
ATOM     16  O   UNL     1     -43.641  26.687   2.017  1.00  0.00    -0.550 OA
ENDBRANCH  13  14
ENDBRANCH  12  13
ENDBRANCH  11  12
ENDBRANCH  10  11
ENDBRANCH   9  10
ENDBRANCH   8   9
ENDBRANCH   7   8
ENDBRANCH   6   7
ENDBRANCH   5   6
ENDBRANCH   4   5
ENDBRANCH   3   4
ENDBRANCH   2   3
ENDBRANCH   1   2
BRANCH   1  17
ATOM     17  C   UNL     1     -46.643  29.433   3.251  1.00  0.00     0.000 C 
BRANCH  17  18
ATOM     18  C   UNL     1     -47.125  30.091   1.940  1.00  0.00     0.000 C 
BRANCH  18  19
ATOM     19  C   UNL     1     -46.096  30.115   0.794  1.00  0.00     0.000 C 
BRANCH  19  20
ATOM     20  C   UNL     1     -46.453  29.254  -0.434  1.00  0.00     0.000 C 
BRANCH  20  21
ATOM     21  C   UNL     1     -47.118  27.905  -0.086  1.00  0.00     0.000 C 
BRANCH  21  22
ATOM     22  C   UNL     1     -46.189  26.705  -0.338  1.00  0.00    -0.000 C 
BRANCH  22  23
ATOM     23  C   UNL     1     -45.342  26.874  -1.611  1.00  0.00    -0.000 C 
BRANCH  23  24
ATOM     24  C   UNL     1     -45.731  25.872  -2.714  1.00  0.00    -0.000 C 
BRANCH  24  25
ATOM     25  C   UNL     1     -46.247  26.570  -3.983  1.00  0.00    -0.000 C 
BRANCH  25  26
ATOM     26  C   UNL     1     -46.428  28.085  -3.787  1.00  0.00    -0.000 C 
BRANCH  26  27
ATOM     27  C   UNL     1     -46.645  28.838  -5.113  1.00  0.00    -0.000 C 
BRANCH  27  28
ATOM     28  C   UNL     1     -46.265  28.050  -6.380  1.00  0.00    -0.000 C 
BRANCH  28  29
ATOM     29  C   UNL     1     -45.943  28.958  -7.574  1.00  0.00    -0.003 C 
ATOM     30  C   UNL     1     -45.018  30.099  -7.162  1.00  0.00     0.004 C 
ENDBRANCH  28  29
ENDBRANCH  27  28
ENDBRANCH  26  27
ENDBRANCH  25  26
ENDBRANCH  24  25
ENDBRANCH  23  24
ENDBRANCH  22  23
ENDBRANCH  21  22
ENDBRANCH  20  21
ENDBRANCH  19  20
ENDBRANCH  18  19
ENDBRANCH  17  18
ENDBRANCH   1  17
TORSDOF 26
ENDMDL
MODEL 2
REMARK VINA RESULT:    -2.677      2.905      9.780
REMARK INTER + INTRA:          -9.721
REMARK INTER:                  -7.495
REMARK INTRA:                  -2.227
REMARK UNBOUND:                -2.975
REMARK SMILES CCCCCCCCCCCCCCCCCCCCCCCCCCCC(=O)[O-]
REMARK SMILES IDX 15 1 16 2 17 3 18 4 19 5 20 6 21 7 22 8 23 9 24 10 25 11
REMARK SMILES IDX 26 12 27 13 28 14 29 15 30 16 14 17 13 18 12 19 11 20 10 21
REMARK SMILES IDX 9 22 8 23 7 24 6 25 5 26 4 27 3 28 2 29 1 30
REMARK H PARENT
REMARK Flexibility Score: inf
ROOT
ATOM      1  C   UNL     1     -45.858  27.990   1.197  1.00  0.00     0.000 C 
ENDROOT
BRANCH   1   2
ATOM      2  C   UNL     1     -44.460  27.848   1.821  1.00  0.00     0.000 C 
BRANCH   2   3
ATOM      3  C   UNL     1     -43.452  27.162   0.873  1.00  0.00     0.000 C 
BRANCH   3   4
ATOM      4  C   UNL     1     -42.997  28.035  -0.313  1.00  0.00     0.000 C 
BRANCH   4   5
ATOM      5  C   UNL     1     -43.271  29.544  -0.176  1.00  0.00     0.000 C 
BRANCH   5   6
ATOM      6  C   UNL     1     -44.277  30.125  -1.189  1.00  0.00     0.000 C 
BRANCH   6   7
ATOM      7  C   UNL     1     -45.287  29.090  -1.701  1.00  0.00     0.000 C 
BRANCH   7   8
ATOM      8  C   UNL     1     -46.670  29.732  -1.888  1.00  0.00     0.000 C 
BRANCH   8   9
ATOM      9  C   UNL     1     -46.957  30.121  -3.349  1.00  0.00     0.000 C 
BRANCH   9  10
ATOM     10  C   UNL     1     -45.777  29.913  -4.320  1.00  0.00     0.000 C 
BRANCH  10  11
ATOM     11  C   UNL     1     -46.149  29.940  -5.813  1.00  0.00     0.000 C 
BRANCH  11  12
ATOM     12  C   UNL     1     -45.678  28.686  -6.570  1.00  0.00     0.006 C 
BRANCH  12  13
ATOM     13  C   UNL     1     -46.851  27.864  -7.118  1.00  0.00     0.053 C 
BRANCH  13  14
ATOM     14  C   UNL     1     -46.379  26.714  -7.954  1.00  0.00     0.041 C 
ATOM     15  O   UNL     1     -45.578  25.869  -7.475  1.00  0.00    -0.550 OA
ATOM     16  O   UNL     1     -46.796  26.595  -9.273  1.00  0.00    -0.550 OA
ENDBRANCH  13  14
ENDBRANCH  12  13
ENDBRANCH  11  12
ENDBRANCH  10  11
ENDBRANCH   9  10
ENDBRANCH   8   9
ENDBRANCH   7   8
ENDBRANCH   6   7
ENDBRANCH   5   6
ENDBRANCH   4   5
ENDBRANCH   3   4
ENDBRANCH   2   3
ENDBRANCH   1   2
BRANCH   1  17
ATOM     17  C   UNL     1     -46.551  29.317   1.558  1.00  0.00     0.000 C 
BRANCH  17  18
ATOM     18  C   UNL     1     -46.936  29.478   3.044  1.00  0.00     0.000 C 
BRANCH  18  19
ATOM     19  C   UNL     1     -47.059  28.166   3.842  1.00  0.00     0.000 C 
BRANCH  19  20
ATOM     20  C   UNL     1     -46.459  28.196   5.262  1.00  0.00     0.000 C 
BRANCH  20  21
ATOM     21  C   UNL     1     -47.125  29.220   6.206  1.00  0.00     0.000 C 
BRANCH  21  22
ATOM     22  C   UNL     1     -46.102  30.125   6.914  1.00  0.00    -0.000 C 
BRANCH  22  23
ATOM     23  C   UNL     1     -45.887  29.730   8.385  1.00  0.00    -0.000 C 
BRANCH  23  24
ATOM     24  C   UNL     1     -46.534  28.376   8.732  1.00  0.00    -0.000 C 
BRANCH  24  25
ATOM     25  C   UNL     1     -45.498  27.246   8.848  1.00  0.00    -0.000 C 
BRANCH  25  26
ATOM     26  C   UNL     1     -44.056  27.776   8.918  1.00  0.00    -0.000 C 
BRANCH  26  27
ATOM     27  C   UNL     1     -43.241  27.462   7.650  1.00  0.00    -0.000 C 
BRANCH  27  28
ATOM     28  C   UNL     1     -42.904  28.681   6.773  1.00  0.00    -0.000 C 
BRANCH  28  29
ATOM     29  C   UNL     1     -42.976  28.374   5.271  1.00  0.00    -0.003 C 
ATOM     30  C   UNL     1     -43.242  29.642   4.464  1.00  0.00     0.004 C 
ENDBRANCH  28  29
ENDBRANCH  27  28
ENDBRANCH  26  27
ENDBRANCH  25  26
ENDBRANCH  24  25
ENDBRANCH  23  24
ENDBRANCH  22  23
ENDBRANCH  21  22
ENDBRANCH  20  21
ENDBRANCH  19  20
ENDBRANCH  18  19
ENDBRANCH  17  18
ENDBRANCH   1  17
TORSDOF 26
ENDMDL
MODEL 3
REMARK VINA RESULT:    -2.220      2.493      9.404
REMARK INTER + INTRA:          -8.569
REMARK INTER:                  -6.189
REMARK INTRA:                  -2.380
REMARK UNBOUND:                -2.975
REMARK SMILES CCCCCCCCCCCCCCCCCCCCCCCCCCCC(=O)[O-]
REMARK SMILES IDX 15 1 16 2 17 3 18 4 19 5 20 6 21 7 22 8 23 9 24 10 25 11
REMARK SMILES IDX 26 12 27 13 28 14 29 15 30 16 14 17 13 18 12 19 11 20 10 21
REMARK SMILES IDX 9 22 8 23 7 24 6 25 5 26 4 27 3 28 2 29 1 30
REMARK H PARENT
REMARK Flexibility Score: inf
ROOT
ATOM      1  C   UNL     1     -43.041  27.157   2.564  1.00  0.00     0.000 C 
ENDROOT
BRANCH   1   2
ATOM      2  C   UNL     1     -42.843  26.907   1.059  1.00  0.00     0.000 C 
BRANCH   2   3
ATOM      3  C   UNL     1     -42.065  28.046   0.364  1.00  0.00     0.000 C 
BRANCH   3   4
ATOM      4  C   UNL     1     -42.955  29.126  -0.280  1.00  0.00     0.000 C 
BRANCH   4   5
ATOM      5  C   UNL     1     -44.385  29.238   0.283  1.00  0.00     0.000 C 
BRANCH   5   6
ATOM      6  C   UNL     1     -45.513  29.138  -0.762  1.00  0.00     0.000 C 
BRANCH   6   7
ATOM      7  C   UNL     1     -46.413  27.911  -0.567  1.00  0.00     0.000 C 
BRANCH   7   8
ATOM      8  C   UNL     1     -45.821  26.688  -1.283  1.00  0.00     0.000 C 
BRANCH   8   9
ATOM      9  C   UNL     1     -46.728  26.155  -2.405  1.00  0.00     0.000 C 
BRANCH   9  10
ATOM     10  C   UNL     1     -46.139  26.267  -3.826  1.00  0.00     0.000 C 
BRANCH  10  11
ATOM     11  C   UNL     1     -46.893  27.218  -4.772  1.00  0.00     0.000 C 
BRANCH  11  12
ATOM     12  C   UNL     1     -47.049  28.636  -4.194  1.00  0.00     0.006 C 
BRANCH  12  13
ATOM     13  C   UNL     1     -46.731  29.722  -5.229  1.00  0.00     0.053 C 
BRANCH  13  14
ATOM     14  C   UNL     1     -46.296  29.132  -6.535  1.00  0.00     0.041 C 
ATOM     15  O   UNL     1     -47.124  28.989  -7.473  1.00  0.00    -0.550 OA
ATOM     16  O   UNL     1     -44.985  28.709  -6.706  1.00  0.00    -0.550 OA
ENDBRANCH  13  14
ENDBRANCH  12  13
ENDBRANCH  11  12
ENDBRANCH  10  11
ENDBRANCH   9  10
ENDBRANCH   8   9
ENDBRANCH   7   8
ENDBRANCH   6   7
ENDBRANCH   5   6
ENDBRANCH   4   5
ENDBRANCH   3   4
ENDBRANCH   2   3
ENDBRANCH   1   2
BRANCH   1  17
ATOM     17  C   UNL     1     -44.243  26.395   3.151  1.00  0.00     0.000 C 
BRANCH  17  18
ATOM     18  C   UNL     1     -45.343  27.279   3.777  1.00  0.00     0.000 C 
BRANCH  18  19
ATOM     19  C   UNL     1     -45.549  28.652   3.110  1.00  0.00     0.000 C 
BRANCH  19  20
ATOM     20  C   UNL     1     -46.359  29.673   3.933  1.00  0.00     0.000 C 
BRANCH  20  21
ATOM     21  C   UNL     1     -46.010  29.690   5.436  1.00  0.00     0.000 C 
BRANCH  21  22
ATOM     22  C   UNL     1     -47.125  29.089   6.310  1.00  0.00    -0.000 C 
BRANCH  22  23
ATOM     23  C   UNL     1     -47.021  27.558   6.424  1.00  0.00    -0.000 C 
BRANCH  23  24
ATOM     24  C   UNL     1     -45.765  27.110   7.196  1.00  0.00    -0.000 C 
BRANCH  24  25
ATOM     25  C   UNL     1     -45.798  27.545   8.670  1.00  0.00    -0.000 C 
BRANCH  25  26
ATOM     26  C   UNL     1     -44.472  28.179   9.125  1.00  0.00    -0.000 C 
BRANCH  26  27
ATOM     27  C   UNL     1     -43.753  28.938   7.995  1.00  0.00    -0.000 C 
BRANCH  27  28
ATOM     28  C   UNL     1     -42.819  28.079   7.124  1.00  0.00    -0.000 C 
BRANCH  28  29
ATOM     29  C   UNL     1     -42.668  28.620   5.696  1.00  0.00    -0.003 C 
ATOM     30  C   UNL     1     -42.414  30.125   5.703  1.00  0.00     0.004 C 
ENDBRANCH  28  29
ENDBRANCH  27  28
ENDBRANCH  26  27
ENDBRANCH  25  26
ENDBRANCH  24  25
ENDBRANCH  23  24
ENDBRANCH  22  23
ENDBRANCH  21  22
ENDBRANCH  20  21
ENDBRANCH  19  20
ENDBRANCH  18  19
ENDBRANCH  17  18
ENDBRANCH   1  17
TORSDOF 26
ENDMDL
MODEL 4
REMARK VINA RESULT:    -2.101      2.349      4.392
REMARK INTER + INTRA:          -8.270
REMARK INTER:                  -6.843
REMARK INTRA:                  -1.426
REMARK UNBOUND:                -2.975
REMARK SMILES CCCCCCCCCCCCCCCCCCCCCCCCCCCC(=O)[O-]
REMARK SMILES IDX 15 1 16 2 17 3 18 4 19 5 20 6 21 7 22 8 23 9 24 10 25 11
REMARK SMILES IDX 26 12 27 13 28 14 29 15 30 16 14 17 13 18 12 19 11 20 10 21
REMARK SMILES IDX 9 22 8 23 7 24 6 25 5 26 4 27 3 28 2 29 1 30
REMARK H PARENT
REMARK Flexibility Score: inf
ROOT
ATOM      1  C   UNL     1     -43.312  27.237   0.499  1.00  0.00     0.000 C 
ENDROOT
BRANCH   1   2
ATOM      2  C   UNL     1     -42.625  27.850   1.732  1.00  0.00     0.000 C 
BRANCH   2   3
ATOM      3  C   UNL     1     -42.688  29.392   1.743  1.00  0.00     0.000 C 
BRANCH   3   4
ATOM      4  C   UNL     1     -43.347  29.995   2.998  1.00  0.00     0.000 C 
BRANCH   4   5
ATOM      5  C   UNL     1     -44.215  29.029   3.826  1.00  0.00     0.000 C 
BRANCH   5   6
ATOM      6  C   UNL     1     -45.702  29.418   3.945  1.00  0.00     0.000 C 
BRANCH   6   7
ATOM      7  C   UNL     1     -46.482  28.538   4.930  1.00  0.00     0.000 C 
BRANCH   7   8
ATOM      8  C   UNL     1     -46.788  29.312   6.221  1.00  0.00     0.000 C 
BRANCH   8   9
ATOM      9  C   UNL     1     -47.125  28.390   7.406  1.00  0.00     0.000 C 
BRANCH   9  10
ATOM     10  C   UNL     1     -45.916  27.660   8.026  1.00  0.00     0.000 C 
BRANCH  10  11
ATOM     11  C   UNL     1     -44.550  28.320   7.762  1.00  0.00     0.000 C 
BRANCH  11  12
ATOM     12  C   UNL     1     -43.596  27.418   6.959  1.00  0.00     0.006 C 
BRANCH  12  13
ATOM     13  C   UNL     1     -42.123  27.717   7.262  1.00  0.00     0.053 C 
BRANCH  13  14
ATOM     14  C   UNL     1     -41.942  29.092   7.827  1.00  0.00     0.041 C 
ATOM     15  O   UNL     1     -42.226  30.105   7.133  1.00  0.00    -0.550 OA
ATOM     16  O   UNL     1     -41.427  29.258   9.105  1.00  0.00    -0.550 OA
ENDBRANCH  13  14
ENDBRANCH  12  13
ENDBRANCH  11  12
ENDBRANCH  10  11
ENDBRANCH   9  10
ENDBRANCH   8   9
ENDBRANCH   7   8
ENDBRANCH   6   7
ENDBRANCH   5   6
ENDBRANCH   4   5
ENDBRANCH   3   4
ENDBRANCH   2   3
ENDBRANCH   1   2
BRANCH   1  17
ATOM     17  C   UNL     1     -44.703  27.835   0.220  1.00  0.00     0.000 C 
BRANCH  17  18
ATOM     18  C   UNL     1     -45.849  27.275   1.089  1.00  0.00     0.000 C 
BRANCH  18  19
ATOM     19  C   UNL     1     -47.103  28.164   1.184  1.00  0.00     0.000 C 
BRANCH  19  20
ATOM     20  C   UNL     1     -46.849  29.680   1.082  1.00  0.00     0.000 C 
BRANCH  20  21
ATOM     21  C   UNL     1     -46.217  30.125  -0.255  1.00  0.00     0.000 C 
BRANCH  21  22
ATOM     22  C   UNL     1     -47.125  29.835  -1.463  1.00  0.00    -0.000 C 
BRANCH  22  23
ATOM     23  C   UNL     1     -46.378  29.957  -2.802  1.00  0.00    -0.000 C 
BRANCH  23  24
ATOM     24  C   UNL     1     -47.106  29.234  -3.950  1.00  0.00    -0.000 C 
BRANCH  24  25
ATOM     25  C   UNL     1     -46.282  28.070  -4.524  1.00  0.00    -0.000 C 
BRANCH  25  26
ATOM     26  C   UNL     1     -45.675  28.401  -5.898  1.00  0.00    -0.000 C 
BRANCH  26  27
ATOM     27  C   UNL     1     -45.553  27.168  -6.811  1.00  0.00    -0.000 C 
BRANCH  27  28
ATOM     28  C   UNL     1     -46.861  26.386  -7.029  1.00  0.00    -0.000 C 
BRANCH  28  29
ATOM     29  C   UNL     1     -46.925  25.698  -8.399  1.00  0.00    -0.003 C 
ATOM     30  C   UNL     1     -47.118  26.718  -9.517  1.00  0.00     0.004 C 
ENDBRANCH  28  29
ENDBRANCH  27  28
ENDBRANCH  26  27
ENDBRANCH  25  26
ENDBRANCH  24  25
ENDBRANCH  23  24
ENDBRANCH  22  23
ENDBRANCH  21  22
ENDBRANCH  20  21
ENDBRANCH  19  20
ENDBRANCH  18  19
ENDBRANCH  17  18
ENDBRANCH   1  17
TORSDOF 26
ENDMDL
MODEL 5
REMARK VINA RESULT:    -1.950      1.769      3.762
REMARK INTER + INTRA:          -7.888
REMARK INTER:                  -7.451
REMARK INTRA:                  -0.437
REMARK UNBOUND:                -2.975
REMARK SMILES CCCCCCCCCCCCCCCCCCCCCCCCCCCC(=O)[O-]
REMARK SMILES IDX 15 1 16 2 17 3 18 4 19 5 20 6 21 7 22 8 23 9 24 10 25 11
REMARK SMILES IDX 26 12 27 13 28 14 29 15 30 16 14 17 13 18 12 19 11 20 10 21
REMARK SMILES IDX 9 22 8 23 7 24 6 25 5 26 4 27 3 28 2 29 1 30
REMARK H PARENT
REMARK Flexibility Score: inf
ROOT
ATOM      1  C   UNL     1     -44.951  29.597   0.277  1.00  0.00     0.000 C 
ENDROOT
BRANCH   1   2
ATOM      2  C   UNL     1     -46.464  29.838   0.405  1.00  0.00     0.000 C 
BRANCH   2   3
ATOM      3  C   UNL     1     -47.107  28.998   1.529  1.00  0.00     0.000 C 
BRANCH   3   4
ATOM      4  C   UNL     1     -46.099  28.262   2.432  1.00  0.00     0.000 C 
BRANCH   4   5
ATOM      5  C   UNL     1     -46.511  28.108   3.908  1.00  0.00     0.000 C 
BRANCH   5   6
ATOM      6  C   UNL     1     -46.630  29.425   4.698  1.00  0.00     0.000 C 
BRANCH   6   7
ATOM      7  C   UNL     1     -47.124  29.226   6.137  1.00  0.00     0.000 C 
BRANCH   7   8
ATOM      8  C   UNL     1     -46.358  28.082   6.818  1.00  0.00     0.000 C 
BRANCH   8   9
ATOM      9  C   UNL     1     -46.331  28.209   8.351  1.00  0.00     0.000 C 
BRANCH   9  10
ATOM     10  C   UNL     1     -45.477  29.374   8.892  1.00  0.00     0.000 C 
BRANCH  10  11
ATOM     11  C   UNL     1     -44.470  29.965   7.889  1.00  0.00     0.000 C 
BRANCH  11  12
ATOM     12  C   UNL     1     -43.011  29.842   8.364  1.00  0.00     0.006 C 
BRANCH  12  13
ATOM     13  C   UNL     1     -42.385  28.497   7.974  1.00  0.00     0.053 C 
BRANCH  13  14
ATOM     14  C   UNL     1     -42.654  28.156   6.541  1.00  0.00     0.041 C 
ATOM     15  O   UNL     1     -42.442  29.006   5.636  1.00  0.00    -0.550 OA
ATOM     16  O   UNL     1     -43.169  26.911   6.206  1.00  0.00    -0.550 OA
ENDBRANCH  13  14
ENDBRANCH  12  13
ENDBRANCH  11  12
ENDBRANCH  10  11
ENDBRANCH   9  10
ENDBRANCH   8   9
ENDBRANCH   7   8
ENDBRANCH   6   7
ENDBRANCH   5   6
ENDBRANCH   4   5
ENDBRANCH   3   4
ENDBRANCH   2   3
ENDBRANCH   1   2
BRANCH   1  17
ATOM     17  C   UNL     1     -44.149  30.124   1.481  1.00  0.00     0.000 C 
BRANCH  17  18
ATOM     18  C   UNL     1     -42.685  29.642   1.562  1.00  0.00     0.000 C 
BRANCH  18  19
ATOM     19  C   UNL     1     -42.131  28.989   0.282  1.00  0.00     0.000 C 
BRANCH  19  20
ATOM     20  C   UNL     1     -42.215  27.450   0.235  1.00  0.00     0.000 C 
BRANCH  20  21
ATOM     21  C   UNL     1     -43.545  26.875   0.767  1.00  0.00     0.000 C 
BRANCH  21  22
ATOM     22  C   UNL     1     -44.421  26.280  -0.348  1.00  0.00    -0.000 C 
BRANCH  22  23
ATOM     23  C   UNL     1     -44.985  27.357  -1.291  1.00  0.00    -0.000 C 
BRANCH  23  24
ATOM     24  C   UNL     1     -46.261  26.894  -2.017  1.00  0.00    -0.000 C 
BRANCH  24  25
ATOM     25  C   UNL     1     -47.079  28.071  -2.572  1.00  0.00    -0.000 C 
BRANCH  25  26
ATOM     26  C   UNL     1     -46.400  28.740  -3.779  1.00  0.00    -0.000 C 
BRANCH  26  27
ATOM     27  C   UNL     1     -46.341  27.825  -5.016  1.00  0.00    -0.000 C 
BRANCH  27  28
ATOM     28  C   UNL     1     -46.392  28.555  -6.370  1.00  0.00    -0.000 C 
BRANCH  28  29
ATOM     29  C   UNL     1     -46.168  27.617  -7.564  1.00  0.00    -0.003 C 
ATOM     30  C   UNL     1     -45.218  26.480  -7.197  1.00  0.00     0.004 C 
ENDBRANCH  28  29
ENDBRANCH  27  28
ENDBRANCH  26  27
ENDBRANCH  25  26
ENDBRANCH  24  25
ENDBRANCH  23  24
ENDBRANCH  22  23
ENDBRANCH  21  22
ENDBRANCH  20  21
ENDBRANCH  19  20
ENDBRANCH  18  19
ENDBRANCH  17  18
ENDBRANCH   1  17
TORSDOF 26
ENDMDL
MODEL 6
REMARK VINA RESULT:    -1.808      2.185      4.299
REMARK INTER + INTRA:          -7.531
REMARK INTER:                  -6.281
REMARK INTRA:                  -1.251
REMARK UNBOUND:                -2.975
REMARK SMILES CCCCCCCCCCCCCCCCCCCCCCCCCCCC(=O)[O-]
REMARK SMILES IDX 15 1 16 2 17 3 18 4 19 5 20 6 21 7 22 8 23 9 24 10 25 11
REMARK SMILES IDX 26 12 27 13 28 14 29 15 30 16 14 17 13 18 12 19 11 20 10 21
REMARK SMILES IDX 9 22 8 23 7 24 6 25 5 26 4 27 3 28 2 29 1 30
REMARK H PARENT
REMARK Flexibility Score: inf
ROOT
ATOM      1  C   UNL     1     -44.751  29.053   1.099  1.00  0.00     0.000 C 
ENDROOT
BRANCH   1   2
ATOM      2  C   UNL     1     -46.247  28.792   1.345  1.00  0.00     0.000 C 
BRANCH   2   3
ATOM      3  C   UNL     1     -46.934  29.944   2.109  1.00  0.00     0.000 C 
BRANCH   3   4
ATOM      4  C   UNL     1     -46.543  30.046   3.596  1.00  0.00     0.000 C 
BRANCH   4   5
ATOM      5  C   UNL     1     -45.032  30.100   3.888  1.00  0.00     0.000 C 
BRANCH   5   6
ATOM      6  C   UNL     1     -44.635  29.840   5.354  1.00  0.00     0.000 C 
BRANCH   6   7
ATOM      7  C   UNL     1     -43.374  28.979   5.497  1.00  0.00     0.000 C 
BRANCH   7   8
ATOM      8  C   UNL     1     -42.353  29.663   6.419  1.00  0.00     0.000 C 
BRANCH   8   9
ATOM      9  C   UNL     1     -42.945  30.048   7.786  1.00  0.00     0.000 C 
BRANCH   9  10
ATOM     10  C   UNL     1     -43.127  28.873   8.769  1.00  0.00     0.000 C 
BRANCH  10  11
ATOM     11  C   UNL     1     -43.738  27.600   8.158  1.00  0.00     0.000 C 
BRANCH  11  12
ATOM     12  C   UNL     1     -44.684  26.866   9.125  1.00  0.00     0.006 C 
BRANCH  12  13
ATOM     13  C   UNL     1     -46.125  27.384   9.031  1.00  0.00     0.053 C 
BRANCH  13  14
ATOM     14  C   UNL     1     -46.392  28.041   7.712  1.00  0.00     0.041 C 
ATOM     15  O   UNL     1     -46.613  29.280   7.654  1.00  0.00    -0.550 OA
ATOM     16  O   UNL     1     -46.431  27.282   6.550  1.00  0.00    -0.550 OA
ENDBRANCH  13  14
ENDBRANCH  12  13
ENDBRANCH  11  12
ENDBRANCH  10  11
ENDBRANCH   9  10
ENDBRANCH   8   9
ENDBRANCH   7   8
ENDBRANCH   6   7
ENDBRANCH   5   6
ENDBRANCH   4   5
ENDBRANCH   3   4
ENDBRANCH   2   3
ENDBRANCH   1   2
BRANCH   1  17
ATOM     17  C   UNL     1     -43.951  27.769   0.813  1.00  0.00     0.000 C 
BRANCH  17  18
ATOM     18  C   UNL     1     -43.830  27.384  -0.677  1.00  0.00     0.000 C 
BRANCH  18  19
ATOM     19  C   UNL     1     -44.763  26.252  -1.146  1.00  0.00     0.000 C 
BRANCH  19  20
ATOM     20  C   UNL     1     -45.327  26.408  -2.572  1.00  0.00     0.000 C 
BRANCH  20  21
ATOM     21  C   UNL     1     -46.791  26.896  -2.622  1.00  0.00     0.000 C 
BRANCH  21  22
ATOM     22  C   UNL     1     -46.981  28.266  -1.949  1.00  0.00    -0.000 C 
BRANCH  22  23
ATOM     23  C   UNL     1     -46.113  29.362  -2.593  1.00  0.00    -0.000 C 
BRANCH  23  24
ATOM     24  C   UNL     1     -46.633  29.785  -3.979  1.00  0.00    -0.000 C 
BRANCH  24  25
ATOM     25  C   UNL     1     -45.581  29.590  -5.083  1.00  0.00    -0.000 C 
BRANCH  25  26
ATOM     26  C   UNL     1     -46.144  29.869  -6.487  1.00  0.00    -0.000 C 
BRANCH  26  27
ATOM     27  C   UNL     1     -47.125  28.783  -6.965  1.00  0.00    -0.000 C 
BRANCH  27  28
ATOM     28  C   UNL     1     -46.557  27.806  -8.010  1.00  0.00    -0.000 C 
BRANCH  28  29
ATOM     29  C   UNL     1     -46.625  26.341  -7.556  1.00  0.00    -0.003 C 
ATOM     30  C   UNL     1     -45.944  26.153  -6.204  1.00  0.00     0.004 C 
ENDBRANCH  28  29
ENDBRANCH  27  28
ENDBRANCH  26  27
ENDBRANCH  25  26
ENDBRANCH  24  25
ENDBRANCH  23  24
ENDBRANCH  22  23
ENDBRANCH  21  22
ENDBRANCH  20  21
ENDBRANCH  19  20
ENDBRANCH  18  19
ENDBRANCH  17  18
ENDBRANCH   1  17
TORSDOF 26
ENDMDL
MODEL 7
REMARK VINA RESULT:    -1.647      2.843      9.896
REMARK INTER + INTRA:          -7.124
REMARK INTER:                  -6.509
REMARK INTRA:                  -0.615
REMARK UNBOUND:                -2.975
REMARK SMILES CCCCCCCCCCCCCCCCCCCCCCCCCCCC(=O)[O-]
REMARK SMILES IDX 15 1 16 2 17 3 18 4 19 5 20 6 21 7 22 8 23 9 24 10 25 11
REMARK SMILES IDX 26 12 27 13 28 14 29 15 30 16 14 17 13 18 12 19 11 20 10 21
REMARK SMILES IDX 9 22 8 23 7 24 6 25 5 26 4 27 3 28 2 29 1 30
REMARK H PARENT
REMARK Flexibility Score: inf
ROOT
ATOM      1  C   UNL     1     -42.881  27.778   0.672  1.00  0.00     0.000 C 
ENDROOT
BRANCH   1   2
ATOM      2  C   UNL     1     -43.267  28.409  -0.677  1.00  0.00     0.000 C 
BRANCH   2   3
ATOM      3  C   UNL     1     -43.775  29.860  -0.531  1.00  0.00     0.000 C 
BRANCH   3   4
ATOM      4  C   UNL     1     -45.189  30.100  -1.096  1.00  0.00     0.000 C 
BRANCH   4   5
ATOM      5  C   UNL     1     -46.342  29.990  -0.081  1.00  0.00     0.000 C 
BRANCH   5   6
ATOM      6  C   UNL     1     -46.613  28.570   0.454  1.00  0.00     0.000 C 
BRANCH   6   7
ATOM      7  C   UNL     1     -46.491  27.483  -0.621  1.00  0.00     0.000 C 
BRANCH   7   8
ATOM      8  C   UNL     1     -47.059  27.981  -1.959  1.00  0.00     0.000 C 
BRANCH   8   9
ATOM      9  C   UNL     1     -46.215  27.539  -3.168  1.00  0.00     0.000 C 
BRANCH   9  10
ATOM     10  C   UNL     1     -46.801  26.362  -3.975  1.00  0.00     0.000 C 
BRANCH  10  11
ATOM     11  C   UNL     1     -46.684  26.497  -5.503  1.00  0.00     0.000 C 
BRANCH  11  12
ATOM     12  C   UNL     1     -46.919  27.935  -5.997  1.00  0.00     0.006 C 
BRANCH  12  13
ATOM     13  C   UNL     1     -45.615  28.628  -6.411  1.00  0.00     0.053 C 
BRANCH  13  14
ATOM     14  C   UNL     1     -45.766  29.367  -7.704  1.00  0.00     0.041 C 
ATOM     15  O   UNL     1     -44.843  30.116  -8.119  1.00  0.00    -0.550 OA
ATOM     16  O   UNL     1     -46.941  29.256  -8.436  1.00  0.00    -0.550 OA
ENDBRANCH  13  14
ENDBRANCH  12  13
ENDBRANCH  11  12
ENDBRANCH  10  11
ENDBRANCH   9  10
ENDBRANCH   8   9
ENDBRANCH   7   8
ENDBRANCH   6   7
ENDBRANCH   5   6
ENDBRANCH   4   5
ENDBRANCH   3   4
ENDBRANCH   2   3
ENDBRANCH   1   2
BRANCH   1  17
ATOM     17  C   UNL     1     -41.992  28.691   1.536  1.00  0.00     0.000 C 
BRANCH  17  18
ATOM     18  C   UNL     1     -42.749  29.667   2.461  1.00  0.00     0.000 C 
BRANCH  18  19
ATOM     19  C   UNL     1     -44.071  29.135   3.046  1.00  0.00     0.000 C 
BRANCH  19  20
ATOM     20  C   UNL     1     -44.702  30.002   4.153  1.00  0.00     0.000 C 
BRANCH  20  21
ATOM     21  C   UNL     1     -43.936  29.966   5.494  1.00  0.00     0.000 C 
BRANCH  21  22
ATOM     22  C   UNL     1     -43.091  28.692   5.659  1.00  0.00    -0.000 C 
BRANCH  22  23
ATOM     23  C   UNL     1     -43.709  27.702   6.661  1.00  0.00    -0.000 C 
BRANCH  23  24
ATOM     24  C   UNL     1     -43.026  27.758   8.040  1.00  0.00    -0.000 C 
BRANCH  24  25
ATOM     25  C   UNL     1     -43.523  28.936   8.892  1.00  0.00    -0.000 C 
BRANCH  25  26
ATOM     26  C   UNL     1     -44.788  29.590   8.310  1.00  0.00    -0.000 C 
BRANCH  26  27
ATOM     27  C   UNL     1     -46.084  29.064   8.954  1.00  0.00    -0.000 C 
BRANCH  27  28
ATOM     28  C   UNL     1     -47.125  28.509   7.965  1.00  0.00    -0.000 C 
BRANCH  28  29
ATOM     29  C   UNL     1     -46.621  27.281   7.194  1.00  0.00    -0.003 C 
ATOM     30  C   UNL     1     -46.879  27.428   5.698  1.00  0.00     0.004 C 
ENDBRANCH  28  29
ENDBRANCH  27  28
ENDBRANCH  26  27
ENDBRANCH  25  26
ENDBRANCH  24  25
ENDBRANCH  23  24
ENDBRANCH  22  23
ENDBRANCH  21  22
ENDBRANCH  20  21
ENDBRANCH  19  20
ENDBRANCH  18  19
ENDBRANCH  17  18
ENDBRANCH   1  17
TORSDOF 26
ENDMDL
MODEL 8
REMARK VINA RESULT:    -1.547      2.706     10.249
REMARK INTER + INTRA:          -6.873
REMARK INTER:                  -4.435
REMARK INTRA:                  -2.438
REMARK UNBOUND:                -2.975
REMARK SMILES CCCCCCCCCCCCCCCCCCCCCCCCCCCC(=O)[O-]
REMARK SMILES IDX 15 1 16 2 17 3 18 4 19 5 20 6 21 7 22 8 23 9 24 10 25 11
REMARK SMILES IDX 26 12 27 13 28 14 29 15 30 16 14 17 13 18 12 19 11 20 10 21
REMARK SMILES IDX 9 22 8 23 7 24 6 25 5 26 4 27 3 28 2 29 1 30
REMARK H PARENT
REMARK Flexibility Score: inf
ROOT
ATOM      1  C   UNL     1     -43.636  26.900   2.809  1.00  0.00     0.000 C 
ENDROOT
BRANCH   1   2
ATOM      2  C   UNL     1     -45.044  26.666   2.236  1.00  0.00     0.000 C 
BRANCH   2   3
ATOM      3  C   UNL     1     -45.321  27.513   0.975  1.00  0.00     0.000 C 
BRANCH   3   4
ATOM      4  C   UNL     1     -44.080  27.785   0.104  1.00  0.00     0.000 C 
BRANCH   4   5
ATOM      5  C   UNL     1     -44.303  27.711  -1.418  1.00  0.00     0.000 C 
BRANCH   5   6
ATOM      6  C   UNL     1     -45.338  26.667  -1.882  1.00  0.00     0.000 C 
BRANCH   6   7
ATOM      7  C   UNL     1     -46.287  27.195  -2.965  1.00  0.00     0.000 C 
BRANCH   7   8
ATOM      8  C   UNL     1     -47.125  28.365  -2.427  1.00  0.00     0.000 C 
BRANCH   8   9
ATOM      9  C   UNL     1     -46.967  29.647  -3.261  1.00  0.00     0.000 C 
BRANCH   9  10
ATOM     10  C   UNL     1     -45.602  29.803  -3.962  1.00  0.00     0.000 C 
BRANCH  10  11
ATOM     11  C   UNL     1     -45.672  30.017  -5.485  1.00  0.00     0.000 C 
BRANCH  11  12
ATOM     12  C   UNL     1     -46.458  28.910  -6.209  1.00  0.00     0.006 C 
BRANCH  12  13
ATOM     13  C   UNL     1     -45.580  28.121  -7.189  1.00  0.00     0.053 C 
BRANCH  13  14
ATOM     14  C   UNL     1     -45.885  26.656  -7.149  1.00  0.00     0.041 C 
ATOM     15  O   UNL     1     -45.583  25.972  -6.135  1.00  0.00    -0.550 OA
ATOM     16  O   UNL     1     -46.472  26.037  -8.244  1.00  0.00    -0.550 OA
ENDBRANCH  13  14
ENDBRANCH  12  13
ENDBRANCH  11  12
ENDBRANCH  10  11
ENDBRANCH   9  10
ENDBRANCH   8   9
ENDBRANCH   7   8
ENDBRANCH   6   7
ENDBRANCH   5   6
ENDBRANCH   4   5
ENDBRANCH   3   4
ENDBRANCH   2   3
ENDBRANCH   1   2
BRANCH   1  17
ATOM     17  C   UNL     1     -43.647  27.634   4.162  1.00  0.00     0.000 C 
BRANCH  17  18
ATOM     18  C   UNL     1     -44.183  29.081   4.124  1.00  0.00     0.000 C 
BRANCH  18  19
ATOM     19  C   UNL     1     -44.719  29.624   5.463  1.00  0.00     0.000 C 
BRANCH  19  20
ATOM     20  C   UNL     1     -46.177  30.124   5.438  1.00  0.00     0.000 C 
BRANCH  20  21
ATOM     21  C   UNL     1     -47.117  29.374   6.405  1.00  0.00     0.000 C 
BRANCH  21  22
ATOM     22  C   UNL     1     -46.932  29.811   7.868  1.00  0.00    -0.000 C 
BRANCH  22  23
ATOM     23  C   UNL     1     -47.032  28.631   8.851  1.00  0.00    -0.000 C 
BRANCH  23  24
ATOM     24  C   UNL     1     -46.508  27.316   8.246  1.00  0.00    -0.000 C 
BRANCH  24  25
ATOM     25  C   UNL     1     -45.315  26.746   9.031  1.00  0.00    -0.000 C 
BRANCH  25  26
ATOM     26  C   UNL     1     -44.141  27.737   9.117  1.00  0.00    -0.000 C 
BRANCH  26  27
ATOM     27  C   UNL     1     -43.243  27.712   7.867  1.00  0.00    -0.000 C 
BRANCH  27  28
ATOM     28  C   UNL     1     -42.618  29.065   7.486  1.00  0.00    -0.000 C 
BRANCH  28  29
ATOM     29  C   UNL     1     -42.339  29.958   8.702  1.00  0.00    -0.003 C 
ATOM     30  C   UNL     1     -40.850  29.990   9.030  1.00  0.00     0.004 C 
ENDBRANCH  28  29
ENDBRANCH  27  28
ENDBRANCH  26  27
ENDBRANCH  25  26
ENDBRANCH  24  25
ENDBRANCH  23  24
ENDBRANCH  22  23
ENDBRANCH  21  22
ENDBRANCH  20  21
ENDBRANCH  19  20
ENDBRANCH  18  19
ENDBRANCH  17  18
ENDBRANCH   1  17
TORSDOF 26
ENDMDL
