MODEL 1
REMARK VINA RESULT:    -6.052      0.000      0.000
REMARK INTER + INTRA:          -7.240
REMARK INTER:                  -7.113
REMARK INTRA:                  -0.126
REMARK UNBOUND:                -0.126
REMARK SMILES O=C([O-])C=Cc1ccc(O)c(O)c1
REMARK SMILES IDX 6 1 13 2 7 3 11 4 8 5 9 6 5 7 4 8 2 9 1 10 3 11 12 12 10 14
REMARK H PARENT 12 13 10 15
REMARK Flexibility Score: inf
ROOT
ATOM      1  C   UNL     1      72.884  41.425  -4.123  1.00  0.00    -0.022 A 
ATOM      2  C   UNL     1      73.740  41.190  -5.218  1.00  0.00     0.058 A 
ATOM      3  C   UNL     1      71.683  40.702  -4.035  1.00  0.00     0.012 A 
ATOM      4  C   UNL     1      73.409  40.231  -6.188  1.00  0.00     0.157 A 
ATOM      5  C   UNL     1      71.354  39.747  -5.000  1.00  0.00     0.051 A 
ATOM      6  C   UNL     1      72.216  39.507  -6.076  1.00  0.00     0.157 A 
ENDROOT
BRANCH   1   7
ATOM      7  C   UNL     1      73.182  42.435  -3.078  1.00  0.00     0.010 C 
ATOM      8  C   UNL     1      73.149  43.758  -3.291  1.00  0.00     0.025 C 
BRANCH   8   9
ATOM      9  C   UNL     1      73.462  44.733  -2.233  1.00  0.00     0.064 C 
ATOM     10  O   UNL     1      73.114  44.533  -1.038  1.00  0.00    -0.545 OA
ATOM     11  O   UNL     1      74.153  45.894  -2.556  1.00  0.00    -0.545 OA
ENDBRANCH   8   9
ENDBRANCH   1   7
BRANCH   4  12
ATOM     12  O   UNL     1      74.258  39.997  -7.267  1.00  0.00    -0.504 OA
ATOM     13  H   UNL     1      74.652  40.759  -7.807  1.00  0.00     0.293 HD
ENDBRANCH   4  12
BRANCH   6  14
ATOM     14  O   UNL     1      71.893  38.553  -7.040  1.00  0.00    -0.504 OA
ATOM     15  H   UNL     1      71.227  38.749  -7.778  1.00  0.00     0.293 HD
ENDBRANCH   6  14
TORSDOF 4
ENDMDL
MODEL 2
REMARK VINA RESULT:    -5.703      0.885      1.872
REMARK INTER + INTRA:          -6.830
REMARK INTER:                  -6.695
REMARK INTRA:                  -0.135
REMARK UNBOUND:                -0.126
REMARK SMILES O=C([O-])C=Cc1ccc(O)c(O)c1
REMARK SMILES IDX 6 1 13 2 7 3 11 4 8 5 9 6 5 7 4 8 2 9 1 10 3 11 12 12 10 14
REMARK H PARENT 12 13 10 15
REMARK Flexibility Score: inf
ROOT
ATOM      1  C   UNL     1      73.483  41.752  -4.489  1.00  0.00    -0.022 A 
ATOM      2  C   UNL     1      72.449  40.795  -4.526  1.00  0.00     0.058 A 
ATOM      3  C   UNL     1      74.436  41.759  -5.522  1.00  0.00     0.012 A 
ATOM      4  C   UNL     1      72.358  39.884  -5.589  1.00  0.00     0.157 A 
ATOM      5  C   UNL     1      74.345  40.853  -6.581  1.00  0.00     0.051 A 
ATOM      6  C   UNL     1      73.306  39.916  -6.619  1.00  0.00     0.157 A 
ENDROOT
BRANCH   1   7
ATOM      7  C   UNL     1      73.629  42.729  -3.382  1.00  0.00     0.010 C 
ATOM      8  C   UNL     1      73.544  44.057  -3.546  1.00  0.00     0.025 C 
BRANCH   8   9
ATOM      9  C   UNL     1      73.706  44.999  -2.426  1.00  0.00     0.064 C 
ATOM     10  O   UNL     1      73.275  44.723  -1.274  1.00  0.00    -0.545 OA
ATOM     11  O   UNL     1      74.342  46.214  -2.642  1.00  0.00    -0.545 OA
ENDBRANCH   8   9
ENDBRANCH   1   7
BRANCH   4  12
ATOM     12  O   UNL     1      71.333  38.941  -5.625  1.00  0.00    -0.504 OA
ATOM     13  H   UNL     1      70.609  38.917  -4.916  1.00  0.00     0.293 HD
ENDBRANCH   4  12
BRANCH   6  14
ATOM     14  O   UNL     1      73.210  39.010  -7.675  1.00  0.00    -0.504 OA
ATOM     15  H   UNL     1      73.199  39.321  -8.640  1.00  0.00     0.293 HD
ENDBRANCH   6  14
TORSDOF 4
ENDMDL
MODEL 3
REMARK VINA RESULT:    -5.444      1.517      5.928
REMARK INTER + INTRA:          -6.525
REMARK INTER:                  -6.373
REMARK INTRA:                  -0.152
REMARK UNBOUND:                -0.126
REMARK SMILES O=C([O-])C=Cc1ccc(O)c(O)c1
REMARK SMILES IDX 6 1 13 2 7 3 11 4 8 5 9 6 5 7 4 8 2 9 1 10 3 11 12 12 10 14
REMARK H PARENT 12 13 10 15
REMARK Flexibility Score: inf
ROOT
ATOM      1  C   UNL     1      73.994  42.959  -4.367  1.00  0.00    -0.022 A 
ATOM      2  C   UNL     1      74.384  44.289  -4.107  1.00  0.00     0.058 A 
ATOM      3  C   UNL     1      73.242  42.273  -3.400  1.00  0.00     0.012 A 
ATOM      4  C   UNL     1      74.004  44.922  -2.914  1.00  0.00     0.157 A 
ATOM      5  C   UNL     1      72.862  42.904  -2.213  1.00  0.00     0.051 A 
ATOM      6  C   UNL     1      73.240  44.229  -1.967  1.00  0.00     0.157 A 
ENDROOT
BRANCH   1   7
ATOM      7  C   UNL     1      74.379  42.242  -5.607  1.00  0.00     0.010 C 
ATOM      8  C   UNL     1      73.787  41.116  -6.029  1.00  0.00     0.025 C 
BRANCH   8   9
ATOM      9  C   UNL     1      74.203  40.423  -7.260  1.00  0.00     0.064 C 
ATOM     10  O   UNL     1      75.117  40.888  -7.994  1.00  0.00    -0.545 OA
ATOM     11  O   UNL     1      73.577  39.237  -7.622  1.00  0.00    -0.545 OA
ENDBRANCH   8   9
ENDBRANCH   1   7
BRANCH   4  12
ATOM     12  O   UNL     1      74.388  46.237  -2.660  1.00  0.00    -0.504 OA
ATOM     13  H   UNL     1      74.808  46.506  -1.777  1.00  0.00     0.293 HD
ENDBRANCH   4  12
BRANCH   6  14
ATOM     14  O   UNL     1      72.862  44.864  -0.785  1.00  0.00    -0.504 OA
ATOM     15  H   UNL     1      72.460  44.347  -0.011  1.00  0.00     0.293 HD
ENDBRANCH   6  14
TORSDOF 4
ENDMDL
MODEL 4
REMARK VINA RESULT:    -5.439      1.072      6.112
REMARK INTER + INTRA:          -6.520
REMARK INTER:                  -6.367
REMARK INTRA:                  -0.153
REMARK UNBOUND:                -0.126
REMARK SMILES O=C([O-])C=Cc1ccc(O)c(O)c1
REMARK SMILES IDX 6 1 13 2 7 3 11 4 8 5 9 6 5 7 4 8 2 9 1 10 3 11 12 12 10 14
REMARK H PARENT 12 13 10 15
REMARK Flexibility Score: inf
ROOT
ATOM      1  C   UNL     1      73.090  42.516  -3.477  1.00  0.00    -0.022 A 
ATOM      2  C   UNL     1      72.770  43.020  -2.200  1.00  0.00     0.058 A 
ATOM      3  C   UNL     1      73.900  43.287  -4.327  1.00  0.00     0.012 A 
ATOM      4  C   UNL     1      73.273  44.259  -1.778  1.00  0.00     0.157 A 
ATOM      5  C   UNL     1      74.403  44.521  -3.905  1.00  0.00     0.051 A 
ATOM      6  C   UNL     1      74.093  45.009  -2.630  1.00  0.00     0.157 A 
ENDROOT
BRANCH   1   7
ATOM      7  C   UNL     1      72.575  41.217  -3.976  1.00  0.00     0.010 C 
ATOM      8  C   UNL     1      72.697  40.806  -5.246  1.00  0.00     0.025 C 
BRANCH   8   9
ATOM      9  C   UNL     1      72.163  39.514  -5.709  1.00  0.00     0.064 C 
ATOM     10  O   UNL     1      72.417  39.079  -6.865  1.00  0.00    -0.545 OA
ATOM     11  O   UNL     1      71.363  38.762  -4.859  1.00  0.00    -0.545 OA
ENDBRANCH   8   9
ENDBRANCH   1   7
BRANCH   4  12
ATOM     12  O   UNL     1      72.958  44.755  -0.514  1.00  0.00    -0.504 OA
ATOM     13  H   UNL     1      72.097  44.499  -0.043  1.00  0.00     0.293 HD
ENDBRANCH   4  12
BRANCH   6  14
ATOM     14  O   UNL     1      74.594  46.238  -2.203  1.00  0.00    -0.504 OA
ATOM     15  H   UNL     1      74.013  47.069  -2.186  1.00  0.00     0.293 HD
ENDBRANCH   6  14
TORSDOF 4
ENDMDL
MODEL 5
REMARK VINA RESULT:    -5.288      1.122      2.095
REMARK INTER + INTRA:          -6.342
REMARK INTER:                  -6.207
REMARK INTRA:                  -0.134
REMARK UNBOUND:                -0.126
REMARK SMILES O=C([O-])C=Cc1ccc(O)c(O)c1
REMARK SMILES IDX 6 1 13 2 7 3 11 4 8 5 9 6 5 7 4 8 2 9 1 10 3 11 12 12 10 14
REMARK H PARENT 12 13 10 15
REMARK Flexibility Score: inf
ROOT
ATOM      1  C   UNL     1      73.077  41.891  -3.841  1.00  0.00    -0.022 A 
ATOM      2  C   UNL     1      72.208  40.847  -4.221  1.00  0.00     0.058 A 
ATOM      3  C   UNL     1      74.208  42.152  -4.632  1.00  0.00     0.012 A 
ATOM      4  C   UNL     1      72.456  40.102  -5.383  1.00  0.00     0.157 A 
ATOM      5  C   UNL     1      74.454  41.410  -5.790  1.00  0.00     0.051 A 
ATOM      6  C   UNL     1      73.579  40.385  -6.170  1.00  0.00     0.157 A 
ENDROOT
BRANCH   1   7
ATOM      7  C   UNL     1      72.865  42.701  -2.617  1.00  0.00     0.010 C 
ATOM      8  C   UNL     1      72.676  44.028  -2.626  1.00  0.00     0.025 C 
BRANCH   8   9
ATOM      9  C   UNL     1      72.480  44.803  -1.389  1.00  0.00     0.064 C 
ATOM     10  O   UNL     1      73.217  44.623  -0.382  1.00  0.00    -0.545 OA
ATOM     11  O   UNL     1      71.464  45.748  -1.329  1.00  0.00    -0.545 OA
ENDBRANCH   8   9
ENDBRANCH   1   7
BRANCH   4  12
ATOM     12  O   UNL     1      71.595  39.073  -5.759  1.00  0.00    -0.504 OA
ATOM     13  H   UNL     1      71.228  38.414  -5.082  1.00  0.00     0.293 HD
ENDBRANCH   4  12
BRANCH   6  14
ATOM     14  O   UNL     1      73.820  39.643  -7.325  1.00  0.00    -0.504 OA
ATOM     15  H   UNL     1      74.564  38.957  -7.368  1.00  0.00     0.293 HD
ENDBRANCH   6  14
TORSDOF 4
ENDMDL
MODEL 6
REMARK VINA RESULT:    -4.924      1.939      3.048
REMARK INTER + INTRA:          -5.914
REMARK INTER:                  -5.792
REMARK INTRA:                  -0.122
REMARK UNBOUND:                -0.126
REMARK SMILES O=C([O-])C=Cc1ccc(O)c(O)c1
REMARK SMILES IDX 6 1 13 2 7 3 11 4 8 5 9 6 5 7 4 8 2 9 1 10 3 11 12 12 10 14
REMARK H PARENT 12 13 10 15
REMARK Flexibility Score: inf
ROOT
ATOM      1  C   UNL     1      74.039  40.877  -6.648  1.00  0.00    -0.022 A 
ATOM      2  C   UNL     1      73.055  39.872  -6.562  1.00  0.00     0.058 A 
ATOM      3  C   UNL     1      74.807  40.973  -7.821  1.00  0.00     0.012 A 
ATOM      4  C   UNL     1      72.830  39.000  -7.638  1.00  0.00     0.157 A 
ATOM      5  C   UNL     1      74.582  40.106  -8.893  1.00  0.00     0.051 A 
ATOM      6  C   UNL     1      73.592  39.120  -8.806  1.00  0.00     0.157 A 
ENDROOT
BRANCH   1   7
ATOM      7  C   UNL     1      74.323  41.816  -5.535  1.00  0.00     0.010 C 
ATOM      8  C   UNL     1      73.431  42.138  -4.588  1.00  0.00     0.025 C 
BRANCH   8   9
ATOM      9  C   UNL     1      73.744  43.083  -3.503  1.00  0.00     0.064 C 
ATOM     10  O   UNL     1      73.399  42.849  -2.313  1.00  0.00    -0.545 OA
ATOM     11  O   UNL     1      74.430  44.255  -3.795  1.00  0.00    -0.545 OA
ENDBRANCH   8   9
ENDBRANCH   1   7
BRANCH   4  12
ATOM     12  O   UNL     1      71.854  38.009  -7.552  1.00  0.00    -0.504 OA
ATOM     13  H   UNL     1      71.920  37.257  -6.875  1.00  0.00     0.293 HD
ENDBRANCH   4  12
BRANCH   6  14
ATOM     14  O   UNL     1      73.363  38.253  -9.874  1.00  0.00    -0.504 OA
ATOM     15  H   UNL     1      73.324  37.249  -9.742  1.00  0.00     0.293 HD
ENDBRANCH   6  14
TORSDOF 4
ENDMDL
MODEL 7
REMARK VINA RESULT:    -4.879      1.908      5.947
REMARK INTER + INTRA:          -5.861
REMARK INTER:                  -5.728
REMARK INTRA:                  -0.133
REMARK UNBOUND:                -0.126
REMARK SMILES O=C([O-])C=Cc1ccc(O)c(O)c1
REMARK SMILES IDX 6 1 13 2 7 3 11 4 8 5 9 6 5 7 4 8 2 9 1 10 3 11 12 12 10 14
REMARK H PARENT 12 13 10 15
REMARK Flexibility Score: inf
ROOT
ATOM      1  C   UNL     1      74.110  41.390  -5.793  1.00  0.00    -0.022 A 
ATOM      2  C   UNL     1      74.644  42.613  -5.339  1.00  0.00     0.058 A 
ATOM      3  C   UNL     1      73.136  40.744  -5.014  1.00  0.00     0.012 A 
ATOM      4  C   UNL     1      74.190  43.186  -4.141  1.00  0.00     0.157 A 
ATOM      5  C   UNL     1      72.683  41.317  -3.822  1.00  0.00     0.051 A 
ATOM      6  C   UNL     1      73.207  42.539  -3.384  1.00  0.00     0.157 A 
ENDROOT
BRANCH   1   7
ATOM      7  C   UNL     1      74.563  40.737  -7.046  1.00  0.00     0.010 C 
ATOM      8  C   UNL     1      73.767  40.521  -8.103  1.00  0.00     0.025 C 
BRANCH   8   9
ATOM      9  C   UNL     1      74.249  39.858  -9.327  1.00  0.00     0.064 C 
ATOM     10  O   UNL     1      75.124  40.395 -10.058  1.00  0.00    -0.545 OA
ATOM     11  O   UNL     1      73.728  38.621  -9.684  1.00  0.00    -0.545 OA
ENDBRANCH   8   9
ENDBRANCH   1   7
BRANCH   4  12
ATOM     12  O   UNL     1      74.716  44.397  -3.695  1.00  0.00    -0.504 OA
ATOM     13  H   UNL     1      75.714  44.527  -3.567  1.00  0.00     0.293 HD
ENDBRANCH   4  12
BRANCH   6  14
ATOM     14  O   UNL     1      72.757  43.114  -2.197  1.00  0.00    -0.504 OA
ATOM     15  H   UNL     1      73.177  42.883  -1.304  1.00  0.00     0.293 HD
ENDBRANCH   6  14
TORSDOF 4
ENDMDL
MODEL 8
REMARK VINA RESULT:    -4.813     13.905     15.007
REMARK INTER + INTRA:          -5.784
REMARK INTER:                  -5.660
REMARK INTRA:                  -0.123
REMARK UNBOUND:                -0.126
REMARK SMILES O=C([O-])C=Cc1ccc(O)c(O)c1
REMARK SMILES IDX 6 1 13 2 7 3 11 4 8 5 9 6 5 7 4 8 2 9 1 10 3 11 12 12 10 14
REMARK H PARENT 12 13 10 15
REMARK Flexibility Score: inf
ROOT
ATOM      1  C   UNL     1      68.675  48.650   8.389  1.00  0.00    -0.022 A 
ATOM      2  C   UNL     1      68.524  47.663   7.393  1.00  0.00     0.058 A 
ATOM      3  C   UNL     1      67.537  49.087   9.087  1.00  0.00     0.012 A 
ATOM      4  C   UNL     1      67.263  47.110   7.124  1.00  0.00     0.157 A 
ATOM      5  C   UNL     1      66.282  48.535   8.820  1.00  0.00     0.051 A 
ATOM      6  C   UNL     1      66.141  47.544   7.840  1.00  0.00     0.157 A 
ENDROOT
BRANCH   1   7
ATOM      7  C   UNL     1      69.983  49.274   8.703  1.00  0.00     0.010 C 
ATOM      8  C   UNL     1      70.966  49.435   7.806  1.00  0.00     0.025 C 
BRANCH   8   9
ATOM      9  C   UNL     1      72.258  50.049   8.156  1.00  0.00     0.064 C 
ATOM     10  O   UNL     1      72.509  51.250   7.869  1.00  0.00    -0.545 OA
ATOM     11  O   UNL     1      73.218  49.291   8.814  1.00  0.00    -0.545 OA
ENDBRANCH   8   9
ENDBRANCH   1   7
BRANCH   4  12
ATOM     12  O   UNL     1      67.116  46.132   6.142  1.00  0.00    -0.504 OA
ATOM     13  H   UNL     1      67.656  46.157   5.284  1.00  0.00     0.293 HD
ENDBRANCH   4  12
BRANCH   6  14
ATOM     14  O   UNL     1      64.891  46.989   7.571  1.00  0.00    -0.504 OA
ATOM     15  H   UNL     1      64.782  46.002   7.368  1.00  0.00     0.293 HD
ENDBRANCH   6  14
TORSDOF 4
ENDMDL
MODEL 9
REMARK VINA RESULT:    -4.726     14.496     15.548
REMARK INTER + INTRA:          -5.681
REMARK INTER:                  -5.535
REMARK INTRA:                  -0.146
REMARK UNBOUND:                -0.126
REMARK SMILES O=C([O-])C=Cc1ccc(O)c(O)c1
REMARK SMILES IDX 6 1 13 2 7 3 11 4 8 5 9 6 5 7 4 8 2 9 1 10 3 11 12 12 10 14
REMARK H PARENT 12 13 10 15
REMARK Flexibility Score: inf
ROOT
ATOM      1  C   UNL     1      68.485  48.722   8.452  1.00  0.00    -0.022 A 
ATOM      2  C   UNL     1      67.332  48.981   9.221  1.00  0.00     0.058 A 
ATOM      3  C   UNL     1      68.381  47.866   7.343  1.00  0.00     0.012 A 
ATOM      4  C   UNL     1      66.099  48.414   8.868  1.00  0.00     0.157 A 
ATOM      5  C   UNL     1      67.152  47.303   6.990  1.00  0.00     0.051 A 
ATOM      6  C   UNL     1      66.008  47.577   7.750  1.00  0.00     0.157 A 
ENDROOT
BRANCH   1   7
ATOM      7  C   UNL     1      69.815  49.287   8.789  1.00  0.00     0.010 C 
ATOM      8  C   UNL     1      70.837  49.352   7.924  1.00  0.00     0.025 C 
BRANCH   8   9
ATOM      9  C   UNL     1      72.148  49.910   8.298  1.00  0.00     0.064 C 
ATOM     10  O   UNL     1      72.498  51.061   7.921  1.00  0.00    -0.545 OA
ATOM     11  O   UNL     1      73.015  49.155   9.077  1.00  0.00    -0.545 OA
ENDBRANCH   8   9
ENDBRANCH   1   7
BRANCH   4  12
ATOM     12  O   UNL     1      64.960  48.674   9.627  1.00  0.00    -0.504 OA
ATOM     13  H   UNL     1      64.382  49.489   9.455  1.00  0.00     0.293 HD
ENDBRANCH   4  12
BRANCH   6  14
ATOM     14  O   UNL     1      64.779  47.018   7.401  1.00  0.00    -0.504 OA
ATOM     15  H   UNL     1      64.008  46.983   8.057  1.00  0.00     0.293 HD
ENDBRANCH   6  14
TORSDOF 4
ENDMDL
