MODEL 1
REMARK VINA RESULT:    -3.494      0.000      0.000
REMARK INTER + INTRA:         -11.849
REMARK INTER:                  -7.987
REMARK INTRA:                  -3.862
REMARK UNBOUND:                -3.862
REMARK SMILES CCCCCCCCCCCCCCCCCCCCCCCC(=O)[O-]
REMARK SMILES IDX 13 1 14 2 15 3 16 4 17 5 18 6 19 7 20 8 21 9 22 10 23 11
REMARK SMILES IDX 24 12 25 13 26 14 12 15 11 16 10 17 9 18 8 19 7 20 6 21 5 22
REMARK SMILES IDX 4 23 3 24 2 25 1 26
REMARK H PARENT
REMARK Flexibility Score: inf
ROOT
ATOM      1  C   UNL     1     -15.525  45.351  -7.070  1.00  0.00     0.000 C 
ENDROOT
BRANCH   1   2
ATOM      2  C   UNL     1     -14.584  46.485  -6.625  1.00  0.00     0.000 C 
BRANCH   2   3
ATOM      3  C   UNL     1     -13.878  47.232  -7.769  1.00  0.00     0.000 C 
BRANCH   3   4
ATOM      4  C   UNL     1     -13.983  46.493  -9.115  1.00  0.00     0.000 C 
BRANCH   4   5
ATOM      5  C   UNL     1     -14.511  47.395 -10.243  1.00  0.00     0.000 C 
BRANCH   5   6
ATOM      6  C   UNL     1     -14.925  48.786  -9.734  1.00  0.00     0.000 C 
BRANCH   6   7
ATOM      7  C   UNL     1     -16.449  48.942  -9.591  1.00  0.00     0.000 C 
BRANCH   7   8
ATOM      8  C   UNL     1     -17.263  47.646  -9.787  1.00  0.00     0.000 C 
BRANCH   8   9
ATOM      9  C   UNL     1     -17.753  46.978  -8.490  1.00  0.00     0.000 C 
BRANCH   9  10
ATOM     10  C   UNL     1     -18.033  47.985  -7.365  1.00  0.00     0.006 C 
BRANCH  10  11
ATOM     11  C   UNL     1     -18.900  47.357  -6.269  1.00  0.00     0.053 C 
BRANCH  11  12
ATOM     12  C   UNL     1     -18.383  47.729  -4.915  1.00  0.00     0.041 C 
ATOM     13  O   UNL     1     -19.140  48.287  -4.078  1.00  0.00    -0.550 OA
ATOM     14  O   UNL     1     -17.051  47.497  -4.594  1.00  0.00    -0.550 OA
ENDBRANCH  11  12
ENDBRANCH  10  11
ENDBRANCH   9  10
ENDBRANCH   8   9
ENDBRANCH   7   8
ENDBRANCH   6   7
ENDBRANCH   5   6
ENDBRANCH   4   5
ENDBRANCH   3   4
ENDBRANCH   2   3
ENDBRANCH   1   2
BRANCH   1  15
ATOM     15  C   UNL     1     -16.355  44.738  -5.921  1.00  0.00     0.000 C 
BRANCH  15  16
ATOM     16  C   UNL     1     -17.366  43.691  -6.420  1.00  0.00     0.000 C 
BRANCH  16  17
ATOM     17  C   UNL     1     -16.790  42.789  -7.521  1.00  0.00     0.000 C 
BRANCH  17  18
ATOM     18  C   UNL     1     -17.639  42.796  -8.801  1.00  0.00    -0.000 C 
BRANCH  18  19
ATOM     19  C   UNL     1     -17.006  43.695  -9.869  1.00  0.00    -0.000 C 
BRANCH  19  20
ATOM     20  C   UNL     1     -17.991  43.976 -11.014  1.00  0.00    -0.000 C 
BRANCH  20  21
ATOM     21  C   UNL     1     -19.198  43.020 -11.009  1.00  0.00    -0.000 C 
BRANCH  21  22
ATOM     22  C   UNL     1     -20.569  43.700 -10.814  1.00  0.00    -0.000 C 
BRANCH  22  23
ATOM     23  C   UNL     1     -20.510  45.197 -10.460  1.00  0.00    -0.000 C 
BRANCH  23  24
ATOM     24  C   UNL     1     -20.783  45.468  -8.973  1.00  0.00    -0.000 C 
BRANCH  24  25
ATOM     25  C   UNL     1     -20.751  44.167  -8.163  1.00  0.00    -0.003 C 
ATOM     26  C   UNL     1     -20.640  44.452  -6.668  1.00  0.00     0.004 C 
ENDBRANCH  24  25
ENDBRANCH  23  24
ENDBRANCH  22  23
ENDBRANCH  21  22
ENDBRANCH  20  21
ENDBRANCH  19  20
ENDBRANCH  18  19
ENDBRANCH  17  18
ENDBRANCH  16  17
ENDBRANCH  15  16
ENDBRANCH   1  15
TORSDOF 22
ENDMDL
MODEL 2
REMARK VINA RESULT:    -3.323      2.553      6.453
REMARK INTER + INTRA:         -11.459
REMARK INTER:                  -8.287
REMARK INTRA:                  -3.172
REMARK UNBOUND:                -3.862
REMARK SMILES CCCCCCCCCCCCCCCCCCCCCCCC(=O)[O-]
REMARK SMILES IDX 13 1 14 2 15 3 16 4 17 5 18 6 19 7 20 8 21 9 22 10 23 11
REMARK SMILES IDX 24 12 25 13 26 14 12 15 11 16 10 17 9 18 8 19 7 20 6 21 5 22
REMARK SMILES IDX 4 23 3 24 2 25 1 26
REMARK H PARENT
REMARK Flexibility Score: inf
ROOT
ATOM      1  C   UNL     1     -18.650  47.671  -5.647  1.00  0.00     0.000 C 
ENDROOT
BRANCH   1   2
ATOM      2  C   UNL     1     -18.777  47.042  -7.046  1.00  0.00     0.000 C 
BRANCH   2   3
ATOM      3  C   UNL     1     -20.135  46.382  -7.342  1.00  0.00     0.000 C 
BRANCH   3   4
ATOM      4  C   UNL     1     -20.110  44.855  -7.142  1.00  0.00     0.000 C 
BRANCH   4   5
ATOM      5  C   UNL     1     -19.898  44.458  -5.671  1.00  0.00     0.000 C 
BRANCH   5   6
ATOM      6  C   UNL     1     -18.687  43.529  -5.484  1.00  0.00     0.000 C 
BRANCH   6   7
ATOM      7  C   UNL     1     -17.503  43.900  -6.394  1.00  0.00     0.000 C 
BRANCH   7   8
ATOM      8  C   UNL     1     -17.205  42.897  -7.528  1.00  0.00     0.000 C 
BRANCH   8   9
ATOM      9  C   UNL     1     -16.153  43.359  -8.553  1.00  0.00     0.000 C 
BRANCH   9  10
ATOM     10  C   UNL     1     -16.739  43.580  -9.955  1.00  0.00     0.006 C 
BRANCH  10  11
ATOM     11  C   UNL     1     -17.549  44.879 -10.012  1.00  0.00     0.053 C 
BRANCH  11  12
ATOM     12  C   UNL     1     -18.917  44.619 -10.562  1.00  0.00     0.041 C 
ATOM     13  O   UNL     1     -19.685  45.580 -10.834  1.00  0.00    -0.550 OA
ATOM     14  O   UNL     1     -19.359  43.313 -10.732  1.00  0.00    -0.550 OA
ENDBRANCH  11  12
ENDBRANCH  10  11
ENDBRANCH   9  10
ENDBRANCH   8   9
ENDBRANCH   7   8
ENDBRANCH   6   7
ENDBRANCH   5   6
ENDBRANCH   4   5
ENDBRANCH   3   4
ENDBRANCH   2   3
ENDBRANCH   1   2
BRANCH   1  15
ATOM     15  C   UNL     1     -17.341  47.307  -4.914  1.00  0.00     0.000 C 
BRANCH  15  16
ATOM     16  C   UNL     1     -16.343  46.569  -5.824  1.00  0.00     0.000 C 
BRANCH  16  17
ATOM     17  C   UNL     1     -14.883  46.945  -5.531  1.00  0.00     0.000 C 
BRANCH  17  18
ATOM     18  C   UNL     1     -14.100  47.322  -6.797  1.00  0.00    -0.000 C 
BRANCH  18  19
ATOM     19  C   UNL     1     -14.566  46.485  -7.995  1.00  0.00    -0.000 C 
BRANCH  19  20
ATOM     20  C   UNL     1     -14.717  47.353  -9.254  1.00  0.00    -0.000 C 
BRANCH  20  21
ATOM     21  C   UNL     1     -15.970  48.247  -9.214  1.00  0.00    -0.000 C 
BRANCH  21  22
ATOM     22  C   UNL     1     -15.975  49.410 -10.227  1.00  0.00    -0.000 C 
BRANCH  22  23
ATOM     23  C   UNL     1     -14.626  49.676 -10.920  1.00  0.00    -0.000 C 
BRANCH  23  24
ATOM     24  C   UNL     1     -13.875  50.874 -10.320  1.00  0.00    -0.000 C 
BRANCH  24  25
ATOM     25  C   UNL     1     -14.603  51.415  -9.084  1.00  0.00    -0.003 C 
ATOM     26  C   UNL     1     -14.144  52.832  -8.751  1.00  0.00     0.004 C 
ENDBRANCH  24  25
ENDBRANCH  23  24
ENDBRANCH  22  23
ENDBRANCH  21  22
ENDBRANCH  20  21
ENDBRANCH  19  20
ENDBRANCH  18  19
ENDBRANCH  17  18
ENDBRANCH  16  17
ENDBRANCH  15  16
ENDBRANCH   1  15
TORSDOF 22
ENDMDL
MODEL 3
REMARK VINA RESULT:    -3.297      2.379      4.901
REMARK INTER + INTRA:         -11.399
REMARK INTER:                  -7.657
REMARK INTRA:                  -3.742
REMARK UNBOUND:                -3.862
REMARK SMILES CCCCCCCCCCCCCCCCCCCCCCCC(=O)[O-]
REMARK SMILES IDX 13 1 14 2 15 3 16 4 17 5 18 6 19 7 20 8 21 9 22 10 23 11
REMARK SMILES IDX 24 12 25 13 26 14 12 15 11 16 10 17 9 18 8 19 7 20 6 21 5 22
REMARK SMILES IDX 4 23 3 24 2 25 1 26
REMARK H PARENT
REMARK Flexibility Score: inf
ROOT
ATOM      1  C   UNL     1     -19.397  45.666  -6.312  1.00  0.00     0.000 C 
ENDROOT
BRANCH   1   2
ATOM      2  C   UNL     1     -18.559  46.943  -6.119  1.00  0.00     0.000 C 
BRANCH   2   3
ATOM      3  C   UNL     1     -18.504  47.876  -7.340  1.00  0.00     0.000 C 
BRANCH   3   4
ATOM      4  C   UNL     1     -17.299  47.589  -8.254  1.00  0.00     0.000 C 
BRANCH   4   5
ATOM      5  C   UNL     1     -17.714  46.957  -9.593  1.00  0.00     0.000 C 
BRANCH   5   6
ATOM      6  C   UNL     1     -16.695  47.234 -10.712  1.00  0.00     0.000 C 
BRANCH   6   7
ATOM      7  C   UNL     1     -15.468  46.307 -10.645  1.00  0.00     0.000 C 
BRANCH   7   8
ATOM      8  C   UNL     1     -14.143  46.998 -10.258  1.00  0.00     0.000 C 
BRANCH   8   9
ATOM      9  C   UNL     1     -14.072  48.503 -10.575  1.00  0.00     0.000 C 
BRANCH   9  10
ATOM     10  C   UNL     1     -14.137  49.384  -9.319  1.00  0.00     0.006 C 
BRANCH  10  11
ATOM     11  C   UNL     1     -15.155  50.515  -9.495  1.00  0.00     0.053 C 
BRANCH  11  12
ATOM     12  C   UNL     1     -14.504  51.845  -9.275  1.00  0.00     0.041 C 
ATOM     13  O   UNL     1     -14.349  52.290  -8.107  1.00  0.00    -0.550 OA
ATOM     14  O   UNL     1     -14.108  52.611 -10.364  1.00  0.00    -0.550 OA
ENDBRANCH  11  12
ENDBRANCH  10  11
ENDBRANCH   9  10
ENDBRANCH   8   9
ENDBRANCH   7   8
ENDBRANCH   6   7
ENDBRANCH   5   6
ENDBRANCH   4   5
ENDBRANCH   3   4
ENDBRANCH   2   3
ENDBRANCH   1   2
BRANCH   1  15
ATOM     15  C   UNL     1     -20.347  45.718  -7.528  1.00  0.00     0.000 C 
BRANCH  15  16
ATOM     16  C   UNL     1     -20.996  44.356  -7.826  1.00  0.00     0.000 C 
BRANCH  16  17
ATOM     17  C   UNL     1     -20.852  43.939  -9.297  1.00  0.00     0.000 C 
BRANCH  17  18
ATOM     18  C   UNL     1     -19.899  42.748  -9.486  1.00  0.00    -0.000 C 
BRANCH  18  19
ATOM     19  C   UNL     1     -18.823  43.073 -10.529  1.00  0.00    -0.000 C 
BRANCH  19  20
ATOM     20  C   UNL     1     -17.453  43.285  -9.865  1.00  0.00    -0.000 C 
BRANCH  20  21
ATOM     21  C   UNL     1     -17.542  43.378  -8.331  1.00  0.00    -0.000 C 
BRANCH  21  22
ATOM     22  C   UNL     1     -16.188  43.517  -7.605  1.00  0.00    -0.000 C 
BRANCH  22  23
ATOM     23  C   UNL     1     -15.791  44.957  -7.235  1.00  0.00    -0.000 C 
BRANCH  23  24
ATOM     24  C   UNL     1     -15.853  45.222  -5.724  1.00  0.00    -0.000 C 
BRANCH  24  25
ATOM     25  C   UNL     1     -14.822  46.278  -5.308  1.00  0.00    -0.003 C 
ATOM     26  C   UNL     1     -14.162  46.913  -6.529  1.00  0.00     0.004 C 
ENDBRANCH  24  25
ENDBRANCH  23  24
ENDBRANCH  22  23
ENDBRANCH  21  22
ENDBRANCH  20  21
ENDBRANCH  19  20
ENDBRANCH  18  19
ENDBRANCH  17  18
ENDBRANCH  16  17
ENDBRANCH  15  16
ENDBRANCH   1  15
TORSDOF 22
ENDMDL
MODEL 4
REMARK VINA RESULT:    -3.107      1.735      5.559
REMARK INTER + INTRA:         -10.966
REMARK INTER:                  -6.945
REMARK INTRA:                  -4.020
REMARK UNBOUND:                -3.862
REMARK SMILES CCCCCCCCCCCCCCCCCCCCCCCC(=O)[O-]
REMARK SMILES IDX 13 1 14 2 15 3 16 4 17 5 18 6 19 7 20 8 21 9 22 10 23 11
REMARK SMILES IDX 24 12 25 13 26 14 12 15 11 16 10 17 9 18 8 19 7 20 6 21 5 22
REMARK SMILES IDX 4 23 3 24 2 25 1 26
REMARK H PARENT
REMARK Flexibility Score: inf
ROOT
ATOM      1  C   UNL     1     -16.273  44.822  -8.716  1.00  0.00     0.000 C 
ENDROOT
BRANCH   1   2
ATOM      2  C   UNL     1     -17.293  43.789  -8.204  1.00  0.00     0.000 C 
BRANCH   2   3
ATOM      3  C   UNL     1     -17.738  42.744  -9.241  1.00  0.00     0.000 C 
BRANCH   3   4
ATOM      4  C   UNL     1     -19.216  42.341  -9.083  1.00  0.00     0.000 C 
BRANCH   4   5
ATOM      5  C   UNL     1     -20.015  42.513 -10.386  1.00  0.00     0.000 C 
BRANCH   5   6
ATOM      6  C   UNL     1     -19.658  43.813 -11.125  1.00  0.00     0.000 C 
BRANCH   6   7
ATOM      7  C   UNL     1     -20.547  44.999 -10.712  1.00  0.00     0.000 C 
BRANCH   7   8
ATOM      8  C   UNL     1     -20.926  45.047  -9.217  1.00  0.00     0.000 C 
BRANCH   8   9
ATOM      9  C   UNL     1     -20.263  46.178  -8.409  1.00  0.00     0.000 C 
BRANCH   9  10
ATOM     10  C   UNL     1     -19.792  45.725  -7.020  1.00  0.00     0.006 C 
BRANCH  10  11
ATOM     11  C   UNL     1     -20.458  44.405  -6.618  1.00  0.00     0.053 C 
BRANCH  11  12
ATOM     12  C   UNL     1     -19.946  43.943  -5.290  1.00  0.00     0.041 C 
ATOM     13  O   UNL     1     -18.710  43.950  -5.048  1.00  0.00    -0.550 OA
ATOM     14  O   UNL     1     -20.833  43.463  -4.334  1.00  0.00    -0.550 OA
ENDBRANCH  11  12
ENDBRANCH  10  11
ENDBRANCH   9  10
ENDBRANCH   8   9
ENDBRANCH   7   8
ENDBRANCH   6   7
ENDBRANCH   5   6
ENDBRANCH   4   5
ENDBRANCH   3   4
ENDBRANCH   2   3
ENDBRANCH   1   2
BRANCH   1  15
ATOM     15  C   UNL     1     -15.931  44.674 -10.214  1.00  0.00     0.000 C 
BRANCH  15  16
ATOM     16  C   UNL     1     -16.376  45.892 -11.042  1.00  0.00     0.000 C 
BRANCH  16  17
ATOM     17  C   UNL     1     -17.280  46.848 -10.250  1.00  0.00     0.000 C 
BRANCH  17  18
ATOM     18  C   UNL     1     -16.825  48.313 -10.346  1.00  0.00    -0.000 C 
BRANCH  18  19
ATOM     19  C   UNL     1     -15.295  48.410 -10.327  1.00  0.00    -0.000 C 
BRANCH  19  20
ATOM     20  C   UNL     1     -14.782  48.816  -8.937  1.00  0.00    -0.000 C 
BRANCH  20  21
ATOM     21  C   UNL     1     -13.875  47.747  -8.300  1.00  0.00    -0.000 C 
BRANCH  21  22
ATOM     22  C   UNL     1     -13.973  47.637  -6.765  1.00  0.00    -0.000 C 
BRANCH  22  23
ATOM     23  C   UNL     1     -14.382  46.251  -6.234  1.00  0.00    -0.000 C 
BRANCH  23  24
ATOM     24  C   UNL     1     -15.535  46.316  -5.223  1.00  0.00    -0.000 C 
BRANCH  24  25
ATOM     25  C   UNL     1     -16.791  46.923  -5.861  1.00  0.00    -0.003 C 
ATOM     26  C   UNL     1     -17.690  47.563  -4.808  1.00  0.00     0.004 C 
ENDBRANCH  24  25
ENDBRANCH  23  24
ENDBRANCH  22  23
ENDBRANCH  21  22
ENDBRANCH  20  21
ENDBRANCH  19  20
ENDBRANCH  18  19
ENDBRANCH  17  18
ENDBRANCH  16  17
ENDBRANCH  15  16
ENDBRANCH   1  15
TORSDOF 22
ENDMDL
MODEL 5
REMARK VINA RESULT:    -3.076      1.835      5.704
REMARK INTER + INTRA:         -10.894
REMARK INTER:                  -8.007
REMARK INTRA:                  -2.887
REMARK UNBOUND:                -3.862
REMARK SMILES CCCCCCCCCCCCCCCCCCCCCCCC(=O)[O-]
REMARK SMILES IDX 13 1 14 2 15 3 16 4 17 5 18 6 19 7 20 8 21 9 22 10 23 11
REMARK SMILES IDX 24 12 25 13 26 14 12 15 11 16 10 17 9 18 8 19 7 20 6 21 5 22
REMARK SMILES IDX 4 23 3 24 2 25 1 26
REMARK H PARENT
REMARK Flexibility Score: inf
ROOT
ATOM      1  C   UNL     1     -20.809  43.627 -10.636  1.00  0.00     0.000 C 
ENDROOT
BRANCH   1   2
ATOM      2  C   UNL     1     -20.403  44.977 -10.015  1.00  0.00     0.000 C 
BRANCH   2   3
ATOM      3  C   UNL     1     -20.744  45.136  -8.524  1.00  0.00     0.000 C 
BRANCH   3   4
ATOM      4  C   UNL     1     -19.565  45.685  -7.700  1.00  0.00     0.000 C 
BRANCH   4   5
ATOM      5  C   UNL     1     -19.761  45.485  -6.188  1.00  0.00     0.000 C 
BRANCH   5   6
ATOM      6  C   UNL     1     -18.887  44.350  -5.629  1.00  0.00     0.000 C 
BRANCH   6   7
ATOM      7  C   UNL     1     -17.776  43.917  -6.602  1.00  0.00     0.000 C 
BRANCH   7   8
ATOM      8  C   UNL     1     -16.358  44.408  -6.241  1.00  0.00     0.000 C 
BRANCH   8   9
ATOM      9  C   UNL     1     -16.290  45.821  -5.632  1.00  0.00     0.000 C 
BRANCH   9  10
ATOM     10  C   UNL     1     -15.270  46.728  -6.334  1.00  0.00     0.006 C 
BRANCH  10  11
ATOM     11  C   UNL     1     -13.887  46.601  -5.688  1.00  0.00     0.053 C 
BRANCH  11  12
ATOM     12  C   UNL     1     -14.003  46.603  -4.196  1.00  0.00     0.041 C 
ATOM     13  O   UNL     1     -14.105  47.690  -3.569  1.00  0.00    -0.550 OA
ATOM     14  O   UNL     1     -13.957  45.404  -3.496  1.00  0.00    -0.550 OA
ENDBRANCH  11  12
ENDBRANCH  10  11
ENDBRANCH   9  10
ENDBRANCH   8   9
ENDBRANCH   7   8
ENDBRANCH   6   7
ENDBRANCH   5   6
ENDBRANCH   4   5
ENDBRANCH   3   4
ENDBRANCH   2   3
ENDBRANCH   1   2
BRANCH   1  15
ATOM     15  C   UNL     1     -19.649  42.615 -10.747  1.00  0.00     0.000 C 
BRANCH  15  16
ATOM     16  C   UNL     1     -18.807  42.543  -9.461  1.00  0.00     0.000 C 
BRANCH  16  17
ATOM     17  C   UNL     1     -17.377  43.067  -9.659  1.00  0.00     0.000 C 
BRANCH  17  18
ATOM     18  C   UNL     1     -17.117  43.560 -11.091  1.00  0.00    -0.000 C 
BRANCH  18  19
ATOM     19  C   UNL     1     -16.987  45.088 -11.125  1.00  0.00    -0.000 C 
BRANCH  19  20
ATOM     20  C   UNL     1     -16.388  45.623  -9.815  1.00  0.00    -0.000 C 
BRANCH  20  21
ATOM     21  C   UNL     1     -14.865  45.415  -9.727  1.00  0.00    -0.000 C 
BRANCH  21  22
ATOM     22  C   UNL     1     -14.019  46.689  -9.926  1.00  0.00    -0.000 C 
BRANCH  22  23
ATOM     23  C   UNL     1     -14.806  47.930 -10.383  1.00  0.00    -0.000 C 
BRANCH  23  24
ATOM     24  C   UNL     1     -14.972  48.973  -9.268  1.00  0.00    -0.000 C 
BRANCH  24  25
ATOM     25  C   UNL     1     -15.305  50.352  -9.851  1.00  0.00    -0.003 C 
ATOM     26  C   UNL     1     -14.653  51.466  -9.038  1.00  0.00     0.004 C 
ENDBRANCH  24  25
ENDBRANCH  23  24
ENDBRANCH  22  23
ENDBRANCH  21  22
ENDBRANCH  20  21
ENDBRANCH  19  20
ENDBRANCH  18  19
ENDBRANCH  17  18
ENDBRANCH  16  17
ENDBRANCH  15  16
ENDBRANCH   1  15
TORSDOF 22
ENDMDL
MODEL 6
REMARK VINA RESULT:    -3.034      1.623      4.010
REMARK INTER + INTRA:         -10.798
REMARK INTER:                  -7.462
REMARK INTRA:                  -3.336
REMARK UNBOUND:                -3.862
REMARK SMILES CCCCCCCCCCCCCCCCCCCCCCCC(=O)[O-]
REMARK SMILES IDX 13 1 14 2 15 3 16 4 17 5 18 6 19 7 20 8 21 9 22 10 23 11
REMARK SMILES IDX 24 12 25 13 26 14 12 15 11 16 10 17 9 18 8 19 7 20 6 21 5 22
REMARK SMILES IDX 4 23 3 24 2 25 1 26
REMARK H PARENT
REMARK Flexibility Score: inf
ROOT
ATOM      1  C   UNL     1     -17.358  43.153  -8.460  1.00  0.00     0.000 C 
ENDROOT
BRANCH   1   2
ATOM      2  C   UNL     1     -16.138  43.713  -9.215  1.00  0.00     0.000 C 
BRANCH   2   3
ATOM      3  C   UNL     1     -16.412  44.144 -10.665  1.00  0.00     0.000 C 
BRANCH   3   4
ATOM      4  C   UNL     1     -17.323  45.382 -10.757  1.00  0.00     0.000 C 
BRANCH   4   5
ATOM      5  C   UNL     1     -16.530  46.680 -10.985  1.00  0.00     0.000 C 
BRANCH   5   6
ATOM      6  C   UNL     1     -16.758  47.709  -9.864  1.00  0.00     0.000 C 
BRANCH   6   7
ATOM      7  C   UNL     1     -15.461  48.416  -9.430  1.00  0.00     0.000 C 
BRANCH   7   8
ATOM      8  C   UNL     1     -14.340  47.482  -8.928  1.00  0.00     0.000 C 
BRANCH   8   9
ATOM      9  C   UNL     1     -14.202  47.387  -7.398  1.00  0.00     0.000 C 
BRANCH   9  10
ATOM     10  C   UNL     1     -15.048  46.260  -6.788  1.00  0.00     0.006 C 
BRANCH  10  11
ATOM     11  C   UNL     1     -14.542  45.889  -5.391  1.00  0.00     0.053 C 
BRANCH  11  12
ATOM     12  C   UNL     1     -14.833  46.990  -4.419  1.00  0.00     0.041 C 
ATOM     13  O   UNL     1     -13.914  47.457  -3.695  1.00  0.00    -0.550 OA
ATOM     14  O   UNL     1     -16.130  47.469  -4.283  1.00  0.00    -0.550 OA
ENDBRANCH  11  12
ENDBRANCH  10  11
ENDBRANCH   9  10
ENDBRANCH   8   9
ENDBRANCH   7   8
ENDBRANCH   6   7
ENDBRANCH   5   6
ENDBRANCH   4   5
ENDBRANCH   3   4
ENDBRANCH   2   3
ENDBRANCH   1   2
BRANCH   1  15
ATOM     15  C   UNL     1     -18.296  42.296  -9.337  1.00  0.00     0.000 C 
BRANCH  15  16
ATOM     16  C   UNL     1     -19.782  42.616  -9.096  1.00  0.00     0.000 C 
BRANCH  16  17
ATOM     17  C   UNL     1     -20.367  43.551 -10.164  1.00  0.00     0.000 C 
BRANCH  17  18
ATOM     18  C   UNL     1     -20.315  45.031  -9.752  1.00  0.00    -0.000 C 
BRANCH  18  19
ATOM     19  C   UNL     1     -21.320  45.319  -8.630  1.00  0.00    -0.000 C 
BRANCH  19  20
ATOM     20  C   UNL     1     -20.678  46.156  -7.513  1.00  0.00    -0.000 C 
BRANCH  20  21
ATOM     21  C   UNL     1     -19.143  46.040  -7.487  1.00  0.00    -0.000 C 
BRANCH  21  22
ATOM     22  C   UNL     1     -18.530  45.799  -6.092  1.00  0.00    -0.000 C 
BRANCH  22  23
ATOM     23  C   UNL     1     -18.530  44.332  -5.624  1.00  0.00    -0.000 C 
BRANCH  23  24
ATOM     24  C   UNL     1     -19.940  43.725  -5.570  1.00  0.00    -0.000 C 
BRANCH  24  25
ATOM     25  C   UNL     1     -20.458  43.669  -4.128  1.00  0.00    -0.003 C 
ATOM     26  C   UNL     1     -21.244  42.386  -3.874  1.00  0.00     0.004 C 
ENDBRANCH  24  25
ENDBRANCH  23  24
ENDBRANCH  22  23
ENDBRANCH  21  22
ENDBRANCH  20  21
ENDBRANCH  19  20
ENDBRANCH  18  19
ENDBRANCH  17  18
ENDBRANCH  16  17
ENDBRANCH  15  16
ENDBRANCH   1  15
TORSDOF 22
ENDMDL
MODEL 7
REMARK VINA RESULT:    -2.983      2.460      4.360
REMARK INTER + INTRA:         -10.682
REMARK INTER:                  -7.927
REMARK INTRA:                  -2.755
REMARK UNBOUND:                -3.862
REMARK SMILES CCCCCCCCCCCCCCCCCCCCCCCC(=O)[O-]
REMARK SMILES IDX 13 1 14 2 15 3 16 4 17 5 18 6 19 7 20 8 21 9 22 10 23 11
REMARK SMILES IDX 24 12 25 13 26 14 12 15 11 16 10 17 9 18 8 19 7 20 6 21 5 22
REMARK SMILES IDX 4 23 3 24 2 25 1 26
REMARK H PARENT
REMARK Flexibility Score: inf
ROOT
ATOM      1  C   UNL     1     -18.890  46.357  -5.575  1.00  0.00     0.000 C 
ENDROOT
BRANCH   1   2
ATOM      2  C   UNL     1     -17.628  47.236  -5.653  1.00  0.00     0.000 C 
BRANCH   2   3
ATOM      3  C   UNL     1     -16.441  46.605  -6.399  1.00  0.00     0.000 C 
BRANCH   3   4
ATOM      4  C   UNL     1     -15.246  46.310  -5.473  1.00  0.00     0.000 C 
BRANCH   4   5
ATOM      5  C   UNL     1     -13.895  46.609  -6.143  1.00  0.00     0.000 C 
BRANCH   5   6
ATOM      6  C   UNL     1     -14.023  47.621  -7.294  1.00  0.00     0.000 C 
BRANCH   6   7
ATOM      7  C   UNL     1     -13.876  46.971  -8.681  1.00  0.00     0.000 C 
BRANCH   7   8
ATOM      8  C   UNL     1     -14.458  47.787  -9.854  1.00  0.00     0.000 C 
BRANCH   8   9
ATOM      9  C   UNL     1     -15.770  48.532  -9.545  1.00  0.00     0.000 C 
BRANCH   9  10
ATOM     10  C   UNL     1     -15.684  50.039  -9.829  1.00  0.00     0.006 C 
BRANCH  10  11
ATOM     11  C   UNL     1     -14.291  50.581  -9.496  1.00  0.00     0.053 C 
BRANCH  11  12
ATOM     12  C   UNL     1     -14.326  52.072  -9.368  1.00  0.00     0.041 C 
ATOM     13  O   UNL     1     -14.360  52.797 -10.398  1.00  0.00    -0.550 OA
ATOM     14  O   UNL     1     -14.277  52.661  -8.111  1.00  0.00    -0.550 OA
ENDBRANCH  11  12
ENDBRANCH  10  11
ENDBRANCH   9  10
ENDBRANCH   8   9
ENDBRANCH   7   8
ENDBRANCH   6   7
ENDBRANCH   5   6
ENDBRANCH   4   5
ENDBRANCH   3   4
ENDBRANCH   2   3
ENDBRANCH   1   2
BRANCH   1  15
ATOM     15  C   UNL     1     -18.605  44.843  -5.681  1.00  0.00     0.000 C 
BRANCH  15  16
ATOM     16  C   UNL     1     -19.893  44.010  -5.802  1.00  0.00     0.000 C 
BRANCH  16  17
ATOM     17  C   UNL     1     -20.821  44.512  -6.918  1.00  0.00     0.000 C 
BRANCH  17  18
ATOM     18  C   UNL     1     -20.351  44.088  -8.318  1.00  0.00    -0.000 C 
BRANCH  18  19
ATOM     19  C   UNL     1     -20.550  45.226  -9.327  1.00  0.00    -0.000 C 
BRANCH  19  20
ATOM     20  C   UNL     1     -19.279  45.460 -10.157  1.00  0.00    -0.000 C 
BRANCH  20  21
ATOM     21  C   UNL     1     -18.948  44.278 -11.086  1.00  0.00    -0.000 C 
BRANCH  21  22
ATOM     22  C   UNL     1     -17.493  43.771 -11.004  1.00  0.00    -0.000 C 
BRANCH  22  23
ATOM     23  C   UNL     1     -16.484  44.776 -10.419  1.00  0.00    -0.000 C 
BRANCH  23  24
ATOM     24  C   UNL     1     -16.299  44.619  -8.903  1.00  0.00    -0.000 C 
BRANCH  24  25
ATOM     25  C   UNL     1     -16.020  43.157  -8.532  1.00  0.00    -0.003 C 
ATOM     26  C   UNL     1     -17.280  42.469  -8.015  1.00  0.00     0.004 C 
ENDBRANCH  24  25
ENDBRANCH  23  24
ENDBRANCH  22  23
ENDBRANCH  21  22
ENDBRANCH  20  21
ENDBRANCH  19  20
ENDBRANCH  18  19
ENDBRANCH  17  18
ENDBRANCH  16  17
ENDBRANCH  15  16
ENDBRANCH   1  15
TORSDOF 22
ENDMDL
MODEL 8
REMARK VINA RESULT:    -2.783      2.422      6.420
REMARK INTER + INTRA:         -10.224
REMARK INTER:                  -7.510
REMARK INTRA:                  -2.714
REMARK UNBOUND:                -3.862
REMARK SMILES CCCCCCCCCCCCCCCCCCCCCCCC(=O)[O-]
REMARK SMILES IDX 13 1 14 2 15 3 16 4 17 5 18 6 19 7 20 8 21 9 22 10 23 11
REMARK SMILES IDX 24 12 25 13 26 14 12 15 11 16 10 17 9 18 8 19 7 20 6 21 5 22
REMARK SMILES IDX 4 23 3 24 2 25 1 26
REMARK H PARENT
REMARK Flexibility Score: inf
ROOT
ATOM      1  C   UNL     1     -17.635  47.263  -5.423  1.00  0.00     0.000 C 
ENDROOT
BRANCH   1   2
ATOM      2  C   UNL     1     -19.031  46.764  -5.840  1.00  0.00     0.000 C 
BRANCH   2   3
ATOM      3  C   UNL     1     -19.035  45.497  -6.710  1.00  0.00     0.000 C 
BRANCH   3   4
ATOM      4  C   UNL     1     -20.379  44.746  -6.662  1.00  0.00     0.000 C 
BRANCH   4   5
ATOM      5  C   UNL     1     -21.125  44.787  -8.006  1.00  0.00     0.000 C 
BRANCH   5   6
ATOM      6  C   UNL     1     -20.566  43.772  -9.017  1.00  0.00     0.000 C 
BRANCH   6   7
ATOM      7  C   UNL     1     -20.019  44.438 -10.293  1.00  0.00     0.000 C 
BRANCH   7   8
ATOM      8  C   UNL     1     -19.127  45.674 -10.058  1.00  0.00     0.000 C 
BRANCH   8   9
ATOM      9  C   UNL     1     -17.636  45.478 -10.387  1.00  0.00     0.000 C 
BRANCH   9  10
ATOM     10  C   UNL     1     -17.249  44.001 -10.557  1.00  0.00     0.006 C 
BRANCH  10  11
ATOM     11  C   UNL     1     -16.277  43.559  -9.459  1.00  0.00     0.053 C 
BRANCH  11  12
ATOM     12  C   UNL     1     -17.010  42.845  -8.366  1.00  0.00     0.041 C 
ATOM     13  O   UNL     1     -17.873  41.971  -8.646  1.00  0.00    -0.550 OA
ATOM     14  O   UNL     1     -16.771  43.179  -7.039  1.00  0.00    -0.550 OA
ENDBRANCH  11  12
ENDBRANCH  10  11
ENDBRANCH   9  10
ENDBRANCH   8   9
ENDBRANCH   7   8
ENDBRANCH   6   7
ENDBRANCH   5   6
ENDBRANCH   4   5
ENDBRANCH   3   4
ENDBRANCH   2   3
ENDBRANCH   1   2
BRANCH   1  15
ATOM     15  C   UNL     1     -16.557  46.158  -5.396  1.00  0.00     0.000 C 
BRANCH  15  16
ATOM     16  C   UNL     1     -15.306  46.536  -6.207  1.00  0.00     0.000 C 
BRANCH  16  17
ATOM     17  C   UNL     1     -15.624  46.841  -7.679  1.00  0.00     0.000 C 
BRANCH  17  18
ATOM     18  C   UNL     1     -14.408  46.658  -8.600  1.00  0.00    -0.000 C 
BRANCH  18  19
ATOM     19  C   UNL     1     -14.133  47.938  -9.399  1.00  0.00    -0.000 C 
BRANCH  19  20
ATOM     20  C   UNL     1     -15.131  48.095 -10.556  1.00  0.00    -0.000 C 
BRANCH  20  21
ATOM     21  C   UNL     1     -16.128  49.247 -10.332  1.00  0.00    -0.000 C 
BRANCH  21  22
ATOM     22  C   UNL     1     -15.806  50.547 -11.097  1.00  0.00    -0.000 C 
BRANCH  22  23
ATOM     23  C   UNL     1     -14.369  51.070 -10.919  1.00  0.00    -0.000 C 
BRANCH  23  24
ATOM     24  C   UNL     1     -14.313  52.587 -10.687  1.00  0.00    -0.000 C 
BRANCH  24  25
ATOM     25  C   UNL     1     -14.082  52.908  -9.206  1.00  0.00    -0.003 C 
ATOM     26  C   UNL     1     -13.956  51.633  -8.378  1.00  0.00     0.004 C 
ENDBRANCH  24  25
ENDBRANCH  23  24
ENDBRANCH  22  23
ENDBRANCH  21  22
ENDBRANCH  20  21
ENDBRANCH  19  20
ENDBRANCH  18  19
ENDBRANCH  17  18
ENDBRANCH  16  17
ENDBRANCH  15  16
ENDBRANCH   1  15
TORSDOF 22
ENDMDL
MODEL 9
REMARK VINA RESULT:    -2.693      2.010      6.389
REMARK INTER + INTRA:         -10.017
REMARK INTER:                  -7.675
REMARK INTRA:                  -2.342
REMARK UNBOUND:                -3.862
REMARK SMILES CCCCCCCCCCCCCCCCCCCCCCCC(=O)[O-]
REMARK SMILES IDX 13 1 14 2 15 3 16 4 17 5 18 6 19 7 20 8 21 9 22 10 23 11
REMARK SMILES IDX 24 12 25 13 26 14 12 15 11 16 10 17 9 18 8 19 7 20 6 21 5 22
REMARK SMILES IDX 4 23 3 24 2 25 1 26
REMARK H PARENT
REMARK Flexibility Score: inf
ROOT
ATOM      1  C   UNL     1     -19.385  46.420  -6.897  1.00  0.00     0.000 C 
ENDROOT
BRANCH   1   2
ATOM      2  C   UNL     1     -20.577  46.011  -7.783  1.00  0.00     0.000 C 
BRANCH   2   3
ATOM      3  C   UNL     1     -20.575  44.542  -8.237  1.00  0.00     0.000 C 
BRANCH   3   4
ATOM      4  C   UNL     1     -20.175  44.378  -9.715  1.00  0.00     0.000 C 
BRANCH   4   5
ATOM      5  C   UNL     1     -19.883  42.914 -10.087  1.00  0.00     0.000 C 
BRANCH   5   6
ATOM      6  C   UNL     1     -18.767  42.302  -9.223  1.00  0.00     0.000 C 
BRANCH   6   7
ATOM      7  C   UNL     1     -17.781  43.355  -8.687  1.00  0.00     0.000 C 
BRANCH   7   8
ATOM      8  C   UNL     1     -16.992  42.936  -7.429  1.00  0.00     0.000 C 
BRANCH   8   9
ATOM      9  C   UNL     1     -16.945  43.987  -6.305  1.00  0.00     0.000 C 
BRANCH   9  10
ATOM     10  C   UNL     1     -15.786  44.982  -6.462  1.00  0.00     0.006 C 
BRANCH  10  11
ATOM     11  C   UNL     1     -15.688  45.905  -5.244  1.00  0.00     0.053 C 
BRANCH  11  12
ATOM     12  C   UNL     1     -14.476  46.779  -5.345  1.00  0.00     0.041 C 
ATOM     13  O   UNL     1     -14.022  47.354  -4.321  1.00  0.00    -0.550 OA
ATOM     14  O   UNL     1     -13.875  46.990  -6.580  1.00  0.00    -0.550 OA
ENDBRANCH  11  12
ENDBRANCH  10  11
ENDBRANCH   9  10
ENDBRANCH   8   9
ENDBRANCH   7   8
ENDBRANCH   6   7
ENDBRANCH   5   6
ENDBRANCH   4   5
ENDBRANCH   3   4
ENDBRANCH   2   3
ENDBRANCH   1   2
BRANCH   1  15
ATOM     15  C   UNL     1     -18.430  47.435  -7.562  1.00  0.00     0.000 C 
BRANCH  15  16
ATOM     16  C   UNL     1     -17.456  46.766  -8.547  1.00  0.00     0.000 C 
BRANCH  16  17
ATOM     17  C   UNL     1     -17.639  47.260  -9.990  1.00  0.00     0.000 C 
BRANCH  17  18
ATOM     18  C   UNL     1     -16.698  46.560 -10.982  1.00  0.00    -0.000 C 
BRANCH  18  19
ATOM     19  C   UNL     1     -15.308  46.361 -10.366  1.00  0.00    -0.000 C 
BRANCH  19  20
ATOM     20  C   UNL     1     -14.707  47.700  -9.907  1.00  0.00    -0.000 C 
BRANCH  20  21
ATOM     21  C   UNL     1     -13.978  48.445 -11.040  1.00  0.00    -0.000 C 
BRANCH  21  22
ATOM     22  C   UNL     1     -14.077  49.983 -10.978  1.00  0.00    -0.000 C 
BRANCH  22  23
ATOM     23  C   UNL     1     -15.121  50.531  -9.989  1.00  0.00    -0.000 C 
BRANCH  23  24
ATOM     24  C   UNL     1     -14.525  51.527  -8.985  1.00  0.00    -0.000 C 
BRANCH  24  25
ATOM     25  C   UNL     1     -13.962  52.760  -9.702  1.00  0.00    -0.003 C 
ATOM     26  C   UNL     1     -14.092  54.009  -8.835  1.00  0.00     0.004 C 
ENDBRANCH  24  25
ENDBRANCH  23  24
ENDBRANCH  22  23
ENDBRANCH  21  22
ENDBRANCH  20  21
ENDBRANCH  19  20
ENDBRANCH  18  19
ENDBRANCH  17  18
ENDBRANCH  16  17
ENDBRANCH  15  16
ENDBRANCH   1  15
TORSDOF 22
ENDMDL
