MODEL 1
REMARK VINA RESULT:    -3.983      0.000      0.000
REMARK INTER + INTRA:          -7.506
REMARK INTER:                  -6.778
REMARK INTRA:                  -0.728
REMARK UNBOUND:                -0.728
REMARK SMILES CCCCCCCCCCCCCC(=O)[O-]
REMARK SMILES IDX 8 1 9 2 10 3 11 4 12 5 13 6 14 7 15 8 16 9 7 10 6 11 5 12
REMARK SMILES IDX 4 13 3 14 2 15 1 16
REMARK H PARENT
REMARK Flexibility Score: inf
ROOT
ATOM      1  C   UNL     1      -4.841   7.941  -3.600  1.00  0.00     0.000 C 
ENDROOT
BRANCH   1   2
ATOM      2  C   UNL     1      -4.424   9.040  -2.607  1.00  0.00     0.000 C 
BRANCH   2   3
ATOM      3  C   UNL     1      -4.623   8.625  -1.139  1.00  0.00     0.000 C 
BRANCH   3   4
ATOM      4  C   UNL     1      -3.295   8.501  -0.375  1.00  0.00     0.000 C 
BRANCH   4   5
ATOM      5  C   UNL     1      -2.766   9.860   0.116  1.00  0.00     0.006 C 
BRANCH   5   6
ATOM      6  C   UNL     1      -3.852  10.678   0.830  1.00  0.00     0.053 C 
BRANCH   6   7
ATOM      7  C   UNL     1      -3.641  10.710   2.313  1.00  0.00     0.041 C 
ATOM      8  O   UNL     1      -4.624  10.627   3.095  1.00  0.00    -0.550 OA
ATOM      9  O   UNL     1      -2.360  10.864   2.832  1.00  0.00    -0.550 OA
ENDBRANCH   6   7
ENDBRANCH   5   6
ENDBRANCH   4   5
ENDBRANCH   3   4
ENDBRANCH   2   3
ENDBRANCH   1   2
BRANCH   1  10
ATOM     10  C   UNL     1      -3.734   7.477  -4.568  1.00  0.00     0.000 C 
BRANCH  10  11
ATOM     11  C   UNL     1      -2.295   7.645  -4.044  1.00  0.00    -0.000 C 
BRANCH  11  12
ATOM     12  C   UNL     1      -1.279   6.624  -4.594  1.00  0.00    -0.000 C 
BRANCH  12  13
ATOM     13  C   UNL     1      -1.748   5.850  -5.842  1.00  0.00    -0.000 C 
BRANCH  13  14
ATOM     14  C   UNL     1      -0.928   4.589  -6.175  1.00  0.00    -0.000 C 
BRANCH  14  15
ATOM     15  C   UNL     1      -1.691   3.261  -6.024  1.00  0.00    -0.003 C 
ATOM     16  C   UNL     1      -1.171   2.402  -4.873  1.00  0.00     0.004 C 
ENDBRANCH  14  15
ENDBRANCH  13  14
ENDBRANCH  12  13
ENDBRANCH  11  12
ENDBRANCH  10  11
ENDBRANCH   1  10
TORSDOF 12
ENDMDL
MODEL 2
REMARK VINA RESULT:    -3.901      1.586      1.934
REMARK INTER + INTRA:          -7.365
REMARK INTER:                  -6.553
REMARK INTRA:                  -0.812
REMARK UNBOUND:                -0.728
REMARK SMILES CCCCCCCCCCCCCC(=O)[O-]
REMARK SMILES IDX 8 1 9 2 10 3 11 4 12 5 13 6 14 7 15 8 16 9 7 10 6 11 5 12
REMARK SMILES IDX 4 13 3 14 2 15 1 16
REMARK H PARENT
REMARK Flexibility Score: inf
ROOT
ATOM      1  C   UNL     1      -4.606   7.441  -3.669  1.00  0.00     0.000 C 
ENDROOT
BRANCH   1   2
ATOM      2  C   UNL     1      -3.883   7.820  -2.363  1.00  0.00     0.000 C 
BRANCH   2   3
ATOM      3  C   UNL     1      -4.778   8.609  -1.394  1.00  0.00     0.000 C 
BRANCH   3   4
ATOM      4  C   UNL     1      -4.355  10.082  -1.264  1.00  0.00     0.000 C 
BRANCH   4   5
ATOM      5  C   UNL     1      -2.964  10.243  -0.628  1.00  0.00     0.006 C 
BRANCH   5   6
ATOM      6  C   UNL     1      -2.881   9.584   0.756  1.00  0.00     0.053 C 
BRANCH   6   7
ATOM      7  C   UNL     1      -1.650   8.743   0.901  1.00  0.00     0.041 C 
ATOM      8  O   UNL     1      -0.876   8.915   1.879  1.00  0.00    -0.550 OA
ATOM      9  O   UNL     1      -1.341   7.789  -0.061  1.00  0.00    -0.550 OA
ENDBRANCH   6   7
ENDBRANCH   5   6
ENDBRANCH   4   5
ENDBRANCH   3   4
ENDBRANCH   2   3
ENDBRANCH   1   2
BRANCH   1  10
ATOM     10  C   UNL     1      -3.702   7.346  -4.914  1.00  0.00     0.000 C 
BRANCH  10  11
ATOM     11  C   UNL     1      -2.215   7.671  -4.670  1.00  0.00    -0.000 C 
BRANCH  11  12
ATOM     12  C   UNL     1      -1.221   6.799  -5.462  1.00  0.00    -0.000 C 
BRANCH  12  13
ATOM     13  C   UNL     1      -1.323   5.286  -5.189  1.00  0.00    -0.000 C 
BRANCH  13  14
ATOM     14  C   UNL     1      -1.670   4.422  -6.417  1.00  0.00    -0.000 C 
BRANCH  14  15
ATOM     15  C   UNL     1      -1.373   2.920  -6.257  1.00  0.00    -0.003 C 
ATOM     16  C   UNL     1      -1.193   2.500  -4.799  1.00  0.00     0.004 C 
ENDBRANCH  14  15
ENDBRANCH  13  14
ENDBRANCH  12  13
ENDBRANCH  11  12
ENDBRANCH  10  11
ENDBRANCH   1  10
TORSDOF 12
ENDMDL
MODEL 3
REMARK VINA RESULT:    -3.860      4.177      7.067
REMARK INTER + INTRA:          -7.297
REMARK INTER:                  -6.002
REMARK INTRA:                  -1.295
REMARK UNBOUND:                -0.728
REMARK SMILES CCCCCCCCCCCCCC(=O)[O-]
REMARK SMILES IDX 8 1 9 2 10 3 11 4 12 5 13 6 14 7 15 8 16 9 7 10 6 11 5 12
REMARK SMILES IDX 4 13 3 14 2 15 1 16
REMARK H PARENT
REMARK Flexibility Score: inf
ROOT
ATOM      1  C   UNL     1      -4.316   7.699  -2.836  1.00  0.00     0.000 C 
ENDROOT
BRANCH   1   2
ATOM      2  C   UNL     1      -4.074   7.565  -4.350  1.00  0.00     0.000 C 
BRANCH   2   3
ATOM      3  C   UNL     1      -3.034   8.567  -4.878  1.00  0.00     0.000 C 
BRANCH   3   4
ATOM      4  C   UNL     1      -1.590   8.063  -4.712  1.00  0.00     0.000 C 
BRANCH   4   5
ATOM      5  C   UNL     1      -1.300   6.812  -5.559  1.00  0.00     0.006 C 
BRANCH   5   6
ATOM      6  C   UNL     1      -0.875   5.615  -4.696  1.00  0.00     0.053 C 
BRANCH   6   7
ATOM      7  C   UNL     1      -1.164   4.310  -5.372  1.00  0.00     0.041 C 
ATOM      8  O   UNL     1      -0.962   3.224  -4.768  1.00  0.00    -0.550 OA
ATOM      9  O   UNL     1      -1.627   4.291  -6.683  1.00  0.00    -0.550 OA
ENDBRANCH   6   7
ENDBRANCH   5   6
ENDBRANCH   4   5
ENDBRANCH   3   4
ENDBRANCH   2   3
ENDBRANCH   1   2
BRANCH   1  10
ATOM     10  C   UNL     1      -4.999   9.009  -2.395  1.00  0.00     0.000 C 
BRANCH  10  11
ATOM     11  C   UNL     1      -4.194   9.861  -1.393  1.00  0.00    -0.000 C 
BRANCH  11  12
ATOM     12  C   UNL     1      -4.108   9.280   0.032  1.00  0.00    -0.000 C 
BRANCH  12  13
ATOM     13  C   UNL     1      -2.811   9.616   0.794  1.00  0.00    -0.000 C 
BRANCH  13  14
ATOM     14  C   UNL     1      -1.507   9.255   0.056  1.00  0.00    -0.000 C 
BRANCH  14  15
ATOM     15  C   UNL     1      -1.103   7.772   0.144  1.00  0.00    -0.003 C 
ATOM     16  C   UNL     1      -0.926   7.120  -1.226  1.00  0.00     0.004 C 
ENDBRANCH  14  15
ENDBRANCH  13  14
ENDBRANCH  12  13
ENDBRANCH  11  12
ENDBRANCH  10  11
ENDBRANCH   1  10
TORSDOF 12
ENDMDL
MODEL 4
REMARK VINA RESULT:    -3.833      4.369      8.218
REMARK INTER + INTRA:          -7.249
REMARK INTER:                  -6.762
REMARK INTRA:                  -0.487
REMARK UNBOUND:                -0.728
REMARK SMILES CCCCCCCCCCCCCC(=O)[O-]
REMARK SMILES IDX 8 1 9 2 10 3 11 4 12 5 13 6 14 7 15 8 16 9 7 10 6 11 5 12
REMARK SMILES IDX 4 13 3 14 2 15 1 16
REMARK H PARENT
REMARK Flexibility Score: inf
ROOT
ATOM      1  C   UNL     1      -4.651   7.511  -3.281  1.00  0.00     0.000 C 
ENDROOT
BRANCH   1   2
ATOM      2  C   UNL     1      -3.923   7.514  -4.638  1.00  0.00     0.000 C 
BRANCH   2   3
ATOM      3  C   UNL     1      -2.403   7.323  -4.499  1.00  0.00     0.000 C 
BRANCH   3   4
ATOM      4  C   UNL     1      -1.806   6.493  -5.648  1.00  0.00     0.000 C 
BRANCH   4   5
ATOM      5  C   UNL     1      -1.232   5.148  -5.169  1.00  0.00     0.006 C 
BRANCH   5   6
ATOM      6  C   UNL     1      -1.578   3.999  -6.127  1.00  0.00     0.053 C 
BRANCH   6   7
ATOM      7  C   UNL     1      -1.187   2.667  -5.564  1.00  0.00     0.041 C 
ATOM      8  O   UNL     1      -0.876   2.558  -4.348  1.00  0.00    -0.550 OA
ATOM      9  O   UNL     1      -1.135   1.550  -6.390  1.00  0.00    -0.550 OA
ENDBRANCH   6   7
ENDBRANCH   5   6
ENDBRANCH   4   5
ENDBRANCH   3   4
ENDBRANCH   2   3
ENDBRANCH   1   2
BRANCH   1  10
ATOM     10  C   UNL     1      -4.987   8.905  -2.715  1.00  0.00     0.000 C 
BRANCH  10  11
ATOM     11  C   UNL     1      -3.992   9.443  -1.668  1.00  0.00    -0.000 C 
BRANCH  11  12
ATOM     12  C   UNL     1      -3.731   8.500  -0.476  1.00  0.00    -0.000 C 
BRANCH  12  13
ATOM     13  C   UNL     1      -2.372   8.699   0.224  1.00  0.00    -0.000 C 
BRANCH  13  14
ATOM     14  C   UNL     1      -2.364   9.752   1.349  1.00  0.00    -0.000 C 
BRANCH  14  15
ATOM     15  C   UNL     1      -3.686  10.521   1.525  1.00  0.00    -0.003 C 
ATOM     16  C   UNL     1      -4.008  10.827   2.986  1.00  0.00     0.004 C 
ENDBRANCH  14  15
ENDBRANCH  13  14
ENDBRANCH  12  13
ENDBRANCH  11  12
ENDBRANCH  10  11
ENDBRANCH   1  10
TORSDOF 12
ENDMDL
MODEL 5
REMARK VINA RESULT:    -3.715      2.583      3.409
REMARK INTER + INTRA:          -7.050
REMARK INTER:                  -6.155
REMARK INTRA:                  -0.894
REMARK UNBOUND:                -0.728
REMARK SMILES CCCCCCCCCCCCCC(=O)[O-]
REMARK SMILES IDX 8 1 9 2 10 3 11 4 12 5 13 6 14 7 15 8 16 9 7 10 6 11 5 12
REMARK SMILES IDX 4 13 3 14 2 15 1 16
REMARK H PARENT
REMARK Flexibility Score: inf
ROOT
ATOM      1  C   UNL     1      -1.254   8.686  -2.091  1.00  0.00     0.000 C 
ENDROOT
BRANCH   1   2
ATOM      2  C   UNL     1      -1.187  10.108  -1.504  1.00  0.00     0.000 C 
BRANCH   2   3
ATOM      3  C   UNL     1      -1.896  10.225  -0.144  1.00  0.00     0.000 C 
BRANCH   3   4
ATOM      4  C   UNL     1      -2.772   9.001   0.173  1.00  0.00     0.000 C 
BRANCH   4   5
ATOM      5  C   UNL     1      -4.255   9.234  -0.161  1.00  0.00     0.006 C 
BRANCH   5   6
ATOM      6  C   UNL     1      -4.784   8.216  -1.182  1.00  0.00     0.053 C 
BRANCH   6   7
ATOM      7  C   UNL     1      -4.959   8.825  -2.539  1.00  0.00     0.041 C 
ATOM      8  O   UNL     1      -5.133  10.067  -2.659  1.00  0.00    -0.550 OA
ATOM      9  O   UNL     1      -4.960   8.018  -3.670  1.00  0.00    -0.550 OA
ENDBRANCH   6   7
ENDBRANCH   5   6
ENDBRANCH   4   5
ENDBRANCH   3   4
ENDBRANCH   2   3
ENDBRANCH   1   2
BRANCH   1  10
ATOM     10  C   UNL     1      -1.432   8.617  -3.621  1.00  0.00     0.000 C 
BRANCH  10  11
ATOM     11  C   UNL     1      -1.127   7.244  -4.253  1.00  0.00    -0.000 C 
BRANCH  11  12
ATOM     12  C   UNL     1      -1.252   7.194  -5.789  1.00  0.00    -0.000 C 
BRANCH  12  13
ATOM     13  C   UNL     1      -1.280   5.777  -6.393  1.00  0.00    -0.000 C 
BRANCH  13  14
ATOM     14  C   UNL     1      -1.238   4.628  -5.366  1.00  0.00    -0.000 C 
BRANCH  14  15
ATOM     15  C   UNL     1      -1.595   3.242  -5.932  1.00  0.00    -0.003 C 
ATOM     16  C   UNL     1      -1.205   2.098  -4.998  1.00  0.00     0.004 C 
ENDBRANCH  14  15
ENDBRANCH  13  14
ENDBRANCH  12  13
ENDBRANCH  11  12
ENDBRANCH  10  11
ENDBRANCH   1  10
TORSDOF 12
ENDMDL
MODEL 6
REMARK VINA RESULT:    -3.687      4.101      7.768
REMARK INTER + INTRA:          -7.001
REMARK INTER:                  -5.894
REMARK INTRA:                  -1.107
REMARK UNBOUND:                -0.728
REMARK SMILES CCCCCCCCCCCCCC(=O)[O-]
REMARK SMILES IDX 8 1 9 2 10 3 11 4 12 5 13 6 14 7 15 8 16 9 7 10 6 11 5 12
REMARK SMILES IDX 4 13 3 14 2 15 1 16
REMARK H PARENT
REMARK Flexibility Score: inf
ROOT
ATOM      1  C   UNL     1      -4.658   8.780  -2.698  1.00  0.00     0.000 C 
ENDROOT
BRANCH   1   2
ATOM      2  C   UNL     1      -4.180   7.593  -3.554  1.00  0.00     0.000 C 
BRANCH   2   3
ATOM      3  C   UNL     1      -3.109   7.993  -4.583  1.00  0.00     0.000 C 
BRANCH   3   4
ATOM      4  C   UNL     1      -1.744   7.345  -4.297  1.00  0.00     0.000 C 
BRANCH   4   5
ATOM      5  C   UNL     1      -1.144   6.658  -5.536  1.00  0.00     0.006 C 
BRANCH   5   6
ATOM      6  C   UNL     1      -2.000   5.476  -6.012  1.00  0.00     0.053 C 
BRANCH   6   7
ATOM      7  C   UNL     1      -1.322   4.163  -5.770  1.00  0.00     0.041 C 
ATOM      8  O   UNL     1      -1.177   3.340  -6.712  1.00  0.00    -0.550 OA
ATOM      9  O   UNL     1      -0.875   3.834  -4.495  1.00  0.00    -0.550 OA
ENDBRANCH   6   7
ENDBRANCH   5   6
ENDBRANCH   4   5
ENDBRANCH   3   4
ENDBRANCH   2   3
ENDBRANCH   1   2
BRANCH   1  10
ATOM     10  C   UNL     1      -4.403   8.641  -1.184  1.00  0.00     0.000 C 
BRANCH  10  11
ATOM     11  C   UNL     1      -2.979   8.194  -0.798  1.00  0.00    -0.000 C 
BRANCH  11  12
ATOM     12  C   UNL     1      -1.874   9.232  -1.080  1.00  0.00    -0.000 C 
BRANCH  12  13
ATOM     13  C   UNL     1      -1.125   9.738   0.168  1.00  0.00    -0.000 C 
BRANCH  13  14
ATOM     14  C   UNL     1      -1.706   9.267   1.515  1.00  0.00    -0.000 C 
BRANCH  14  15
ATOM     15  C   UNL     1      -2.234  10.393   2.422  1.00  0.00    -0.003 C 
ATOM     16  C   UNL     1      -3.717  10.688   2.205  1.00  0.00     0.004 C 
ENDBRANCH  14  15
ENDBRANCH  13  14
ENDBRANCH  12  13
ENDBRANCH  11  12
ENDBRANCH  10  11
ENDBRANCH   1  10
TORSDOF 12
ENDMDL
MODEL 7
REMARK VINA RESULT:    -3.631      4.501      7.923
REMARK INTER + INTRA:          -6.907
REMARK INTER:                  -6.140
REMARK INTRA:                  -0.766
REMARK UNBOUND:                -0.728
REMARK SMILES CCCCCCCCCCCCCC(=O)[O-]
REMARK SMILES IDX 8 1 9 2 10 3 11 4 12 5 13 6 14 7 15 8 16 9 7 10 6 11 5 12
REMARK SMILES IDX 4 13 3 14 2 15 1 16
REMARK H PARENT
REMARK Flexibility Score: inf
ROOT
ATOM      1  C   UNL     1      -1.383   7.337  -2.674  1.00  0.00     0.000 C 
ENDROOT
BRANCH   1   2
ATOM      2  C   UNL     1      -1.874   8.017  -3.965  1.00  0.00     0.000 C 
BRANCH   2   3
ATOM      3  C   UNL     1      -2.484   7.023  -4.968  1.00  0.00     0.000 C 
BRANCH   3   4
ATOM      4  C   UNL     1      -1.449   6.485  -5.970  1.00  0.00     0.000 C 
BRANCH   4   5
ATOM      5  C   UNL     1      -1.588   4.972  -6.209  1.00  0.00     0.006 C 
BRANCH   5   6
ATOM      6  C   UNL     1      -0.880   4.148  -5.124  1.00  0.00     0.053 C 
BRANCH   6   7
ATOM      7  C   UNL     1      -1.036   2.676  -5.351  1.00  0.00     0.041 C 
ATOM      8  O   UNL     1      -1.006   1.877  -4.378  1.00  0.00    -0.550 OA
ATOM      9  O   UNL     1      -1.183   2.181  -6.642  1.00  0.00    -0.550 OA
ENDBRANCH   6   7
ENDBRANCH   5   6
ENDBRANCH   4   5
ENDBRANCH   3   4
ENDBRANCH   2   3
ENDBRANCH   1   2
BRANCH   1  10
ATOM     10  C   UNL     1      -0.875   8.297  -1.580  1.00  0.00     0.000 C 
BRANCH  10  11
ATOM     11  C   UNL     1      -1.515   8.103  -0.191  1.00  0.00    -0.000 C 
BRANCH  11  12
ATOM     12  C   UNL     1      -1.849   9.407   0.559  1.00  0.00    -0.000 C 
BRANCH  12  13
ATOM     13  C   UNL     1      -3.326   9.560   0.972  1.00  0.00    -0.000 C 
BRANCH  13  14
ATOM     14  C   UNL     1      -4.317   9.733  -0.195  1.00  0.00    -0.000 C 
BRANCH  14  15
ATOM     15  C   UNL     1      -4.538   8.472  -1.049  1.00  0.00    -0.003 C 
ATOM     16  C   UNL     1      -5.157   8.775  -2.412  1.00  0.00     0.004 C 
ENDBRANCH  14  15
ENDBRANCH  13  14
ENDBRANCH  12  13
ENDBRANCH  11  12
ENDBRANCH  10  11
ENDBRANCH   1  10
TORSDOF 12
ENDMDL
MODEL 8
REMARK VINA RESULT:    -3.606      3.028      6.361
REMARK INTER + INTRA:          -6.863
REMARK INTER:                  -5.656
REMARK INTRA:                  -1.207
REMARK UNBOUND:                -0.728
REMARK SMILES CCCCCCCCCCCCCC(=O)[O-]
REMARK SMILES IDX 8 1 9 2 10 3 11 4 12 5 13 6 14 7 15 8 16 9 7 10 6 11 5 12
REMARK SMILES IDX 4 13 3 14 2 15 1 16
REMARK H PARENT
REMARK Flexibility Score: inf
ROOT
ATOM      1  C   UNL     1      -4.670   8.675  -2.916  1.00  0.00     0.000 C 
ENDROOT
BRANCH   1   2
ATOM      2  C   UNL     1      -4.632   7.372  -3.736  1.00  0.00     0.000 C 
BRANCH   2   3
ATOM      3  C   UNL     1      -3.761   7.487  -4.998  1.00  0.00     0.000 C 
BRANCH   3   4
ATOM      4  C   UNL     1      -2.404   6.779  -4.845  1.00  0.00     0.000 C 
BRANCH   4   5
ATOM      5  C   UNL     1      -1.266   7.751  -4.490  1.00  0.00     0.006 C 
BRANCH   5   6
ATOM      6  C   UNL     1      -1.412   9.099  -5.208  1.00  0.00     0.053 C 
BRANCH   6   7
ATOM      7  C   UNL     1      -1.670  10.219  -4.247  1.00  0.00     0.041 C 
ATOM      8  O   UNL     1      -2.504  11.119  -4.530  1.00  0.00    -0.550 OA
ATOM      9  O   UNL     1      -0.966  10.285  -3.050  1.00  0.00    -0.550 OA
ENDBRANCH   6   7
ENDBRANCH   5   6
ENDBRANCH   4   5
ENDBRANCH   3   4
ENDBRANCH   2   3
ENDBRANCH   1   2
BRANCH   1  10
ATOM     10  C   UNL     1      -5.014   8.501  -1.423  1.00  0.00     0.000 C 
BRANCH  10  11
ATOM     11  C   UNL     1      -3.821   8.643  -0.457  1.00  0.00    -0.000 C 
BRANCH  11  12
ATOM     12  C   UNL     1      -2.511   7.990  -0.942  1.00  0.00    -0.000 C 
BRANCH  12  13
ATOM     13  C   UNL     1      -1.321   8.125   0.028  1.00  0.00    -0.000 C 
BRANCH  13  14
ATOM     14  C   UNL     1      -1.051   9.554   0.536  1.00  0.00    -0.000 C 
BRANCH  14  15
ATOM     15  C   UNL     1      -1.217   9.743   2.055  1.00  0.00    -0.003 C 
ATOM     16  C   UNL     1      -2.543  10.401   2.433  1.00  0.00     0.004 C 
ENDBRANCH  14  15
ENDBRANCH  13  14
ENDBRANCH  12  13
ENDBRANCH  11  12
ENDBRANCH  10  11
ENDBRANCH   1  10
TORSDOF 12
ENDMDL
MODEL 9
REMARK VINA RESULT:    -1.761      3.452      5.936
REMARK INTER + INTRA:          -3.724
REMARK INTER:                  -2.401
REMARK INTRA:                  -1.323
REMARK UNBOUND:                -0.728
REMARK SMILES CCCCCCCCCCCCCC(=O)[O-]
REMARK SMILES IDX 8 1 9 2 10 3 11 4 12 5 13 6 14 7 15 8 16 9 7 10 6 11 5 12
REMARK SMILES IDX 4 13 3 14 2 15 1 16
REMARK H PARENT
REMARK Flexibility Score: inf
ROOT
ATOM      1  C   UNL     1      -3.572  10.170   1.988  1.00  0.00     0.000 C 
ENDROOT
BRANCH   1   2
ATOM      2  C   UNL     1      -4.109  11.044   0.840  1.00  0.00     0.000 C 
BRANCH   2   3
ATOM      3  C   UNL     1      -4.349  10.248  -0.454  1.00  0.00     0.000 C 
BRANCH   3   4
ATOM      4  C   UNL     1      -3.456  10.721  -1.613  1.00  0.00     0.000 C 
BRANCH   4   5
ATOM      5  C   UNL     1      -4.157  10.622  -2.978  1.00  0.00     0.006 C 
BRANCH   5   6
ATOM      6  C   UNL     1      -5.285   9.581  -2.975  1.00  0.00     0.053 C 
BRANCH   6   7
ATOM      7  C   UNL     1      -4.768   8.197  -3.217  1.00  0.00     0.041 C 
ATOM      8  O   UNL     1      -4.616   7.773  -4.393  1.00  0.00    -0.550 OA
ATOM      9  O   UNL     1      -4.482   7.362  -2.143  1.00  0.00    -0.550 OA
ENDBRANCH   6   7
ENDBRANCH   5   6
ENDBRANCH   4   5
ENDBRANCH   3   4
ENDBRANCH   2   3
ENDBRANCH   1   2
BRANCH   1  10
ATOM     10  C   UNL     1      -2.411  10.787   2.793  1.00  0.00     0.000 C 
BRANCH  10  11
ATOM     11  C   UNL     1      -1.006  10.285   2.405  1.00  0.00    -0.000 C 
BRANCH  11  12
ATOM     12  C   UNL     1      -0.875   9.776   0.956  1.00  0.00    -0.000 C 
BRANCH  12  13
ATOM     13  C   UNL     1      -0.876   8.242   0.803  1.00  0.00    -0.000 C 
BRANCH  13  14
ATOM     14  C   UNL     1      -1.416   7.720  -0.543  1.00  0.00    -0.000 C 
BRANCH  14  15
ATOM     15  C   UNL     1      -0.875   8.450  -1.785  1.00  0.00    -0.003 C 
ATOM     16  C   UNL     1      -1.034   7.640  -3.070  1.00  0.00     0.004 C 
ENDBRANCH  14  15
ENDBRANCH  13  14
ENDBRANCH  12  13
ENDBRANCH  11  12
ENDBRANCH  10  11
ENDBRANCH   1  10
TORSDOF 12
ENDMDL
