MODEL 1
REMARK VINA RESULT:    -4.350      0.000      0.000
REMARK INTER + INTRA:         -10.931
REMARK INTER:                  -8.418
REMARK INTRA:                  -2.512
REMARK UNBOUND:                -2.512
REMARK SMILES CCCCCCCCCCCCCCCCCC(=O)[O-]
REMARK SMILES IDX 10 1 11 2 12 3 13 4 14 5 15 6 16 7 17 8 18 9 19 10 20 11
REMARK SMILES IDX 9 12 8 13 7 14 6 15 5 16 4 17 3 18 2 19 1 20
REMARK H PARENT
REMARK Flexibility Score: inf
ROOT
ATOM      1  C   UNL     1      16.312  51.533 158.594  1.00  0.00     0.000 C 
ENDROOT
BRANCH   1   2
ATOM      2  C   UNL     1      17.492  52.491 158.820  1.00  0.00     0.000 C 
BRANCH   2   3
ATOM      3  C   UNL     1      17.338  53.328 160.103  1.00  0.00     0.000 C 
BRANCH   3   4
ATOM      4  C   UNL     1      18.687  53.819 160.655  1.00  0.00     0.000 C 
BRANCH   4   5
ATOM      5  C   UNL     1      19.574  54.448 159.567  1.00  0.00     0.000 C 
BRANCH   5   6
ATOM      6  C   UNL     1      19.469  55.982 159.535  1.00  0.00     0.000 C 
BRANCH   6   7
ATOM      7  C   UNL     1      19.044  56.576 160.890  1.00  0.00     0.006 C 
BRANCH   7   8
ATOM      8  C   UNL     1      17.901  57.590 160.744  1.00  0.00     0.053 C 
BRANCH   8   9
ATOM      9  C   UNL     1      18.414  58.990 160.602  1.00  0.00     0.041 C 
ATOM     10  O   UNL     1      17.825  59.806 159.847  1.00  0.00    -0.550 OA
ATOM     11  O   UNL     1      19.524  59.402 161.330  1.00  0.00    -0.550 OA
ENDBRANCH   8   9
ENDBRANCH   7   8
ENDBRANCH   6   7
ENDBRANCH   5   6
ENDBRANCH   4   5
ENDBRANCH   3   4
ENDBRANCH   2   3
ENDBRANCH   1   2
BRANCH   1  12
ATOM     12  C   UNL     1      15.078  51.907 159.433  1.00  0.00     0.000 C 
BRANCH  12  13
ATOM     13  C   UNL     1      13.982  52.602 158.605  1.00  0.00    -0.000 C 
BRANCH  13  14
ATOM     14  C   UNL     1      14.219  52.616 157.082  1.00  0.00    -0.000 C 
BRANCH  14  15
ATOM     15  C   UNL     1      13.505  53.750 156.318  1.00  0.00    -0.000 C 
BRANCH  15  16
ATOM     16  C   UNL     1      14.301  55.066 156.217  1.00  0.00    -0.000 C 
BRANCH  16  17
ATOM     17  C   UNL     1      15.812  54.936 156.497  1.00  0.00    -0.000 C 
BRANCH  17  18
ATOM     18  C   UNL     1      16.342  55.819 157.643  1.00  0.00    -0.000 C 
BRANCH  18  19
ATOM     19  C   UNL     1      16.329  57.331 157.354  1.00  0.00    -0.003 C 
ATOM     20  C   UNL     1      17.687  57.862 156.898  1.00  0.00     0.004 C 
ENDBRANCH  18  19
ENDBRANCH  17  18
ENDBRANCH  16  17
ENDBRANCH  15  16
ENDBRANCH  14  15
ENDBRANCH  13  14
ENDBRANCH  12  13
ENDBRANCH   1  12
TORSDOF 16
ENDMDL
MODEL 2
REMARK VINA RESULT:    -4.341      2.718      3.489
REMARK INTER + INTRA:         -10.914
REMARK INTER:                  -8.899
REMARK INTRA:                  -2.014
REMARK UNBOUND:                -2.512
REMARK SMILES CCCCCCCCCCCCCCCCCC(=O)[O-]
REMARK SMILES IDX 10 1 11 2 12 3 13 4 14 5 15 6 16 7 17 8 18 9 19 10 20 11
REMARK SMILES IDX 9 12 8 13 7 14 6 15 5 16 4 17 3 18 2 19 1 20
REMARK H PARENT
REMARK Flexibility Score: inf
ROOT
ATOM      1  C   UNL     1      17.406  52.406 158.878  1.00  0.00     0.000 C 
ENDROOT
BRANCH   1   2
ATOM      2  C   UNL     1      17.176  53.396 160.030  1.00  0.00     0.000 C 
BRANCH   2   3
ATOM      3  C   UNL     1      18.253  54.496 160.091  1.00  0.00     0.000 C 
BRANCH   3   4
ATOM      4  C   UNL     1      19.559  54.085 159.391  1.00  0.00     0.000 C 
BRANCH   4   5
ATOM      5  C   UNL     1      20.604  53.532 160.375  1.00  0.00     0.000 C 
BRANCH   5   6
ATOM      6  C   UNL     1      20.902  54.505 161.527  1.00  0.00     0.000 C 
BRANCH   6   7
ATOM      7  C   UNL     1      21.638  55.773 161.058  1.00  0.00     0.006 C 
BRANCH   7   8
ATOM      8  C   UNL     1      23.072  55.473 160.599  1.00  0.00     0.053 C 
BRANCH   8   9
ATOM      9  C   UNL     1      24.022  55.398 161.754  1.00  0.00     0.041 C 
ATOM     10  O   UNL     1      24.821  54.432 161.856  1.00  0.00    -0.550 OA
ATOM     11  O   UNL     1      24.047  56.415 162.701  1.00  0.00    -0.550 OA
ENDBRANCH   8   9
ENDBRANCH   7   8
ENDBRANCH   6   7
ENDBRANCH   5   6
ENDBRANCH   4   5
ENDBRANCH   3   4
ENDBRANCH   2   3
ENDBRANCH   1   2
BRANCH   1  12
ATOM     12  C   UNL     1      16.241  51.415 158.711  1.00  0.00     0.000 C 
BRANCH  12  13
ATOM     13  C   UNL     1      14.993  51.820 159.517  1.00  0.00    -0.000 C 
BRANCH  13  14
ATOM     14  C   UNL     1      13.896  52.542 158.709  1.00  0.00    -0.000 C 
BRANCH  14  15
ATOM     15  C   UNL     1      14.247  52.822 157.233  1.00  0.00    -0.000 C 
BRANCH  15  16
ATOM     16  C   UNL     1      13.588  54.081 156.637  1.00  0.00    -0.000 C 
BRANCH  16  17
ATOM     17  C   UNL     1      14.567  55.207 156.251  1.00  0.00    -0.000 C 
BRANCH  17  18
ATOM     18  C   UNL     1      15.888  55.224 157.045  1.00  0.00    -0.000 C 
BRANCH  18  19
ATOM     19  C   UNL     1      17.143  54.884 156.221  1.00  0.00    -0.003 C 
ATOM     20  C   UNL     1      18.282  55.882 156.431  1.00  0.00     0.004 C 
ENDBRANCH  18  19
ENDBRANCH  17  18
ENDBRANCH  16  17
ENDBRANCH  15  16
ENDBRANCH  14  15
ENDBRANCH  13  14
ENDBRANCH  12  13
ENDBRANCH   1  12
TORSDOF 16
ENDMDL
MODEL 3
REMARK VINA RESULT:    -4.333      1.845      3.402
REMARK INTER + INTRA:         -10.898
REMARK INTER:                  -8.619
REMARK INTRA:                  -2.278
REMARK UNBOUND:                -2.512
REMARK SMILES CCCCCCCCCCCCCCCCCC(=O)[O-]
REMARK SMILES IDX 10 1 11 2 12 3 13 4 14 5 15 6 16 7 17 8 18 9 19 10 20 11
REMARK SMILES IDX 9 12 8 13 7 14 6 15 5 16 4 17 3 18 2 19 1 20
REMARK H PARENT
REMARK Flexibility Score: inf
ROOT
ATOM      1  C   UNL     1      13.882  52.613 158.743  1.00  0.00     0.000 C 
ENDROOT
BRANCH   1   2
ATOM      2  C   UNL     1      14.968  51.867 159.534  1.00  0.00     0.000 C 
BRANCH   2   3
ATOM      3  C   UNL     1      16.193  51.514 158.670  1.00  0.00     0.000 C 
BRANCH   3   4
ATOM      4  C   UNL     1      17.371  52.477 158.891  1.00  0.00     0.000 C 
BRANCH   4   5
ATOM      5  C   UNL     1      17.260  53.248 160.217  1.00  0.00     0.000 C 
BRANCH   5   6
ATOM      6  C   UNL     1      18.408  54.253 160.413  1.00  0.00     0.000 C 
BRANCH   6   7
ATOM      7  C   UNL     1      19.585  54.004 159.453  1.00  0.00     0.006 C 
BRANCH   7   8
ATOM      8  C   UNL     1      20.884  53.681 160.204  1.00  0.00     0.053 C 
BRANCH   8   9
ATOM      9  C   UNL     1      21.421  54.878 160.926  1.00  0.00     0.041 C 
ATOM     10  O   UNL     1      21.226  55.011 162.163  1.00  0.00    -0.550 OA
ATOM     11  O   UNL     1      22.164  55.830 160.240  1.00  0.00    -0.550 OA
ENDBRANCH   8   9
ENDBRANCH   7   8
ENDBRANCH   6   7
ENDBRANCH   5   6
ENDBRANCH   4   5
ENDBRANCH   3   4
ENDBRANCH   2   3
ENDBRANCH   1   2
BRANCH   1  12
ATOM     12  C   UNL     1      14.241  52.777 157.256  1.00  0.00     0.000 C 
BRANCH  12  13
ATOM     13  C   UNL     1      13.489  53.940 156.585  1.00  0.00    -0.000 C 
BRANCH  13  14
ATOM     14  C   UNL     1      14.384  55.066 156.029  1.00  0.00    -0.000 C 
BRANCH  14  15
ATOM     15  C   UNL     1      15.868  54.986 156.440  1.00  0.00    -0.000 C 
BRANCH  15  16
ATOM     16  C   UNL     1      16.231  55.768 157.718  1.00  0.00    -0.000 C 
BRANCH  16  17
ATOM     17  C   UNL     1      16.888  57.141 157.476  1.00  0.00    -0.000 C 
BRANCH  17  18
ATOM     18  C   UNL     1      17.397  57.854 158.745  1.00  0.00    -0.000 C 
BRANCH  18  19
ATOM     19  C   UNL     1      18.896  57.664 159.037  1.00  0.00    -0.003 C 
ATOM     20  C   UNL     1      19.274  58.032 160.471  1.00  0.00     0.004 C 
ENDBRANCH  18  19
ENDBRANCH  17  18
ENDBRANCH  16  17
ENDBRANCH  15  16
ENDBRANCH  14  15
ENDBRANCH  13  14
ENDBRANCH  12  13
ENDBRANCH   1  12
TORSDOF 16
ENDMDL
MODEL 4
REMARK VINA RESULT:    -4.299      1.127      3.738
REMARK INTER + INTRA:         -10.832
REMARK INTER:                  -8.508
REMARK INTRA:                  -2.324
REMARK UNBOUND:                -2.512
REMARK SMILES CCCCCCCCCCCCCCCCCC(=O)[O-]
REMARK SMILES IDX 10 1 11 2 12 3 13 4 14 5 15 6 16 7 17 8 18 9 19 10 20 11
REMARK SMILES IDX 9 12 8 13 7 14 6 15 5 16 4 17 3 18 2 19 1 20
REMARK H PARENT
REMARK Flexibility Score: inf
ROOT
ATOM      1  C   UNL     1      15.637  54.754 156.175  1.00  0.00     0.000 C 
ENDROOT
BRANCH   1   2
ATOM      2  C   UNL     1      16.156  55.518 157.403  1.00  0.00     0.000 C 
BRANCH   2   3
ATOM      3  C   UNL     1      16.188  57.042 157.183  1.00  0.00     0.000 C 
BRANCH   3   4
ATOM      4  C   UNL     1      17.618  57.593 157.058  1.00  0.00     0.000 C 
BRANCH   4   5
ATOM      5  C   UNL     1      18.682  56.573 157.497  1.00  0.00     0.000 C 
BRANCH   5   6
ATOM      6  C   UNL     1      19.517  57.068 158.689  1.00  0.00     0.000 C 
BRANCH   6   7
ATOM      7  C   UNL     1      18.649  57.630 159.829  1.00  0.00     0.006 C 
BRANCH   7   8
ATOM      8  C   UNL     1      19.114  59.022 160.277  1.00  0.00     0.053 C 
BRANCH   8   9
ATOM      9  C   UNL     1      18.241  60.106 159.723  1.00  0.00     0.041 C 
ATOM     10  O   UNL     1      18.750  61.175 159.298  1.00  0.00    -0.550 OA
ATOM     11  O   UNL     1      16.866  59.920 159.645  1.00  0.00    -0.550 OA
ENDBRANCH   8   9
ENDBRANCH   7   8
ENDBRANCH   6   7
ENDBRANCH   5   6
ENDBRANCH   4   5
ENDBRANCH   3   4
ENDBRANCH   2   3
ENDBRANCH   1   2
BRANCH   1  12
ATOM     12  C   UNL     1      14.348  53.968 156.472  1.00  0.00     0.000 C 
BRANCH  12  13
ATOM     13  C   UNL     1      14.539  52.900 157.564  1.00  0.00    -0.000 C 
BRANCH  13  14
ATOM     14  C   UNL     1      15.671  51.887 157.301  1.00  0.00    -0.000 C 
BRANCH  14  15
ATOM     15  C   UNL     1      16.553  51.560 158.523  1.00  0.00    -0.000 C 
BRANCH  15  16
ATOM     16  C   UNL     1      16.150  52.277 159.826  1.00  0.00    -0.000 C 
BRANCH  16  17
ATOM     17  C   UNL     1      17.140  53.357 160.308  1.00  0.00    -0.000 C 
BRANCH  17  18
ATOM     18  C   UNL     1      18.486  53.389 159.558  1.00  0.00    -0.000 C 
BRANCH  18  19
ATOM     19  C   UNL     1      19.701  53.769 160.423  1.00  0.00    -0.003 C 
ATOM     20  C   UNL     1      21.034  53.556 159.706  1.00  0.00     0.004 C 
ENDBRANCH  18  19
ENDBRANCH  17  18
ENDBRANCH  16  17
ENDBRANCH  15  16
ENDBRANCH  14  15
ENDBRANCH  13  14
ENDBRANCH  12  13
ENDBRANCH   1  12
TORSDOF 16
ENDMDL
MODEL 5
REMARK VINA RESULT:    -4.249      1.414      3.903
REMARK INTER + INTRA:         -10.735
REMARK INTER:                  -8.324
REMARK INTRA:                  -2.411
REMARK UNBOUND:                -2.512
REMARK SMILES CCCCCCCCCCCCCCCCCC(=O)[O-]
REMARK SMILES IDX 10 1 11 2 12 3 13 4 14 5 15 6 16 7 17 8 18 9 19 10 20 11
REMARK SMILES IDX 9 12 8 13 7 14 6 15 5 16 4 17 3 18 2 19 1 20
REMARK H PARENT
REMARK Flexibility Score: inf
ROOT
ATOM      1  C   UNL     1      14.633  54.115 156.544  1.00  0.00     0.000 C 
ENDROOT
BRANCH   1   2
ATOM      2  C   UNL     1      16.039  54.232 155.933  1.00  0.00     0.000 C 
BRANCH   2   3
ATOM      3  C   UNL     1      16.812  55.457 156.455  1.00  0.00     0.000 C 
BRANCH   3   4
ATOM      4  C   UNL     1      15.887  56.534 157.045  1.00  0.00     0.000 C 
BRANCH   4   5
ATOM      5  C   UNL     1      16.646  57.554 157.911  1.00  0.00     0.000 C 
BRANCH   5   6
ATOM      6  C   UNL     1      17.619  56.883 158.895  1.00  0.00     0.000 C 
BRANCH   6   7
ATOM      7  C   UNL     1      17.762  57.663 160.213  1.00  0.00     0.006 C 
BRANCH   7   8
ATOM      8  C   UNL     1      19.208  57.673 160.726  1.00  0.00     0.053 C 
BRANCH   8   9
ATOM      9  C   UNL     1      19.280  57.386 162.194  1.00  0.00     0.041 C 
ATOM     10  O   UNL     1      20.396  57.251 162.760  1.00  0.00    -0.550 OA
ATOM     11  O   UNL     1      18.113  57.302 162.945  1.00  0.00    -0.550 OA
ENDBRANCH   8   9
ENDBRANCH   7   8
ENDBRANCH   6   7
ENDBRANCH   5   6
ENDBRANCH   4   5
ENDBRANCH   3   4
ENDBRANCH   2   3
ENDBRANCH   1   2
BRANCH   1  12
ATOM     12  C   UNL     1      14.312  52.686 157.014  1.00  0.00     0.000 C 
BRANCH  12  13
ATOM     13  C   UNL     1      14.012  52.608 158.522  1.00  0.00    -0.000 C 
BRANCH  13  14
ATOM     14  C   UNL     1      15.067  51.859 159.363  1.00  0.00    -0.000 C 
BRANCH  14  15
ATOM     15  C   UNL     1      16.393  51.563 158.635  1.00  0.00    -0.000 C 
BRANCH  15  16
ATOM     16  C   UNL     1      17.520  52.581 158.897  1.00  0.00    -0.000 C 
BRANCH  16  17
ATOM     17  C   UNL     1      17.282  53.520 160.097  1.00  0.00    -0.000 C 
BRANCH  17  18
ATOM     18  C   UNL     1      18.551  53.915 160.877  1.00  0.00    -0.000 C 
BRANCH  18  19
ATOM     19  C   UNL     1      19.874  53.670 160.129  1.00  0.00    -0.003 C 
ATOM     20  C   UNL     1      21.064  54.377 160.777  1.00  0.00     0.004 C 
ENDBRANCH  18  19
ENDBRANCH  17  18
ENDBRANCH  16  17
ENDBRANCH  15  16
ENDBRANCH  14  15
ENDBRANCH  13  14
ENDBRANCH  12  13
ENDBRANCH   1  12
TORSDOF 16
ENDMDL
MODEL 6
REMARK VINA RESULT:    -4.239      1.153      3.914
REMARK INTER + INTRA:         -10.716
REMARK INTER:                  -8.250
REMARK INTRA:                  -2.466
REMARK UNBOUND:                -2.512
REMARK SMILES CCCCCCCCCCCCCCCCCC(=O)[O-]
REMARK SMILES IDX 10 1 11 2 12 3 13 4 14 5 15 6 16 7 17 8 18 9 19 10 20 11
REMARK SMILES IDX 9 12 8 13 7 14 6 15 5 16 4 17 3 18 2 19 1 20
REMARK H PARENT
REMARK Flexibility Score: inf
ROOT
ATOM      1  C   UNL     1      13.522  53.707 156.938  1.00  0.00     0.000 C 
ENDROOT
BRANCH   1   2
ATOM      2  C   UNL     1      14.204  54.750 156.039  1.00  0.00     0.000 C 
BRANCH   2   3
ATOM      3  C   UNL     1      15.694  54.942 156.378  1.00  0.00     0.000 C 
BRANCH   3   4
ATOM      4  C   UNL     1      15.927  56.058 157.410  1.00  0.00     0.000 C 
BRANCH   4   5
ATOM      5  C   UNL     1      16.527  57.327 156.781  1.00  0.00     0.000 C 
BRANCH   5   6
ATOM      6  C   UNL     1      18.062  57.277 156.705  1.00  0.00     0.000 C 
BRANCH   6   7
ATOM      7  C   UNL     1      18.714  56.960 158.062  1.00  0.00     0.006 C 
BRANCH   7   8
ATOM      8  C   UNL     1      18.966  58.226 158.893  1.00  0.00     0.053 C 
BRANCH   8   9
ATOM      9  C   UNL     1      17.883  58.452 159.903  1.00  0.00     0.041 C 
ATOM     10  O   UNL     1      17.097  59.428 159.781  1.00  0.00    -0.550 OA
ATOM     11  O   UNL     1      17.721  57.566 160.961  1.00  0.00    -0.550 OA
ENDBRANCH   8   9
ENDBRANCH   7   8
ENDBRANCH   6   7
ENDBRANCH   5   6
ENDBRANCH   4   5
ENDBRANCH   3   4
ENDBRANCH   2   3
ENDBRANCH   1   2
BRANCH   1  12
ATOM     12  C   UNL     1      14.475  52.573 157.355  1.00  0.00     0.000 C 
BRANCH  12  13
ATOM     13  C   UNL     1      14.447  52.296 158.869  1.00  0.00    -0.000 C 
BRANCH  13  14
ATOM     14  C   UNL     1      15.825  52.054 159.517  1.00  0.00    -0.000 C 
BRANCH  14  15
ATOM     15  C   UNL     1      17.024  52.126 158.551  1.00  0.00    -0.000 C 
BRANCH  15  16
ATOM     16  C   UNL     1      18.004  53.285 158.817  1.00  0.00    -0.000 C 
BRANCH  16  17
ATOM     17  C   UNL     1      17.724  54.092 160.100  1.00  0.00    -0.000 C 
BRANCH  17  18
ATOM     18  C   UNL     1      18.848  54.052 161.155  1.00  0.00    -0.000 C 
BRANCH  18  19
ATOM     19  C   UNL     1      20.260  53.818 160.588  1.00  0.00    -0.003 C 
ATOM     20  C   UNL     1      21.049  55.113 160.403  1.00  0.00     0.004 C 
ENDBRANCH  18  19
ENDBRANCH  17  18
ENDBRANCH  16  17
ENDBRANCH  15  16
ENDBRANCH  14  15
ENDBRANCH  13  14
ENDBRANCH  12  13
ENDBRANCH   1  12
TORSDOF 16
ENDMDL
MODEL 7
REMARK VINA RESULT:    -4.225      1.241      1.873
REMARK INTER + INTRA:         -10.689
REMARK INTER:                  -8.115
REMARK INTRA:                  -2.575
REMARK UNBOUND:                -2.512
REMARK SMILES CCCCCCCCCCCCCCCCCC(=O)[O-]
REMARK SMILES IDX 10 1 11 2 12 3 13 4 14 5 15 6 16 7 17 8 18 9 19 10 20 11
REMARK SMILES IDX 9 12 8 13 7 14 6 15 5 16 4 17 3 18 2 19 1 20
REMARK H PARENT
REMARK Flexibility Score: inf
ROOT
ATOM      1  C   UNL     1      17.459  53.470 160.191  1.00  0.00     0.000 C 
ENDROOT
BRANCH   1   2
ATOM      2  C   UNL     1      18.682  53.389 159.264  1.00  0.00     0.000 C 
BRANCH   2   3
ATOM      3  C   UNL     1      19.997  53.733 159.986  1.00  0.00     0.000 C 
BRANCH   3   4
ATOM      4  C   UNL     1      19.777  54.151 161.449  1.00  0.00     0.000 C 
BRANCH   4   5
ATOM      5  C   UNL     1      20.396  55.523 161.769  1.00  0.00     0.000 C 
BRANCH   5   6
ATOM      6  C   UNL     1      20.023  56.594 160.732  1.00  0.00     0.000 C 
BRANCH   6   7
ATOM      7  C   UNL     1      19.032  57.635 161.283  1.00  0.00     0.006 C 
BRANCH   7   8
ATOM      8  C   UNL     1      17.788  57.775 160.395  1.00  0.00     0.053 C 
BRANCH   8   9
ATOM      9  C   UNL     1      17.749  59.102 159.700  1.00  0.00     0.041 C 
ATOM     10  O   UNL     1      18.756  59.516 159.069  1.00  0.00    -0.550 OA
ATOM     11  O   UNL     1      16.588  59.865 159.721  1.00  0.00    -0.550 OA
ENDBRANCH   8   9
ENDBRANCH   7   8
ENDBRANCH   6   7
ENDBRANCH   5   6
ENDBRANCH   4   5
ENDBRANCH   3   4
ENDBRANCH   2   3
ENDBRANCH   1   2
BRANCH   1  12
ATOM     12  C   UNL     1      16.347  52.487 159.788  1.00  0.00     0.000 C 
BRANCH  12  13
ATOM     13  C   UNL     1      16.611  51.810 158.430  1.00  0.00    -0.000 C 
BRANCH  13  14
ATOM     14  C   UNL     1      15.625  52.187 157.306  1.00  0.00    -0.000 C 
BRANCH  14  15
ATOM     15  C   UNL     1      14.693  53.374 157.624  1.00  0.00    -0.000 C 
BRANCH  15  16
ATOM     16  C   UNL     1      14.455  54.344 156.450  1.00  0.00    -0.000 C 
BRANCH  16  17
ATOM     17  C   UNL     1      15.120  55.727 156.605  1.00  0.00    -0.000 C 
BRANCH  17  18
ATOM     18  C   UNL     1      16.431  55.734 157.415  1.00  0.00    -0.000 C 
BRANCH  18  19
ATOM     19  C   UNL     1      17.708  55.517 156.582  1.00  0.00    -0.003 C 
ATOM     20  C   UNL     1      18.893  56.340 157.085  1.00  0.00     0.004 C 
ENDBRANCH  18  19
ENDBRANCH  17  18
ENDBRANCH  16  17
ENDBRANCH  15  16
ENDBRANCH  14  15
ENDBRANCH  13  14
ENDBRANCH  12  13
ENDBRANCH   1  12
TORSDOF 16
ENDMDL
MODEL 8
REMARK VINA RESULT:    -4.202      1.796      4.314
REMARK INTER + INTRA:         -10.644
REMARK INTER:                  -7.961
REMARK INTRA:                  -2.683
REMARK UNBOUND:                -2.512
REMARK SMILES CCCCCCCCCCCCCCCCCC(=O)[O-]
REMARK SMILES IDX 10 1 11 2 12 3 13 4 14 5 15 6 16 7 17 8 18 9 19 10 20 11
REMARK SMILES IDX 9 12 8 13 7 14 6 15 5 16 4 17 3 18 2 19 1 20
REMARK H PARENT
REMARK Flexibility Score: inf
ROOT
ATOM      1  C   UNL     1      18.235  57.798 158.510  1.00  0.00     0.000 C 
ENDROOT
BRANCH   1   2
ATOM      2  C   UNL     1      18.610  56.361 158.904  1.00  0.00     0.000 C 
BRANCH   2   3
ATOM      3  C   UNL     1      17.667  55.773 159.970  1.00  0.00     0.000 C 
BRANCH   3   4
ATOM      4  C   UNL     1      18.236  54.505 160.629  1.00  0.00     0.000 C 
BRANCH   4   5
ATOM      5  C   UNL     1      19.356  53.860 159.795  1.00  0.00     0.000 C 
BRANCH   5   6
ATOM      6  C   UNL     1      20.665  53.704 160.586  1.00  0.00     0.000 C 
BRANCH   6   7
ATOM      7  C   UNL     1      20.626  54.423 161.947  1.00  0.00     0.006 C 
BRANCH   7   8
ATOM      8  C   UNL     1      21.708  55.504 162.061  1.00  0.00     0.053 C 
BRANCH   8   9
ATOM      9  C   UNL     1      21.395  56.696 161.210  1.00  0.00     0.041 C 
ATOM     10  O   UNL     1      20.563  57.554 161.603  1.00  0.00    -0.550 OA
ATOM     11  O   UNL     1      22.049  56.877 159.997  1.00  0.00    -0.550 OA
ENDBRANCH   8   9
ENDBRANCH   7   8
ENDBRANCH   6   7
ENDBRANCH   5   6
ENDBRANCH   4   5
ENDBRANCH   3   4
ENDBRANCH   2   3
ENDBRANCH   1   2
BRANCH   1  12
ATOM     12  C   UNL     1      16.759  57.929 158.094  1.00  0.00     0.000 C 
BRANCH  12  13
ATOM     13  C   UNL     1      16.503  57.463 156.649  1.00  0.00    -0.000 C 
BRANCH  13  14
ATOM     14  C   UNL     1      15.303  56.511 156.469  1.00  0.00    -0.000 C 
BRANCH  14  15
ATOM     15  C   UNL     1      15.486  55.106 157.078  1.00  0.00    -0.000 C 
BRANCH  15  16
ATOM     16  C   UNL     1      16.667  54.299 156.505  1.00  0.00    -0.000 C 
BRANCH  16  17
ATOM     17  C   UNL     1      16.869  52.905 157.134  1.00  0.00    -0.000 C 
BRANCH  17  18
ATOM     18  C   UNL     1      16.014  52.624 158.385  1.00  0.00    -0.000 C 
BRANCH  18  19
ATOM     19  C   UNL     1      16.464  51.410 159.217  1.00  0.00    -0.003 C 
ATOM     20  C   UNL     1      15.323  50.779 160.014  1.00  0.00     0.004 C 
ENDBRANCH  18  19
ENDBRANCH  17  18
ENDBRANCH  16  17
ENDBRANCH  15  16
ENDBRANCH  14  15
ENDBRANCH  13  14
ENDBRANCH  12  13
ENDBRANCH   1  12
TORSDOF 16
ENDMDL
MODEL 9
REMARK VINA RESULT:    -4.139      1.488      3.722
REMARK INTER + INTRA:         -10.522
REMARK INTER:                  -7.798
REMARK INTRA:                  -2.724
REMARK UNBOUND:                -2.512
REMARK SMILES CCCCCCCCCCCCCCCCCC(=O)[O-]
REMARK SMILES IDX 10 1 11 2 12 3 13 4 14 5 15 6 16 7 17 8 18 9 19 10 20 11
REMARK SMILES IDX 9 12 8 13 7 14 6 15 5 16 4 17 3 18 2 19 1 20
REMARK H PARENT
REMARK Flexibility Score: inf
ROOT
ATOM      1  C   UNL     1      15.149  55.048 157.008  1.00  0.00     0.000 C 
ENDROOT
BRANCH   1   2
ATOM      2  C   UNL     1      16.463  55.091 156.212  1.00  0.00     0.000 C 
BRANCH   2   3
ATOM      3  C   UNL     1      17.601  55.784 156.983  1.00  0.00     0.000 C 
BRANCH   3   4
ATOM      4  C   UNL     1      17.086  56.667 158.132  1.00  0.00     0.000 C 
BRANCH   4   5
ATOM      5  C   UNL     1      18.211  57.469 158.809  1.00  0.00     0.000 C 
BRANCH   5   6
ATOM      6  C   UNL     1      17.767  58.101 160.138  1.00  0.00     0.000 C 
BRANCH   6   7
ATOM      7  C   UNL     1      18.955  58.532 161.017  1.00  0.00     0.006 C 
BRANCH   7   8
ATOM      8  C   UNL     1      19.448  57.394 161.921  1.00  0.00     0.053 C 
BRANCH   8   9
ATOM      9  C   UNL     1      20.864  57.014 161.614  1.00  0.00     0.041 C 
ATOM     10  O   UNL     1      21.566  56.432 162.481  1.00  0.00    -0.550 OA
ATOM     11  O   UNL     1      21.397  57.272 160.357  1.00  0.00    -0.550 OA
ENDBRANCH   8   9
ENDBRANCH   7   8
ENDBRANCH   6   7
ENDBRANCH   5   6
ENDBRANCH   4   5
ENDBRANCH   3   4
ENDBRANCH   2   3
ENDBRANCH   1   2
BRANCH   1  12
ATOM     12  C   UNL     1      14.108  54.106 156.379  1.00  0.00     0.000 C 
BRANCH  12  13
ATOM     13  C   UNL     1      14.128  52.696 156.998  1.00  0.00    -0.000 C 
BRANCH  13  14
ATOM     14  C   UNL     1      13.963  52.650 158.531  1.00  0.00    -0.000 C 
BRANCH  14  15
ATOM     15  C   UNL     1      15.053  51.861 159.283  1.00  0.00    -0.000 C 
BRANCH  15  16
ATOM     16  C   UNL     1      16.333  51.586 158.470  1.00  0.00    -0.000 C 
BRANCH  16  17
ATOM     17  C   UNL     1      17.514  52.529 158.778  1.00  0.00    -0.000 C 
BRANCH  17  18
ATOM     18  C   UNL     1      17.315  53.445 160.002  1.00  0.00    -0.000 C 
BRANCH  18  19
ATOM     19  C   UNL     1      18.608  54.061 160.567  1.00  0.00    -0.003 C 
ATOM     20  C   UNL     1      19.759  54.055 159.561  1.00  0.00     0.004 C 
ENDBRANCH  18  19
ENDBRANCH  17  18
ENDBRANCH  16  17
ENDBRANCH  15  16
ENDBRANCH  14  15
ENDBRANCH  13  14
ENDBRANCH  12  13
ENDBRANCH   1  12
TORSDOF 16
ENDMDL
