MODEL 1
REMARK VINA RESULT:    -7.747      0.000      0.000
REMARK INTER + INTRA:         -11.512
REMARK INTER:                 -10.238
REMARK INTRA:                  -1.274
REMARK UNBOUND:                -1.274
REMARK SMILES CC[C@H](C=C[C@H](C)[C@@H]1CC[C@@H]2C3=CC[C@H]4C[C@@H](O)CC[C@@]4(C)[C@H]3CC[C@@]21C)C(C)C
REMARK SMILES IDX 6 1 7 2 5 3 4 4 3 5 2 6 1 7 28 8 29 9 30 10 8 11 9 12 26 13
REMARK SMILES IDX 10 14 11 15 25 16 27 17 12 18 24 19 23 20 13 21 21 22 14 23
REMARK SMILES IDX 15 24 20 25 22 26 16 27 19 28 17 29 18 30
REMARK H PARENT 18 31
REMARK Flexibility Score: inf
ROOT
ATOM      1  C   UNL     1     132.554 128.032 137.464  1.00  0.00     0.012 C 
ATOM      2  C   UNL     1     131.140 127.444 137.291  1.00  0.00     0.012 C 
ENDROOT
BRANCH   1   3
ATOM      3  C   UNL     1     133.410 127.785 136.231  1.00  0.00    -0.028 C 
ATOM      4  C   UNL     1     134.634 127.215 136.218  1.00  0.00    -0.027 C 
BRANCH   4   5
ATOM      5  C   UNL     1     135.380 126.664 137.422  1.00  0.00     0.014 C 
BRANCH   5   6
ATOM      6  C   UNL     1     134.520 125.533 138.042  1.00  0.00     0.004 C 
ATOM      7  C   UNL     1     134.573 125.476 139.567  1.00  0.00     0.004 C 
ENDBRANCH   5   6
BRANCH   5   8
ATOM      8  C   UNL     1     136.830 126.260 136.991  1.00  0.00    -0.011 C 
ATOM      9  C   UNL     1     137.588 127.358 136.227  1.00  0.00     0.008 C 
ATOM     10  C   UNL     1     136.873 124.932 136.218  1.00  0.00     0.008 C 
ENDBRANCH   5   8
ENDBRANCH   4   5
ENDBRANCH   1   3
BRANCH   1  11
ATOM     11  C   UNL     1     132.630 129.528 137.941  1.00  0.00     0.002 C 
ATOM     12  C   UNL     1     133.761 130.300 137.268  1.00  0.00     0.005 C 
ATOM     13  C   UNL     1     132.684 129.954 139.449  1.00  0.00    -0.023 C 
ATOM     14  C   UNL     1     133.891 131.604 138.048  1.00  0.00     0.009 C 
ATOM     15  C   UNL     1     133.064 131.456 139.340  1.00  0.00     0.021 C 
ATOM     16  C   UNL     1     133.763 129.202 140.269  1.00  0.00     0.008 C 
ATOM     17  C   UNL     1     131.298 129.810 140.130  1.00  0.00     0.012 C 
ATOM     18  C   UNL     1     133.803 132.073 140.525  1.00  0.00    -0.067 C 
ATOM     19  C   UNL     1     133.943 129.785 141.671  1.00  0.00     0.009 C 
ATOM     20  C   UNL     1     134.421 131.254 141.647  1.00  0.00     0.021 C 
ATOM     21  C   UNL     1     133.972 133.406 140.539  1.00  0.00    -0.027 C 
ATOM     22  C   UNL     1     134.250 131.996 143.027  1.00  0.00    -0.023 C 
ATOM     23  C   UNL     1     134.870 134.094 141.533  1.00  0.00     0.031 C 
ATOM     24  C   UNL     1     134.988 133.387 142.921  1.00  0.00     0.002 C 
ATOM     25  C   UNL     1     132.735 132.197 143.373  1.00  0.00     0.010 C 
ATOM     26  C   UNL     1     134.922 131.154 144.151  1.00  0.00     0.012 C 
ATOM     27  C   UNL     1     134.645 134.357 144.082  1.00  0.00     0.036 C 
ATOM     28  C   UNL     1     132.497 133.141 144.557  1.00  0.00     0.032 C 
ATOM     29  C   UNL     1     133.139 134.513 144.320  1.00  0.00     0.114 C 
BRANCH  29  30
ATOM     30  O   UNL     1     132.539 135.157 143.226  1.00  0.00    -0.393 OA
ATOM     31  H   UNL     1     131.799 135.710 143.588  1.00  0.00     0.210 HD
ENDBRANCH  29  30
ENDBRANCH   1  11
TORSDOF 6
ENDMDL
MODEL 2
REMARK VINA RESULT:    -7.081      0.640      1.423
REMARK INTER + INTRA:         -10.631
REMARK INTER:                  -9.148
REMARK INTRA:                  -1.484
REMARK UNBOUND:                -1.274
REMARK SMILES CC[C@H](C=C[C@H](C)[C@@H]1CC[C@@H]2C3=CC[C@H]4C[C@@H](O)CC[C@@]4(C)[C@H]3CC[C@@]21C)C(C)C
REMARK SMILES IDX 6 1 7 2 5 3 4 4 3 5 2 6 1 7 28 8 29 9 30 10 8 11 9 12 26 13
REMARK SMILES IDX 10 14 11 15 25 16 27 17 12 18 24 19 23 20 13 21 21 22 14 23
REMARK SMILES IDX 15 24 20 25 22 26 16 27 19 28 17 29 18 30
REMARK H PARENT 18 31
REMARK Flexibility Score: inf
ROOT
ATOM      1  C   UNL     1     132.899 128.113 137.351  1.00  0.00     0.012 C 
ATOM      2  C   UNL     1     131.515 127.524 137.016  1.00  0.00     0.012 C 
ENDROOT
BRANCH   1   3
ATOM      3  C   UNL     1     133.885 127.887 136.215  1.00  0.00    -0.028 C 
ATOM      4  C   UNL     1     134.800 126.896 136.145  1.00  0.00    -0.027 C 
BRANCH   4   5
ATOM      5  C   UNL     1     134.998 125.785 137.163  1.00  0.00     0.014 C 
BRANCH   5   6
ATOM      6  C   UNL     1     136.110 124.843 136.634  1.00  0.00     0.004 C 
ATOM      7  C   UNL     1     136.798 125.343 135.366  1.00  0.00     0.004 C 
ENDBRANCH   5   6
BRANCH   5   8
ATOM      8  C   UNL     1     135.251 126.414 138.574  1.00  0.00    -0.011 C 
ATOM      9  C   UNL     1     136.729 126.719 138.869  1.00  0.00     0.008 C 
ATOM     10  C   UNL     1     134.629 125.591 139.713  1.00  0.00     0.008 C 
ENDBRANCH   5   8
ENDBRANCH   4   5
ENDBRANCH   1   3
BRANCH   1  11
ATOM     11  C   UNL     1     132.917 129.601 137.855  1.00  0.00     0.002 C 
ATOM     12  C   UNL     1     134.044 130.419 137.230  1.00  0.00     0.005 C 
ATOM     13  C   UNL     1     132.914 130.002 139.372  1.00  0.00    -0.023 C 
ATOM     14  C   UNL     1     134.112 131.712 138.035  1.00  0.00     0.009 C 
ATOM     15  C   UNL     1     133.253 131.516 139.299  1.00  0.00     0.021 C 
ATOM     16  C   UNL     1     133.990 129.267 140.210  1.00  0.00     0.008 C 
ATOM     17  C   UNL     1     131.514 129.805 140.008  1.00  0.00     0.012 C 
ATOM     18  C   UNL     1     133.938 132.133 140.516  1.00  0.00    -0.067 C 
ATOM     19  C   UNL     1     134.112 129.830 141.626  1.00  0.00     0.009 C 
ATOM     20  C   UNL     1     134.547 131.312 141.643  1.00  0.00     0.021 C 
ATOM     21  C   UNL     1     134.068 133.470 140.559  1.00  0.00    -0.027 C 
ATOM     22  C   UNL     1     134.314 132.024 143.029  1.00  0.00    -0.023 C 
ATOM     23  C   UNL     1     134.915 134.165 141.591  1.00  0.00     0.031 C 
ATOM     24  C   UNL     1     135.013 133.437 142.969  1.00  0.00     0.002 C 
ATOM     25  C   UNL     1     132.784 132.174 143.333  1.00  0.00     0.010 C 
ATOM     26  C   UNL     1     134.977 131.182 144.157  1.00  0.00     0.012 C 
ATOM     27  C   UNL     1     134.607 134.376 144.135  1.00  0.00     0.036 C 
ATOM     28  C   UNL     1     132.484 133.090 144.526  1.00  0.00     0.032 C 
ATOM     29  C   UNL     1     133.091 134.484 144.331  1.00  0.00     0.114 C 
BRANCH  29  30
ATOM     30  O   UNL     1     132.505 135.130 143.231  1.00  0.00    -0.393 OA
ATOM     31  H   UNL     1     133.219 135.246 142.552  1.00  0.00     0.210 HD
ENDBRANCH  29  30
ENDBRANCH   1  11
TORSDOF 6
ENDMDL
MODEL 3
REMARK VINA RESULT:    -6.510      2.792      8.084
REMARK INTER + INTRA:          -9.877
REMARK INTER:                  -9.221
REMARK INTRA:                  -0.656
REMARK UNBOUND:                -1.274
REMARK SMILES CC[C@H](C=C[C@H](C)[C@@H]1CC[C@@H]2C3=CC[C@H]4C[C@@H](O)CC[C@@]4(C)[C@H]3CC[C@@]21C)C(C)C
REMARK SMILES IDX 6 1 7 2 5 3 4 4 3 5 2 6 1 7 28 8 29 9 30 10 8 11 9 12 26 13
REMARK SMILES IDX 10 14 11 15 25 16 27 17 12 18 24 19 23 20 13 21 21 22 14 23
REMARK SMILES IDX 15 24 20 25 22 26 16 27 19 28 17 29 18 30
REMARK H PARENT 18 31
REMARK Flexibility Score: inf
ROOT
ATOM      1  C   UNL     1     132.113 132.005 138.814  1.00  0.00     0.012 C 
ATOM      2  C   UNL     1     131.924 131.126 140.066  1.00  0.00     0.012 C 
ENDROOT
BRANCH   1   3
ATOM      3  C   UNL     1     132.385 133.453 139.192  1.00  0.00    -0.028 C 
ATOM      4  C   UNL     1     133.365 133.887 140.013  1.00  0.00    -0.027 C 
BRANCH   4   5
ATOM      5  C   UNL     1     134.419 133.023 140.686  1.00  0.00     0.014 C 
BRANCH   5   6
ATOM      6  C   UNL     1     135.779 133.761 140.586  1.00  0.00     0.004 C 
ATOM      7  C   UNL     1     136.135 134.219 139.174  1.00  0.00     0.004 C 
ENDBRANCH   5   6
BRANCH   5   8
ATOM      8  C   UNL     1     133.944 132.662 142.134  1.00  0.00    -0.011 C 
ATOM      9  C   UNL     1     133.970 133.844 143.117  1.00  0.00     0.008 C 
ATOM     10  C   UNL     1     134.690 131.452 142.720  1.00  0.00     0.008 C 
ENDBRANCH   5   8
ENDBRANCH   4   5
ENDBRANCH   1   3
BRANCH   1  11
ATOM     11  C   UNL     1     133.135 131.477 137.744  1.00  0.00     0.002 C 
ATOM     12  C   UNL     1     132.545 131.446 136.337  1.00  0.00     0.005 C 
ATOM     13  C   UNL     1     133.919 130.126 137.888  1.00  0.00    -0.023 C 
ATOM     14  C   UNL     1     133.527 130.638 135.494  1.00  0.00     0.009 C 
ATOM     15  C   UNL     1     134.509 129.949 136.461  1.00  0.00     0.021 C 
ATOM     16  C   UNL     1     133.014 128.915 138.231  1.00  0.00     0.008 C 
ATOM     17  C   UNL     1     135.067 130.244 138.922  1.00  0.00     0.012 C 
ATOM     18  C   UNL     1     134.801 128.522 136.004  1.00  0.00    -0.067 C 
ATOM     19  C   UNL     1     133.762 127.585 138.151  1.00  0.00     0.009 C 
ATOM     20  C   UNL     1     134.295 127.286 136.733  1.00  0.00     0.021 C 
ATOM     21  C   UNL     1     135.485 128.353 134.860  1.00  0.00    -0.027 C 
ATOM     22  C   UNL     1     135.379 126.143 136.692  1.00  0.00    -0.023 C 
ATOM     23  C   UNL     1     135.637 127.007 134.202  1.00  0.00     0.031 C 
ATOM     24  C   UNL     1     135.651 125.789 135.179  1.00  0.00     0.002 C 
ATOM     25  C   UNL     1     136.700 126.597 137.402  1.00  0.00     0.010 C 
ATOM     26  C   UNL     1     134.822 124.880 137.412  1.00  0.00     0.012 C 
ATOM     27  C   UNL     1     136.911 124.909 134.968  1.00  0.00     0.036 C 
ATOM     28  C   UNL     1     137.880 125.645 137.167  1.00  0.00     0.032 C 
ATOM     29  C   UNL     1     138.159 125.453 135.672  1.00  0.00     0.114 C 
BRANCH  29  30
ATOM     30  O   UNL     1     138.557 126.664 135.084  1.00  0.00    -0.393 OA
ATOM     31  H   UNL     1     138.949 127.220 135.807  1.00  0.00     0.210 HD
ENDBRANCH  29  30
ENDBRANCH   1  11
TORSDOF 6
ENDMDL
MODEL 4
REMARK VINA RESULT:    -6.378      2.871      7.863
REMARK INTER + INTRA:          -9.702
REMARK INTER:                  -8.848
REMARK INTRA:                  -0.854
REMARK UNBOUND:                -1.274
REMARK SMILES CC[C@H](C=C[C@H](C)[C@@H]1CC[C@@H]2C3=CC[C@H]4C[C@@H](O)CC[C@@]4(C)[C@H]3CC[C@@]21C)C(C)C
REMARK SMILES IDX 6 1 7 2 5 3 4 4 3 5 2 6 1 7 28 8 29 9 30 10 8 11 9 12 26 13
REMARK SMILES IDX 10 14 11 15 25 16 27 17 12 18 24 19 23 20 13 21 21 22 14 23
REMARK SMILES IDX 15 24 20 25 22 26 16 27 19 28 17 29 18 30
REMARK H PARENT 18 31
REMARK Flexibility Score: inf
ROOT
ATOM      1  C   UNL     1     132.527 132.303 138.641  1.00  0.00     0.012 C 
ATOM      2  C   UNL     1     131.589 133.427 138.160  1.00  0.00     0.012 C 
ENDROOT
BRANCH   1   3
ATOM      3  C   UNL     1     131.762 131.235 139.409  1.00  0.00    -0.028 C 
ATOM      4  C   UNL     1     132.140 130.678 140.580  1.00  0.00    -0.027 C 
BRANCH   4   5
ATOM      5  C   UNL     1     133.378 131.036 141.385  1.00  0.00     0.014 C 
BRANCH   5   6
ATOM      6  C   UNL     1     133.057 132.305 142.217  1.00  0.00     0.004 C 
ATOM      7  C   UNL     1     134.042 133.452 142.008  1.00  0.00     0.004 C 
ENDBRANCH   5   6
BRANCH   5   8
ATOM      8  C   UNL     1     133.843 129.784 142.202  1.00  0.00    -0.011 C 
ATOM      9  C   UNL     1     133.117 128.482 141.825  1.00  0.00     0.008 C 
ATOM     10  C   UNL     1     133.794 130.013 143.721  1.00  0.00     0.008 C 
ENDBRANCH   5   8
ENDBRANCH   4   5
ENDBRANCH   1   3
BRANCH   1  11
ATOM     11  C   UNL     1     133.475 131.678 137.555  1.00  0.00     0.002 C 
ATOM     12  C   UNL     1     132.821 131.610 136.177  1.00  0.00     0.005 C 
ATOM     13  C   UNL     1     134.203 130.300 137.729  1.00  0.00    -0.023 C 
ATOM     14  C   UNL     1     133.727 130.719 135.333  1.00  0.00     0.009 C 
ATOM     15  C   UNL     1     134.719 130.029 136.289  1.00  0.00     0.021 C 
ATOM     16  C   UNL     1     133.260 129.150 138.169  1.00  0.00     0.008 C 
ATOM     17  C   UNL     1     135.401 130.411 138.706  1.00  0.00     0.012 C 
ATOM     18  C   UNL     1     134.926 128.571 135.889  1.00  0.00    -0.067 C 
ATOM     19  C   UNL     1     133.944 127.784 138.121  1.00  0.00     0.009 C 
ATOM     20  C   UNL     1     134.398 127.395 136.697  1.00  0.00     0.021 C 
ATOM     21  C   UNL     1     135.549 128.317 134.725  1.00  0.00    -0.027 C 
ATOM     22  C   UNL     1     135.426 126.201 136.665  1.00  0.00    -0.023 C 
ATOM     23  C   UNL     1     135.610 126.937 134.127  1.00  0.00     0.031 C 
ATOM     24  C   UNL     1     135.613 125.766 135.161  1.00  0.00     0.002 C 
ATOM     25  C   UNL     1     136.798 126.625 137.295  1.00  0.00     0.010 C 
ATOM     26  C   UNL     1     134.846 125.001 137.469  1.00  0.00     0.012 C 
ATOM     27  C   UNL     1     136.821 124.819 134.938  1.00  0.00     0.036 C 
ATOM     28  C   UNL     1     137.921 125.609 137.055  1.00  0.00     0.032 C 
ATOM     29  C   UNL     1     138.123 125.335 135.560  1.00  0.00     0.114 C 
BRANCH  29  30
ATOM     30  O   UNL     1     138.549 126.498 134.898  1.00  0.00    -0.393 OA
ATOM     31  H   UNL     1     138.287 127.266 135.469  1.00  0.00     0.210 HD
ENDBRANCH  29  30
ENDBRANCH   1  11
TORSDOF 6
ENDMDL
MODEL 5
REMARK VINA RESULT:    -6.350      3.001      6.435
REMARK INTER + INTRA:          -9.666
REMARK INTER:                  -8.639
REMARK INTRA:                  -1.026
REMARK UNBOUND:                -1.274
REMARK SMILES CC[C@H](C=C[C@H](C)[C@@H]1CC[C@@H]2C3=CC[C@H]4C[C@@H](O)CC[C@@]4(C)[C@H]3CC[C@@]21C)C(C)C
REMARK SMILES IDX 6 1 7 2 5 3 4 4 3 5 2 6 1 7 28 8 29 9 30 10 8 11 9 12 26 13
REMARK SMILES IDX 10 14 11 15 25 16 27 17 12 18 24 19 23 20 13 21 21 22 14 23
REMARK SMILES IDX 15 24 20 25 22 26 16 27 19 28 17 29 18 30
REMARK H PARENT 18 31
REMARK Flexibility Score: inf
ROOT
ATOM      1  C   UNL     1     134.311 125.591 142.404  1.00  0.00     0.012 C 
ATOM      2  C   UNL     1     134.098 124.134 142.859  1.00  0.00     0.012 C 
ENDROOT
BRANCH   1   3
ATOM      3  C   UNL     1     135.769 126.004 142.540  1.00  0.00    -0.028 C 
ATOM      4  C   UNL     1     136.246 126.974 143.350  1.00  0.00    -0.027 C 
BRANCH   4   5
ATOM      5  C   UNL     1     135.430 127.814 144.319  1.00  0.00     0.014 C 
BRANCH   5   6
ATOM      6  C   UNL     1     136.281 128.030 145.598  1.00  0.00     0.004 C 
ATOM      7  C   UNL     1     137.783 127.866 145.381  1.00  0.00     0.004 C 
ENDBRANCH   5   6
BRANCH   5   8
ATOM      8  C   UNL     1     134.944 129.115 143.595  1.00  0.00    -0.011 C 
ATOM      9  C   UNL     1     135.968 130.262 143.610  1.00  0.00     0.008 C 
ATOM     10  C   UNL     1     133.577 129.601 144.100  1.00  0.00     0.008 C 
ENDBRANCH   5   8
ENDBRANCH   4   5
ENDBRANCH   1   3
BRANCH   1  11
ATOM     11  C   UNL     1     133.722 125.972 140.998  1.00  0.00     0.002 C 
ATOM     12  C   UNL     1     134.488 125.326 139.848  1.00  0.00     0.005 C 
ATOM     13  C   UNL     1     133.464 127.449 140.538  1.00  0.00    -0.023 C 
ATOM     14  C   UNL     1     134.002 126.024 138.582  1.00  0.00     0.009 C 
ATOM     15  C   UNL     1     133.200 127.266 139.018  1.00  0.00     0.021 C 
ATOM     16  C   UNL     1     134.682 128.386 140.745  1.00  0.00     0.008 C 
ATOM     17  C   UNL     1     132.208 128.046 141.223  1.00  0.00     0.012 C 
ATOM     18  C   UNL     1     133.513 128.454 138.111  1.00  0.00    -0.067 C 
ATOM     19  C   UNL     1     134.483 129.755 140.094  1.00  0.00     0.009 C 
ATOM     20  C   UNL     1     134.314 129.666 138.562  1.00  0.00     0.021 C 
ATOM     21  C   UNL     1     133.117 128.391 136.829  1.00  0.00    -0.027 C 
ATOM     22  C   UNL     1     133.733 130.979 137.912  1.00  0.00    -0.023 C 
ATOM     23  C   UNL     1     133.561 129.394 135.798  1.00  0.00     0.031 C 
ATOM     24  C   UNL     1     133.839 130.830 136.346  1.00  0.00     0.002 C 
ATOM     25  C   UNL     1     132.246 131.211 138.349  1.00  0.00     0.010 C 
ATOM     26  C   UNL     1     134.592 132.197 138.361  1.00  0.00     0.012 C 
ATOM     27  C   UNL     1     133.027 131.899 135.568  1.00  0.00     0.036 C 
ATOM     28  C   UNL     1     131.538 132.312 137.551  1.00  0.00     0.032 C 
ATOM     29  C   UNL     1     131.575 132.028 136.045  1.00  0.00     0.114 C 
BRANCH  29  30
ATOM     30  O   UNL     1     130.862 130.856 135.745  1.00  0.00    -0.393 OA
ATOM     31  H   UNL     1     131.413 130.094 136.061  1.00  0.00     0.210 HD
ENDBRANCH  29  30
ENDBRANCH   1  11
TORSDOF 6
ENDMDL
MODEL 6
REMARK VINA RESULT:    -6.092      2.930      4.522
REMARK INTER + INTRA:          -9.325
REMARK INTER:                  -8.588
REMARK INTRA:                  -0.736
REMARK UNBOUND:                -1.274
REMARK SMILES CC[C@H](C=C[C@H](C)[C@@H]1CC[C@@H]2C3=CC[C@H]4C[C@@H](O)CC[C@@]4(C)[C@H]3CC[C@@]21C)C(C)C
REMARK SMILES IDX 6 1 7 2 5 3 4 4 3 5 2 6 1 7 28 8 29 9 30 10 8 11 9 12 26 13
REMARK SMILES IDX 10 14 11 15 25 16 27 17 12 18 24 19 23 20 13 21 21 22 14 23
REMARK SMILES IDX 15 24 20 25 22 26 16 27 19 28 17 29 18 30
REMARK H PARENT 18 31
REMARK Flexibility Score: inf
ROOT
ATOM      1  C   UNL     1     132.162 130.096 136.748  1.00  0.00     0.012 C 
ATOM      2  C   UNL     1     131.140 130.945 137.530  1.00  0.00     0.012 C 
ENDROOT
BRANCH   1   3
ATOM      3  C   UNL     1     132.901 130.933 135.715  1.00  0.00    -0.028 C 
ATOM      4  C   UNL     1     134.072 130.610 135.125  1.00  0.00    -0.027 C 
BRANCH   4   5
ATOM      5  C   UNL     1     134.862 129.330 135.339  1.00  0.00     0.014 C 
BRANCH   5   6
ATOM      6  C   UNL     1     134.318 128.261 134.356  1.00  0.00     0.004 C 
ATOM      7  C   UNL     1     135.404 127.510 133.591  1.00  0.00     0.004 C 
ENDBRANCH   5   6
BRANCH   5   8
ATOM      8  C   UNL     1     136.392 129.642 135.230  1.00  0.00    -0.011 C 
ATOM      9  C   UNL     1     137.267 128.849 136.215  1.00  0.00     0.008 C 
ATOM     10  C   UNL     1     136.701 131.144 135.318  1.00  0.00     0.008 C 
ENDBRANCH   5   8
ENDBRANCH   4   5
ENDBRANCH   1   3
BRANCH   1  11
ATOM     11  C   UNL     1     133.148 129.228 137.612  1.00  0.00     0.002 C 
ATOM     12  C   UNL     1     132.681 127.783 137.758  1.00  0.00     0.005 C 
ATOM     13  C   UNL     1     133.642 129.644 139.042  1.00  0.00    -0.023 C 
ATOM     14  C   UNL     1     133.555 127.174 138.849  1.00  0.00     0.009 C 
ATOM     15  C   UNL     1     134.301 128.330 139.543  1.00  0.00     0.021 C 
ATOM     16  C   UNL     1     132.495 130.049 140.002  1.00  0.00     0.008 C 
ATOM     17  C   UNL     1     134.702 130.772 138.970  1.00  0.00     0.012 C 
ATOM     18  C   UNL     1     134.350 128.110 141.053  1.00  0.00    -0.067 C 
ATOM     19  C   UNL     1     132.976 130.238 141.441  1.00  0.00     0.009 C 
ATOM     20  C   UNL     1     133.556 128.942 142.049  1.00  0.00     0.021 C 
ATOM     21  C   UNL     1     135.080 127.082 141.519  1.00  0.00    -0.027 C 
ATOM     22  C   UNL     1     134.399 129.180 143.359  1.00  0.00    -0.023 C 
ATOM     23  C   UNL     1     135.022 126.638 142.956  1.00  0.00     0.031 C 
ATOM     24  C   UNL     1     134.720 127.770 143.988  1.00  0.00     0.002 C 
ATOM     25  C   UNL     1     135.720 129.962 143.042  1.00  0.00     0.010 C 
ATOM     26  C   UNL     1     133.551 130.003 144.373  1.00  0.00     0.012 C 
ATOM     27  C   UNL     1     135.800 127.824 145.101  1.00  0.00     0.036 C 
ATOM     28  C   UNL     1     136.708 129.993 144.215  1.00  0.00     0.032 C 
ATOM     29  C   UNL     1     137.067 128.578 144.685  1.00  0.00     0.114 C 
BRANCH  29  30
ATOM     30  O   UNL     1     137.739 127.876 143.672  1.00  0.00    -0.393 OA
ATOM     31  H   UNL     1     138.052 128.549 143.014  1.00  0.00     0.210 HD
ENDBRANCH  29  30
ENDBRANCH   1  11
TORSDOF 6
ENDMDL
MODEL 7
REMARK VINA RESULT:    -5.390      2.902      8.259
REMARK INTER + INTRA:          -8.397
REMARK INTER:                  -7.512
REMARK INTRA:                  -0.884
REMARK UNBOUND:                -1.274
REMARK SMILES CC[C@H](C=C[C@H](C)[C@@H]1CC[C@@H]2C3=CC[C@H]4C[C@@H](O)CC[C@@]4(C)[C@H]3CC[C@@]21C)C(C)C
REMARK SMILES IDX 6 1 7 2 5 3 4 4 3 5 2 6 1 7 28 8 29 9 30 10 8 11 9 12 26 13
REMARK SMILES IDX 10 14 11 15 25 16 27 17 12 18 24 19 23 20 13 21 21 22 14 23
REMARK SMILES IDX 15 24 20 25 22 26 16 27 19 28 17 29 18 30
REMARK H PARENT 18 31
REMARK Flexibility Score: inf
ROOT
ATOM      1  C   UNL     1     132.368 130.686 141.056  1.00  0.00     0.012 C 
ATOM      2  C   UNL     1     130.837 130.771 140.898  1.00  0.00     0.012 C 
ENDROOT
BRANCH   1   3
ATOM      3  C   UNL     1     132.794 130.986 142.485  1.00  0.00    -0.028 C 
ATOM      4  C   UNL     1     133.287 132.159 142.935  1.00  0.00    -0.027 C 
BRANCH   4   5
ATOM      5  C   UNL     1     133.473 133.427 142.117  1.00  0.00     0.014 C 
BRANCH   5   6
ATOM      6  C   UNL     1     134.168 134.481 143.018  1.00  0.00     0.004 C 
ATOM      7  C   UNL     1     133.346 134.898 144.235  1.00  0.00     0.004 C 
ENDBRANCH   5   6
BRANCH   5   8
ATOM      8  C   UNL     1     134.212 133.078 140.782  1.00  0.00    -0.011 C 
ATOM      9  C   UNL     1     135.599 133.725 140.644  1.00  0.00     0.008 C 
ATOM     10  C   UNL     1     133.355 133.359 139.537  1.00  0.00     0.008 C 
ENDBRANCH   5   8
ENDBRANCH   4   5
ENDBRANCH   1   3
BRANCH   1  11
ATOM     11  C   UNL     1     133.051 129.385 140.500  1.00  0.00     0.002 C 
ATOM     12  C   UNL     1     134.306 129.004 141.280  1.00  0.00     0.005 C 
ATOM     13  C   UNL     1     133.430 129.181 138.992  1.00  0.00    -0.023 C 
ATOM     14  C   UNL     1     135.002 127.934 140.446  1.00  0.00     0.009 C 
ATOM     15  C   UNL     1     134.331 127.918 139.059  1.00  0.00     0.021 C 
ATOM     16  C   UNL     1     134.234 130.362 138.388  1.00  0.00     0.008 C 
ATOM     17  C   UNL     1     132.177 128.890 138.127  1.00  0.00     0.012 C 
ATOM     18  C   UNL     1     135.375 127.750 137.958  1.00  0.00    -0.067 C 
ATOM     19  C   UNL     1     134.775 130.047 136.994  1.00  0.00     0.009 C 
ATOM     20  C   UNL     1     135.763 128.860 136.993  1.00  0.00     0.021 C 
ATOM     21  C   UNL     1     136.032 126.580 137.883  1.00  0.00    -0.027 C 
ATOM     22  C   UNL     1     136.039 128.268 135.558  1.00  0.00    -0.023 C 
ATOM     23  C   UNL     1     137.227 126.382 136.990  1.00  0.00     0.031 C 
ATOM     24  C   UNL     1     137.226 127.238 135.683  1.00  0.00     0.002 C 
ATOM     25  C   UNL     1     134.758 127.573 134.983  1.00  0.00     0.010 C 
ATOM     26  C   UNL     1     136.468 129.418 134.602  1.00  0.00     0.012 C 
ATOM     27  C   UNL     1     137.405 126.348 134.424  1.00  0.00     0.036 C 
ATOM     28  C   UNL     1     135.026 126.747 133.718  1.00  0.00     0.032 C 
ATOM     29  C   UNL     1     136.104 125.684 133.958  1.00  0.00     0.114 C 
BRANCH  29  30
ATOM     30  O   UNL     1     135.671 124.746 134.909  1.00  0.00    -0.393 OA
ATOM     31  H   UNL     1     136.407 124.642 135.567  1.00  0.00     0.210 HD
ENDBRANCH  29  30
ENDBRANCH   1  11
TORSDOF 6
ENDMDL
MODEL 8
REMARK VINA RESULT:    -5.282      3.317      7.933
REMARK INTER + INTRA:          -8.254
REMARK INTER:                  -6.948
REMARK INTRA:                  -1.306
REMARK UNBOUND:                -1.274
REMARK SMILES CC[C@H](C=C[C@H](C)[C@@H]1CC[C@@H]2C3=CC[C@H]4C[C@@H](O)CC[C@@]4(C)[C@H]3CC[C@@]21C)C(C)C
REMARK SMILES IDX 6 1 7 2 5 3 4 4 3 5 2 6 1 7 28 8 29 9 30 10 8 11 9 12 26 13
REMARK SMILES IDX 10 14 11 15 25 16 27 17 12 18 24 19 23 20 13 21 21 22 14 23
REMARK SMILES IDX 15 24 20 25 22 26 16 27 19 28 17 29 18 30
REMARK H PARENT 18 31
REMARK Flexibility Score: inf
ROOT
ATOM      1  C   UNL     1     130.384 129.054 139.239  1.00  0.00     0.012 C 
ATOM      2  C   UNL     1     128.983 128.412 139.265  1.00  0.00     0.012 C 
ENDROOT
BRANCH   1   3
ATOM      3  C   UNL     1     130.518 130.130 140.307  1.00  0.00    -0.028 C 
ATOM      4  C   UNL     1     131.408 131.146 140.299  1.00  0.00    -0.027 C 
BRANCH   4   5
ATOM      5  C   UNL     1     132.418 131.446 139.204  1.00  0.00     0.014 C 
BRANCH   5   6
ATOM      6  C   UNL     1     131.801 132.511 138.262  1.00  0.00     0.004 C 
ATOM      7  C   UNL     1     131.210 131.938 136.976  1.00  0.00     0.004 C 
ENDBRANCH   5   6
BRANCH   5   8
ATOM      8  C   UNL     1     133.790 131.824 139.856  1.00  0.00    -0.011 C 
ATOM      9  C   UNL     1     133.795 133.191 140.560  1.00  0.00     0.008 C 
ATOM     10  C   UNL     1     134.966 131.716 138.872  1.00  0.00     0.008 C 
ENDBRANCH   5   8
ENDBRANCH   4   5
ENDBRANCH   1   3
BRANCH   1  11
ATOM     11  C   UNL     1     131.602 128.061 139.250  1.00  0.00     0.002 C 
ATOM     12  C   UNL     1     132.597 128.367 140.366  1.00  0.00     0.005 C 
ATOM     13  C   UNL     1     132.483 127.757 137.989  1.00  0.00    -0.023 C 
ATOM     14  C   UNL     1     133.837 127.536 140.054  1.00  0.00     0.009 C 
ATOM     15  C   UNL     1     133.685 126.999 138.618  1.00  0.00     0.021 C 
ATOM     16  C   UNL     1     132.992 129.030 137.265  1.00  0.00     0.008 C 
ATOM     17  C   UNL     1     131.743 126.834 136.988  1.00  0.00     0.012 C 
ATOM     18  C   UNL     1     135.016 127.069 137.873  1.00  0.00    -0.067 C 
ATOM     19  C   UNL     1     134.019 128.713 136.179  1.00  0.00     0.009 C 
ATOM     20  C   UNL     1     135.294 128.046 136.740  1.00  0.00     0.021 C 
ATOM     21  C   UNL     1     136.015 126.271 138.288  1.00  0.00    -0.027 C 
ATOM     22  C   UNL     1     136.191 127.366 135.637  1.00  0.00    -0.023 C 
ATOM     23  C   UNL     1     137.424 126.414 137.779  1.00  0.00     0.031 C 
ATOM     24  C   UNL     1     137.551 126.943 136.315  1.00  0.00     0.002 C 
ATOM     25  C   UNL     1     135.468 126.121 135.016  1.00  0.00     0.010 C 
ATOM     26  C   UNL     1     136.489 128.397 134.510  1.00  0.00     0.012 C 
ATOM     27  C   UNL     1     138.405 125.988 135.440  1.00  0.00     0.036 C 
ATOM     28  C   UNL     1     136.383 125.259 134.137  1.00  0.00     0.032 C 
ATOM     29  C   UNL     1     137.620 124.784 134.908  1.00  0.00     0.114 C 
BRANCH  29  30
ATOM     30  O   UNL     1     137.248 123.941 135.967  1.00  0.00    -0.393 OA
ATOM     31  H   UNL     1     136.355 123.573 135.743  1.00  0.00     0.210 HD
ENDBRANCH  29  30
ENDBRANCH   1  11
TORSDOF 6
ENDMDL
MODEL 9
REMARK VINA RESULT:    -4.862      2.921      8.199
REMARK INTER + INTRA:          -7.700
REMARK INTER:                  -8.016
REMARK INTRA:                   0.317
REMARK UNBOUND:                -1.274
REMARK SMILES CC[C@H](C=C[C@H](C)[C@@H]1CC[C@@H]2C3=CC[C@H]4C[C@@H](O)CC[C@@]4(C)[C@H]3CC[C@@]21C)C(C)C
REMARK SMILES IDX 6 1 7 2 5 3 4 4 3 5 2 6 1 7 28 8 29 9 30 10 8 11 9 12 26 13
REMARK SMILES IDX 10 14 11 15 25 16 27 17 12 18 24 19 23 20 13 21 21 22 14 23
REMARK SMILES IDX 15 24 20 25 22 26 16 27 19 28 17 29 18 30
REMARK H PARENT 18 31
REMARK Flexibility Score: inf
ROOT
ATOM      1  C   UNL     1     132.948 129.157 142.461  1.00  0.00     0.012 C 
ATOM      2  C   UNL     1     133.840 129.579 143.645  1.00  0.00     0.012 C 
ENDROOT
BRANCH   1   3
ATOM      3  C   UNL     1     132.385 130.369 141.734  1.00  0.00    -0.028 C 
ATOM      4  C   UNL     1     132.919 131.609 141.732  1.00  0.00    -0.027 C 
BRANCH   4   5
ATOM      5  C   UNL     1     134.208 132.032 142.416  1.00  0.00     0.014 C 
BRANCH   5   6
ATOM      6  C   UNL     1     135.102 132.734 141.361  1.00  0.00     0.004 C 
ATOM      7  C   UNL     1     134.340 133.245 140.141  1.00  0.00     0.004 C 
ENDBRANCH   5   6
BRANCH   5   8
ATOM      8  C   UNL     1     133.866 132.876 143.690  1.00  0.00    -0.011 C 
ATOM      9  C   UNL     1     132.393 132.791 144.122  1.00  0.00     0.008 C 
ATOM     10  C   UNL     1     134.313 134.341 143.571  1.00  0.00     0.008 C 
ENDBRANCH   5   8
ENDBRANCH   4   5
ENDBRANCH   1   3
BRANCH   1  11
ATOM     11  C   UNL     1     133.567 128.111 141.465  1.00  0.00     0.002 C 
ATOM     12  C   UNL     1     134.956 127.646 141.893  1.00  0.00     0.005 C 
ATOM     13  C   UNL     1     133.673 128.345 139.918  1.00  0.00    -0.023 C 
ATOM     14  C   UNL     1     135.529 126.897 140.694  1.00  0.00     0.009 C 
ATOM     15  C   UNL     1     134.617 127.189 139.487  1.00  0.00     0.021 C 
ATOM     16  C   UNL     1     134.308 129.706 139.537  1.00  0.00     0.008 C 
ATOM     17  C   UNL     1     132.295 128.186 139.225  1.00  0.00     0.012 C 
ATOM     18  C   UNL     1     135.449 127.407 138.225  1.00  0.00    -0.067 C 
ATOM     19  C   UNL     1     134.599 129.818 138.041  1.00  0.00     0.009 C 
ATOM     20  C   UNL     1     135.613 128.761 137.551  1.00  0.00     0.021 C 
ATOM     21  C   UNL     1     136.125 126.359 137.725  1.00  0.00    -0.027 C 
ATOM     22  C   UNL     1     135.646 128.594 135.984  1.00  0.00    -0.023 C 
ATOM     23  C   UNL     1     137.144 126.506 136.627  1.00  0.00     0.031 C 
ATOM     24  C   UNL     1     136.874 127.672 135.623  1.00  0.00     0.002 C 
ATOM     25  C   UNL     1     134.308 127.968 135.459  1.00  0.00     0.010 C 
ATOM     26  C   UNL     1     135.850 129.988 135.323  1.00  0.00     0.012 C 
ATOM     27  C   UNL     1     136.853 127.163 134.158  1.00  0.00     0.036 C 
ATOM     28  C   UNL     1     134.373 127.531 133.991  1.00  0.00     0.032 C 
ATOM     29  C   UNL     1     135.515 126.538 133.749  1.00  0.00     0.114 C 
BRANCH  29  30
ATOM     30  O   UNL     1     135.298 125.349 134.464  1.00  0.00    -0.393 OA
ATOM     31  H   UNL     1     136.179 124.904 134.557  1.00  0.00     0.210 HD
ENDBRANCH  29  30
ENDBRANCH   1  11
TORSDOF 6
ENDMDL
