MODEL 1
REMARK VINA RESULT:    -4.984      0.000      0.000
REMARK INTER + INTRA:          -8.861
REMARK INTER:                  -7.898
REMARK INTRA:                  -0.964
REMARK UNBOUND:                -0.964
REMARK SMILES CCCCCCCCCCCC(=O)[O-]
REMARK SMILES IDX 7 1 8 2 9 3 10 4 11 5 12 6 13 7 14 8 6 9 5 10 4 11 3 12 2 13
REMARK SMILES IDX 1 14
REMARK H PARENT
REMARK Flexibility Score: inf
ROOT
ATOM      1  C   UNL     1      11.711 -24.758  20.729  1.00  0.00     0.000 C 
ENDROOT
BRANCH   1   2
ATOM      2  C   UNL     1      10.536 -24.928  21.707  1.00  0.00     0.000 C 
BRANCH   2   3
ATOM      3  C   UNL     1      10.698 -24.084  22.980  1.00  0.00     0.000 C 
BRANCH   3   4
ATOM      4  C   UNL     1       9.482 -24.247  23.903  1.00  0.00     0.006 C 
BRANCH   4   5
ATOM      5  C   UNL     1       9.615 -23.423  25.190  1.00  0.00     0.053 C 
BRANCH   5   6
ATOM      6  C   UNL     1      10.211 -24.226  26.305  1.00  0.00     0.041 C 
ATOM      7  O   UNL     1       9.646 -25.280  26.701  1.00  0.00    -0.550 OA
ATOM      8  O   UNL     1      11.410 -23.830  26.884  1.00  0.00    -0.550 OA
ENDBRANCH   5   6
ENDBRANCH   4   5
ENDBRANCH   3   4
ENDBRANCH   2   3
ENDBRANCH   1   2
BRANCH   1   9
ATOM      9  C   UNL     1      12.318 -23.348  20.773  1.00  0.00     0.000 C 
BRANCH   9  10
ATOM     10  C   UNL     1      13.752 -23.351  20.228  1.00  0.00    -0.000 C 
BRANCH  10  11
ATOM     11  C   UNL     1      14.716 -22.673  21.214  1.00  0.00    -0.000 C 
BRANCH  11  12
ATOM     12  C   UNL     1      14.547 -23.184  22.654  1.00  0.00    -0.000 C 
BRANCH  12  13
ATOM     13  C   UNL     1      14.547 -22.048  23.687  1.00  0.00    -0.003 C 
ATOM     14  C   UNL     1      13.140 -21.787  24.218  1.00  0.00     0.004 C 
ENDBRANCH  12  13
ENDBRANCH  11  12
ENDBRANCH  10  11
ENDBRANCH   9  10
ENDBRANCH   1   9
TORSDOF 10
ENDMDL
MODEL 2
REMARK VINA RESULT:    -4.960      1.636      2.753
REMARK INTER + INTRA:          -8.823
REMARK INTER:                  -7.690
REMARK INTRA:                  -1.133
REMARK UNBOUND:                -0.964
REMARK SMILES CCCCCCCCCCCC(=O)[O-]
REMARK SMILES IDX 7 1 8 2 9 3 10 4 11 5 12 6 13 7 14 8 6 9 5 10 4 11 3 12 2 13
REMARK SMILES IDX 1 14
REMARK H PARENT
REMARK Flexibility Score: inf
ROOT
ATOM      1  C   UNL     1      14.187 -23.183  20.211  1.00  0.00     0.000 C 
ENDROOT
BRANCH   1   2
ATOM      2  C   UNL     1      12.665 -23.007  20.347  1.00  0.00     0.000 C 
BRANCH   2   3
ATOM      3  C   UNL     1      11.951 -24.311  20.736  1.00  0.00     0.000 C 
BRANCH   3   4
ATOM      4  C   UNL     1      11.277 -24.176  22.110  1.00  0.00     0.006 C 
BRANCH   4   5
ATOM      5  C   UNL     1      10.024 -25.053  22.229  1.00  0.00     0.053 C 
BRANCH   5   6
ATOM      6  C   UNL     1       9.100 -24.557  23.299  1.00  0.00     0.041 C 
ATOM      7  O   UNL     1       9.444 -24.609  24.509  1.00  0.00    -0.550 OA
ATOM      8  O   UNL     1       7.872 -24.006  22.956  1.00  0.00    -0.550 OA
ENDBRANCH   5   6
ENDBRANCH   4   5
ENDBRANCH   3   4
ENDBRANCH   2   3
ENDBRANCH   1   2
BRANCH   1   9
ATOM      9  C   UNL     1      14.653 -24.603  20.566  1.00  0.00     0.000 C 
BRANCH   9  10
ATOM     10  C   UNL     1      15.347 -24.626  21.933  1.00  0.00    -0.000 C 
BRANCH  10  11
ATOM     11  C   UNL     1      15.690 -23.202  22.398  1.00  0.00    -0.000 C 
BRANCH  11  12
ATOM     12  C   UNL     1      15.037 -22.844  23.742  1.00  0.00    -0.000 C 
BRANCH  12  13
ATOM     13  C   UNL     1      14.262 -21.519  23.688  1.00  0.00    -0.003 C 
ATOM     14  C   UNL     1      12.835 -21.695  24.201  1.00  0.00     0.004 C 
ENDBRANCH  12  13
ENDBRANCH  11  12
ENDBRANCH  10  11
ENDBRANCH   9  10
ENDBRANCH   1   9
TORSDOF 10
ENDMDL
MODEL 3
REMARK VINA RESULT:    -4.924      1.340      2.889
REMARK INTER + INTRA:          -8.767
REMARK INTER:                  -7.478
REMARK INTRA:                  -1.289
REMARK UNBOUND:                -0.964
REMARK SMILES CCCCCCCCCCCC(=O)[O-]
REMARK SMILES IDX 7 1 8 2 9 3 10 4 11 5 12 6 13 7 14 8 6 9 5 10 4 11 3 12 2 13
REMARK SMILES IDX 1 14
REMARK H PARENT
REMARK Flexibility Score: inf
ROOT
ATOM      1  C   UNL     1      12.011 -22.265  22.879  1.00  0.00     0.000 C 
ENDROOT
BRANCH   1   2
ATOM      2  C   UNL     1      12.941 -22.001  24.075  1.00  0.00     0.000 C 
BRANCH   2   3
ATOM      3  C   UNL     1      13.068 -23.217  25.006  1.00  0.00     0.000 C 
BRANCH   3   4
ATOM      4  C   UNL     1      12.228 -23.023  26.276  1.00  0.00     0.006 C 
BRANCH   4   5
ATOM      5  C   UNL     1      11.567 -24.328  26.740  1.00  0.00     0.053 C 
BRANCH   5   6
ATOM      6  C   UNL     1      10.130 -24.402  26.323  1.00  0.00     0.041 C 
ATOM      7  O   UNL     1       9.639 -23.512  25.581  1.00  0.00    -0.550 OA
ATOM      8  O   UNL     1       9.344 -25.473  26.727  1.00  0.00    -0.550 OA
ENDBRANCH   5   6
ENDBRANCH   4   5
ENDBRANCH   3   4
ENDBRANCH   2   3
ENDBRANCH   1   2
BRANCH   1   9
ATOM      9  C   UNL     1      11.802 -23.764  22.611  1.00  0.00     0.000 C 
BRANCH   9  10
ATOM     10  C   UNL     1      12.001 -24.087  21.125  1.00  0.00    -0.000 C 
BRANCH  10  11
ATOM     11  C   UNL     1      12.813 -22.985  20.428  1.00  0.00    -0.000 C 
BRANCH  11  12
ATOM     12  C   UNL     1      14.236 -23.439  20.064  1.00  0.00    -0.000 C 
BRANCH  12  13
ATOM     13  C   UNL     1      15.284 -22.972  21.086  1.00  0.00    -0.003 C 
ATOM     14  C   UNL     1      15.500 -24.023  22.171  1.00  0.00     0.004 C 
ENDBRANCH  12  13
ENDBRANCH  11  12
ENDBRANCH  10  11
ENDBRANCH   9  10
ENDBRANCH   1   9
TORSDOF 10
ENDMDL
MODEL 4
REMARK VINA RESULT:    -4.923      2.141      3.683
REMARK INTER + INTRA:          -8.764
REMARK INTER:                  -7.670
REMARK INTRA:                  -1.094
REMARK UNBOUND:                -0.964
REMARK SMILES CCCCCCCCCCCC(=O)[O-]
REMARK SMILES IDX 7 1 8 2 9 3 10 4 11 5 12 6 13 7 14 8 6 9 5 10 4 11 3 12 2 13
REMARK SMILES IDX 1 14
REMARK H PARENT
REMARK Flexibility Score: inf
ROOT
ATOM      1  C   UNL     1      12.780 -21.940  24.134  1.00  0.00     0.000 C 
ENDROOT
BRANCH   1   2
ATOM      2  C   UNL     1      12.744 -22.874  25.355  1.00  0.00     0.000 C 
BRANCH   2   3
ATOM      3  C   UNL     1      11.446 -23.692  25.435  1.00  0.00     0.000 C 
BRANCH   3   4
ATOM      4  C   UNL     1      10.661 -23.605  24.118  1.00  0.00     0.006 C 
BRANCH   4   5
ATOM      5  C   UNL     1       9.357 -24.412  24.164  1.00  0.00     0.053 C 
BRANCH   5   6
ATOM      6  C   UNL     1       8.880 -24.774  22.791  1.00  0.00     0.041 C 
ATOM      7  O   UNL     1       9.517 -25.609  22.097  1.00  0.00    -0.550 OA
ATOM      8  O   UNL     1       7.711 -24.213  22.291  1.00  0.00    -0.550 OA
ENDBRANCH   5   6
ENDBRANCH   4   5
ENDBRANCH   3   4
ENDBRANCH   2   3
ENDBRANCH   1   2
BRANCH   1   9
ATOM      9  C   UNL     1      14.209 -21.528  23.746  1.00  0.00     0.000 C 
BRANCH   9  10
ATOM     10  C   UNL     1      15.076 -22.761  23.464  1.00  0.00    -0.000 C 
BRANCH  10  11
ATOM     11  C   UNL     1      14.535 -23.549  22.260  1.00  0.00    -0.000 C 
BRANCH  11  12
ATOM     12  C   UNL     1      14.552 -22.729  20.960  1.00  0.00    -0.000 C 
BRANCH  12  13
ATOM     13  C   UNL     1      13.230 -22.825  20.185  1.00  0.00    -0.003 C 
ATOM     14  C   UNL     1      12.359 -23.959  20.721  1.00  0.00     0.004 C 
ENDBRANCH  12  13
ENDBRANCH  11  12
ENDBRANCH  10  11
ENDBRANCH   9  10
ENDBRANCH   1   9
TORSDOF 10
ENDMDL
MODEL 5
REMARK VINA RESULT:    -4.919      0.853      2.999
REMARK INTER + INTRA:          -8.758
REMARK INTER:                  -7.627
REMARK INTRA:                  -1.131
REMARK UNBOUND:                -0.964
REMARK SMILES CCCCCCCCCCCC(=O)[O-]
REMARK SMILES IDX 7 1 8 2 9 3 10 4 11 5 12 6 13 7 14 8 6 9 5 10 4 11 3 12 2 13
REMARK SMILES IDX 1 14
REMARK H PARENT
REMARK Flexibility Score: inf
ROOT
ATOM      1  C   UNL     1      14.152 -23.160  23.609  1.00  0.00     0.000 C 
ENDROOT
BRANCH   1   2
ATOM      2  C   UNL     1      13.164 -22.513  24.595  1.00  0.00     0.000 C 
BRANCH   2   3
ATOM      3  C   UNL     1      11.787 -22.248  23.965  1.00  0.00     0.000 C 
BRANCH   3   4
ATOM      4  C   UNL     1      10.666 -22.452  24.994  1.00  0.00     0.006 C 
BRANCH   4   5
ATOM      5  C   UNL     1      10.129 -23.889  24.989  1.00  0.00     0.053 C 
BRANCH   5   6
ATOM      6  C   UNL     1      10.335 -24.564  26.311  1.00  0.00     0.041 C 
ATOM      7  O   UNL     1      11.392 -24.365  26.966  1.00  0.00    -0.550 OA
ATOM      8  O   UNL     1       9.345 -25.385  26.835  1.00  0.00    -0.550 OA
ENDBRANCH   5   6
ENDBRANCH   4   5
ENDBRANCH   3   4
ENDBRANCH   2   3
ENDBRANCH   1   2
BRANCH   1   9
ATOM      9  C   UNL     1      14.423 -22.279  22.380  1.00  0.00     0.000 C 
BRANCH   9  10
ATOM     10  C   UNL     1      15.006 -23.110  21.230  1.00  0.00    -0.000 C 
BRANCH  10  11
ATOM     11  C   UNL     1      14.079 -23.077  20.005  1.00  0.00    -0.000 C 
BRANCH  11  12
ATOM     12  C   UNL     1      12.601 -23.284  20.375  1.00  0.00    -0.000 C 
BRANCH  12  13
ATOM     13  C   UNL     1      12.274 -24.748  20.704  1.00  0.00    -0.003 C 
ATOM     14  C   UNL     1      10.929 -24.863  21.417  1.00  0.00     0.004 C 
ENDBRANCH  12  13
ENDBRANCH  11  12
ENDBRANCH  10  11
ENDBRANCH   9  10
ENDBRANCH   1   9
TORSDOF 10
ENDMDL
MODEL 6
REMARK VINA RESULT:    -4.907      1.270      3.686
REMARK INTER + INTRA:          -8.740
REMARK INTER:                  -7.705
REMARK INTRA:                  -1.035
REMARK UNBOUND:                -0.964
REMARK SMILES CCCCCCCCCCCC(=O)[O-]
REMARK SMILES IDX 7 1 8 2 9 3 10 4 11 5 12 6 13 7 14 8 6 9 5 10 4 11 3 12 2 13
REMARK SMILES IDX 1 14
REMARK H PARENT
REMARK Flexibility Score: inf
ROOT
ATOM      1  C   UNL     1      15.091 -23.037  21.707  1.00  0.00     0.000 C 
ENDROOT
BRANCH   1   2
ATOM      2  C   UNL     1      14.310 -22.045  22.585  1.00  0.00     0.000 C 
BRANCH   2   3
ATOM      3  C   UNL     1      14.543 -22.274  24.087  1.00  0.00     0.000 C 
BRANCH   3   4
ATOM      4  C   UNL     1      13.302 -22.894  24.745  1.00  0.00     0.006 C 
BRANCH   4   5
ATOM      5  C   UNL     1      12.065 -21.995  24.614  1.00  0.00     0.053 C 
BRANCH   5   6
ATOM      6  C   UNL     1      10.849 -22.634  25.210  1.00  0.00     0.041 C 
ATOM      7  O   UNL     1       9.765 -21.998  25.275  1.00  0.00    -0.550 OA
ATOM      8  O   UNL     1      10.905 -23.946  25.663  1.00  0.00    -0.550 OA
ENDBRANCH   5   6
ENDBRANCH   4   5
ENDBRANCH   3   4
ENDBRANCH   2   3
ENDBRANCH   1   2
BRANCH   1   9
ATOM      9  C   UNL     1      14.507 -23.159  20.291  1.00  0.00     0.000 C 
BRANCH   9  10
ATOM     10  C   UNL     1      12.982 -23.005  20.312  1.00  0.00    -0.000 C 
BRANCH  10  11
ATOM     11  C   UNL     1      12.300 -24.336  20.663  1.00  0.00    -0.000 C 
BRANCH  11  12
ATOM     12  C   UNL     1      11.310 -24.204  21.831  1.00  0.00    -0.000 C 
BRANCH  12  13
ATOM     13  C   UNL     1      10.227 -25.294  21.814  1.00  0.00    -0.003 C 
ATOM     14  C   UNL     1       9.103 -24.967  22.792  1.00  0.00     0.004 C 
ENDBRANCH  12  13
ENDBRANCH  11  12
ENDBRANCH  10  11
ENDBRANCH   9  10
ENDBRANCH   1   9
TORSDOF 10
ENDMDL
MODEL 7
REMARK VINA RESULT:    -4.870      3.041      5.293
REMARK INTER + INTRA:          -8.681
REMARK INTER:                  -7.615
REMARK INTRA:                  -1.066
REMARK UNBOUND:                -0.964
REMARK SMILES CCCCCCCCCCCC(=O)[O-]
REMARK SMILES IDX 7 1 8 2 9 3 10 4 11 5 12 6 13 7 14 8 6 9 5 10 4 11 3 12 2 13
REMARK SMILES IDX 1 14
REMARK H PARENT
REMARK Flexibility Score: inf
ROOT
ATOM      1  C   UNL     1      10.289 -24.209  22.536  1.00  0.00     0.000 C 
ENDROOT
BRANCH   1   2
ATOM      2  C   UNL     1      10.776 -25.255  21.518  1.00  0.00     0.000 C 
BRANCH   2   3
ATOM      3  C   UNL     1      12.062 -24.824  20.796  1.00  0.00     0.000 C 
BRANCH   3   4
ATOM      4  C   UNL     1      12.375 -23.346  21.073  1.00  0.00     0.006 C 
BRANCH   4   5
ATOM      5  C   UNL     1      13.375 -22.766  20.063  1.00  0.00     0.053 C 
BRANCH   5   6
ATOM      6  C   UNL     1      14.745 -23.345  20.244  1.00  0.00     0.041 C 
ATOM      7  O   UNL     1      15.347 -23.865  19.268  1.00  0.00    -0.550 OA
ATOM      8  O   UNL     1      15.370 -23.278  21.482  1.00  0.00    -0.550 OA
ENDBRANCH   5   6
ENDBRANCH   4   5
ENDBRANCH   3   4
ENDBRANCH   2   3
ENDBRANCH   1   2
BRANCH   1   9
ATOM      9  C   UNL     1       9.392 -24.816  23.626  1.00  0.00     0.000 C 
BRANCH   9  10
ATOM     10  C   UNL     1       9.683 -24.181  24.991  1.00  0.00    -0.000 C 
BRANCH  10  11
ATOM     11  C   UNL     1       9.707 -22.648  24.889  1.00  0.00    -0.000 C 
BRANCH  11  12
ATOM     12  C   UNL     1      10.959 -22.031  25.532  1.00  0.00    -0.000 C 
BRANCH  12  13
ATOM     13  C   UNL     1      12.121 -21.884  24.539  1.00  0.00    -0.003 C 
ATOM     14  C   UNL     1      13.156 -22.989  24.738  1.00  0.00     0.004 C 
ENDBRANCH  12  13
ENDBRANCH  11  12
ENDBRANCH  10  11
ENDBRANCH   9  10
ENDBRANCH   1   9
TORSDOF 10
ENDMDL
MODEL 8
REMARK VINA RESULT:    -4.838      2.610      5.163
REMARK INTER + INTRA:          -8.630
REMARK INTER:                  -7.949
REMARK INTRA:                  -0.681
REMARK UNBOUND:                -0.964
REMARK SMILES CCCCCCCCCCCC(=O)[O-]
REMARK SMILES IDX 7 1 8 2 9 3 10 4 11 5 12 6 13 7 14 8 6 9 5 10 4 11 3 12 2 13
REMARK SMILES IDX 1 14
REMARK H PARENT
REMARK Flexibility Score: inf
ROOT
ATOM      1  C   UNL     1      10.145 -25.034  22.226  1.00  0.00     0.000 C 
ENDROOT
BRANCH   1   2
ATOM      2  C   UNL     1      11.335 -24.078  22.035  1.00  0.00     0.000 C 
BRANCH   2   3
ATOM      3  C   UNL     1      12.087 -24.325  20.718  1.00  0.00     0.000 C 
BRANCH   3   4
ATOM      4  C   UNL     1      12.750 -23.034  20.217  1.00  0.00     0.006 C 
BRANCH   4   5
ATOM      5  C   UNL     1      14.281 -23.103  20.284  1.00  0.00     0.053 C 
BRANCH   5   6
ATOM      6  C   UNL     1      14.784 -22.937  21.685  1.00  0.00     0.041 C 
ATOM      7  O   UNL     1      14.282 -22.063  22.439  1.00  0.00    -0.550 OA
ATOM      8  O   UNL     1      15.783 -23.773  22.169  1.00  0.00    -0.550 OA
ENDBRANCH   5   6
ENDBRANCH   4   5
ENDBRANCH   3   4
ENDBRANCH   2   3
ENDBRANCH   1   2
BRANCH   1   9
ATOM      9  C   UNL     1       9.047 -24.440  23.121  1.00  0.00     0.000 C 
BRANCH   9  10
ATOM     10  C   UNL     1       9.403 -24.601  24.605  1.00  0.00    -0.000 C 
BRANCH  10  11
ATOM     11  C   UNL     1       9.858 -23.264  25.208  1.00  0.00    -0.000 C 
BRANCH  11  12
ATOM     12  C   UNL     1      10.352 -23.405  26.657  1.00  0.00    -0.000 C 
BRANCH  12  13
ATOM     13  C   UNL     1      11.881 -23.529  26.750  1.00  0.00    -0.003 C 
ATOM     14  C   UNL     1      12.549 -23.071  25.456  1.00  0.00     0.004 C 
ENDBRANCH  12  13
ENDBRANCH  11  12
ENDBRANCH  10  11
ENDBRANCH   9  10
ENDBRANCH   1   9
TORSDOF 10
ENDMDL
MODEL 9
REMARK VINA RESULT:    -4.769      2.964      5.809
REMARK INTER + INTRA:          -8.521
REMARK INTER:                  -7.577
REMARK INTRA:                  -0.944
REMARK UNBOUND:                -0.964
REMARK SMILES CCCCCCCCCCCC(=O)[O-]
REMARK SMILES IDX 7 1 8 2 9 3 10 4 11 5 12 6 13 7 14 8 6 9 5 10 4 11 3 12 2 13
REMARK SMILES IDX 1 14
REMARK H PARENT
REMARK Flexibility Score: inf
ROOT
ATOM      1  C   UNL     1      12.263 -22.125  24.199  1.00  0.00     0.000 C 
ENDROOT
BRANCH   1   2
ATOM      2  C   UNL     1      13.034 -22.182  22.870  1.00  0.00     0.000 C 
BRANCH   2   3
ATOM      3  C   UNL     1      12.409 -23.162  21.864  1.00  0.00     0.000 C 
BRANCH   3   4
ATOM      4  C   UNL     1      12.844 -22.826  20.431  1.00  0.00     0.006 C 
BRANCH   4   5
ATOM      5  C   UNL     1      14.254 -23.343  20.116  1.00  0.00     0.053 C 
BRANCH   5   6
ATOM      6  C   UNL     1      14.468 -24.729  20.642  1.00  0.00     0.041 C 
ATOM      7  O   UNL     1      15.244 -24.926  21.614  1.00  0.00    -0.550 OA
ATOM      8  O   UNL     1      13.782 -25.799  20.080  1.00  0.00    -0.550 OA
ENDBRANCH   5   6
ENDBRANCH   4   5
ENDBRANCH   3   4
ENDBRANCH   2   3
ENDBRANCH   1   2
BRANCH   1   9
ATOM      9  C   UNL     1      12.568 -23.323  25.112  1.00  0.00     0.000 C 
BRANCH   9  10
ATOM     10  C   UNL     1      11.437 -23.541  26.125  1.00  0.00    -0.000 C 
BRANCH  10  11
ATOM     11  C   UNL     1      10.067 -23.264  25.486  1.00  0.00    -0.000 C 
BRANCH  11  12
ATOM     12  C   UNL     1       9.487 -24.494  24.772  1.00  0.00    -0.000 C 
BRANCH  12  13
ATOM     13  C   UNL     1       8.962 -24.168  23.366  1.00  0.00    -0.003 C 
ATOM     14  C   UNL     1       9.348 -25.257  22.368  1.00  0.00     0.004 C 
ENDBRANCH  12  13
ENDBRANCH  11  12
ENDBRANCH  10  11
ENDBRANCH   9  10
ENDBRANCH   1   9
TORSDOF 10
ENDMDL
