MODEL 1
REMARK VINA RESULT:    -6.340      0.000      0.000
REMARK INTER + INTRA:         -11.263
REMARK INTER:                  -9.305
REMARK INTRA:                  -1.958
REMARK UNBOUND:                -1.958
REMARK SMILES O=c1c(O[C@H]2O[C@H](CO)[C@H](O)[C@@H](O)[C@H]2O)c(-c2ccc(O)c(O)c2)oc2cc(O)cc(O)c12
REMARK SMILES IDX 4 1 3 2 16 3 25 4 2 5 26 6 1 7 33 8 27 9 31 10 28 11 30 12
REMARK SMILES IDX 17 13 18 14 19 15 20 16 24 17 22 18 21 19 23 21 32 23 29 25
REMARK SMILES IDX 5 27 14 28 6 29 12 30 7 31 10 32 15 33 13 35 8 37 9 38 11 40
REMARK H PARENT 21 20 23 22 32 24 29 26 15 34 13 36 9 39 11 41
REMARK Flexibility Score: inf
ROOT
ATOM      1  O   UNL     1       7.215  10.342 -18.410  1.00  0.00    -0.454 OA
ENDROOT
BRANCH   1   2
ATOM      2  C   UNL     1       7.235   9.140 -17.670  1.00  0.00     0.214 A 
ATOM      3  C   UNL     1       7.763   9.175 -16.363  1.00  0.00     0.180 A 
ATOM      4  O   UNL     1       7.873   8.059 -15.652  1.00  0.00    -0.452 OA
ATOM      5  C   UNL     1       6.785   7.896 -18.172  1.00  0.00     0.239 A 
ATOM      6  C   UNL     1       7.477   6.873 -16.091  1.00  0.00     0.146 A 
ATOM      7  O   UNL     1       6.284   7.815 -19.324  1.00  0.00    -0.285 OA
ATOM      8  C   UNL     1       6.904   6.736 -17.375  1.00  0.00     0.111 A 
ATOM      9  C   UNL     1       7.630   5.757 -15.262  1.00  0.00     0.094 A 
ATOM     10  C   UNL     1       6.484   5.453 -17.806  1.00  0.00     0.134 A 
ATOM     11  C   UNL     1       7.215   4.494 -15.694  1.00  0.00     0.123 A 
ATOM     12  C   UNL     1       6.644   4.346 -16.959  1.00  0.00     0.093 A 
BRANCH   3  13
ATOM     13  C   UNL     1       8.228  10.435 -15.748  1.00  0.00     0.025 A 
ATOM     14  C   UNL     1       7.487  11.058 -14.733  1.00  0.00     0.016 A 
ATOM     15  C   UNL     1       7.948  12.241 -14.148  1.00  0.00     0.051 A 
ATOM     16  C   UNL     1       9.162  12.805 -14.560  1.00  0.00     0.157 A 
ATOM     17  C   UNL     1       9.455  10.990 -16.142  1.00  0.00     0.062 A 
ATOM     18  C   UNL     1       9.919  12.176 -15.557  1.00  0.00     0.158 A 
BRANCH  16  19
ATOM     19  O   UNL     1       9.624  13.987 -13.982  1.00  0.00    -0.504 OA
ATOM     20  H   UNL     1       9.139  14.866 -14.115  1.00  0.00     0.293 HD
ENDBRANCH  16  19
BRANCH  18  21
ATOM     21  O   UNL     1      11.131  12.735 -15.959  1.00  0.00    -0.504 OA
ATOM     22  H   UNL     1      11.178  13.660 -16.371  1.00  0.00     0.293 HD
ENDBRANCH  18  21
ENDBRANCH   3  13
BRANCH  10  23
ATOM     23  O   UNL     1       5.911   5.269 -19.065  1.00  0.00    -0.507 OA
ATOM     24  H   UNL     1       5.438   6.022 -19.551  1.00  0.00     0.293 HD
ENDBRANCH  10  23
BRANCH  11  25
ATOM     25  O   UNL     1       7.365   3.378 -14.873  1.00  0.00    -0.508 OA
ATOM     26  H   UNL     1       7.352   3.458 -13.863  1.00  0.00     0.293 HD
ENDBRANCH  11  25
ENDBRANCH   1   2
BRANCH   1  27
ATOM     27  C   UNL     1       6.074  11.156 -18.707  1.00  0.00     0.339 C 
ATOM     28  C   UNL     1       6.027  11.508 -20.210  1.00  0.00     0.214 C 
ATOM     29  O   UNL     1       6.045  12.326 -17.903  1.00  0.00    -0.332 OA
ATOM     30  C   UNL     1       7.131  12.515 -20.590  1.00  0.00     0.180 C 
ATOM     31  C   UNL     1       7.168  13.157 -18.152  1.00  0.00     0.179 C 
ATOM     32  C   UNL     1       7.133  13.695 -19.601  1.00  0.00     0.177 C 
BRANCH  28  33
ATOM     33  O   UNL     1       6.150  10.347 -20.992  1.00  0.00    -0.384 OA
ATOM     34  H   UNL     1       7.067  10.352 -21.372  1.00  0.00     0.211 HD
ENDBRANCH  28  33
BRANCH  30  35
ATOM     35  O   UNL     1       8.393  11.899 -20.579  1.00  0.00    -0.387 OA
ATOM     36  H   UNL     1       8.560  11.588 -19.651  1.00  0.00     0.211 HD
ENDBRANCH  30  35
BRANCH  31  37
ATOM     37  C   UNL     1       7.165  14.300 -17.125  1.00  0.00     0.191 C 
BRANCH  37  38
ATOM     38  O   UNL     1       7.859  15.416 -17.612  1.00  0.00    -0.394 OA
ATOM     39  H   UNL     1       7.498  15.603 -18.518  1.00  0.00     0.210 HD
ENDBRANCH  37  38
ENDBRANCH  31  37
BRANCH  32  40
ATOM     40  O   UNL     1       5.982  14.480 -19.791  1.00  0.00    -0.387 OA
ATOM     41  H   UNL     1       5.579  14.620 -18.894  1.00  0.00     0.211 HD
ENDBRANCH  32  40
ENDBRANCH   1  27
TORSDOF 12
ENDMDL
MODEL 2
REMARK VINA RESULT:    -6.249      3.215      7.931
REMARK INTER + INTRA:         -11.130
REMARK INTER:                  -9.166
REMARK INTRA:                  -1.964
REMARK UNBOUND:                -1.958
REMARK SMILES O=c1c(O[C@H]2O[C@H](CO)[C@H](O)[C@@H](O)[C@H]2O)c(-c2ccc(O)c(O)c2)oc2cc(O)cc(O)c12
REMARK SMILES IDX 4 1 3 2 16 3 25 4 2 5 26 6 1 7 33 8 27 9 31 10 28 11 30 12
REMARK SMILES IDX 17 13 18 14 19 15 20 16 24 17 22 18 21 19 23 21 32 23 29 25
REMARK SMILES IDX 5 27 14 28 6 29 12 30 7 31 10 32 15 33 13 35 8 37 9 38 11 40
REMARK H PARENT 21 20 23 22 32 24 29 26 15 34 13 36 9 39 11 41
REMARK Flexibility Score: inf
ROOT
ATOM      1  O   UNL     1       7.822  12.814 -15.251  1.00  0.00    -0.454 OA
ENDROOT
BRANCH   1   2
ATOM      2  C   UNL     1       7.968  13.595 -16.417  1.00  0.00     0.214 A 
ATOM      3  C   UNL     1       8.881  13.158 -17.399  1.00  0.00     0.180 A 
ATOM      4  O   UNL     1       9.110  13.894 -18.480  1.00  0.00    -0.452 OA
ATOM      5  C   UNL     1       7.276  14.808 -16.647  1.00  0.00     0.239 A 
ATOM      6  C   UNL     1       8.494  15.041 -18.725  1.00  0.00     0.146 A 
ATOM      7  O   UNL     1       6.433  15.230 -15.813  1.00  0.00    -0.285 OA
ATOM      8  C   UNL     1       7.536  15.551 -17.820  1.00  0.00     0.111 A 
ATOM      9  C   UNL     1       8.800  15.739 -19.897  1.00  0.00     0.094 A 
ATOM     10  C   UNL     1       6.890  16.775 -18.120  1.00  0.00     0.134 A 
ATOM     11  C   UNL     1       8.160  16.948 -20.187  1.00  0.00     0.123 A 
ATOM     12  C   UNL     1       7.210  17.460 -19.302  1.00  0.00     0.093 A 
BRANCH   3  13
ATOM     13  C   UNL     1       9.625  11.890 -17.255  1.00  0.00     0.025 A 
ATOM     14  C   UNL     1      10.789  11.822 -16.475  1.00  0.00     0.016 A 
ATOM     15  C   UNL     1      11.474  10.612 -16.333  1.00  0.00     0.051 A 
ATOM     16  C   UNL     1      10.994   9.453 -16.957  1.00  0.00     0.157 A 
ATOM     17  C   UNL     1       9.134  10.723 -17.859  1.00  0.00     0.062 A 
ATOM     18  C   UNL     1       9.820   9.508 -17.719  1.00  0.00     0.158 A 
BRANCH  16  19
ATOM     19  O   UNL     1      11.676   8.244 -16.822  1.00  0.00    -0.504 OA
ATOM     20  H   UNL     1      11.759   7.780 -15.926  1.00  0.00     0.293 HD
ENDBRANCH  16  19
BRANCH  18  21
ATOM     21  O   UNL     1       9.339   8.351 -18.332  1.00  0.00    -0.504 OA
ATOM     22  H   UNL     1       9.729   8.012 -19.203  1.00  0.00     0.293 HD
ENDBRANCH  18  21
ENDBRANCH   3  13
BRANCH  10  23
ATOM     23  O   UNL     1       5.937  17.318 -17.257  1.00  0.00    -0.507 OA
ATOM     24  H   UNL     1       5.561  16.790 -16.478  1.00  0.00     0.293 HD
ENDBRANCH  10  23
BRANCH  11  25
ATOM     25  O   UNL     1       8.461  17.648 -21.353  1.00  0.00    -0.508 OA
ATOM     26  H   UNL     1       8.327  17.236 -22.269  1.00  0.00     0.293 HD
ENDBRANCH  11  25
ENDBRANCH   1   2
BRANCH   1  27
ATOM     27  C   UNL     1       6.712  11.979 -14.902  1.00  0.00     0.339 C 
ATOM     28  C   UNL     1       6.207  12.303 -13.479  1.00  0.00     0.214 C 
ATOM     29  O   UNL     1       7.033  10.602 -15.033  1.00  0.00    -0.332 OA
ATOM     30  C   UNL     1       7.201  11.821 -12.403  1.00  0.00     0.180 C 
ATOM     31  C   UNL     1       8.074  10.224 -14.146  1.00  0.00     0.179 C 
ATOM     32  C   UNL     1       7.612  10.364 -12.677  1.00  0.00     0.177 C 
BRANCH  28  33
ATOM     33  O   UNL     1       5.982  13.683 -13.339  1.00  0.00    -0.384 OA
ATOM     34  H   UNL     1       5.851  14.047 -14.253  1.00  0.00     0.211 HD
ENDBRANCH  28  33
BRANCH  30  35
ATOM     35  O   UNL     1       8.348  12.632 -12.386  1.00  0.00    -0.387 OA
ATOM     36  H   UNL     1       9.082  12.094 -11.991  1.00  0.00     0.211 HD
ENDBRANCH  30  35
BRANCH  31  37
ATOM     37  C   UNL     1       8.491   8.781 -14.472  1.00  0.00     0.191 C 
BRANCH  37  38
ATOM     38  O   UNL     1       8.631   8.021 -13.302  1.00  0.00    -0.394 OA
ATOM     39  H   UNL     1       8.773   8.665 -12.560  1.00  0.00     0.210 HD
ENDBRANCH  37  38
ENDBRANCH  31  37
BRANCH  32  40
ATOM     40  O   UNL     1       6.525   9.506 -12.435  1.00  0.00    -0.387 OA
ATOM     41  H   UNL     1       6.906   8.621 -12.193  1.00  0.00     0.211 HD
ENDBRANCH  32  40
ENDBRANCH   1  27
TORSDOF 12
ENDMDL
MODEL 3
REMARK VINA RESULT:    -6.151      1.878      4.791
REMARK INTER + INTRA:         -10.986
REMARK INTER:                  -9.123
REMARK INTRA:                  -1.864
REMARK UNBOUND:                -1.958
REMARK SMILES O=c1c(O[C@H]2O[C@H](CO)[C@H](O)[C@@H](O)[C@H]2O)c(-c2ccc(O)c(O)c2)oc2cc(O)cc(O)c12
REMARK SMILES IDX 4 1 3 2 16 3 25 4 2 5 26 6 1 7 33 8 27 9 31 10 28 11 30 12
REMARK SMILES IDX 17 13 18 14 19 15 20 16 24 17 22 18 21 19 23 21 32 23 29 25
REMARK SMILES IDX 5 27 14 28 6 29 12 30 7 31 10 32 15 33 13 35 8 37 9 38 11 40
REMARK H PARENT 21 20 23 22 32 24 29 26 15 34 13 36 9 39 11 41
REMARK Flexibility Score: inf
ROOT
ATOM      1  O   UNL     1       7.221   8.828 -15.092  1.00  0.00    -0.454 OA
ENDROOT
BRANCH   1   2
ATOM      2  C   UNL     1       7.223   7.798 -16.057  1.00  0.00     0.214 A 
ATOM      3  C   UNL     1       7.248   8.164 -17.418  1.00  0.00     0.180 A 
ATOM      4  O   UNL     1       7.176   7.237 -18.366  1.00  0.00    -0.452 OA
ATOM      5  C   UNL     1       7.168   6.419 -15.740  1.00  0.00     0.239 A 
ATOM      6  C   UNL     1       7.110   5.938 -18.112  1.00  0.00     0.146 A 
ATOM      7  O   UNL     1       7.167   6.039 -14.540  1.00  0.00    -0.285 OA
ATOM      8  C   UNL     1       7.111   5.465 -16.780  1.00  0.00     0.111 A 
ATOM      9  C   UNL     1       7.044   5.039 -19.181  1.00  0.00     0.094 A 
ATOM     10  C   UNL     1       7.049   4.069 -16.547  1.00  0.00     0.134 A 
ATOM     11  C   UNL     1       6.981   3.663 -18.944  1.00  0.00     0.123 A 
ATOM     12  C   UNL     1       6.986   3.183 -17.633  1.00  0.00     0.093 A 
BRANCH   3  13
ATOM     13  C   UNL     1       7.333   9.577 -17.839  1.00  0.00     0.025 A 
ATOM     14  C   UNL     1       6.176  10.359 -17.982  1.00  0.00     0.016 A 
ATOM     15  C   UNL     1       6.273  11.699 -18.364  1.00  0.00     0.051 A 
ATOM     16  C   UNL     1       7.528  12.279 -18.592  1.00  0.00     0.157 A 
ATOM     17  C   UNL     1       8.590  10.167 -18.046  1.00  0.00     0.062 A 
ATOM     18  C   UNL     1       8.688  11.512 -18.430  1.00  0.00     0.158 A 
BRANCH  16  19
ATOM     19  O   UNL     1       7.629  13.615 -18.978  1.00  0.00    -0.504 OA
ATOM     20  H   UNL     1       7.999  13.879 -19.882  1.00  0.00     0.293 HD
ENDBRANCH  16  19
BRANCH  18  21
ATOM     21  O   UNL     1       9.937  12.093 -18.649  1.00  0.00    -0.504 OA
ATOM     22  H   UNL     1      10.027  13.040 -18.998  1.00  0.00     0.293 HD
ENDBRANCH  18  21
ENDBRANCH   3  13
BRANCH  10  23
ATOM     23  O   UNL     1       7.050   3.554 -15.250  1.00  0.00    -0.507 OA
ATOM     24  H   UNL     1       6.228   3.599 -14.658  1.00  0.00     0.293 HD
ENDBRANCH  10  23
BRANCH  11  25
ATOM     25  O   UNL     1       6.915   2.763 -20.005  1.00  0.00    -0.508 OA
ATOM     26  H   UNL     1       7.654   2.703 -20.696  1.00  0.00     0.293 HD
ENDBRANCH  11  25
ENDBRANCH   1   2
BRANCH   1  27
ATOM     27  C   UNL     1       8.358   9.394 -14.429  1.00  0.00     0.339 C 
ATOM     28  C   UNL     1       8.250   9.208 -12.900  1.00  0.00     0.214 C 
ATOM     29  O   UNL     1       8.533  10.761 -14.770  1.00  0.00    -0.332 OA
ATOM     30  C   UNL     1       7.159  10.115 -12.295  1.00  0.00     0.180 C 
ATOM     31  C   UNL     1       7.430  11.548 -14.351  1.00  0.00     0.179 C 
ATOM     32  C   UNL     1       7.326  11.556 -12.809  1.00  0.00     0.177 C 
BRANCH  28  33
ATOM     33  O   UNL     1       7.984   7.865 -12.584  1.00  0.00    -0.384 OA
ATOM     34  H   UNL     1       8.769   7.529 -12.077  1.00  0.00     0.211 HD
ENDBRANCH  28  33
BRANCH  30  35
ATOM     35  O   UNL     1       5.879   9.647 -12.634  1.00  0.00    -0.387 OA
ATOM     36  H   UNL     1       5.783   9.738 -13.617  1.00  0.00     0.211 HD
ENDBRANCH  30  35
BRANCH  31  37
ATOM     37  C   UNL     1       7.604  12.968 -14.913  1.00  0.00     0.191 C 
BRANCH  37  38
ATOM     38  O   UNL     1       8.812  13.535 -14.485  1.00  0.00    -0.394 OA
ATOM     39  H   UNL     1       8.917  14.390 -14.979  1.00  0.00     0.210 HD
ENDBRANCH  37  38
ENDBRANCH  31  37
BRANCH  32  40
ATOM     40  O   UNL     1       8.483  12.131 -12.255  1.00  0.00    -0.387 OA
ATOM     41  H   UNL     1       9.187  12.090 -12.955  1.00  0.00     0.211 HD
ENDBRANCH  32  40
ENDBRANCH   1  27
TORSDOF 12
ENDMDL
MODEL 4
REMARK VINA RESULT:    -5.655      3.708      8.339
REMARK INTER + INTRA:         -10.258
REMARK INTER:                  -8.272
REMARK INTRA:                  -1.986
REMARK UNBOUND:                -1.958
REMARK SMILES O=c1c(O[C@H]2O[C@H](CO)[C@H](O)[C@@H](O)[C@H]2O)c(-c2ccc(O)c(O)c2)oc2cc(O)cc(O)c12
REMARK SMILES IDX 4 1 3 2 16 3 25 4 2 5 26 6 1 7 33 8 27 9 31 10 28 11 30 12
REMARK SMILES IDX 17 13 18 14 19 15 20 16 24 17 22 18 21 19 23 21 32 23 29 25
REMARK SMILES IDX 5 27 14 28 6 29 12 30 7 31 10 32 15 33 13 35 8 37 9 38 11 40
REMARK H PARENT 21 20 23 22 32 24 29 26 15 34 13 36 9 39 11 41
REMARK Flexibility Score: inf
ROOT
ATOM      1  O   UNL     1       7.521  14.947 -18.666  1.00  0.00    -0.454 OA
ENDROOT
BRANCH   1   2
ATOM      2  C   UNL     1       7.260  15.978 -17.738  1.00  0.00     0.214 A 
ATOM      3  C   UNL     1       6.940  15.614 -16.414  1.00  0.00     0.180 A 
ATOM      4  O   UNL     1       6.614  16.540 -15.521  1.00  0.00    -0.452 OA
ATOM      5  C   UNL     1       7.268  17.355 -18.065  1.00  0.00     0.239 A 
ATOM      6  C   UNL     1       6.596  17.838 -15.790  1.00  0.00     0.146 A 
ATOM      7  O   UNL     1       7.570  17.735 -19.226  1.00  0.00    -0.285 OA
ATOM      8  C   UNL     1       6.932  18.310 -17.079  1.00  0.00     0.111 A 
ATOM      9  C   UNL     1       6.245  18.736 -14.778  1.00  0.00     0.094 A 
ATOM     10  C   UNL     1       6.912  19.704 -17.327  1.00  0.00     0.134 A 
ATOM     11  C   UNL     1       6.225  20.111 -15.030  1.00  0.00     0.123 A 
ATOM     12  C   UNL     1       6.559  20.590 -16.297  1.00  0.00     0.093 A 
BRANCH   3  13
ATOM     13  C   UNL     1       6.936  14.202 -15.978  1.00  0.00     0.025 A 
ATOM     14  C   UNL     1       5.877  13.346 -16.318  1.00  0.00     0.016 A 
ATOM     15  C   UNL     1       5.893  12.008 -15.914  1.00  0.00     0.051 A 
ATOM     16  C   UNL     1       6.976  11.507 -15.180  1.00  0.00     0.157 A 
ATOM     17  C   UNL     1       8.029  13.691 -15.263  1.00  0.00     0.062 A 
ATOM     18  C   UNL     1       8.048  12.349 -14.857  1.00  0.00     0.158 A 
BRANCH  16  19
ATOM     19  O   UNL     1       6.995  10.174 -14.771  1.00  0.00    -0.504 OA
ATOM     20  H   UNL     1       7.862   9.654 -14.700  1.00  0.00     0.293 HD
ENDBRANCH  16  19
BRANCH  18  21
ATOM     21  O   UNL     1       9.128  11.846 -14.133  1.00  0.00    -0.504 OA
ATOM     22  H   UNL     1       9.305  12.131 -13.177  1.00  0.00     0.293 HD
ENDBRANCH  18  21
ENDBRANCH   3  13
BRANCH  10  23
ATOM     23  O   UNL     1       7.238  20.218 -18.583  1.00  0.00    -0.507 OA
ATOM     24  H   UNL     1       8.168  20.561 -18.794  1.00  0.00     0.293 HD
ENDBRANCH  10  23
BRANCH  11  25
ATOM     25  O   UNL     1       5.875  21.011 -14.025  1.00  0.00    -0.508 OA
ATOM     26  H   UNL     1       6.578  21.501 -13.484  1.00  0.00     0.293 HD
ENDBRANCH  11  25
ENDBRANCH   1   2
BRANCH   1  27
ATOM     27  C   UNL     1       8.790  14.591 -19.229  1.00  0.00     0.339 C 
ATOM     28  C   UNL     1       8.705  14.518 -20.770  1.00  0.00     0.214 C 
ATOM     29  O   UNL     1       9.280  13.376 -18.682  1.00  0.00    -0.332 OA
ATOM     30  C   UNL     1       7.897  13.289 -21.234  1.00  0.00     0.180 C 
ATOM     31  C   UNL     1       8.423  12.286 -18.982  1.00  0.00     0.179 C 
ATOM     32  C   UNL     1       8.390  12.027 -20.506  1.00  0.00     0.177 C 
BRANCH  28  33
ATOM     33  O   UNL     1       8.131  15.692 -21.287  1.00  0.00    -0.384 OA
ATOM     34  H   UNL     1       8.862  16.359 -21.361  1.00  0.00     0.211 HD
ENDBRANCH  28  33
BRANCH  30  35
ATOM     35  O   UNL     1       6.527  13.469 -20.977  1.00  0.00    -0.387 OA
ATOM     36  H   UNL     1       6.446  14.209 -20.321  1.00  0.00     0.211 HD
ENDBRANCH  30  35
BRANCH  31  37
ATOM     37  C   UNL     1       8.915  11.053 -18.209  1.00  0.00     0.191 C 
BRANCH  37  38
ATOM     38  O   UNL     1      10.269  11.180 -17.867  1.00  0.00    -0.394 OA
ATOM     39  H   UNL     1      10.560  12.076 -18.183  1.00  0.00     0.210 HD
ENDBRANCH  37  38
ENDBRANCH  31  37
BRANCH  32  40
ATOM     40  O   UNL     1       9.676  11.683 -20.959  1.00  0.00    -0.387 OA
ATOM     41  H   UNL     1       9.830  12.193 -21.797  1.00  0.00     0.211 HD
ENDBRANCH  32  40
ENDBRANCH   1  27
TORSDOF 12
ENDMDL
MODEL 5
REMARK VINA RESULT:    -5.605      1.976      4.916
REMARK INTER + INTRA:         -10.185
REMARK INTER:                  -9.231
REMARK INTRA:                  -0.955
REMARK UNBOUND:                -1.958
REMARK SMILES O=c1c(O[C@H]2O[C@H](CO)[C@H](O)[C@@H](O)[C@H]2O)c(-c2ccc(O)c(O)c2)oc2cc(O)cc(O)c12
REMARK SMILES IDX 4 1 3 2 16 3 25 4 2 5 26 6 1 7 33 8 27 9 31 10 28 11 30 12
REMARK SMILES IDX 17 13 18 14 19 15 20 16 24 17 22 18 21 19 23 21 32 23 29 25
REMARK SMILES IDX 5 27 14 28 6 29 12 30 7 31 10 32 15 33 13 35 8 37 9 38 11 40
REMARK H PARENT 21 20 23 22 32 24 29 26 15 34 13 36 9 39 11 41
REMARK Flexibility Score: inf
ROOT
ATOM      1  O   UNL     1       7.536  12.728 -15.641  1.00  0.00    -0.454 OA
ENDROOT
BRANCH   1   2
ATOM      2  C   UNL     1       7.293  11.338 -15.663  1.00  0.00     0.214 A 
ATOM      3  C   UNL     1       6.996  10.737 -16.903  1.00  0.00     0.180 A 
ATOM      4  O   UNL     1       6.687   9.447 -16.969  1.00  0.00    -0.452 OA
ATOM      5  C   UNL     1       7.298  10.517 -14.510  1.00  0.00     0.239 A 
ATOM      6  C   UNL     1       6.667   8.648 -15.912  1.00  0.00     0.146 A 
ATOM      7  O   UNL     1       7.579  11.001 -13.382  1.00  0.00    -0.285 OA
ATOM      8  C   UNL     1       6.981   9.146 -14.627  1.00  0.00     0.111 A 
ATOM      9  C   UNL     1       6.335   7.300 -16.086  1.00  0.00     0.094 A 
ATOM     10  C   UNL     1       6.958   8.259 -13.522  1.00  0.00     0.134 A 
ATOM     11  C   UNL     1       6.313   6.431 -14.991  1.00  0.00     0.123 A 
ATOM     12  C   UNL     1       6.625   6.910 -13.718  1.00  0.00     0.093 A 
BRANCH   3  13
ATOM     13  C   UNL     1       6.996  11.512 -18.160  1.00  0.00     0.025 A 
ATOM     14  C   UNL     1       5.904  12.320 -18.510  1.00  0.00     0.016 A 
ATOM     15  C   UNL     1       5.925  13.062 -19.694  1.00  0.00     0.051 A 
ATOM     16  C   UNL     1       7.045  13.017 -20.534  1.00  0.00     0.157 A 
ATOM     17  C   UNL     1       8.126  11.487 -18.992  1.00  0.00     0.062 A 
ATOM     18  C   UNL     1       8.149  12.231 -20.181  1.00  0.00     0.158 A 
BRANCH  16  19
ATOM     19  O   UNL     1       7.068  13.752 -21.719  1.00  0.00    -0.504 OA
ATOM     20  H   UNL     1       7.593  14.615 -21.796  1.00  0.00     0.293 HD
ENDBRANCH  16  19
BRANCH  18  21
ATOM     21  O   UNL     1       9.266  12.194 -21.015  1.00  0.00    -0.504 OA
ATOM     22  H   UNL     1       9.531  11.350 -21.509  1.00  0.00     0.293 HD
ENDBRANCH  18  21
ENDBRANCH   3  13
BRANCH  10  23
ATOM     23  O   UNL     1       7.263   8.704 -12.235  1.00  0.00    -0.507 OA
ATOM     24  H   UNL     1       6.734   9.443 -11.788  1.00  0.00     0.293 HD
ENDBRANCH  10  23
BRANCH  11  25
ATOM     25  O   UNL     1       5.982   5.088 -15.159  1.00  0.00    -0.508 OA
ATOM     26  H   UNL     1       6.036   4.638 -16.065  1.00  0.00     0.293 HD
ENDBRANCH  11  25
ENDBRANCH   1   2
BRANCH   1  27
ATOM     27  C   UNL     1       8.540  13.420 -14.888  1.00  0.00     0.339 C 
ATOM     28  C   UNL     1       8.626  14.900 -15.317  1.00  0.00     0.214 C 
ATOM     29  O   UNL     1       9.802  12.778 -14.992  1.00  0.00    -0.332 OA
ATOM     30  C   UNL     1       9.252  15.047 -16.719  1.00  0.00     0.180 C 
ATOM     31  C   UNL     1      10.277  12.778 -16.329  1.00  0.00     0.179 C 
ATOM     32  C   UNL     1      10.548  14.223 -16.808  1.00  0.00     0.177 C 
BRANCH  28  33
ATOM     33  O   UNL     1       7.353  15.494 -15.297  1.00  0.00    -0.384 OA
ATOM     34  H   UNL     1       6.948  15.274 -14.417  1.00  0.00     0.211 HD
ENDBRANCH  28  33
BRANCH  30  35
ATOM     35  O   UNL     1       8.356  14.614 -17.711  1.00  0.00    -0.387 OA
ATOM     36  H   UNL     1       7.768  13.930 -17.298  1.00  0.00     0.211 HD
ENDBRANCH  30  35
BRANCH  31  37
ATOM     37  C   UNL     1      11.546  11.913 -16.395  1.00  0.00     0.191 C 
BRANCH  37  38
ATOM     38  O   UNL     1      11.317  10.738 -17.125  1.00  0.00    -0.394 OA
ATOM     39  H   UNL     1      10.522  10.302 -16.720  1.00  0.00     0.210 HD
ENDBRANCH  37  38
ENDBRANCH  31  37
BRANCH  32  40
ATOM     40  O   UNL     1      11.546  14.810 -16.011  1.00  0.00    -0.387 OA
ATOM     41  H   UNL     1      11.596  14.278 -15.174  1.00  0.00     0.211 HD
ENDBRANCH  32  40
ENDBRANCH   1  27
TORSDOF 12
ENDMDL
MODEL 6
REMARK VINA RESULT:    -5.478      2.527      7.930
REMARK INTER + INTRA:          -9.998
REMARK INTER:                  -8.243
REMARK INTRA:                  -1.756
REMARK UNBOUND:                -1.958
REMARK SMILES O=c1c(O[C@H]2O[C@H](CO)[C@H](O)[C@@H](O)[C@H]2O)c(-c2ccc(O)c(O)c2)oc2cc(O)cc(O)c12
REMARK SMILES IDX 4 1 3 2 16 3 25 4 2 5 26 6 1 7 33 8 27 9 31 10 28 11 30 12
REMARK SMILES IDX 17 13 18 14 19 15 20 16 24 17 22 18 21 19 23 21 32 23 29 25
REMARK SMILES IDX 5 27 14 28 6 29 12 30 7 31 10 32 15 33 13 35 8 37 9 38 11 40
REMARK H PARENT 21 20 23 22 32 24 29 26 15 34 13 36 9 39 11 41
REMARK Flexibility Score: inf
ROOT
ATOM      1  O   UNL     1       7.549  12.671 -15.719  1.00  0.00    -0.454 OA
ENDROOT
BRANCH   1   2
ATOM      2  C   UNL     1       7.627  13.372 -16.942  1.00  0.00     0.214 A 
ATOM      3  C   UNL     1       7.719  12.621 -18.132  1.00  0.00     0.180 A 
ATOM      4  O   UNL     1       7.869  13.230 -19.302  1.00  0.00    -0.452 OA
ATOM      5  C   UNL     1       7.649  14.783 -17.043  1.00  0.00     0.239 A 
ATOM      6  C   UNL     1       7.908  14.548 -19.438  1.00  0.00     0.146 A 
ATOM      7  O   UNL     1       7.546  15.500 -16.014  1.00  0.00    -0.285 OA
ATOM      8  C   UNL     1       7.791  15.391 -18.311  1.00  0.00     0.111 A 
ATOM      9  C   UNL     1       8.062  15.094 -20.716  1.00  0.00     0.094 A 
ATOM     10  C   UNL     1       7.828  16.795 -18.496  1.00  0.00     0.134 A 
ATOM     11  C   UNL     1       8.099  16.480 -20.892  1.00  0.00     0.123 A 
ATOM     12  C   UNL     1       7.981  17.324 -19.787  1.00  0.00     0.093 A 
BRANCH   3  13
ATOM     13  C   UNL     1       7.675  11.145 -18.122  1.00  0.00     0.025 A 
ATOM     14  C   UNL     1       6.503  10.456 -18.471  1.00  0.00     0.016 A 
ATOM     15  C   UNL     1       6.480   9.059 -18.474  1.00  0.00     0.051 A 
ATOM     16  C   UNL     1       7.632   8.334 -18.144  1.00  0.00     0.157 A 
ATOM     17  C   UNL     1       8.834  10.415 -17.815  1.00  0.00     0.062 A 
ATOM     18  C   UNL     1       8.812   9.014 -17.817  1.00  0.00     0.158 A 
BRANCH  16  19
ATOM     19  O   UNL     1       7.613   6.940 -18.142  1.00  0.00    -0.504 OA
ATOM     20  H   UNL     1       6.929   6.420 -17.606  1.00  0.00     0.293 HD
ENDBRANCH  16  19
BRANCH  18  21
ATOM     21  O   UNL     1       9.960   8.290 -17.497  1.00  0.00    -0.504 OA
ATOM     22  H   UNL     1       9.989   7.280 -17.574  1.00  0.00     0.293 HD
ENDBRANCH  18  21
ENDBRANCH   3  13
BRANCH  10  23
ATOM     23  O   UNL     1       7.715  17.668 -17.413  1.00  0.00    -0.507 OA
ATOM     24  H   UNL     1       6.921  18.290 -17.311  1.00  0.00     0.293 HD
ENDBRANCH  10  23
BRANCH  11  25
ATOM     25  O   UNL     1       8.253  17.030 -22.164  1.00  0.00    -0.508 OA
ATOM     26  H   UNL     1       9.000  16.735 -22.782  1.00  0.00     0.293 HD
ENDBRANCH  11  25
ENDBRANCH   1   2
BRANCH   1  27
ATOM     27  C   UNL     1       6.389  12.054 -15.147  1.00  0.00     0.339 C 
ATOM     28  C   UNL     1       6.095  12.632 -13.746  1.00  0.00     0.214 C 
ATOM     29  O   UNL     1       6.518  10.641 -15.106  1.00  0.00    -0.332 OA
ATOM     30  C   UNL     1       7.137  12.161 -12.711  1.00  0.00     0.180 C 
ATOM     31  C   UNL     1       7.597  10.241 -14.276  1.00  0.00     0.179 C 
ATOM     32  C   UNL     1       7.327  10.638 -12.807  1.00  0.00     0.177 C 
BRANCH  28  33
ATOM     33  O   UNL     1       6.063  14.036 -13.788  1.00  0.00    -0.384 OA
ATOM     34  H   UNL     1       6.273  14.300 -14.722  1.00  0.00     0.211 HD
ENDBRANCH  28  33
BRANCH  30  35
ATOM     35  O   UNL     1       8.371  12.798 -12.922  1.00  0.00    -0.387 OA
ATOM     36  H   UNL     1       8.692  12.525 -13.820  1.00  0.00     0.211 HD
ENDBRANCH  30  35
BRANCH  31  37
ATOM     37  C   UNL     1       7.789   8.723 -14.426  1.00  0.00     0.191 C 
BRANCH  37  38
ATOM     38  O   UNL     1       8.217   8.149 -13.221  1.00  0.00    -0.394 OA
ATOM     39  H   UNL     1       8.073   7.170 -13.305  1.00  0.00     0.210 HD
ENDBRANCH  37  38
ENDBRANCH  31  37
BRANCH  32  40
ATOM     40  O   UNL     1       6.175   9.980 -12.339  1.00  0.00    -0.387 OA
ATOM     41  H   UNL     1       6.402   9.016 -12.273  1.00  0.00     0.211 HD
ENDBRANCH  32  40
ENDBRANCH   1  27
TORSDOF 12
ENDMDL
MODEL 7
REMARK VINA RESULT:    -5.312      1.709      2.398
REMARK INTER + INTRA:          -9.755
REMARK INTER:                  -8.027
REMARK INTRA:                  -1.729
REMARK UNBOUND:                -1.958
REMARK SMILES O=c1c(O[C@H]2O[C@H](CO)[C@H](O)[C@@H](O)[C@H]2O)c(-c2ccc(O)c(O)c2)oc2cc(O)cc(O)c12
REMARK SMILES IDX 4 1 3 2 16 3 25 4 2 5 26 6 1 7 33 8 27 9 31 10 28 11 30 12
REMARK SMILES IDX 17 13 18 14 19 15 20 16 24 17 22 18 21 19 23 21 32 23 29 25
REMARK SMILES IDX 5 27 14 28 6 29 12 30 7 31 10 32 15 33 13 35 8 37 9 38 11 40
REMARK H PARENT 21 20 23 22 32 24 29 26 15 34 13 36 9 39 11 41
REMARK Flexibility Score: inf
ROOT
ATOM      1  O   UNL     1       8.347  11.894 -18.608  1.00  0.00    -0.454 OA
ENDROOT
BRANCH   1   2
ATOM      2  C   UNL     1       8.215  10.785 -17.745  1.00  0.00     0.214 A 
ATOM      3  C   UNL     1       8.930  10.800 -16.531  1.00  0.00     0.180 A 
ATOM      4  O   UNL     1       8.899   9.751 -15.717  1.00  0.00    -0.452 OA
ATOM      5  C   UNL     1       7.432   9.644 -18.041  1.00  0.00     0.239 A 
ATOM      6  C   UNL     1       8.191   8.659 -15.964  1.00  0.00     0.146 A 
ATOM      7  O   UNL     1       6.755   9.590 -19.101  1.00  0.00    -0.285 OA
ATOM      8  C   UNL     1       7.412   8.556 -17.139  1.00  0.00     0.111 A 
ATOM      9  C   UNL     1       8.219   7.609 -15.041  1.00  0.00     0.094 A 
ATOM     10  C   UNL     1       6.660   7.377 -17.364  1.00  0.00     0.134 A 
ATOM     11  C   UNL     1       7.475   6.448 -15.269  1.00  0.00     0.123 A 
ATOM     12  C   UNL     1       6.699   6.335 -16.424  1.00  0.00     0.093 A 
BRANCH   3  13
ATOM     13  C   UNL     1       9.750  11.962 -16.128  1.00  0.00     0.025 A 
ATOM     14  C   UNL     1      11.124  12.006 -16.407  1.00  0.00     0.016 A 
ATOM     15  C   UNL     1      11.884  13.119 -16.036  1.00  0.00     0.051 A 
ATOM     16  C   UNL     1      11.276  14.207 -15.398  1.00  0.00     0.157 A 
ATOM     17  C   UNL     1       9.139  13.064 -15.510  1.00  0.00     0.062 A 
ATOM     18  C   UNL     1       9.900  14.181 -15.137  1.00  0.00     0.158 A 
BRANCH  16  19
ATOM     19  O   UNL     1      12.030  15.318 -15.023  1.00  0.00    -0.504 OA
ATOM     20  H   UNL     1      12.031  16.168 -15.573  1.00  0.00     0.293 HD
ENDBRANCH  16  19
BRANCH  18  21
ATOM     21  O   UNL     1       9.295  15.269 -14.509  1.00  0.00    -0.504 OA
ATOM     22  H   UNL     1       9.278  16.187 -14.938  1.00  0.00     0.293 HD
ENDBRANCH  18  21
ENDBRANCH   3  13
BRANCH  10  23
ATOM     23  O   UNL     1       5.875   7.231 -18.508  1.00  0.00    -0.507 OA
ATOM     24  H   UNL     1       6.218   6.749 -19.332  1.00  0.00     0.293 HD
ENDBRANCH  10  23
BRANCH  11  25
ATOM     25  O   UNL     1       7.499   5.398 -14.353  1.00  0.00    -0.508 OA
ATOM     26  H   UNL     1       7.580   4.434 -14.654  1.00  0.00     0.293 HD
ENDBRANCH  11  25
ENDBRANCH   1   2
BRANCH   1  27
ATOM     27  C   UNL     1       7.372  12.913 -18.863  1.00  0.00     0.339 C 
ATOM     28  C   UNL     1       7.072  13.018 -20.374  1.00  0.00     0.214 C 
ATOM     29  O   UNL     1       7.776  14.165 -18.330  1.00  0.00    -0.332 OA
ATOM     30  C   UNL     1       8.255  13.637 -21.145  1.00  0.00     0.180 C 
ATOM     31  C   UNL     1       8.968  14.632 -18.941  1.00  0.00     0.179 C 
ATOM     32  C   UNL     1       8.730  14.921 -20.441  1.00  0.00     0.177 C 
BRANCH  28  33
ATOM     33  O   UNL     1       6.764  11.754 -20.905  1.00  0.00    -0.384 OA
ATOM     34  H   UNL     1       6.766  11.115 -20.144  1.00  0.00     0.211 HD
ENDBRANCH  28  33
BRANCH  30  35
ATOM     35  O   UNL     1       9.324  12.730 -21.227  1.00  0.00    -0.387 OA
ATOM     36  H   UNL     1       9.026  11.885 -20.802  1.00  0.00     0.211 HD
ENDBRANCH  30  35
BRANCH  31  37
ATOM     37  C   UNL     1       9.440  15.888 -18.191  1.00  0.00     0.191 C 
BRANCH  37  38
ATOM     38  O   UNL     1      10.630  16.385 -18.741  1.00  0.00    -0.394 OA
ATOM     39  H   UNL     1      10.533  16.328 -19.728  1.00  0.00     0.210 HD
ENDBRANCH  37  38
ENDBRANCH  31  37
BRANCH  32  40
ATOM     40  O   UNL     1       7.764  15.932 -20.585  1.00  0.00    -0.387 OA
ATOM     41  H   UNL     1       7.178  15.885 -19.785  1.00  0.00     0.211 HD
ENDBRANCH  32  40
ENDBRANCH   1  27
TORSDOF 12
ENDMDL
MODEL 8
REMARK VINA RESULT:    -5.159      2.710      7.130
REMARK INTER + INTRA:          -9.531
REMARK INTER:                  -9.194
REMARK INTRA:                  -0.336
REMARK UNBOUND:                -1.958
REMARK SMILES O=c1c(O[C@H]2O[C@H](CO)[C@H](O)[C@@H](O)[C@H]2O)c(-c2ccc(O)c(O)c2)oc2cc(O)cc(O)c12
REMARK SMILES IDX 4 1 3 2 16 3 25 4 2 5 26 6 1 7 33 8 27 9 31 10 28 11 30 12
REMARK SMILES IDX 17 13 18 14 19 15 20 16 24 17 22 18 21 19 23 21 32 23 29 25
REMARK SMILES IDX 5 27 14 28 6 29 12 30 7 31 10 32 15 33 13 35 8 37 9 38 11 40
REMARK H PARENT 21 20 23 22 32 24 29 26 15 34 13 36 9 39 11 41
REMARK Flexibility Score: inf
ROOT
ATOM      1  O   UNL     1       8.084  11.323 -18.072  1.00  0.00    -0.454 OA
ENDROOT
BRANCH   1   2
ATOM      2  C   UNL     1       7.982  12.729 -18.132  1.00  0.00     0.214 A 
ATOM      3  C   UNL     1       7.515  13.410 -16.990  1.00  0.00     0.180 A 
ATOM      4  O   UNL     1       7.330  14.724 -17.017  1.00  0.00    -0.452 OA
ATOM      5  C   UNL     1       8.290  13.495 -19.282  1.00  0.00     0.239 A 
ATOM      6  C   UNL     1       7.593  15.475 -18.077  1.00  0.00     0.146 A 
ATOM      7  O   UNL     1       8.733  12.938 -20.321  1.00  0.00    -0.285 OA
ATOM      8  C   UNL     1       8.096  14.894 -19.263  1.00  0.00     0.111 A 
ATOM      9  C   UNL     1       7.370  16.853 -18.005  1.00  0.00     0.094 A 
ATOM     10  C   UNL     1       8.375  15.729 -20.373  1.00  0.00     0.134 A 
ATOM     11  C   UNL     1       7.646  17.672 -19.104  1.00  0.00     0.123 A 
ATOM     12  C   UNL     1       8.147  17.111 -20.280  1.00  0.00     0.093 A 
BRANCH   3  13
ATOM     13  C   UNL     1       7.197  12.694 -15.737  1.00  0.00     0.025 A 
ATOM     14  C   UNL     1       6.154  11.756 -15.687  1.00  0.00     0.016 A 
ATOM     15  C   UNL     1       5.875  11.073 -14.500  1.00  0.00     0.051 A 
ATOM     16  C   UNL     1       6.646  11.308 -13.354  1.00  0.00     0.157 A 
ATOM     17  C   UNL     1       7.982  12.909 -14.594  1.00  0.00     0.062 A 
ATOM     18  C   UNL     1       7.704  12.225 -13.402  1.00  0.00     0.158 A 
BRANCH  16  19
ATOM     19  O   UNL     1       6.369  10.632 -12.167  1.00  0.00    -0.504 OA
ATOM     20  H   UNL     1       5.989  11.112 -11.360  1.00  0.00     0.293 HD
ENDBRANCH  16  19
BRANCH  18  21
ATOM     21  O   UNL     1       8.475  12.450 -12.262  1.00  0.00    -0.504 OA
ATOM     22  H   UNL     1       8.142  13.034 -11.504  1.00  0.00     0.293 HD
ENDBRANCH  18  21
ENDBRANCH   3  13
BRANCH  10  23
ATOM     23  O   UNL     1       8.874  15.201 -21.564  1.00  0.00    -0.507 OA
ATOM     24  H   UNL     1       8.280  14.705 -22.218  1.00  0.00     0.293 HD
ENDBRANCH  10  23
BRANCH  11  25
ATOM     25  O   UNL     1       7.426  19.046 -19.038  1.00  0.00    -0.508 OA
ATOM     26  H   UNL     1       7.565  19.644 -19.844  1.00  0.00     0.293 HD
ENDBRANCH  11  25
ENDBRANCH   1   2
BRANCH   1  27
ATOM     27  C   UNL     1       9.211  10.520 -18.445  1.00  0.00     0.339 C 
ATOM     28  C   UNL     1       9.001   9.049 -18.024  1.00  0.00     0.214 C 
ATOM     29  O   UNL     1      10.420  11.041 -17.914  1.00  0.00    -0.332 OA
ATOM     30  C   UNL     1       9.098   8.880 -16.495  1.00  0.00     0.180 C 
ATOM     31  C   UNL     1      10.413  11.030 -16.495  1.00  0.00     0.179 C 
ATOM     32  C   UNL     1      10.362   9.579 -15.965  1.00  0.00     0.177 C 
BRANCH  28  33
ATOM     33  O   UNL     1       7.758   8.579 -18.480  1.00  0.00    -0.384 OA
ATOM     34  H   UNL     1       7.945   7.955 -19.229  1.00  0.00     0.211 HD
ENDBRANCH  28  33
BRANCH  30  35
ATOM     35  O   UNL     1       7.967   9.421 -15.861  1.00  0.00    -0.387 OA
ATOM     36  H   UNL     1       7.208   8.809 -16.044  1.00  0.00     0.211 HD
ENDBRANCH  30  35
BRANCH  31  37
ATOM     37  C   UNL     1      11.663  11.772 -15.996  1.00  0.00     0.191 C 
BRANCH  37  38
ATOM     38  O   UNL     1      11.385  13.125 -15.759  1.00  0.00    -0.394 OA
ATOM     39  H   UNL     1      12.256  13.571 -15.593  1.00  0.00     0.210 HD
ENDBRANCH  37  38
ENDBRANCH  31  37
BRANCH  32  40
ATOM     40  O   UNL     1      11.508   8.879 -16.381  1.00  0.00    -0.387 OA
ATOM     41  H   UNL     1      11.644   8.140 -15.732  1.00  0.00     0.211 HD
ENDBRANCH  32  40
ENDBRANCH   1  27
TORSDOF 12
ENDMDL
MODEL 9
REMARK VINA RESULT:    -5.037      1.591      4.451
REMARK INTER + INTRA:          -9.351
REMARK INTER:                  -7.556
REMARK INTRA:                  -1.794
REMARK UNBOUND:                -1.958
REMARK SMILES O=c1c(O[C@H]2O[C@H](CO)[C@H](O)[C@@H](O)[C@H]2O)c(-c2ccc(O)c(O)c2)oc2cc(O)cc(O)c12
REMARK SMILES IDX 4 1 3 2 16 3 25 4 2 5 26 6 1 7 33 8 27 9 31 10 28 11 30 12
REMARK SMILES IDX 17 13 18 14 19 15 20 16 24 17 22 18 21 19 23 21 32 23 29 25
REMARK SMILES IDX 5 27 14 28 6 29 12 30 7 31 10 32 15 33 13 35 8 37 9 38 11 40
REMARK H PARENT 21 20 23 22 32 24 29 26 15 34 13 36 9 39 11 41
REMARK Flexibility Score: inf
ROOT
ATOM      1  O   UNL     1       7.688  11.000 -15.847  1.00  0.00    -0.454 OA
ENDROOT
BRANCH   1   2
ATOM      2  C   UNL     1       7.424   9.741 -16.428  1.00  0.00     0.214 A 
ATOM      3  C   UNL     1       7.139   9.694 -17.807  1.00  0.00     0.180 A 
ATOM      4  O   UNL     1       6.811   8.546 -18.389  1.00  0.00    -0.452 OA
ATOM      5  C   UNL     1       7.395   8.527 -15.702  1.00  0.00     0.239 A 
ATOM      6  C   UNL     1       6.760   7.391 -17.742  1.00  0.00     0.146 A 
ATOM      7  O   UNL     1       7.665   8.511 -14.472  1.00  0.00    -0.285 OA
ATOM      8  C   UNL     1       7.059   7.324 -16.363  1.00  0.00     0.111 A 
ATOM      9  C   UNL     1       6.410   6.234 -18.446  1.00  0.00     0.094 A 
ATOM     10  C   UNL     1       7.004   6.070 -15.707  1.00  0.00     0.134 A 
ATOM     11  C   UNL     1       6.355   5.000 -17.793  1.00  0.00     0.123 A 
ATOM     12  C   UNL     1       6.653   4.920 -16.431  1.00  0.00     0.093 A 
BRANCH   3  13
ATOM     13  C   UNL     1       7.174  10.909 -18.648  1.00  0.00     0.025 A 
ATOM     14  C   UNL     1       6.107  11.822 -18.641  1.00  0.00     0.016 A 
ATOM     15  C   UNL     1       6.161  12.975 -19.427  1.00  0.00     0.051 A 
ATOM     16  C   UNL     1       7.288  13.238 -20.218  1.00  0.00     0.157 A 
ATOM     17  C   UNL     1       8.310  11.187 -19.422  1.00  0.00     0.062 A 
ATOM     18  C   UNL     1       8.365  12.344 -20.212  1.00  0.00     0.158 A 
BRANCH  16  19
ATOM     19  O   UNL     1       7.344  14.386 -21.007  1.00  0.00    -0.504 OA
ATOM     20  H   UNL     1       8.178  14.958 -21.052  1.00  0.00     0.293 HD
ENDBRANCH  16  19
BRANCH  18  21
ATOM     21  O   UNL     1       9.489  12.612 -20.993  1.00  0.00    -0.504 OA
ATOM     22  H   UNL     1       9.433  13.192 -21.822  1.00  0.00     0.293 HD
ENDBRANCH  18  21
ENDBRANCH   3  13
BRANCH  10  23
ATOM     23  O   UNL     1       7.293   5.954 -14.347  1.00  0.00    -0.507 OA
ATOM     24  H   UNL     1       6.572   6.040 -13.640  1.00  0.00     0.293 HD
ENDBRANCH  10  23
BRANCH  11  25
ATOM     25  O   UNL     1       6.007   3.844 -18.489  1.00  0.00    -0.508 OA
ATOM     26  H   UNL     1       5.214   3.277 -18.212  1.00  0.00     0.293 HD
ENDBRANCH  11  25
ENDBRANCH   1   2
BRANCH   1  27
ATOM     27  C   UNL     1       8.895  11.417 -15.198  1.00  0.00     0.339 C 
ATOM     28  C   UNL     1       8.583  12.135 -13.867  1.00  0.00     0.214 C 
ATOM     29  O   UNL     1       9.689  12.231 -16.049  1.00  0.00    -0.332 OA
ATOM     30  C   UNL     1       7.962  13.526 -14.107  1.00  0.00     0.180 C 
ATOM     31  C   UNL     1       9.020  13.433 -16.393  1.00  0.00     0.179 C 
ATOM     32  C   UNL     1       8.796  14.307 -15.137  1.00  0.00     0.177 C 
BRANCH  28  33
ATOM     33  O   UNL     1       7.722  11.356 -13.077  1.00  0.00    -0.384 OA
ATOM     34  H   UNL     1       7.369  10.636 -13.662  1.00  0.00     0.211 HD
ENDBRANCH  28  33
BRANCH  30  35
ATOM     35  O   UNL     1       6.641  13.408 -14.572  1.00  0.00    -0.387 OA
ATOM     36  H   UNL     1       6.454  12.439 -14.679  1.00  0.00     0.211 HD
ENDBRANCH  30  35
BRANCH  31  37
ATOM     37  C   UNL     1       9.855  14.169 -17.453  1.00  0.00     0.191 C 
BRANCH  37  38
ATOM     38  O   UNL     1       9.496  15.523 -17.525  1.00  0.00    -0.394 OA
ATOM     39  H   UNL     1       9.434  15.851 -16.590  1.00  0.00     0.210 HD
ENDBRANCH  37  38
ENDBRANCH  31  37
BRANCH  32  40
ATOM     40  O   UNL     1      10.035  14.665 -14.579  1.00  0.00    -0.387 OA
ATOM     41  H   UNL     1      10.476  15.277 -15.225  1.00  0.00     0.211 HD
ENDBRANCH  32  40
ENDBRANCH   1  27
TORSDOF 12
ENDMDL
