MODEL 1
REMARK VINA RESULT:    -4.672      0.000      0.000
REMARK INTER + INTRA:         -16.063
REMARK INTER:                 -11.773
REMARK INTRA:                  -4.290
REMARK UNBOUND:                -4.290
REMARK SMILES CCCCCCCCCCCCCCCCCCCCCCCCCCCC(=O)[O-]
REMARK SMILES IDX 15 1 16 2 17 3 18 4 19 5 20 6 21 7 22 8 23 9 24 10 25 11
REMARK SMILES IDX 26 12 27 13 28 14 29 15 30 16 14 17 13 18 12 19 11 20 10 21
REMARK SMILES IDX 9 22 8 23 7 24 6 25 5 26 4 27 3 28 2 29 1 30
REMARK H PARENT
REMARK Flexibility Score: inf
ROOT
ATOM      1  C   UNL     1      19.531  53.830 159.597  1.00  0.00     0.000 C 
ENDROOT
BRANCH   1   2
ATOM      2  C   UNL     1      20.722  53.664 160.556  1.00  0.00     0.000 C 
BRANCH   2   3
ATOM      3  C   UNL     1      20.572  54.488 161.847  1.00  0.00     0.000 C 
BRANCH   3   4
ATOM      4  C   UNL     1      21.636  55.599 161.972  1.00  0.00     0.000 C 
BRANCH   4   5
ATOM      5  C   UNL     1      21.952  56.310 160.642  1.00  0.00     0.000 C 
BRANCH   5   6
ATOM      6  C   UNL     1      20.858  57.273 160.150  1.00  0.00     0.000 C 
BRANCH   6   7
ATOM      7  C   UNL     1      19.866  57.654 161.262  1.00  0.00     0.000 C 
BRANCH   7   8
ATOM      8  C   UNL     1      19.875  59.157 161.577  1.00  0.00     0.000 C 
BRANCH   8   9
ATOM      9  C   UNL     1      20.594  59.477 162.900  1.00  0.00     0.000 C 
BRANCH   9  10
ATOM     10  C   UNL     1      20.428  58.361 163.947  1.00  0.00     0.000 C 
BRANCH  10  11
ATOM     11  C   UNL     1      19.213  58.582 164.860  1.00  0.00     0.000 C 
BRANCH  11  12
ATOM     12  C   UNL     1      18.110  57.552 164.572  1.00  0.00     0.006 C 
BRANCH  12  13
ATOM     13  C   UNL     1      17.489  56.993 165.861  1.00  0.00     0.053 C 
BRANCH  13  14
ATOM     14  C   UNL     1      16.986  58.086 166.753  1.00  0.00     0.041 C 
ATOM     15  O   UNL     1      16.056  58.841 166.367  1.00  0.00    -0.550 OA
ATOM     16  O   UNL     1      17.516  58.244 168.028  1.00  0.00    -0.550 OA
ENDBRANCH  13  14
ENDBRANCH  12  13
ENDBRANCH  11  12
ENDBRANCH  10  11
ENDBRANCH   9  10
ENDBRANCH   8   9
ENDBRANCH   7   8
ENDBRANCH   6   7
ENDBRANCH   5   6
ENDBRANCH   4   5
ENDBRANCH   3   4
ENDBRANCH   2   3
ENDBRANCH   1   2
BRANCH   1  17
ATOM     17  C   UNL     1      18.245  54.334 160.286  1.00  0.00     0.000 C 
BRANCH  17  18
ATOM     18  C   UNL     1      16.974  53.782 159.613  1.00  0.00     0.000 C 
BRANCH  18  19
ATOM     19  C   UNL     1      17.031  52.261 159.388  1.00  0.00     0.000 C 
BRANCH  19  20
ATOM     20  C   UNL     1      15.693  51.523 159.591  1.00  0.00     0.000 C 
BRANCH  20  21
ATOM     21  C   UNL     1      14.450  52.251 159.040  1.00  0.00     0.000 C 
BRANCH  21  22
ATOM     22  C   UNL     1      14.378  52.342 157.505  1.00  0.00    -0.000 C 
BRANCH  22  23
ATOM     23  C   UNL     1      14.029  53.756 157.008  1.00  0.00    -0.000 C 
BRANCH  23  24
ATOM     24  C   UNL     1      15.233  54.465 156.366  1.00  0.00    -0.000 C 
BRANCH  24  25
ATOM     25  C   UNL     1      16.331  53.482 155.925  1.00  0.00    -0.000 C 
BRANCH  25  26
ATOM     26  C   UNL     1      17.751  54.069 156.081  1.00  0.00    -0.000 C 
BRANCH  26  27
ATOM     27  C   UNL     1      17.804  55.607 156.011  1.00  0.00    -0.000 C 
BRANCH  27  28
ATOM     28  C   UNL     1      18.750  56.279 157.027  1.00  0.00    -0.000 C 
BRANCH  28  29
ATOM     29  C   UNL     1      18.151  57.489 157.767  1.00  0.00    -0.003 C 
ATOM     30  C   UNL     1      16.624  57.478 157.794  1.00  0.00     0.004 C 
ENDBRANCH  28  29
ENDBRANCH  27  28
ENDBRANCH  26  27
ENDBRANCH  25  26
ENDBRANCH  24  25
ENDBRANCH  23  24
ENDBRANCH  22  23
ENDBRANCH  21  22
ENDBRANCH  20  21
ENDBRANCH  19  20
ENDBRANCH  18  19
ENDBRANCH  17  18
ENDBRANCH   1  17
TORSDOF 26
ENDMDL
MODEL 2
REMARK VINA RESULT:    -4.617      2.978      4.519
REMARK INTER + INTRA:         -15.925
REMARK INTER:                 -10.968
REMARK INTRA:                  -4.957
REMARK UNBOUND:                -4.290
REMARK SMILES CCCCCCCCCCCCCCCCCCCCCCCCCCCC(=O)[O-]
REMARK SMILES IDX 15 1 16 2 17 3 18 4 19 5 20 6 21 7 22 8 23 9 24 10 25 11
REMARK SMILES IDX 26 12 27 13 28 14 29 15 30 16 14 17 13 18 12 19 11 20 10 21
REMARK SMILES IDX 9 22 8 23 7 24 6 25 5 26 4 27 3 28 2 29 1 30
REMARK H PARENT
REMARK Flexibility Score: inf
ROOT
ATOM      1  C   UNL     1      17.234  53.313 159.661  1.00  0.00     0.000 C 
ENDROOT
BRANCH   1   2
ATOM      2  C   UNL     1      18.195  53.213 158.463  1.00  0.00     0.000 C 
BRANCH   2   3
ATOM      3  C   UNL     1      19.607  53.735 158.782  1.00  0.00     0.000 C 
BRANCH   3   4
ATOM      4  C   UNL     1      20.002  53.520 160.258  1.00  0.00     0.000 C 
BRANCH   4   5
ATOM      5  C   UNL     1      20.305  54.827 161.017  1.00  0.00     0.000 C 
BRANCH   5   6
ATOM      6  C   UNL     1      19.253  55.222 162.067  1.00  0.00     0.000 C 
BRANCH   6   7
ATOM      7  C   UNL     1      18.473  56.487 161.672  1.00  0.00     0.000 C 
BRANCH   7   8
ATOM      8  C   UNL     1      18.253  57.443 162.853  1.00  0.00     0.000 C 
BRANCH   8   9
ATOM      9  C   UNL     1      19.574  57.887 163.506  1.00  0.00     0.000 C 
BRANCH   9  10
ATOM     10  C   UNL     1      20.351  58.895 162.639  1.00  0.00     0.000 C 
BRANCH  10  11
ATOM     11  C   UNL     1      21.859  58.605 162.603  1.00  0.00     0.000 C 
BRANCH  11  12
ATOM     12  C   UNL     1      22.150  57.143 162.975  1.00  0.00     0.006 C 
BRANCH  12  13
ATOM     13  C   UNL     1      23.649  56.815 162.901  1.00  0.00     0.053 C 
BRANCH  13  14
ATOM     14  C   UNL     1      23.972  55.961 161.714  1.00  0.00     0.041 C 
ATOM     15  O   UNL     1      23.520  56.257 160.578  1.00  0.00    -0.550 OA
ATOM     16  O   UNL     1      24.808  54.860 161.855  1.00  0.00    -0.550 OA
ENDBRANCH  13  14
ENDBRANCH  12  13
ENDBRANCH  11  12
ENDBRANCH  10  11
ENDBRANCH   9  10
ENDBRANCH   8   9
ENDBRANCH   7   8
ENDBRANCH   6   7
ENDBRANCH   5   6
ENDBRANCH   4   5
ENDBRANCH   3   4
ENDBRANCH   2   3
ENDBRANCH   1   2
BRANCH   1  17
ATOM     17  C   UNL     1      16.111  52.254 159.645  1.00  0.00     0.000 C 
BRANCH  17  18
ATOM     18  C   UNL     1      15.541  52.035 158.232  1.00  0.00     0.000 C 
BRANCH  18  19
ATOM     19  C   UNL     1      14.380  52.991 157.903  1.00  0.00     0.000 C 
BRANCH  19  20
ATOM     20  C   UNL     1      14.396  53.565 156.473  1.00  0.00     0.000 C 
BRANCH  20  21
ATOM     21  C   UNL     1      15.535  54.560 156.175  1.00  0.00     0.000 C 
BRANCH  21  22
ATOM     22  C   UNL     1      15.479  55.870 156.982  1.00  0.00    -0.000 C 
BRANCH  22  23
ATOM     23  C   UNL     1      16.871  56.362 157.415  1.00  0.00    -0.000 C 
BRANCH  23  24
ATOM     24  C   UNL     1      17.912  56.239 156.289  1.00  0.00    -0.000 C 
BRANCH  24  25
ATOM     25  C   UNL     1      19.248  56.915 156.645  1.00  0.00    -0.000 C 
BRANCH  25  26
ATOM     26  C   UNL     1      19.434  57.098 158.167  1.00  0.00    -0.000 C 
BRANCH  26  27
ATOM     27  C   UNL     1      20.650  57.965 158.550  1.00  0.00    -0.000 C 
BRANCH  27  28
ATOM     28  C   UNL     1      20.310  59.340 159.158  1.00  0.00    -0.000 C 
BRANCH  28  29
ATOM     29  C   UNL     1      18.926  59.894 158.773  1.00  0.00    -0.003 C 
ATOM     30  C   UNL     1      17.902  59.781 159.901  1.00  0.00     0.004 C 
ENDBRANCH  28  29
ENDBRANCH  27  28
ENDBRANCH  26  27
ENDBRANCH  25  26
ENDBRANCH  24  25
ENDBRANCH  23  24
ENDBRANCH  22  23
ENDBRANCH  21  22
ENDBRANCH  20  21
ENDBRANCH  19  20
ENDBRANCH  18  19
ENDBRANCH  17  18
ENDBRANCH   1  17
TORSDOF 26
ENDMDL
MODEL 3
REMARK VINA RESULT:    -4.597      1.592      4.194
REMARK INTER + INTRA:         -15.875
REMARK INTER:                 -10.927
REMARK INTRA:                  -4.948
REMARK UNBOUND:                -4.290
REMARK SMILES CCCCCCCCCCCCCCCCCCCCCCCCCCCC(=O)[O-]
REMARK SMILES IDX 15 1 16 2 17 3 18 4 19 5 20 6 21 7 22 8 23 9 24 10 25 11
REMARK SMILES IDX 26 12 27 13 28 14 29 15 30 16 14 17 13 18 12 19 11 20 10 21
REMARK SMILES IDX 9 22 8 23 7 24 6 25 5 26 4 27 3 28 2 29 1 30
REMARK H PARENT
REMARK Flexibility Score: inf
ROOT
ATOM      1  C   UNL     1      15.816  56.487 157.089  1.00  0.00     0.000 C 
ENDROOT
BRANCH   1   2
ATOM      2  C   UNL     1      17.017  57.246 156.500  1.00  0.00     0.000 C 
BRANCH   2   3
ATOM      3  C   UNL     1      17.727  58.139 157.533  1.00  0.00     0.000 C 
BRANCH   3   4
ATOM      4  C   UNL     1      16.784  58.611 158.660  1.00  0.00     0.000 C 
BRANCH   4   5
ATOM      5  C   UNL     1      17.378  59.726 159.542  1.00  0.00     0.000 C 
BRANCH   5   6
ATOM      6  C   UNL     1      18.909  59.689 159.684  1.00  0.00     0.000 C 
BRANCH   6   7
ATOM      7  C   UNL     1      19.546  61.083 159.553  1.00  0.00     0.000 C 
BRANCH   7   8
ATOM      8  C   UNL     1      20.891  61.194 160.287  1.00  0.00     0.000 C 
BRANCH   8   9
ATOM      9  C   UNL     1      21.342  59.854 160.894  1.00  0.00     0.000 C 
BRANCH   9  10
ATOM     10  C   UNL     1      21.583  59.945 162.412  1.00  0.00     0.000 C 
BRANCH  10  11
ATOM     11  C   UNL     1      20.995  58.751 163.178  1.00  0.00     0.000 C 
BRANCH  11  12
ATOM     12  C   UNL     1      19.460  58.774 163.144  1.00  0.00     0.006 C 
BRANCH  12  13
ATOM     13  C   UNL     1      18.849  57.474 163.688  1.00  0.00     0.053 C 
BRANCH  13  14
ATOM     14  C   UNL     1      18.169  57.689 165.005  1.00  0.00     0.041 C 
ATOM     15  O   UNL     1      16.916  57.605 165.092  1.00  0.00    -0.550 OA
ATOM     16  O   UNL     1      18.922  57.942 166.145  1.00  0.00    -0.550 OA
ENDBRANCH  13  14
ENDBRANCH  12  13
ENDBRANCH  11  12
ENDBRANCH  10  11
ENDBRANCH   9  10
ENDBRANCH   8   9
ENDBRANCH   7   8
ENDBRANCH   6   7
ENDBRANCH   5   6
ENDBRANCH   4   5
ENDBRANCH   3   4
ENDBRANCH   2   3
ENDBRANCH   1   2
BRANCH   1  17
ATOM     17  C   UNL     1      15.286  55.360 156.176  1.00  0.00     0.000 C 
BRANCH  17  18
ATOM     18  C   UNL     1      14.580  54.251 156.978  1.00  0.00     0.000 C 
BRANCH  18  19
ATOM     19  C   UNL     1      14.621  52.885 156.269  1.00  0.00     0.000 C 
BRANCH  19  20
ATOM     20  C   UNL     1      15.832  52.002 156.629  1.00  0.00     0.000 C 
BRANCH  20  21
ATOM     21  C   UNL     1      15.998  51.692 158.130  1.00  0.00     0.000 C 
BRANCH  21  22
ATOM     22  C   UNL     1      17.247  52.307 158.786  1.00  0.00    -0.000 C 
BRANCH  22  23
ATOM     23  C   UNL     1      18.083  53.144 157.802  1.00  0.00    -0.000 C 
BRANCH  23  24
ATOM     24  C   UNL     1      18.486  54.508 158.389  1.00  0.00    -0.000 C 
BRANCH  24  25
ATOM     25  C   UNL     1      17.737  54.833 159.694  1.00  0.00    -0.000 C 
BRANCH  25  26
ATOM     26  C   UNL     1      18.457  55.907 160.539  1.00  0.00    -0.000 C 
BRANCH  26  27
ATOM     27  C   UNL     1      19.799  56.376 159.945  1.00  0.00    -0.000 C 
BRANCH  27  28
ATOM     28  C   UNL     1      21.055  55.879 160.688  1.00  0.00    -0.000 C 
BRANCH  28  29
ATOM     29  C   UNL     1      20.934  54.470 161.296  1.00  0.00    -0.003 C 
ATOM     30  C   UNL     1      21.316  53.362 160.316  1.00  0.00     0.004 C 
ENDBRANCH  28  29
ENDBRANCH  27  28
ENDBRANCH  26  27
ENDBRANCH  25  26
ENDBRANCH  24  25
ENDBRANCH  23  24
ENDBRANCH  22  23
ENDBRANCH  21  22
ENDBRANCH  20  21
ENDBRANCH  19  20
ENDBRANCH  18  19
ENDBRANCH  17  18
ENDBRANCH   1  17
TORSDOF 26
ENDMDL
MODEL 4
REMARK VINA RESULT:    -4.596      3.195      7.775
REMARK INTER + INTRA:         -15.873
REMARK INTER:                 -12.133
REMARK INTRA:                  -3.739
REMARK UNBOUND:                -4.290
REMARK SMILES CCCCCCCCCCCCCCCCCCCCCCCCCCCC(=O)[O-]
REMARK SMILES IDX 15 1 16 2 17 3 18 4 19 5 20 6 21 7 22 8 23 9 24 10 25 11
REMARK SMILES IDX 26 12 27 13 28 14 29 15 30 16 14 17 13 18 12 19 11 20 10 21
REMARK SMILES IDX 9 22 8 23 7 24 6 25 5 26 4 27 3 28 2 29 1 30
REMARK H PARENT
REMARK Flexibility Score: inf
ROOT
ATOM      1  C   UNL     1      16.445  51.697 158.401  1.00  0.00     0.000 C 
ENDROOT
BRANCH   1   2
ATOM      2  C   UNL     1      15.168  51.826 159.248  1.00  0.00     0.000 C 
BRANCH   2   3
ATOM      3  C   UNL     1      14.054  52.614 158.536  1.00  0.00     0.000 C 
BRANCH   3   4
ATOM      4  C   UNL     1      14.320  52.790 157.026  1.00  0.00     0.000 C 
BRANCH   4   5
ATOM      5  C   UNL     1      13.974  54.194 156.493  1.00  0.00     0.000 C 
BRANCH   5   6
ATOM      6  C   UNL     1      15.189  55.067 156.141  1.00  0.00     0.000 C 
BRANCH   6   7
ATOM      7  C   UNL     1      15.873  55.655 157.386  1.00  0.00     0.000 C 
BRANCH   7   8
ATOM      8  C   UNL     1      16.174  57.154 157.249  1.00  0.00     0.000 C 
BRANCH   8   9
ATOM      9  C   UNL     1      17.676  57.440 157.071  1.00  0.00     0.000 C 
BRANCH   9  10
ATOM     10  C   UNL     1      18.562  56.364 157.726  1.00  0.00     0.000 C 
BRANCH  10  11
ATOM     11  C   UNL     1      19.495  56.941 158.802  1.00  0.00     0.000 C 
BRANCH  11  12
ATOM     12  C   UNL     1      18.693  57.606 159.931  1.00  0.00     0.006 C 
BRANCH  12  13
ATOM     13  C   UNL     1      19.138  59.054 160.181  1.00  0.00     0.053 C 
BRANCH  13  14
ATOM     14  C   UNL     1      18.125  60.040 159.687  1.00  0.00     0.041 C 
ATOM     15  O   UNL     1      16.903  59.736 159.665  1.00  0.00    -0.550 OA
ATOM     16  O   UNL     1      18.525  61.310 159.290  1.00  0.00    -0.550 OA
ENDBRANCH  13  14
ENDBRANCH  12  13
ENDBRANCH  11  12
ENDBRANCH  10  11
ENDBRANCH   9  10
ENDBRANCH   8   9
ENDBRANCH   7   8
ENDBRANCH   6   7
ENDBRANCH   5   6
ENDBRANCH   4   5
ENDBRANCH   3   4
ENDBRANCH   2   3
ENDBRANCH   1   2
BRANCH   1  17
ATOM     17  C   UNL     1      17.519  52.755 158.732  1.00  0.00     0.000 C 
BRANCH  17  18
ATOM     18  C   UNL     1      17.215  53.496 160.047  1.00  0.00     0.000 C 
BRANCH  18  19
ATOM     19  C   UNL     1      18.487  53.949 160.785  1.00  0.00     0.000 C 
BRANCH  19  20
ATOM     20  C   UNL     1      19.808  53.427 160.184  1.00  0.00     0.000 C 
BRANCH  20  21
ATOM     21  C   UNL     1      21.086  54.114 160.705  1.00  0.00     0.000 C 
BRANCH  21  22
ATOM     22  C   UNL     1      20.908  54.909 162.011  1.00  0.00    -0.000 C 
BRANCH  22  23
ATOM     23  C   UNL     1      21.868  56.107 162.114  1.00  0.00    -0.000 C 
BRANCH  23  24
ATOM     24  C   UNL     1      23.249  55.805 161.507  1.00  0.00    -0.000 C 
BRANCH  24  25
ATOM     25  C   UNL     1      23.759  56.944 160.605  1.00  0.00    -0.000 C 
BRANCH  25  26
ATOM     26  C   UNL     1      25.220  57.334 160.913  1.00  0.00    -0.000 C 
BRANCH  26  27
ATOM     27  C   UNL     1      25.776  56.712 162.209  1.00  0.00    -0.000 C 
BRANCH  27  28
ATOM     28  C   UNL     1      27.296  56.455 162.215  1.00  0.00    -0.000 C 
BRANCH  28  29
ATOM     29  C   UNL     1      28.072  57.189 163.324  1.00  0.00    -0.003 C 
ATOM     30  C   UNL     1      28.937  58.331 162.793  1.00  0.00     0.004 C 
ENDBRANCH  28  29
ENDBRANCH  27  28
ENDBRANCH  26  27
ENDBRANCH  25  26
ENDBRANCH  24  25
ENDBRANCH  23  24
ENDBRANCH  22  23
ENDBRANCH  21  22
ENDBRANCH  20  21
ENDBRANCH  19  20
ENDBRANCH  18  19
ENDBRANCH  17  18
ENDBRANCH   1  17
TORSDOF 26
ENDMDL
MODEL 5
REMARK VINA RESULT:    -4.582      2.290      3.713
REMARK INTER + INTRA:         -15.838
REMARK INTER:                 -11.346
REMARK INTRA:                  -4.492
REMARK UNBOUND:                -4.290
REMARK SMILES CCCCCCCCCCCCCCCCCCCCCCCCCCCC(=O)[O-]
REMARK SMILES IDX 15 1 16 2 17 3 18 4 19 5 20 6 21 7 22 8 23 9 24 10 25 11
REMARK SMILES IDX 26 12 27 13 28 14 29 15 30 16 14 17 13 18 12 19 11 20 10 21
REMARK SMILES IDX 9 22 8 23 7 24 6 25 5 26 4 27 3 28 2 29 1 30
REMARK H PARENT
REMARK Flexibility Score: inf
ROOT
ATOM      1  C   UNL     1      18.282  53.289 158.089  1.00  0.00     0.000 C 
ENDROOT
BRANCH   1   2
ATOM      2  C   UNL     1      19.529  54.083 158.515  1.00  0.00     0.000 C 
BRANCH   2   3
ATOM      3  C   UNL     1      20.000  53.740 159.940  1.00  0.00     0.000 C 
BRANCH   3   4
ATOM      4  C   UNL     1      21.490  53.341 159.994  1.00  0.00     0.000 C 
BRANCH   4   5
ATOM      5  C   UNL     1      22.416  54.461 160.507  1.00  0.00     0.000 C 
BRANCH   5   6
ATOM      6  C   UNL     1      21.902  55.203 161.752  1.00  0.00     0.000 C 
BRANCH   6   7
ATOM      7  C   UNL     1      21.811  56.723 161.536  1.00  0.00     0.000 C 
BRANCH   7   8
ATOM      8  C   UNL     1      21.610  57.105 160.063  1.00  0.00     0.000 C 
BRANCH   8   9
ATOM      9  C   UNL     1      21.798  58.612 159.814  1.00  0.00     0.000 C 
BRANCH   9  10
ATOM     10  C   UNL     1      20.861  59.474 160.679  1.00  0.00     0.000 C 
BRANCH  10  11
ATOM     11  C   UNL     1      21.624  60.465 161.570  1.00  0.00     0.000 C 
BRANCH  11  12
ATOM     12  C   UNL     1      21.583  60.029 163.043  1.00  0.00     0.006 C 
BRANCH  12  13
ATOM     13  C   UNL     1      22.965  59.602 163.559  1.00  0.00     0.053 C 
BRANCH  13  14
ATOM     14  C   UNL     1      22.858  58.730 164.772  1.00  0.00     0.041 C 
ATOM     15  O   UNL     1      23.071  57.493 164.685  1.00  0.00    -0.550 OA
ATOM     16  O   UNL     1      22.565  59.291 166.009  1.00  0.00    -0.550 OA
ENDBRANCH  13  14
ENDBRANCH  12  13
ENDBRANCH  11  12
ENDBRANCH  10  11
ENDBRANCH   9  10
ENDBRANCH   8   9
ENDBRANCH   7   8
ENDBRANCH   6   7
ENDBRANCH   5   6
ENDBRANCH   4   5
ENDBRANCH   3   4
ENDBRANCH   2   3
ENDBRANCH   1   2
BRANCH   1  17
ATOM     17  C   UNL     1      17.380  52.869 159.269  1.00  0.00     0.000 C 
BRANCH  17  18
ATOM     18  C   UNL     1      16.538  51.623 158.938  1.00  0.00     0.000 C 
BRANCH  18  19
ATOM     19  C   UNL     1      15.047  51.806 159.272  1.00  0.00     0.000 C 
BRANCH  19  20
ATOM     20  C   UNL     1      14.261  52.686 158.280  1.00  0.00     0.000 C 
BRANCH  20  21
ATOM     21  C   UNL     1      14.653  52.520 156.799  1.00  0.00     0.000 C 
BRANCH  21  22
ATOM     22  C   UNL     1      15.135  53.809 156.107  1.00  0.00    -0.000 C 
BRANCH  22  23
ATOM     23  C   UNL     1      15.150  55.022 157.054  1.00  0.00    -0.000 C 
BRANCH  23  24
ATOM     24  C   UNL     1      15.390  56.345 156.307  1.00  0.00    -0.000 C 
BRANCH  24  25
ATOM     25  C   UNL     1      16.274  57.320 157.105  1.00  0.00    -0.000 C 
BRANCH  25  26
ATOM     26  C   UNL     1      16.942  56.653 158.326  1.00  0.00    -0.000 C 
BRANCH  26  27
ATOM     27  C   UNL     1      18.043  57.507 158.983  1.00  0.00    -0.000 C 
BRANCH  27  28
ATOM     28  C   UNL     1      17.772  57.920 160.443  1.00  0.00    -0.000 C 
BRANCH  28  29
ATOM     29  C   UNL     1      18.069  56.830 161.490  1.00  0.00    -0.003 C 
ATOM     30  C   UNL     1      18.440  57.400 162.858  1.00  0.00     0.004 C 
ENDBRANCH  28  29
ENDBRANCH  27  28
ENDBRANCH  26  27
ENDBRANCH  25  26
ENDBRANCH  24  25
ENDBRANCH  23  24
ENDBRANCH  22  23
ENDBRANCH  21  22
ENDBRANCH  20  21
ENDBRANCH  19  20
ENDBRANCH  18  19
ENDBRANCH  17  18
ENDBRANCH   1  17
TORSDOF 26
ENDMDL
MODEL 6
REMARK VINA RESULT:    -4.544      1.538      5.026
REMARK INTER + INTRA:         -15.742
REMARK INTER:                 -10.888
REMARK INTRA:                  -4.854
REMARK UNBOUND:                -4.290
REMARK SMILES CCCCCCCCCCCCCCCCCCCCCCCCCCCC(=O)[O-]
REMARK SMILES IDX 15 1 16 2 17 3 18 4 19 5 20 6 21 7 22 8 23 9 24 10 25 11
REMARK SMILES IDX 26 12 27 13 28 14 29 15 30 16 14 17 13 18 12 19 11 20 10 21
REMARK SMILES IDX 9 22 8 23 7 24 6 25 5 26 4 27 3 28 2 29 1 30
REMARK H PARENT
REMARK Flexibility Score: inf
ROOT
ATOM      1  C   UNL     1      15.643  51.875 157.189  1.00  0.00     0.000 C 
ENDROOT
BRANCH   1   2
ATOM      2  C   UNL     1      16.607  51.608 158.359  1.00  0.00     0.000 C 
BRANCH   2   3
ATOM      3  C   UNL     1      16.428  52.599 159.522  1.00  0.00     0.000 C 
BRANCH   3   4
ATOM      4  C   UNL     1      17.354  53.829 159.404  1.00  0.00     0.000 C 
BRANCH   4   5
ATOM      5  C   UNL     1      18.644  53.562 158.604  1.00  0.00     0.000 C 
BRANCH   5   6
ATOM      6  C   UNL     1      19.914  54.191 159.202  1.00  0.00     0.000 C 
BRANCH   6   7
ATOM      7  C   UNL     1      20.351  53.506 160.508  1.00  0.00     0.000 C 
BRANCH   7   8
ATOM      8  C   UNL     1      20.438  54.482 161.691  1.00  0.00     0.000 C 
BRANCH   8   9
ATOM      9  C   UNL     1      19.054  54.980 162.145  1.00  0.00     0.000 C 
BRANCH   9  10
ATOM     10  C   UNL     1      18.795  56.444 161.748  1.00  0.00     0.000 C 
BRANCH  10  11
ATOM     11  C   UNL     1      18.467  57.336 162.955  1.00  0.00     0.000 C 
BRANCH  11  12
ATOM     12  C   UNL     1      19.449  58.514 163.054  1.00  0.00     0.006 C 
BRANCH  12  13
ATOM     13  C   UNL     1      20.324  58.433 164.314  1.00  0.00     0.053 C 
BRANCH  13  14
ATOM     14  C   UNL     1      19.844  59.364 165.384  1.00  0.00     0.041 C 
ATOM     15  O   UNL     1      20.584  60.297 165.792  1.00  0.00    -0.550 OA
ATOM     16  O   UNL     1      18.562  59.227 165.902  1.00  0.00    -0.550 OA
ENDBRANCH  13  14
ENDBRANCH  12  13
ENDBRANCH  11  12
ENDBRANCH  10  11
ENDBRANCH   9  10
ENDBRANCH   8   9
ENDBRANCH   7   8
ENDBRANCH   6   7
ENDBRANCH   5   6
ENDBRANCH   4   5
ENDBRANCH   3   4
ENDBRANCH   2   3
ENDBRANCH   1   2
BRANCH   1  17
ATOM     17  C   UNL     1      14.483  52.828 157.547  1.00  0.00     0.000 C 
BRANCH  17  18
ATOM     18  C   UNL     1      14.475  54.087 156.662  1.00  0.00     0.000 C 
BRANCH  18  19
ATOM     19  C   UNL     1      15.795  54.287 155.897  1.00  0.00     0.000 C 
BRANCH  19  20
ATOM     20  C   UNL     1      16.574  55.566 156.268  1.00  0.00     0.000 C 
BRANCH  20  21
ATOM     21  C   UNL     1      15.835  56.537 157.209  1.00  0.00     0.000 C 
BRANCH  21  22
ATOM     22  C   UNL     1      16.677  57.725 157.707  1.00  0.00    -0.000 C 
BRANCH  22  23
ATOM     23  C   UNL     1      18.040  57.291 158.276  1.00  0.00    -0.000 C 
BRANCH  23  24
ATOM     24  C   UNL     1      19.154  58.305 157.966  1.00  0.00    -0.000 C 
BRANCH  24  25
ATOM     25  C   UNL     1      20.509  57.895 158.570  1.00  0.00    -0.000 C 
BRANCH  25  26
ATOM     26  C   UNL     1      20.924  58.789 159.758  1.00  0.00    -0.000 C 
BRANCH  26  27
ATOM     27  C   UNL     1      22.199  58.316 160.483  1.00  0.00    -0.000 C 
BRANCH  27  28
ATOM     28  C   UNL     1      22.608  56.856 160.206  1.00  0.00    -0.000 C 
BRANCH  28  29
ATOM     29  C   UNL     1      23.650  56.279 161.182  1.00  0.00    -0.003 C 
ATOM     30  C   UNL     1      23.295  56.521 162.648  1.00  0.00     0.004 C 
ENDBRANCH  28  29
ENDBRANCH  27  28
ENDBRANCH  26  27
ENDBRANCH  25  26
ENDBRANCH  24  25
ENDBRANCH  23  24
ENDBRANCH  22  23
ENDBRANCH  21  22
ENDBRANCH  20  21
ENDBRANCH  19  20
ENDBRANCH  18  19
ENDBRANCH  17  18
ENDBRANCH   1  17
TORSDOF 26
ENDMDL
MODEL 7
REMARK VINA RESULT:    -4.439      2.844      7.707
REMARK INTER + INTRA:         -15.475
REMARK INTER:                 -11.044
REMARK INTRA:                  -4.431
REMARK UNBOUND:                -4.290
REMARK SMILES CCCCCCCCCCCCCCCCCCCCCCCCCCCC(=O)[O-]
REMARK SMILES IDX 15 1 16 2 17 3 18 4 19 5 20 6 21 7 22 8 23 9 24 10 25 11
REMARK SMILES IDX 26 12 27 13 28 14 29 15 30 16 14 17 13 18 12 19 11 20 10 21
REMARK SMILES IDX 9 22 8 23 7 24 6 25 5 26 4 27 3 28 2 29 1 30
REMARK H PARENT
REMARK Flexibility Score: inf
ROOT
ATOM      1  C   UNL     1      16.827  53.067 160.007  1.00  0.00     0.000 C 
ENDROOT
BRANCH   1   2
ATOM      2  C   UNL     1      17.070  52.176 158.776  1.00  0.00     0.000 C 
BRANCH   2   3
ATOM      3  C   UNL     1      15.776  51.558 158.218  1.00  0.00     0.000 C 
BRANCH   3   4
ATOM      4  C   UNL     1      14.564  52.507 158.334  1.00  0.00     0.000 C 
BRANCH   4   5
ATOM      5  C   UNL     1      14.117  53.110 156.988  1.00  0.00     0.000 C 
BRANCH   5   6
ATOM      6  C   UNL     1      14.683  54.508 156.688  1.00  0.00     0.000 C 
BRANCH   6   7
ATOM      7  C   UNL     1      16.035  54.452 155.958  1.00  0.00     0.000 C 
BRANCH   7   8
ATOM      8  C   UNL     1      17.104  55.336 156.615  1.00  0.00     0.000 C 
BRANCH   8   9
ATOM      9  C   UNL     1      16.541  56.177 157.775  1.00  0.00     0.000 C 
BRANCH   9  10
ATOM     10  C   UNL     1      17.506  57.291 158.219  1.00  0.00     0.000 C 
BRANCH  10  11
ATOM     11  C   UNL     1      17.789  57.263 159.729  1.00  0.00     0.000 C 
BRANCH  11  12
ATOM     12  C   UNL     1      18.946  58.206 160.092  1.00  0.00     0.006 C 
BRANCH  12  13
ATOM     13  C   UNL     1      18.537  59.684 160.003  1.00  0.00     0.053 C 
BRANCH  13  14
ATOM     14  C   UNL     1      19.440  60.455 159.089  1.00  0.00     0.041 C 
ATOM     15  O   UNL     1      19.759  61.640 159.366  1.00  0.00    -0.550 OA
ATOM     16  O   UNL     1      19.962  59.849 157.953  1.00  0.00    -0.550 OA
ENDBRANCH  13  14
ENDBRANCH  12  13
ENDBRANCH  11  12
ENDBRANCH  10  11
ENDBRANCH   9  10
ENDBRANCH   8   9
ENDBRANCH   7   8
ENDBRANCH   6   7
ENDBRANCH   5   6
ENDBRANCH   4   5
ENDBRANCH   3   4
ENDBRANCH   2   3
ENDBRANCH   1   2
BRANCH   1  17
ATOM     17  C   UNL     1      18.055  53.907 160.418  1.00  0.00     0.000 C 
BRANCH  17  18
ATOM     18  C   UNL     1      19.207  53.781 159.404  1.00  0.00     0.000 C 
BRANCH  18  19
ATOM     19  C   UNL     1      20.592  53.961 160.050  1.00  0.00     0.000 C 
BRANCH  19  20
ATOM     20  C   UNL     1      20.569  54.469 161.506  1.00  0.00     0.000 C 
BRANCH  20  21
ATOM     21  C   UNL     1      21.763  55.355 161.913  1.00  0.00     0.000 C 
BRANCH  21  22
ATOM     22  C   UNL     1      22.904  55.420 160.882  1.00  0.00    -0.000 C 
BRANCH  22  23
ATOM     23  C   UNL     1      24.063  56.325 161.333  1.00  0.00    -0.000 C 
BRANCH  23  24
ATOM     24  C   UNL     1      23.874  56.850 162.766  1.00  0.00    -0.000 C 
BRANCH  24  25
ATOM     25  C   UNL     1      24.803  58.033 163.089  1.00  0.00    -0.000 C 
BRANCH  25  26
ATOM     26  C   UNL     1      24.029  59.351 163.313  1.00  0.00    -0.000 C 
BRANCH  26  27
ATOM     27  C   UNL     1      23.474  59.979 162.020  1.00  0.00    -0.000 C 
BRANCH  27  28
ATOM     28  C   UNL     1      21.979  59.714 161.751  1.00  0.00    -0.000 C 
BRANCH  28  29
ATOM     29  C   UNL     1      21.044  60.018 162.935  1.00  0.00    -0.003 C 
ATOM     30  C   UNL     1      20.322  58.778 163.461  1.00  0.00     0.004 C 
ENDBRANCH  28  29
ENDBRANCH  27  28
ENDBRANCH  26  27
ENDBRANCH  25  26
ENDBRANCH  24  25
ENDBRANCH  23  24
ENDBRANCH  22  23
ENDBRANCH  21  22
ENDBRANCH  20  21
ENDBRANCH  19  20
ENDBRANCH  18  19
ENDBRANCH  17  18
ENDBRANCH   1  17
TORSDOF 26
ENDMDL
MODEL 8
REMARK VINA RESULT:    -4.435      3.550      5.289
REMARK INTER + INTRA:         -15.466
REMARK INTER:                 -10.355
REMARK INTRA:                  -5.112
REMARK UNBOUND:                -4.290
REMARK SMILES CCCCCCCCCCCCCCCCCCCCCCCCCCCC(=O)[O-]
REMARK SMILES IDX 15 1 16 2 17 3 18 4 19 5 20 6 21 7 22 8 23 9 24 10 25 11
REMARK SMILES IDX 26 12 27 13 28 14 29 15 30 16 14 17 13 18 12 19 11 20 10 21
REMARK SMILES IDX 9 22 8 23 7 24 6 25 5 26 4 27 3 28 2 29 1 30
REMARK H PARENT
REMARK Flexibility Score: inf
ROOT
ATOM      1  C   UNL     1      16.963  53.353 160.230  1.00  0.00     0.000 C 
ENDROOT
BRANCH   1   2
ATOM      2  C   UNL     1      18.251  54.107 160.603  1.00  0.00     0.000 C 
BRANCH   2   3
ATOM      3  C   UNL     1      19.490  53.585 159.855  1.00  0.00     0.000 C 
BRANCH   3   4
ATOM      4  C   UNL     1      20.780  54.338 160.241  1.00  0.00     0.000 C 
BRANCH   4   5
ATOM      5  C   UNL     1      20.801  54.827 161.703  1.00  0.00     0.000 C 
BRANCH   5   6
ATOM      6  C   UNL     1      21.959  55.779 162.048  1.00  0.00     0.000 C 
BRANCH   6   7
ATOM      7  C   UNL     1      22.509  56.509 160.811  1.00  0.00     0.000 C 
BRANCH   7   8
ATOM      8  C   UNL     1      22.814  57.990 161.081  1.00  0.00     0.000 C 
BRANCH   8   9
ATOM      9  C   UNL     1      22.086  58.523 162.329  1.00  0.00     0.000 C 
BRANCH   9  10
ATOM     10  C   UNL     1      21.493  59.927 162.111  1.00  0.00     0.000 C 
BRANCH  10  11
ATOM     11  C   UNL     1      21.455  60.329 160.629  1.00  0.00     0.000 C 
BRANCH  11  12
ATOM     12  C   UNL     1      21.889  61.791 160.442  1.00  0.00     0.006 C 
BRANCH  12  13
ATOM     13  C   UNL     1      23.348  61.906 159.974  1.00  0.00     0.053 C 
BRANCH  13  14
ATOM     14  C   UNL     1      23.723  63.324 159.671  1.00  0.00     0.041 C 
ATOM     15  O   UNL     1      23.622  64.210 160.559  1.00  0.00    -0.550 OA
ATOM     16  O   UNL     1      24.224  63.659 158.419  1.00  0.00    -0.550 OA
ENDBRANCH  13  14
ENDBRANCH  12  13
ENDBRANCH  11  12
ENDBRANCH  10  11
ENDBRANCH   9  10
ENDBRANCH   8   9
ENDBRANCH   7   8
ENDBRANCH   6   7
ENDBRANCH   5   6
ENDBRANCH   4   5
ENDBRANCH   3   4
ENDBRANCH   2   3
ENDBRANCH   1   2
BRANCH   1  17
ATOM     17  C   UNL     1      17.193  52.173 159.262  1.00  0.00     0.000 C 
BRANCH  17  18
ATOM     18  C   UNL     1      15.869  51.538 158.799  1.00  0.00     0.000 C 
BRANCH  18  19
ATOM     19  C   UNL     1      14.828  52.583 158.359  1.00  0.00     0.000 C 
BRANCH  19  20
ATOM     20  C   UNL     1      14.650  52.721 156.834  1.00  0.00     0.000 C 
BRANCH  20  21
ATOM     21  C   UNL     1      15.292  53.975 156.207  1.00  0.00     0.000 C 
BRANCH  21  22
ATOM     22  C   UNL     1      16.829  53.950 156.134  1.00  0.00    -0.000 C 
BRANCH  22  23
ATOM     23  C   UNL     1      17.480  55.116 156.899  1.00  0.00    -0.000 C 
BRANCH  23  24
ATOM     24  C   UNL     1      16.441  56.100 157.462  1.00  0.00    -0.000 C 
BRANCH  24  25
ATOM     25  C   UNL     1      17.056  57.101 158.457  1.00  0.00    -0.000 C 
BRANCH  25  26
ATOM     26  C   UNL     1      18.599  57.078 158.445  1.00  0.00    -0.000 C 
BRANCH  26  27
ATOM     27  C   UNL     1      19.244  57.600 159.743  1.00  0.00    -0.000 C 
BRANCH  27  28
ATOM     28  C   UNL     1      18.268  58.240 160.750  1.00  0.00    -0.000 C 
BRANCH  28  29
ATOM     29  C   UNL     1      17.898  57.349 161.950  1.00  0.00    -0.003 C 
ATOM     30  C   UNL     1      18.679  57.696 163.216  1.00  0.00     0.004 C 
ENDBRANCH  28  29
ENDBRANCH  27  28
ENDBRANCH  26  27
ENDBRANCH  25  26
ENDBRANCH  24  25
ENDBRANCH  23  24
ENDBRANCH  22  23
ENDBRANCH  21  22
ENDBRANCH  20  21
ENDBRANCH  19  20
ENDBRANCH  18  19
ENDBRANCH  17  18
ENDBRANCH   1  17
TORSDOF 26
ENDMDL
MODEL 9
REMARK VINA RESULT:    -4.431      2.875      4.740
REMARK INTER + INTRA:         -15.455
REMARK INTER:                 -10.968
REMARK INTRA:                  -4.487
REMARK UNBOUND:                -4.290
REMARK SMILES CCCCCCCCCCCCCCCCCCCCCCCCCCCC(=O)[O-]
REMARK SMILES IDX 15 1 16 2 17 3 18 4 19 5 20 6 21 7 22 8 23 9 24 10 25 11
REMARK SMILES IDX 26 12 27 13 28 14 29 15 30 16 14 17 13 18 12 19 11 20 10 21
REMARK SMILES IDX 9 22 8 23 7 24 6 25 5 26 4 27 3 28 2 29 1 30
REMARK H PARENT
REMARK Flexibility Score: inf
ROOT
ATOM      1  C   UNL     1      16.913  52.865 159.953  1.00  0.00     0.000 C 
ENDROOT
BRANCH   1   2
ATOM      2  C   UNL     1      18.112  53.341 159.115  1.00  0.00     0.000 C 
BRANCH   2   3
ATOM      3  C   UNL     1      18.942  54.428 159.820  1.00  0.00     0.000 C 
BRANCH   3   4
ATOM      4  C   UNL     1      20.219  53.867 160.481  1.00  0.00     0.000 C 
BRANCH   4   5
ATOM      5  C   UNL     1      20.509  54.457 161.875  1.00  0.00     0.000 C 
BRANCH   5   6
ATOM      6  C   UNL     1      21.436  55.685 161.875  1.00  0.00     0.000 C 
BRANCH   6   7
ATOM      7  C   UNL     1      22.090  55.929 160.505  1.00  0.00     0.000 C 
BRANCH   7   8
ATOM      8  C   UNL     1      23.506  56.512 160.618  1.00  0.00     0.000 C 
BRANCH   8   9
ATOM      9  C   UNL     1      24.283  55.945 161.820  1.00  0.00     0.000 C 
BRANCH   9  10
ATOM     10  C   UNL     1      24.961  57.046 162.656  1.00  0.00     0.000 C 
BRANCH  10  11
ATOM     11  C   UNL     1      23.961  57.851 163.498  1.00  0.00     0.000 C 
BRANCH  11  12
ATOM     12  C   UNL     1      23.928  59.323 163.061  1.00  0.00     0.006 C 
BRANCH  12  13
ATOM     13  C   UNL     1      22.545  59.741 162.539  1.00  0.00     0.053 C 
BRANCH  13  14
ATOM     14  C   UNL     1      22.648  60.578 161.301  1.00  0.00     0.041 C 
ATOM     15  O   UNL     1      23.697  60.553 160.605  1.00  0.00    -0.550 OA
ATOM     16  O   UNL     1      21.570  61.353 160.893  1.00  0.00    -0.550 OA
ENDBRANCH  13  14
ENDBRANCH  12  13
ENDBRANCH  11  12
ENDBRANCH  10  11
ENDBRANCH   9  10
ENDBRANCH   8   9
ENDBRANCH   7   8
ENDBRANCH   6   7
ENDBRANCH   5   6
ENDBRANCH   4   5
ENDBRANCH   3   4
ENDBRANCH   2   3
ENDBRANCH   1   2
BRANCH   1  17
ATOM     17  C   UNL     1      16.176  51.651 159.349  1.00  0.00     0.000 C 
BRANCH  17  18
ATOM     18  C   UNL     1      14.650  51.852 159.329  1.00  0.00     0.000 C 
BRANCH  18  19
ATOM     19  C   UNL     1      14.188  52.798 158.206  1.00  0.00     0.000 C 
BRANCH  19  20
ATOM     20  C   UNL     1      14.840  52.544 156.832  1.00  0.00     0.000 C 
BRANCH  20  21
ATOM     21  C   UNL     1      15.610  53.739 156.238  1.00  0.00     0.000 C 
BRANCH  21  22
ATOM     22  C   UNL     1      15.427  55.069 156.992  1.00  0.00    -0.000 C 
BRANCH  22  23
ATOM     23  C   UNL     1      16.695  55.941 156.977  1.00  0.00    -0.000 C 
BRANCH  23  24
ATOM     24  C   UNL     1      16.588  57.146 157.926  1.00  0.00    -0.000 C 
BRANCH  24  25
ATOM     25  C   UNL     1      17.725  58.162 157.719  1.00  0.00    -0.000 C 
BRANCH  25  26
ATOM     26  C   UNL     1      19.103  57.606 158.139  1.00  0.00    -0.000 C 
BRANCH  26  27
ATOM     27  C   UNL     1      19.864  58.503 159.135  1.00  0.00    -0.000 C 
BRANCH  27  28
ATOM     28  C   UNL     1      19.002  59.124 160.251  1.00  0.00    -0.000 C 
BRANCH  28  29
ATOM     29  C   UNL     1      18.889  58.275 161.531  1.00  0.00    -0.003 C 
ATOM     30  C   UNL     1      17.595  57.467 161.600  1.00  0.00     0.004 C 
ENDBRANCH  28  29
ENDBRANCH  27  28
ENDBRANCH  26  27
ENDBRANCH  25  26
ENDBRANCH  24  25
ENDBRANCH  23  24
ENDBRANCH  22  23
ENDBRANCH  21  22
ENDBRANCH  20  21
ENDBRANCH  19  20
ENDBRANCH  18  19
ENDBRANCH  17  18
ENDBRANCH   1  17
TORSDOF 26
ENDMDL
