MODEL 1
REMARK VINA RESULT:    -4.504      0.000      0.000
REMARK INTER + INTRA:         -10.451
REMARK INTER:                  -8.716
REMARK INTRA:                  -1.735
REMARK UNBOUND:                -1.735
REMARK SMILES CCCCCCCCCCCCCCCCCC(=O)[O-]
REMARK SMILES IDX 10 1 11 2 12 3 13 4 14 5 15 6 16 7 17 8 18 9 19 10 20 11
REMARK SMILES IDX 9 12 8 13 7 14 6 15 5 16 4 17 3 18 2 19 1 20
REMARK H PARENT
REMARK Flexibility Score: inf
ROOT
ATOM      1  C   UNL     1      68.404 -35.670   7.576  1.00  0.00     0.000 C 
ENDROOT
BRANCH   1   2
ATOM      2  C   UNL     1      69.036 -34.274   7.463  1.00  0.00     0.000 C 
BRANCH   2   3
ATOM      3  C   UNL     1      69.955 -34.186   6.236  1.00  0.00     0.000 C 
BRANCH   3   4
ATOM      4  C   UNL     1      70.896 -32.967   6.275  1.00  0.00     0.000 C 
BRANCH   4   5
ATOM      5  C   UNL     1      72.398 -33.305   6.260  1.00  0.00     0.000 C 
BRANCH   5   6
ATOM      6  C   UNL     1      72.697 -34.712   6.806  1.00  0.00     0.000 C 
BRANCH   6   7
ATOM      7  C   UNL     1      73.595 -35.534   5.867  1.00  0.00     0.006 C 
BRANCH   7   8
ATOM      8  C   UNL     1      73.621 -37.028   6.222  1.00  0.00     0.053 C 
BRANCH   8   9
ATOM      9  C   UNL     1      74.974 -37.424   6.722  1.00  0.00     0.041 C 
ATOM     10  O   UNL     1      75.543 -36.744   7.616  1.00  0.00    -0.550 OA
ATOM     11  O   UNL     1      75.588 -38.572   6.234  1.00  0.00    -0.550 OA
ENDBRANCH   8   9
ENDBRANCH   7   8
ENDBRANCH   6   7
ENDBRANCH   5   6
ENDBRANCH   4   5
ENDBRANCH   3   4
ENDBRANCH   2   3
ENDBRANCH   1   2
BRANCH   1  12
ATOM     12  C   UNL     1      69.406 -36.800   7.291  1.00  0.00     0.000 C 
BRANCH  12  13
ATOM     13  C   UNL     1      70.284 -37.131   8.511  1.00  0.00    -0.000 C 
BRANCH  13  14
ATOM     14  C   UNL     1      69.564 -38.024   9.535  1.00  0.00    -0.000 C 
BRANCH  14  15
ATOM     15  C   UNL     1      70.119 -37.862  10.959  1.00  0.00    -0.000 C 
BRANCH  15  16
ATOM     16  C   UNL     1      71.346 -38.761  11.173  1.00  0.00    -0.000 C 
BRANCH  16  17
ATOM     17  C   UNL     1      72.533 -38.008  11.797  1.00  0.00    -0.000 C 
BRANCH  17  18
ATOM     18  C   UNL     1      73.468 -37.401  10.737  1.00  0.00    -0.000 C 
BRANCH  18  19
ATOM     19  C   UNL     1      74.922 -37.873  10.894  1.00  0.00    -0.003 C 
ATOM     20  C   UNL     1      75.857 -36.765  11.379  1.00  0.00     0.004 C 
ENDBRANCH  18  19
ENDBRANCH  17  18
ENDBRANCH  16  17
ENDBRANCH  15  16
ENDBRANCH  14  15
ENDBRANCH  13  14
ENDBRANCH  12  13
ENDBRANCH   1  12
TORSDOF 16
ENDMDL
MODEL 2
REMARK VINA RESULT:    -4.478      1.499      2.573
REMARK INTER + INTRA:         -10.401
REMARK INTER:                  -8.394
REMARK INTRA:                  -2.008
REMARK UNBOUND:                -1.735
REMARK SMILES CCCCCCCCCCCCCCCCCC(=O)[O-]
REMARK SMILES IDX 10 1 11 2 12 3 13 4 14 5 15 6 16 7 17 8 18 9 19 10 20 11
REMARK SMILES IDX 9 12 8 13 7 14 6 15 5 16 4 17 3 18 2 19 1 20
REMARK H PARENT
REMARK Flexibility Score: inf
ROOT
ATOM      1  C   UNL     1      69.074 -34.106   7.455  1.00  0.00     0.000 C 
ENDROOT
BRANCH   1   2
ATOM      2  C   UNL     1      69.894 -33.385   6.374  1.00  0.00     0.000 C 
BRANCH   2   3
ATOM      3  C   UNL     1      71.217 -32.860   6.950  1.00  0.00     0.000 C 
BRANCH   3   4
ATOM      4  C   UNL     1      72.336 -33.918   6.948  1.00  0.00     0.000 C 
BRANCH   4   5
ATOM      5  C   UNL     1      72.352 -34.844   5.717  1.00  0.00     0.000 C 
BRANCH   5   6
ATOM      6  C   UNL     1      73.729 -35.487   5.474  1.00  0.00     0.000 C 
BRANCH   6   7
ATOM      7  C   UNL     1      73.931 -36.780   6.280  1.00  0.00     0.006 C 
BRANCH   7   8
ATOM      8  C   UNL     1      75.103 -36.689   7.268  1.00  0.00     0.053 C 
BRANCH   8   9
ATOM      9  C   UNL     1      74.607 -36.756   8.678  1.00  0.00     0.041 C 
ATOM     10  O   UNL     1      75.413 -36.956   9.625  1.00  0.00    -0.550 OA
ATOM     11  O   UNL     1      73.259 -36.554   8.952  1.00  0.00    -0.550 OA
ENDBRANCH   8   9
ENDBRANCH   7   8
ENDBRANCH   6   7
ENDBRANCH   5   6
ENDBRANCH   4   5
ENDBRANCH   3   4
ENDBRANCH   2   3
ENDBRANCH   1   2
BRANCH   1  12
ATOM     12  C   UNL     1      68.942 -35.615   7.193  1.00  0.00     0.000 C 
BRANCH  12  13
ATOM     13  C   UNL     1      69.800 -36.457   8.154  1.00  0.00    -0.000 C 
BRANCH  13  14
ATOM     14  C   UNL     1      70.327 -37.747   7.505  1.00  0.00    -0.000 C 
BRANCH  14  15
ATOM     15  C   UNL     1      69.555 -38.997   7.954  1.00  0.00    -0.000 C 
BRANCH  15  16
ATOM     16  C   UNL     1      69.287 -38.961   9.467  1.00  0.00    -0.000 C 
BRANCH  16  17
ATOM     17  C   UNL     1      69.797 -40.220  10.190  1.00  0.00    -0.000 C 
BRANCH  17  18
ATOM     18  C   UNL     1      70.727 -39.884  11.369  1.00  0.00    -0.000 C 
BRANCH  18  19
ATOM     19  C   UNL     1      71.056 -38.385  11.451  1.00  0.00    -0.003 C 
ATOM     20  C   UNL     1      72.521 -38.116  11.799  1.00  0.00     0.004 C 
ENDBRANCH  18  19
ENDBRANCH  17  18
ENDBRANCH  16  17
ENDBRANCH  15  16
ENDBRANCH  14  15
ENDBRANCH  13  14
ENDBRANCH  12  13
ENDBRANCH   1  12
TORSDOF 16
ENDMDL
MODEL 3
REMARK VINA RESULT:    -4.393      1.781      3.903
REMARK INTER + INTRA:         -10.237
REMARK INTER:                  -8.085
REMARK INTRA:                  -2.153
REMARK UNBOUND:                -1.735
REMARK SMILES CCCCCCCCCCCCCCCCCC(=O)[O-]
REMARK SMILES IDX 10 1 11 2 12 3 13 4 14 5 15 6 16 7 17 8 18 9 19 10 20 11
REMARK SMILES IDX 9 12 8 13 7 14 6 15 5 16 4 17 3 18 2 19 1 20
REMARK H PARENT
REMARK Flexibility Score: inf
ROOT
ATOM      1  C   UNL     1      70.772 -33.353   5.876  1.00  0.00     0.000 C 
ENDROOT
BRANCH   1   2
ATOM      2  C   UNL     1      72.182 -33.398   6.483  1.00  0.00     0.000 C 
BRANCH   2   3
ATOM      3  C   UNL     1      73.144 -34.183   5.578  1.00  0.00     0.000 C 
BRANCH   3   4
ATOM      4  C   UNL     1      73.065 -35.706   5.794  1.00  0.00     0.000 C 
BRANCH   4   5
ATOM      5  C   UNL     1      73.809 -36.225   7.038  1.00  0.00     0.000 C 
BRANCH   5   6
ATOM      6  C   UNL     1      72.914 -36.276   8.289  1.00  0.00     0.000 C 
BRANCH   6   7
ATOM      7  C   UNL     1      73.606 -36.947   9.487  1.00  0.00     0.006 C 
BRANCH   7   8
ATOM      8  C   UNL     1      75.130 -36.763   9.475  1.00  0.00     0.053 C 
BRANCH   8   9
ATOM      9  C   UNL     1      75.696 -36.990  10.842  1.00  0.00     0.041 C 
ATOM     10  O   UNL     1      75.350 -38.000  11.510  1.00  0.00    -0.550 OA
ATOM     11  O   UNL     1      76.639 -36.111  11.360  1.00  0.00    -0.550 OA
ENDBRANCH   8   9
ENDBRANCH   7   8
ENDBRANCH   6   7
ENDBRANCH   5   6
ENDBRANCH   4   5
ENDBRANCH   3   4
ENDBRANCH   2   3
ENDBRANCH   1   2
BRANCH   1  12
ATOM     12  C   UNL     1      69.666 -33.553   6.926  1.00  0.00     0.000 C 
BRANCH  12  13
ATOM     13  C   UNL     1      69.553 -35.015   7.389  1.00  0.00    -0.000 C 
BRANCH  13  14
ATOM     14  C   UNL     1      69.443 -36.003   6.216  1.00  0.00    -0.000 C 
BRANCH  14  15
ATOM     15  C   UNL     1      69.624 -37.466   6.652  1.00  0.00    -0.000 C 
BRANCH  15  16
ATOM     16  C   UNL     1      69.576 -37.591   8.182  1.00  0.00    -0.000 C 
BRANCH  16  17
ATOM     17  C   UNL     1      69.615 -39.053   8.660  1.00  0.00    -0.000 C 
BRANCH  17  18
ATOM     18  C   UNL     1      69.701 -39.168  10.192  1.00  0.00    -0.000 C 
BRANCH  18  19
ATOM     19  C   UNL     1      70.378 -37.948  10.837  1.00  0.00    -0.003 C 
ATOM     20  C   UNL     1      71.450 -38.334  11.857  1.00  0.00     0.004 C 
ENDBRANCH  18  19
ENDBRANCH  17  18
ENDBRANCH  16  17
ENDBRANCH  15  16
ENDBRANCH  14  15
ENDBRANCH  13  14
ENDBRANCH  12  13
ENDBRANCH   1  12
TORSDOF 16
ENDMDL
MODEL 4
REMARK VINA RESULT:    -4.317      2.192      5.640
REMARK INTER + INTRA:         -10.090
REMARK INTER:                  -8.670
REMARK INTRA:                  -1.420
REMARK UNBOUND:                -1.735
REMARK SMILES CCCCCCCCCCCCCCCCCC(=O)[O-]
REMARK SMILES IDX 10 1 11 2 12 3 13 4 14 5 15 6 16 7 17 8 18 9 19 10 20 11
REMARK SMILES IDX 9 12 8 13 7 14 6 15 5 16 4 17 3 18 2 19 1 20
REMARK H PARENT
REMARK Flexibility Score: inf
ROOT
ATOM      1  C   UNL     1      69.066 -40.586   8.955  1.00  0.00     0.000 C 
ENDROOT
BRANCH   1   2
ATOM      2  C   UNL     1      69.122 -40.298  10.463  1.00  0.00     0.000 C 
BRANCH   2   3
ATOM      3  C   UNL     1      70.568 -40.356  10.979  1.00  0.00     0.000 C 
BRANCH   3   4
ATOM      4  C   UNL     1      71.056 -39.012  11.552  1.00  0.00     0.000 C 
BRANCH   4   5
ATOM      5  C   UNL     1      70.814 -37.792  10.643  1.00  0.00     0.000 C 
BRANCH   5   6
ATOM      6  C   UNL     1      72.119 -37.084  10.238  1.00  0.00     0.000 C 
BRANCH   6   7
ATOM      7  C   UNL     1      73.317 -37.505  11.104  1.00  0.00     0.006 C 
BRANCH   7   8
ATOM      8  C   UNL     1      74.667 -37.261  10.414  1.00  0.00     0.053 C 
BRANCH   8   9
ATOM      9  C   UNL     1      75.780 -37.303  11.413  1.00  0.00     0.041 C 
ATOM     10  O   UNL     1      75.798 -38.192  12.305  1.00  0.00    -0.550 OA
ATOM     11  O   UNL     1      76.824 -36.389  11.331  1.00  0.00    -0.550 OA
ENDBRANCH   8   9
ENDBRANCH   7   8
ENDBRANCH   6   7
ENDBRANCH   5   6
ENDBRANCH   4   5
ENDBRANCH   3   4
ENDBRANCH   2   3
ENDBRANCH   1   2
BRANCH   1  12
ATOM     12  C   UNL     1      68.895 -39.311   8.113  1.00  0.00     0.000 C 
BRANCH  12  13
ATOM     13  C   UNL     1      67.421 -38.891   7.975  1.00  0.00    -0.000 C 
BRANCH  13  14
ATOM     14  C   UNL     1      67.202 -37.395   8.254  1.00  0.00    -0.000 C 
BRANCH  14  15
ATOM     15  C   UNL     1      68.515 -36.598   8.297  1.00  0.00    -0.000 C 
BRANCH  15  16
ATOM     16  C   UNL     1      68.354 -35.239   7.599  1.00  0.00    -0.000 C 
BRANCH  16  17
ATOM     17  C   UNL     1      69.616 -34.814   6.829  1.00  0.00    -0.000 C 
BRANCH  17  18
ATOM     18  C   UNL     1      69.833 -33.291   6.851  1.00  0.00    -0.000 C 
BRANCH  18  19
ATOM     19  C   UNL     1      71.316 -32.910   6.989  1.00  0.00    -0.003 C 
ATOM     20  C   UNL     1      72.212 -34.111   7.294  1.00  0.00     0.004 C 
ENDBRANCH  18  19
ENDBRANCH  17  18
ENDBRANCH  16  17
ENDBRANCH  15  16
ENDBRANCH  14  15
ENDBRANCH  13  14
ENDBRANCH  12  13
ENDBRANCH   1  12
TORSDOF 16
ENDMDL
MODEL 5
REMARK VINA RESULT:    -4.279      2.346      4.738
REMARK INTER + INTRA:         -10.017
REMARK INTER:                  -8.650
REMARK INTRA:                  -1.367
REMARK UNBOUND:                -1.735
REMARK SMILES CCCCCCCCCCCCCCCCCC(=O)[O-]
REMARK SMILES IDX 10 1 11 2 12 3 13 4 14 5 15 6 16 7 17 8 18 9 19 10 20 11
REMARK SMILES IDX 9 12 8 13 7 14 6 15 5 16 4 17 3 18 2 19 1 20
REMARK H PARENT
REMARK Flexibility Score: inf
ROOT
ATOM      1  C   UNL     1      73.866 -36.309   7.950  1.00  0.00     0.000 C 
ENDROOT
BRANCH   1   2
ATOM      2  C   UNL     1      74.007 -36.575   6.443  1.00  0.00     0.000 C 
BRANCH   2   3
ATOM      3  C   UNL     1      73.072 -35.662   5.636  1.00  0.00     0.000 C 
BRANCH   3   4
ATOM      4  C   UNL     1      72.858 -34.287   6.296  1.00  0.00     0.000 C 
BRANCH   4   5
ATOM      5  C   UNL     1      72.131 -33.251   5.418  1.00  0.00     0.000 C 
BRANCH   5   6
ATOM      6  C   UNL     1      70.602 -33.288   5.596  1.00  0.00     0.000 C 
BRANCH   6   7
ATOM      7  C   UNL     1      70.177 -33.340   7.072  1.00  0.00     0.006 C 
BRANCH   7   8
ATOM      8  C   UNL     1      69.103 -34.402   7.347  1.00  0.00     0.053 C 
BRANCH   8   9
ATOM      9  C   UNL     1      69.698 -35.774   7.303  1.00  0.00     0.041 C 
ATOM     10  O   UNL     1      70.270 -36.249   8.320  1.00  0.00    -0.550 OA
ATOM     11  O   UNL     1      69.583 -36.546   6.153  1.00  0.00    -0.550 OA
ENDBRANCH   8   9
ENDBRANCH   7   8
ENDBRANCH   6   7
ENDBRANCH   5   6
ENDBRANCH   4   5
ENDBRANCH   3   4
ENDBRANCH   2   3
ENDBRANCH   1   2
BRANCH   1  12
ATOM     12  C   UNL     1      75.010 -36.925   8.772  1.00  0.00     0.000 C 
BRANCH  12  13
ATOM     13  C   UNL     1      74.637 -37.109  10.253  1.00  0.00    -0.000 C 
BRANCH  13  14
ATOM     14  C   UNL     1      73.118 -37.172  10.480  1.00  0.00    -0.000 C 
BRANCH  14  15
ATOM     15  C   UNL     1      72.724 -38.143  11.604  1.00  0.00    -0.000 C 
BRANCH  15  16
ATOM     16  C   UNL     1      71.198 -38.298  11.683  1.00  0.00    -0.000 C 
BRANCH  16  17
ATOM     17  C   UNL     1      70.718 -39.688  11.231  1.00  0.00    -0.000 C 
BRANCH  17  18
ATOM     18  C   UNL     1      69.686 -39.612  10.093  1.00  0.00    -0.000 C 
BRANCH  18  19
ATOM     19  C   UNL     1      69.023 -40.970   9.808  1.00  0.00    -0.003 C 
ATOM     20  C   UNL     1      70.031 -42.054   9.425  1.00  0.00     0.004 C 
ENDBRANCH  18  19
ENDBRANCH  17  18
ENDBRANCH  16  17
ENDBRANCH  15  16
ENDBRANCH  14  15
ENDBRANCH  13  14
ENDBRANCH  12  13
ENDBRANCH   1  12
TORSDOF 16
ENDMDL
MODEL 6
REMARK VINA RESULT:    -4.241      3.600      5.791
REMARK INTER + INTRA:          -9.942
REMARK INTER:                  -7.683
REMARK INTRA:                  -2.259
REMARK UNBOUND:                -1.735
REMARK SMILES CCCCCCCCCCCCCCCCCC(=O)[O-]
REMARK SMILES IDX 10 1 11 2 12 3 13 4 14 5 15 6 16 7 17 8 18 9 19 10 20 11
REMARK SMILES IDX 9 12 8 13 7 14 6 15 5 16 4 17 3 18 2 19 1 20
REMARK H PARENT
REMARK Flexibility Score: inf
ROOT
ATOM      1  C   UNL     1      70.363 -33.350   5.740  1.00  0.00     0.000 C 
ENDROOT
BRANCH   1   2
ATOM      2  C   UNL     1      69.854 -33.332   7.189  1.00  0.00     0.000 C 
BRANCH   2   3
ATOM      3  C   UNL     1      68.919 -34.521   7.456  1.00  0.00     0.000 C 
BRANCH   3   4
ATOM      4  C   UNL     1      69.282 -35.769   6.629  1.00  0.00     0.000 C 
BRANCH   4   5
ATOM      5  C   UNL     1      68.371 -36.989   6.860  1.00  0.00     0.000 C 
BRANCH   5   6
ATOM      6  C   UNL     1      68.884 -37.912   7.980  1.00  0.00     0.000 C 
BRANCH   6   7
ATOM      7  C   UNL     1      68.365 -37.505   9.368  1.00  0.00     0.006 C 
BRANCH   7   8
ATOM      8  C   UNL     1      67.352 -38.505   9.943  1.00  0.00     0.053 C 
BRANCH   8   9
ATOM      9  C   UNL     1      66.138 -37.790  10.448  1.00  0.00     0.041 C 
ATOM     10  O   UNL     1      65.226 -38.428  11.037  1.00  0.00    -0.550 OA
ATOM     11  O   UNL     1      66.034 -36.410  10.308  1.00  0.00    -0.550 OA
ENDBRANCH   8   9
ENDBRANCH   7   8
ENDBRANCH   6   7
ENDBRANCH   5   6
ENDBRANCH   4   5
ENDBRANCH   3   4
ENDBRANCH   2   3
ENDBRANCH   1   2
BRANCH   1  12
ATOM     12  C   UNL     1      71.893 -33.228   5.647  1.00  0.00     0.000 C 
BRANCH  12  13
ATOM     13  C   UNL     1      72.619 -34.165   6.627  1.00  0.00    -0.000 C 
BRANCH  13  14
ATOM     14  C   UNL     1      72.975 -35.522   5.999  1.00  0.00    -0.000 C 
BRANCH  14  15
ATOM     15  C   UNL     1      72.851 -36.688   6.992  1.00  0.00    -0.000 C 
BRANCH  15  16
ATOM     16  C   UNL     1      73.009 -36.195   8.438  1.00  0.00    -0.000 C 
BRANCH  16  17
ATOM     17  C   UNL     1      71.918 -36.741   9.374  1.00  0.00    -0.000 C 
BRANCH  17  18
ATOM     18  C   UNL     1      72.490 -37.248  10.710  1.00  0.00    -0.000 C 
BRANCH  18  19
ATOM     19  C   UNL     1      71.419 -37.901  11.598  1.00  0.00    -0.003 C 
ATOM     20  C   UNL     1      71.052 -39.315  11.144  1.00  0.00     0.004 C 
ENDBRANCH  18  19
ENDBRANCH  17  18
ENDBRANCH  16  17
ENDBRANCH  15  16
ENDBRANCH  14  15
ENDBRANCH  13  14
ENDBRANCH  12  13
ENDBRANCH   1  12
TORSDOF 16
ENDMDL
MODEL 7
REMARK VINA RESULT:    -4.239      1.611      5.116
REMARK INTER + INTRA:          -9.938
REMARK INTER:                  -8.228
REMARK INTRA:                  -1.710
REMARK UNBOUND:                -1.735
REMARK SMILES CCCCCCCCCCCCCCCCCC(=O)[O-]
REMARK SMILES IDX 10 1 11 2 12 3 13 4 14 5 15 6 16 7 17 8 18 9 19 10 20 11
REMARK SMILES IDX 9 12 8 13 7 14 6 15 5 16 4 17 3 18 2 19 1 20
REMARK H PARENT
REMARK Flexibility Score: inf
ROOT
ATOM      1  C   UNL     1      67.251 -36.495   8.017  1.00  0.00     0.000 C 
ENDROOT
BRANCH   1   2
ATOM      2  C   UNL     1      67.497 -37.147   9.386  1.00  0.00     0.000 C 
BRANCH   2   3
ATOM      3  C   UNL     1      68.675 -38.131   9.320  1.00  0.00     0.000 C 
BRANCH   3   4
ATOM      4  C   UNL     1      69.896 -37.662  10.135  1.00  0.00     0.000 C 
BRANCH   4   5
ATOM      5  C   UNL     1      70.740 -38.794  10.749  1.00  0.00     0.000 C 
BRANCH   5   6
ATOM      6  C   UNL     1      71.786 -38.279  11.754  1.00  0.00     0.000 C 
BRANCH   6   7
ATOM      7  C   UNL     1      72.856 -37.392  11.096  1.00  0.00     0.006 C 
BRANCH   7   8
ATOM      8  C   UNL     1      74.286 -37.880  11.368  1.00  0.00     0.053 C 
BRANCH   8   9
ATOM      9  C   UNL     1      75.276 -37.041  10.624  1.00  0.00     0.041 C 
ATOM     10  O   UNL     1      76.249 -36.522  11.232  1.00  0.00    -0.550 OA
ATOM     11  O   UNL     1      75.151 -36.869   9.250  1.00  0.00    -0.550 OA
ENDBRANCH   8   9
ENDBRANCH   7   8
ENDBRANCH   6   7
ENDBRANCH   5   6
ENDBRANCH   4   5
ENDBRANCH   3   4
ENDBRANCH   2   3
ENDBRANCH   1   2
BRANCH   1  12
ATOM     12  C   UNL     1      68.214 -37.007   6.933  1.00  0.00     0.000 C 
BRANCH  12  13
ATOM     13  C   UNL     1      69.345 -36.007   6.632  1.00  0.00    -0.000 C 
BRANCH  13  14
ATOM     14  C   UNL     1      70.253 -36.467   5.480  1.00  0.00    -0.000 C 
BRANCH  14  15
ATOM     15  C   UNL     1      71.693 -36.752   5.936  1.00  0.00    -0.000 C 
BRANCH  15  16
ATOM     16  C   UNL     1      71.899 -36.323   7.397  1.00  0.00    -0.000 C 
BRANCH  16  17
ATOM     17  C   UNL     1      72.523 -34.923   7.522  1.00  0.00    -0.000 C 
BRANCH  17  18
ATOM     18  C   UNL     1      72.881 -34.314   6.155  1.00  0.00    -0.000 C 
BRANCH  18  19
ATOM     19  C   UNL     1      72.071 -33.045   5.845  1.00  0.00    -0.003 C 
ATOM     20  C   UNL     1      71.056 -32.707   6.937  1.00  0.00     0.004 C 
ENDBRANCH  18  19
ENDBRANCH  17  18
ENDBRANCH  16  17
ENDBRANCH  15  16
ENDBRANCH  14  15
ENDBRANCH  13  14
ENDBRANCH  12  13
ENDBRANCH   1  12
TORSDOF 16
ENDMDL
MODEL 8
REMARK VINA RESULT:    -4.210      1.480      5.496
REMARK INTER + INTRA:          -9.882
REMARK INTER:                  -8.062
REMARK INTRA:                  -1.821
REMARK UNBOUND:                -1.735
REMARK SMILES CCCCCCCCCCCCCCCCCC(=O)[O-]
REMARK SMILES IDX 10 1 11 2 12 3 13 4 14 5 15 6 16 7 17 8 18 9 19 10 20 11
REMARK SMILES IDX 9 12 8 13 7 14 6 15 5 16 4 17 3 18 2 19 1 20
REMARK H PARENT
REMARK Flexibility Score: inf
ROOT
ATOM      1  C   UNL     1      68.795 -37.827   7.047  1.00  0.00     0.000 C 
ENDROOT
BRANCH   1   2
ATOM      2  C   UNL     1      69.865 -38.092   8.118  1.00  0.00     0.000 C 
BRANCH   2   3
ATOM      3  C   UNL     1      69.218 -38.315   9.494  1.00  0.00     0.000 C 
BRANCH   3   4
ATOM      4  C   UNL     1      69.744 -39.574  10.209  1.00  0.00     0.000 C 
BRANCH   4   5
ATOM      5  C   UNL     1      70.986 -39.349  11.091  1.00  0.00     0.000 C 
BRANCH   5   6
ATOM      6  C   UNL     1      71.159 -37.879  11.512  1.00  0.00     0.000 C 
BRANCH   6   7
ATOM      7  C   UNL     1      72.498 -37.282  11.050  1.00  0.00     0.006 C 
BRANCH   7   8
ATOM      8  C   UNL     1      73.712 -38.057  11.584  1.00  0.00     0.053 C 
BRANCH   8   9
ATOM      9  C   UNL     1      74.974 -37.544  10.965  1.00  0.00     0.041 C 
ATOM     10  O   UNL     1      74.974 -37.134   9.775  1.00  0.00    -0.550 OA
ATOM     11  O   UNL     1      76.141 -37.475  11.718  1.00  0.00    -0.550 OA
ENDBRANCH   8   9
ENDBRANCH   7   8
ENDBRANCH   6   7
ENDBRANCH   5   6
ENDBRANCH   4   5
ENDBRANCH   3   4
ENDBRANCH   2   3
ENDBRANCH   1   2
BRANCH   1  12
ATOM     12  C   UNL     1      68.401 -36.344   6.954  1.00  0.00     0.000 C 
BRANCH  12  13
ATOM     13  C   UNL     1      69.463 -35.414   7.568  1.00  0.00    -0.000 C 
BRANCH  13  14
ATOM     14  C   UNL     1      69.287 -33.948   7.139  1.00  0.00    -0.000 C 
BRANCH  14  15
ATOM     15  C   UNL     1      70.621 -33.191   7.048  1.00  0.00    -0.000 C 
BRANCH  15  16
ATOM     16  C   UNL     1      71.164 -33.211   5.610  1.00  0.00    -0.000 C 
BRANCH  16  17
ATOM     17  C   UNL     1      72.397 -34.117   5.453  1.00  0.00    -0.000 C 
BRANCH  17  18
ATOM     18  C   UNL     1      72.041 -35.499   4.877  1.00  0.00    -0.000 C 
BRANCH  18  19
ATOM     19  C   UNL     1      72.345 -36.642   5.859  1.00  0.00    -0.003 C 
ATOM     20  C   UNL     1      73.391 -36.262   6.908  1.00  0.00     0.004 C 
ENDBRANCH  18  19
ENDBRANCH  17  18
ENDBRANCH  16  17
ENDBRANCH  15  16
ENDBRANCH  14  15
ENDBRANCH  13  14
ENDBRANCH  12  13
ENDBRANCH   1  12
TORSDOF 16
ENDMDL
MODEL 9
REMARK VINA RESULT:    -4.077      4.398      6.889
REMARK INTER + INTRA:          -9.626
REMARK INTER:                  -7.480
REMARK INTRA:                  -2.146
REMARK UNBOUND:                -1.735
REMARK SMILES CCCCCCCCCCCCCCCCCC(=O)[O-]
REMARK SMILES IDX 10 1 11 2 12 3 13 4 14 5 15 6 16 7 17 8 18 9 19 10 20 11
REMARK SMILES IDX 9 12 8 13 7 14 6 15 5 16 4 17 3 18 2 19 1 20
REMARK H PARENT
REMARK Flexibility Score: inf
ROOT
ATOM      1  C   UNL     1      68.307 -35.516   7.569  1.00  0.00     0.000 C 
ENDROOT
BRANCH   1   2
ATOM      2  C   UNL     1      69.014 -36.668   6.836  1.00  0.00     0.000 C 
BRANCH   2   3
ATOM      3  C   UNL     1      69.372 -37.799   7.812  1.00  0.00     0.000 C 
BRANCH   3   4
ATOM      4  C   UNL     1      69.001 -37.474   9.271  1.00  0.00     0.000 C 
BRANCH   4   5
ATOM      5  C   UNL     1      67.774 -38.230   9.814  1.00  0.00     0.000 C 
BRANCH   5   6
ATOM      6  C   UNL     1      66.835 -37.329  10.634  1.00  0.00     0.000 C 
BRANCH   6   7
ATOM      7  C   UNL     1      65.680 -36.756   9.796  1.00  0.00     0.006 C 
BRANCH   7   8
ATOM      8  C   UNL     1      65.364 -35.293  10.137  1.00  0.00     0.053 C 
BRANCH   8   9
ATOM      9  C   UNL     1      64.587 -35.208  11.412  1.00  0.00     0.041 C 
ATOM     10  O   UNL     1      64.718 -34.210  12.169  1.00  0.00    -0.550 OA
ATOM     11  O   UNL     1      63.681 -36.210  11.744  1.00  0.00    -0.550 OA
ENDBRANCH   8   9
ENDBRANCH   7   8
ENDBRANCH   6   7
ENDBRANCH   5   6
ENDBRANCH   4   5
ENDBRANCH   3   4
ENDBRANCH   2   3
ENDBRANCH   1   2
BRANCH   1  12
ATOM     12  C   UNL     1      69.089 -34.194   7.491  1.00  0.00     0.000 C 
BRANCH  12  13
ATOM     13  C   UNL     1      70.054 -34.151   6.293  1.00  0.00    -0.000 C 
BRANCH  13  14
ATOM     14  C   UNL     1      71.303 -33.297   6.566  1.00  0.00    -0.000 C 
BRANCH  14  15
ATOM     15  C   UNL     1      72.329 -34.012   7.459  1.00  0.00    -0.000 C 
BRANCH  15  16
ATOM     16  C   UNL     1      72.568 -35.450   6.975  1.00  0.00    -0.000 C 
BRANCH  16  17
ATOM     17  C   UNL     1      73.225 -36.336   8.046  1.00  0.00    -0.000 C 
BRANCH  17  18
ATOM     18  C   UNL     1      72.360 -36.466   9.313  1.00  0.00    -0.000 C 
BRANCH  18  19
ATOM     19  C   UNL     1      73.111 -37.142  10.471  1.00  0.00    -0.003 C 
ATOM     20  C   UNL     1      72.182 -37.903  11.418  1.00  0.00     0.004 C 
ENDBRANCH  18  19
ENDBRANCH  17  18
ENDBRANCH  16  17
ENDBRANCH  15  16
ENDBRANCH  14  15
ENDBRANCH  13  14
ENDBRANCH  12  13
ENDBRANCH   1  12
TORSDOF 16
ENDMDL
