MODEL 1
REMARK VINA RESULT:    -3.394      0.000      0.000
REMARK INTER + INTRA:         -13.913
REMARK INTER:                  -8.950
REMARK INTRA:                  -4.963
REMARK UNBOUND:                -4.963
REMARK SMILES CCCCCCCCCCCCCCCCCCCCCCCCCCCCCC(=O)[O-]
REMARK SMILES IDX 16 1 17 2 18 3 19 4 20 5 21 6 22 7 23 8 24 9 25 10 26 11
REMARK SMILES IDX 27 12 28 13 29 14 30 15 31 16 32 17 15 18 14 19 13 20 12 21
REMARK SMILES IDX 11 22 10 23 9 24 8 25 7 26 6 27 5 28 4 29 3 30 2 31 1 32
REMARK H PARENT
REMARK Flexibility Score: inf
ROOT
ATOM      1  C   UNL     1      24.304  30.248  52.922  1.00  0.00     0.000 C 
ENDROOT
BRANCH   1   2
ATOM      2  C   UNL     1      24.627  28.759  52.727  1.00  0.00     0.000 C 
BRANCH   2   3
ATOM      3  C   UNL     1      25.375  28.197  53.945  1.00  0.00     0.000 C 
BRANCH   3   4
ATOM      4  C   UNL     1      24.479  28.054  55.190  1.00  0.00     0.000 C 
BRANCH   4   5
ATOM      5  C   UNL     1      25.114  28.527  56.512  1.00  0.00     0.000 C 
BRANCH   5   6
ATOM      6  C   UNL     1      24.817  30.001  56.828  1.00  0.00     0.000 C 
BRANCH   6   7
ATOM      7  C   UNL     1      23.409  30.395  56.358  1.00  0.00     0.000 C 
BRANCH   7   8
ATOM      8  C   UNL     1      22.360  30.274  57.475  1.00  0.00     0.000 C 
BRANCH   8   9
ATOM      9  C   UNL     1      21.316  29.179  57.188  1.00  0.00     0.000 C 
BRANCH   9  10
ATOM     10  C   UNL     1      20.945  29.088  55.698  1.00  0.00     0.000 C 
BRANCH  10  11
ATOM     11  C   UNL     1      19.662  29.846  55.301  1.00  0.00     0.000 C 
BRANCH  11  12
ATOM     12  C   UNL     1      18.391  28.970  55.339  1.00  0.00     0.000 C 
BRANCH  12  13
ATOM     13  C   UNL     1      17.302  29.485  54.385  1.00  0.00     0.006 C 
BRANCH  13  14
ATOM     14  C   UNL     1      15.928  29.475  55.060  1.00  0.00     0.053 C 
BRANCH  14  15
ATOM     15  C   UNL     1      15.169  28.242  54.682  1.00  0.00     0.041 C 
ATOM     16  O   UNL     1      15.530  27.117  55.120  1.00  0.00    -0.550 OA
ATOM     17  O   UNL     1      14.091  28.328  53.808  1.00  0.00    -0.550 OA
ENDBRANCH  14  15
ENDBRANCH  13  14
ENDBRANCH  12  13
ENDBRANCH  11  12
ENDBRANCH  10  11
ENDBRANCH   9  10
ENDBRANCH   8   9
ENDBRANCH   7   8
ENDBRANCH   6   7
ENDBRANCH   5   6
ENDBRANCH   4   5
ENDBRANCH   3   4
ENDBRANCH   2   3
ENDBRANCH   1   2
BRANCH   1  18
ATOM     18  C   UNL     1      25.564  31.115  53.057  1.00  0.00     0.000 C 
BRANCH  18  19
ATOM     19  C   UNL     1      25.318  32.405  53.861  1.00  0.00     0.000 C 
BRANCH  19  20
ATOM     20  C   UNL     1      26.126  33.603  53.323  1.00  0.00     0.000 C 
BRANCH  20  21
ATOM     21  C   UNL     1      27.652  33.469  53.495  1.00  0.00     0.000 C 
BRANCH  21  22
ATOM     22  C   UNL     1      28.462  33.247  52.200  1.00  0.00     0.000 C 
BRANCH  22  23
ATOM     23  C   UNL     1      29.967  32.951  52.397  1.00  0.00     0.000 C 
BRANCH  23  24
ATOM     24  C   UNL     1      30.477  33.148  53.838  1.00  0.00    -0.000 C 
BRANCH  24  25
ATOM     25  C   UNL     1      31.572  32.145  54.255  1.00  0.00    -0.000 C 
BRANCH  25  26
ATOM     26  C   UNL     1      31.612  31.940  55.782  1.00  0.00    -0.000 C 
BRANCH  26  27
ATOM     27  C   UNL     1      30.359  32.484  56.498  1.00  0.00    -0.000 C 
BRANCH  27  28
ATOM     28  C   UNL     1      29.392  31.395  56.997  1.00  0.00    -0.000 C 
BRANCH  28  29
ATOM     29  C   UNL     1      28.269  31.049  55.997  1.00  0.00    -0.000 C 
BRANCH  29  30
ATOM     30  C   UNL     1      28.475  29.663  55.361  1.00  0.00    -0.000 C 
BRANCH  30  31
ATOM     31  C   UNL     1      28.693  29.740  53.842  1.00  0.00    -0.003 C 
ATOM     32  C   UNL     1      29.988  29.060  53.396  1.00  0.00     0.004 C 
ENDBRANCH  30  31
ENDBRANCH  29  30
ENDBRANCH  28  29
ENDBRANCH  27  28
ENDBRANCH  26  27
ENDBRANCH  25  26
ENDBRANCH  24  25
ENDBRANCH  23  24
ENDBRANCH  22  23
ENDBRANCH  21  22
ENDBRANCH  20  21
ENDBRANCH  19  20
ENDBRANCH  18  19
ENDBRANCH   1  18
TORSDOF 28
ENDMDL
MODEL 2
REMARK VINA RESULT:    -3.347      1.419      3.705
REMARK INTER + INTRA:         -13.788
REMARK INTER:                  -8.833
REMARK INTRA:                  -4.956
REMARK UNBOUND:                -4.963
REMARK SMILES CCCCCCCCCCCCCCCCCCCCCCCCCCCCCC(=O)[O-]
REMARK SMILES IDX 16 1 17 2 18 3 19 4 20 5 21 6 22 7 23 8 24 9 25 10 26 11
REMARK SMILES IDX 27 12 28 13 29 14 30 15 31 16 32 17 15 18 14 19 13 20 12 21
REMARK SMILES IDX 11 22 10 23 9 24 8 25 7 26 6 27 5 28 4 29 3 30 2 31 1 32
REMARK H PARENT
REMARK Flexibility Score: inf
ROOT
ATOM      1  C   UNL     1      27.749  32.852  51.187  1.00  0.00     0.000 C 
ENDROOT
BRANCH   1   2
ATOM      2  C   UNL     1      26.263  32.558  51.441  1.00  0.00     0.000 C 
BRANCH   2   3
ATOM      3  C   UNL     1      25.755  33.330  52.668  1.00  0.00     0.000 C 
BRANCH   3   4
ATOM      4  C   UNL     1      25.191  32.410  53.768  1.00  0.00     0.000 C 
BRANCH   4   5
ATOM      5  C   UNL     1      24.953  30.948  53.341  1.00  0.00     0.000 C 
BRANCH   5   6
ATOM      6  C   UNL     1      23.921  30.226  54.221  1.00  0.00     0.000 C 
BRANCH   6   7
ATOM      7  C   UNL     1      24.610  29.326  55.258  1.00  0.00     0.000 C 
BRANCH   7   8
ATOM      8  C   UNL     1      24.488  29.876  56.688  1.00  0.00     0.000 C 
BRANCH   8   9
ATOM      9  C   UNL     1      23.513  29.058  57.554  1.00  0.00     0.000 C 
BRANCH   9  10
ATOM     10  C   UNL     1      22.290  28.562  56.763  1.00  0.00     0.000 C 
BRANCH  10  11
ATOM     11  C   UNL     1      21.001  29.382  56.979  1.00  0.00     0.000 C 
BRANCH  11  12
ATOM     12  C   UNL     1      20.507  30.102  55.707  1.00  0.00     0.000 C 
BRANCH  12  13
ATOM     13  C   UNL     1      19.636  29.193  54.825  1.00  0.00     0.006 C 
BRANCH  13  14
ATOM     14  C   UNL     1      18.292  29.854  54.511  1.00  0.00     0.053 C 
BRANCH  14  15
ATOM     15  C   UNL     1      17.192  29.191  55.278  1.00  0.00     0.041 C 
ATOM     16  O   UNL     1      15.990  29.497  55.054  1.00  0.00    -0.550 OA
ATOM     17  O   UNL     1      17.495  28.269  56.274  1.00  0.00    -0.550 OA
ENDBRANCH  14  15
ENDBRANCH  13  14
ENDBRANCH  12  13
ENDBRANCH  11  12
ENDBRANCH  10  11
ENDBRANCH   9  10
ENDBRANCH   8   9
ENDBRANCH   7   8
ENDBRANCH   6   7
ENDBRANCH   5   6
ENDBRANCH   4   5
ENDBRANCH   3   4
ENDBRANCH   2   3
ENDBRANCH   1   2
BRANCH   1  18
ATOM     18  C   UNL     1      28.485  33.324  52.450  1.00  0.00     0.000 C 
BRANCH  18  19
ATOM     19  C   UNL     1      29.998  33.502  52.227  1.00  0.00     0.000 C 
BRANCH  19  20
ATOM     20  C   UNL     1      30.824  33.198  53.494  1.00  0.00     0.000 C 
BRANCH  20  21
ATOM     21  C   UNL     1      30.431  34.040  54.725  1.00  0.00     0.000 C 
BRANCH  21  22
ATOM     22  C   UNL     1      30.715  33.400  56.100  1.00  0.00     0.000 C 
BRANCH  22  23
ATOM     23  C   UNL     1      30.617  31.857  56.151  1.00  0.00     0.000 C 
BRANCH  23  24
ATOM     24  C   UNL     1      29.621  31.310  57.191  1.00  0.00    -0.000 C 
BRANCH  24  25
ATOM     25  C   UNL     1      28.286  30.831  56.587  1.00  0.00    -0.000 C 
BRANCH  25  26
ATOM     26  C   UNL     1      28.285  30.922  55.049  1.00  0.00    -0.000 C 
BRANCH  26  27
ATOM     27  C   UNL     1      28.208  29.543  54.363  1.00  0.00    -0.000 C 
BRANCH  27  28
ATOM     28  C   UNL     1      28.970  29.456  53.028  1.00  0.00    -0.000 C 
BRANCH  28  29
ATOM     29  C   UNL     1      30.499  29.602  53.169  1.00  0.00    -0.000 C 
BRANCH  29  30
ATOM     30  C   UNL     1      31.164  29.979  51.833  1.00  0.00    -0.000 C 
BRANCH  30  31
ATOM     31  C   UNL     1      30.155  30.065  50.677  1.00  0.00    -0.003 C 
ATOM     32  C   UNL     1      30.624  30.986  49.551  1.00  0.00     0.004 C 
ENDBRANCH  30  31
ENDBRANCH  29  30
ENDBRANCH  28  29
ENDBRANCH  27  28
ENDBRANCH  26  27
ENDBRANCH  25  26
ENDBRANCH  24  25
ENDBRANCH  23  24
ENDBRANCH  22  23
ENDBRANCH  21  22
ENDBRANCH  20  21
ENDBRANCH  19  20
ENDBRANCH  18  19
ENDBRANCH   1  18
TORSDOF 28
ENDMDL
MODEL 3
REMARK VINA RESULT:    -3.346      4.905      8.256
REMARK INTER + INTRA:         -13.787
REMARK INTER:                  -8.012
REMARK INTRA:                  -5.774
REMARK UNBOUND:                -4.963
REMARK SMILES CCCCCCCCCCCCCCCCCCCCCCCCCCCCCC(=O)[O-]
REMARK SMILES IDX 16 1 17 2 18 3 19 4 20 5 21 6 22 7 23 8 24 9 25 10 26 11
REMARK SMILES IDX 27 12 28 13 29 14 30 15 31 16 32 17 15 18 14 19 13 20 12 21
REMARK SMILES IDX 11 22 10 23 9 24 8 25 7 26 6 27 5 28 4 29 3 30 2 31 1 32
REMARK H PARENT
REMARK Flexibility Score: inf
ROOT
ATOM      1  C   UNL     1      30.153  31.512  52.478  1.00  0.00     0.000 C 
ENDROOT
BRANCH   1   2
ATOM      2  C   UNL     1      30.042  32.949  53.010  1.00  0.00     0.000 C 
BRANCH   2   3
ATOM      3  C   UNL     1      28.648  33.529  52.733  1.00  0.00     0.000 C 
BRANCH   3   4
ATOM      4  C   UNL     1      27.927  34.003  54.009  1.00  0.00     0.000 C 
BRANCH   4   5
ATOM      5  C   UNL     1      26.500  34.544  53.793  1.00  0.00     0.000 C 
BRANCH   5   6
ATOM      6  C   UNL     1      25.597  33.567  53.025  1.00  0.00     0.000 C 
BRANCH   6   7
ATOM      7  C   UNL     1      25.259  32.336  53.879  1.00  0.00     0.000 C 
BRANCH   7   8
ATOM      8  C   UNL     1      25.286  31.031  53.066  1.00  0.00     0.000 C 
BRANCH   8   9
ATOM      9  C   UNL     1      26.628  30.287  53.190  1.00  0.00     0.000 C 
BRANCH   9  10
ATOM     10  C   UNL     1      27.153  29.782  51.835  1.00  0.00     0.000 C 
BRANCH  10  11
ATOM     11  C   UNL     1      26.249  30.103  50.628  1.00  0.00     0.000 C 
BRANCH  11  12
ATOM     12  C   UNL     1      26.976  30.853  49.492  1.00  0.00     0.000 C 
BRANCH  12  13
ATOM     13  C   UNL     1      27.095  32.359  49.773  1.00  0.00     0.006 C 
BRANCH  13  14
ATOM     14  C   UNL     1      27.795  33.082  48.620  1.00  0.00     0.053 C 
BRANCH  14  15
ATOM     15  C   UNL     1      29.248  32.724  48.585  1.00  0.00     0.041 C 
ATOM     16  O   UNL     1      30.037  33.195  49.447  1.00  0.00    -0.550 OA
ATOM     17  O   UNL     1      29.740  31.909  47.572  1.00  0.00    -0.550 OA
ENDBRANCH  14  15
ENDBRANCH  13  14
ENDBRANCH  12  13
ENDBRANCH  11  12
ENDBRANCH  10  11
ENDBRANCH   9  10
ENDBRANCH   8   9
ENDBRANCH   7   8
ENDBRANCH   6   7
ENDBRANCH   5   6
ENDBRANCH   4   5
ENDBRANCH   3   4
ENDBRANCH   2   3
ENDBRANCH   1   2
BRANCH   1  18
ATOM     18  C   UNL     1      31.221  30.689  53.213  1.00  0.00     0.000 C 
BRANCH  18  19
ATOM     19  C   UNL     1      32.149  31.556  54.085  1.00  0.00     0.000 C 
BRANCH  19  20
ATOM     20  C   UNL     1      32.577  30.844  55.384  1.00  0.00     0.000 C 
BRANCH  20  21
ATOM     21  C   UNL     1      32.184  31.589  56.676  1.00  0.00     0.000 C 
BRANCH  21  22
ATOM     22  C   UNL     1      30.933  32.487  56.584  1.00  0.00     0.000 C 
BRANCH  22  23
ATOM     23  C   UNL     1      29.623  31.863  57.119  1.00  0.00     0.000 C 
BRANCH  23  24
ATOM     24  C   UNL     1      28.755  31.174  56.048  1.00  0.00    -0.000 C 
BRANCH  24  25
ATOM     25  C   UNL     1      28.793  29.634  56.109  1.00  0.00    -0.000 C 
BRANCH  25  26
ATOM     26  C   UNL     1      28.101  29.091  57.375  1.00  0.00    -0.000 C 
BRANCH  26  27
ATOM     27  C   UNL     1      26.776  29.814  57.695  1.00  0.00    -0.000 C 
BRANCH  27  28
ATOM     28  C   UNL     1      25.522  28.933  57.546  1.00  0.00    -0.000 C 
BRANCH  28  29
ATOM     29  C   UNL     1      25.172  28.586  56.085  1.00  0.00    -0.000 C 
BRANCH  29  30
ATOM     30  C   UNL     1      23.772  29.093  55.695  1.00  0.00    -0.000 C 
BRANCH  30  31
ATOM     31  C   UNL     1      23.360  30.346  56.484  1.00  0.00    -0.003 C 
ATOM     32  C   UNL     1      22.006  30.188  57.176  1.00  0.00     0.004 C 
ENDBRANCH  30  31
ENDBRANCH  29  30
ENDBRANCH  28  29
ENDBRANCH  27  28
ENDBRANCH  26  27
ENDBRANCH  25  26
ENDBRANCH  24  25
ENDBRANCH  23  24
ENDBRANCH  22  23
ENDBRANCH  21  22
ENDBRANCH  20  21
ENDBRANCH  19  20
ENDBRANCH  18  19
ENDBRANCH   1  18
TORSDOF 28
ENDMDL
MODEL 4
REMARK VINA RESULT:    -3.338     13.595     16.448
REMARK INTER + INTRA:         -13.765
REMARK INTER:                  -8.344
REMARK INTRA:                  -5.421
REMARK UNBOUND:                -4.963
REMARK SMILES CCCCCCCCCCCCCCCCCCCCCCCCCCCCCC(=O)[O-]
REMARK SMILES IDX 16 1 17 2 18 3 19 4 20 5 21 6 22 7 23 8 24 9 25 10 26 11
REMARK SMILES IDX 27 12 28 13 29 14 30 15 31 16 32 17 15 18 14 19 13 20 12 21
REMARK SMILES IDX 11 22 10 23 9 24 8 25 7 26 6 27 5 28 4 29 3 30 2 31 1 32
REMARK H PARENT
REMARK Flexibility Score: inf
ROOT
ATOM      1  C   UNL     1      22.772  22.034  45.539  1.00  0.00     0.000 C 
ENDROOT
BRANCH   1   2
ATOM      2  C   UNL     1      21.624  22.618  44.703  1.00  0.00     0.000 C 
BRANCH   2   3
ATOM      3  C   UNL     1      22.057  22.821  43.244  1.00  0.00     0.000 C 
BRANCH   3   4
ATOM      4  C   UNL     1      21.507  21.739  42.295  1.00  0.00     0.000 C 
BRANCH   4   5
ATOM      5  C   UNL     1      21.519  22.111  40.799  1.00  0.00     0.000 C 
BRANCH   5   6
ATOM      6  C   UNL     1      20.448  21.368  39.987  1.00  0.00     0.000 C 
BRANCH   6   7
ATOM      7  C   UNL     1      19.753  20.294  40.837  1.00  0.00     0.000 C 
BRANCH   7   8
ATOM      8  C   UNL     1      18.444  19.798  40.202  1.00  0.00     0.000 C 
BRANCH   8   9
ATOM      9  C   UNL     1      17.217  20.062  41.095  1.00  0.00     0.000 C 
BRANCH   9  10
ATOM     10  C   UNL     1      17.168  21.506  41.623  1.00  0.00     0.000 C 
BRANCH  10  11
ATOM     11  C   UNL     1      16.932  21.633  43.142  1.00  0.00     0.000 C 
BRANCH  11  12
ATOM     12  C   UNL     1      17.853  20.729  43.989  1.00  0.00     0.000 C 
BRANCH  12  13
ATOM     13  C   UNL     1      17.062  19.694  44.804  1.00  0.00     0.006 C 
BRANCH  13  14
ATOM     14  C   UNL     1      17.674  19.503  46.194  1.00  0.00     0.053 C 
BRANCH  14  15
ATOM     15  C   UNL     1      17.002  18.373  46.909  1.00  0.00     0.041 C 
ATOM     16  O   UNL     1      17.396  18.025  48.054  1.00  0.00    -0.550 OA
ATOM     17  O   UNL     1      15.972  17.672  46.292  1.00  0.00    -0.550 OA
ENDBRANCH  14  15
ENDBRANCH  13  14
ENDBRANCH  12  13
ENDBRANCH  11  12
ENDBRANCH  10  11
ENDBRANCH   9  10
ENDBRANCH   8   9
ENDBRANCH   7   8
ENDBRANCH   6   7
ENDBRANCH   5   6
ENDBRANCH   4   5
ENDBRANCH   3   4
ENDBRANCH   2   3
ENDBRANCH   1   2
BRANCH   1  18
ATOM     18  C   UNL     1      22.426  20.669  46.153  1.00  0.00     0.000 C 
BRANCH  18  19
ATOM     19  C   UNL     1      21.025  20.171  45.749  1.00  0.00     0.000 C 
BRANCH  19  20
ATOM     20  C   UNL     1      21.079  18.976  44.777  1.00  0.00     0.000 C 
BRANCH  20  21
ATOM     21  C   UNL     1      22.500  18.599  44.311  1.00  0.00     0.000 C 
BRANCH  21  22
ATOM     22  C   UNL     1      22.696  17.139  43.851  1.00  0.00     0.000 C 
BRANCH  22  23
ATOM     23  C   UNL     1      22.819  16.932  42.323  1.00  0.00     0.000 C 
BRANCH  23  24
ATOM     24  C   UNL     1      22.648  18.214  41.485  1.00  0.00    -0.000 C 
BRANCH  24  25
ATOM     25  C   UNL     1      23.733  18.405  40.408  1.00  0.00    -0.000 C 
BRANCH  25  26
ATOM     26  C   UNL     1      24.188  19.873  40.302  1.00  0.00    -0.000 C 
BRANCH  26  27
ATOM     27  C   UNL     1      25.414  20.190  41.183  1.00  0.00    -0.000 C 
BRANCH  27  28
ATOM     28  C   UNL     1      25.066  20.641  42.614  1.00  0.00    -0.000 C 
BRANCH  28  29
ATOM     29  C   UNL     1      26.185  21.447  43.306  1.00  0.00    -0.000 C 
BRANCH  29  30
ATOM     30  C   UNL     1      26.660  20.769  44.604  1.00  0.00    -0.000 C 
BRANCH  30  31
ATOM     31  C   UNL     1      26.006  19.396  44.824  1.00  0.00    -0.003 C 
ATOM     32  C   UNL     1      25.561  19.179  46.270  1.00  0.00     0.004 C 
ENDBRANCH  30  31
ENDBRANCH  29  30
ENDBRANCH  28  29
ENDBRANCH  27  28
ENDBRANCH  26  27
ENDBRANCH  25  26
ENDBRANCH  24  25
ENDBRANCH  23  24
ENDBRANCH  22  23
ENDBRANCH  21  22
ENDBRANCH  20  21
ENDBRANCH  19  20
ENDBRANCH  18  19
ENDBRANCH   1  18
TORSDOF 28
ENDMDL
MODEL 5
REMARK VINA RESULT:    -3.315      1.185      2.527
REMARK INTER + INTRA:         -13.705
REMARK INTER:                  -8.885
REMARK INTRA:                  -4.819
REMARK UNBOUND:                -4.963
REMARK SMILES CCCCCCCCCCCCCCCCCCCCCCCCCCCCCC(=O)[O-]
REMARK SMILES IDX 16 1 17 2 18 3 19 4 20 5 21 6 22 7 23 8 24 9 25 10 26 11
REMARK SMILES IDX 27 12 28 13 29 14 30 15 31 16 32 17 15 18 14 19 13 20 12 21
REMARK SMILES IDX 11 22 10 23 9 24 8 25 7 26 6 27 5 28 4 29 3 30 2 31 1 32
REMARK H PARENT
REMARK Flexibility Score: inf
ROOT
ATOM      1  C   UNL     1      25.268  32.077  52.878  1.00  0.00     0.000 C 
ENDROOT
BRANCH   1   2
ATOM      2  C   UNL     1      24.879  31.582  54.279  1.00  0.00     0.000 C 
BRANCH   2   3
ATOM      3  C   UNL     1      24.150  30.233  54.200  1.00  0.00     0.000 C 
BRANCH   3   4
ATOM      4  C   UNL     1      24.748  29.167  55.139  1.00  0.00     0.000 C 
BRANCH   4   5
ATOM      5  C   UNL     1      24.704  29.516  56.639  1.00  0.00     0.000 C 
BRANCH   5   6
ATOM      6  C   UNL     1      24.537  28.282  57.538  1.00  0.00     0.000 C 
BRANCH   6   7
ATOM      7  C   UNL     1      23.058  27.886  57.666  1.00  0.00     0.000 C 
BRANCH   7   8
ATOM      8  C   UNL     1      22.212  28.980  58.337  1.00  0.00     0.000 C 
BRANCH   8   9
ATOM      9  C   UNL     1      20.895  29.251  57.587  1.00  0.00     0.000 C 
BRANCH   9  10
ATOM     10  C   UNL     1      21.095  30.119  56.332  1.00  0.00     0.000 C 
BRANCH  10  11
ATOM     11  C   UNL     1      20.005  29.959  55.253  1.00  0.00     0.000 C 
BRANCH  11  12
ATOM     12  C   UNL     1      19.963  28.552  54.620  1.00  0.00     0.000 C 
BRANCH  12  13
ATOM     13  C   UNL     1      18.545  28.155  54.179  1.00  0.00     0.006 C 
BRANCH  13  14
ATOM     14  C   UNL     1      17.487  28.957  54.939  1.00  0.00     0.053 C 
BRANCH  14  15
ATOM     15  C   UNL     1      16.189  28.213  54.969  1.00  0.00     0.041 C 
ATOM     16  O   UNL     1      16.153  27.019  55.371  1.00  0.00    -0.550 OA
ATOM     17  O   UNL     1      15.026  28.821  54.510  1.00  0.00    -0.550 OA
ENDBRANCH  14  15
ENDBRANCH  13  14
ENDBRANCH  12  13
ENDBRANCH  11  12
ENDBRANCH  10  11
ENDBRANCH   9  10
ENDBRANCH   8   9
ENDBRANCH   7   8
ENDBRANCH   6   7
ENDBRANCH   5   6
ENDBRANCH   4   5
ENDBRANCH   3   4
ENDBRANCH   2   3
ENDBRANCH   1   2
BRANCH   1  18
ATOM     18  C   UNL     1      25.615  33.573  52.852  1.00  0.00     0.000 C 
BRANCH  18  19
ATOM     19  C   UNL     1      26.758  33.938  53.818  1.00  0.00     0.000 C 
BRANCH  19  20
ATOM     20  C   UNL     1      28.151  33.654  53.221  1.00  0.00     0.000 C 
BRANCH  20  21
ATOM     21  C   UNL     1      29.327  34.041  54.141  1.00  0.00     0.000 C 
BRANCH  21  22
ATOM     22  C   UNL     1      30.721  33.546  53.702  1.00  0.00     0.000 C 
BRANCH  22  23
ATOM     23  C   UNL     1      31.253  32.302  54.450  1.00  0.00     0.000 C 
BRANCH  23  24
ATOM     24  C   UNL     1      31.653  31.126  53.539  1.00  0.00    -0.000 C 
BRANCH  24  25
ATOM     25  C   UNL     1      30.700  29.917  53.625  1.00  0.00    -0.000 C 
BRANCH  25  26
ATOM     26  C   UNL     1      29.386  30.165  52.859  1.00  0.00    -0.000 C 
BRANCH  26  27
ATOM     27  C   UNL     1      28.130  29.896  53.713  1.00  0.00    -0.000 C 
BRANCH  27  28
ATOM     28  C   UNL     1      28.403  29.789  55.225  1.00  0.00    -0.000 C 
BRANCH  28  29
ATOM     29  C   UNL     1      28.092  31.080  56.009  1.00  0.00    -0.000 C 
BRANCH  29  30
ATOM     30  C   UNL     1      29.075  31.294  57.174  1.00  0.00    -0.000 C 
BRANCH  30  31
ATOM     31  C   UNL     1      28.838  30.310  58.331  1.00  0.00    -0.003 C 
ATOM     32  C   UNL     1      27.477  30.503  59.000  1.00  0.00     0.004 C 
ENDBRANCH  30  31
ENDBRANCH  29  30
ENDBRANCH  28  29
ENDBRANCH  27  28
ENDBRANCH  26  27
ENDBRANCH  25  26
ENDBRANCH  24  25
ENDBRANCH  23  24
ENDBRANCH  22  23
ENDBRANCH  21  22
ENDBRANCH  20  21
ENDBRANCH  19  20
ENDBRANCH  18  19
ENDBRANCH   1  18
TORSDOF 28
ENDMDL
MODEL 6
REMARK VINA RESULT:    -3.306      3.429      7.637
REMARK INTER + INTRA:         -13.682
REMARK INTER:                  -7.928
REMARK INTRA:                  -5.753
REMARK UNBOUND:                -4.963
REMARK SMILES CCCCCCCCCCCCCCCCCCCCCCCCCCCCCC(=O)[O-]
REMARK SMILES IDX 16 1 17 2 18 3 19 4 20 5 21 6 22 7 23 8 24 9 25 10 26 11
REMARK SMILES IDX 27 12 28 13 29 14 30 15 31 16 32 17 15 18 14 19 13 20 12 21
REMARK SMILES IDX 11 22 10 23 9 24 8 25 7 26 6 27 5 28 4 29 3 30 2 31 1 32
REMARK H PARENT
REMARK Flexibility Score: inf
ROOT
ATOM      1  C   UNL     1      28.090  30.685  55.100  1.00  0.00     0.000 C 
ENDROOT
BRANCH   1   2
ATOM      2  C   UNL     1      28.129  29.167  54.865  1.00  0.00     0.000 C 
BRANCH   2   3
ATOM      3  C   UNL     1      27.719  28.826  53.425  1.00  0.00     0.000 C 
BRANCH   3   4
ATOM      4  C   UNL     1      28.444  29.685  52.371  1.00  0.00     0.000 C 
BRANCH   4   5
ATOM      5  C   UNL     1      29.950  29.396  52.214  1.00  0.00     0.000 C 
BRANCH   5   6
ATOM      6  C   UNL     1      30.593  30.175  51.057  1.00  0.00     0.000 C 
BRANCH   6   7
ATOM      7  C   UNL     1      29.534  30.932  50.241  1.00  0.00     0.000 C 
BRANCH   7   8
ATOM      8  C   UNL     1      30.150  31.998  49.321  1.00  0.00     0.000 C 
BRANCH   8   9
ATOM      9  C   UNL     1      29.167  33.137  48.995  1.00  0.00     0.000 C 
BRANCH   9  10
ATOM     10  C   UNL     1      28.606  33.047  47.566  1.00  0.00     0.000 C 
BRANCH  10  11
ATOM     11  C   UNL     1      27.067  33.061  47.470  1.00  0.00     0.000 C 
BRANCH  11  12
ATOM     12  C   UNL     1      26.365  33.261  48.831  1.00  0.00     0.000 C 
BRANCH  12  13
ATOM     13  C   UNL     1      25.570  32.019  49.262  1.00  0.00     0.006 C 
BRANCH  13  14
ATOM     14  C   UNL     1      24.536  31.631  48.203  1.00  0.00     0.053 C 
BRANCH  14  15
ATOM     15  C   UNL     1      23.274  31.156  48.854  1.00  0.00     0.041 C 
ATOM     16  O   UNL     1      22.158  31.589  48.462  1.00  0.00    -0.550 OA
ATOM     17  O   UNL     1      23.334  30.272  49.925  1.00  0.00    -0.550 OA
ENDBRANCH  14  15
ENDBRANCH  13  14
ENDBRANCH  12  13
ENDBRANCH  11  12
ENDBRANCH  10  11
ENDBRANCH   9  10
ENDBRANCH   8   9
ENDBRANCH   7   8
ENDBRANCH   6   7
ENDBRANCH   5   6
ENDBRANCH   4   5
ENDBRANCH   3   4
ENDBRANCH   2   3
ENDBRANCH   1   2
BRANCH   1  18
ATOM     18  C   UNL     1      28.742  31.096  56.429  1.00  0.00     0.000 C 
BRANCH  18  19
ATOM     19  C   UNL     1      29.941  32.043  56.238  1.00  0.00     0.000 C 
BRANCH  19  20
ATOM     20  C   UNL     1      31.091  31.391  55.445  1.00  0.00     0.000 C 
BRANCH  20  21
ATOM     21  C   UNL     1      31.414  32.085  54.107  1.00  0.00     0.000 C 
BRANCH  21  22
ATOM     22  C   UNL     1      30.822  33.497  53.917  1.00  0.00     0.000 C 
BRANCH  22  23
ATOM     23  C   UNL     1      29.763  33.632  52.799  1.00  0.00     0.000 C 
BRANCH  23  24
ATOM     24  C   UNL     1      28.306  33.706  53.298  1.00  0.00    -0.000 C 
BRANCH  24  25
ATOM     25  C   UNL     1      27.273  33.161  52.292  1.00  0.00    -0.000 C 
BRANCH  25  26
ATOM     26  C   UNL     1      25.829  33.491  52.715  1.00  0.00    -0.000 C 
BRANCH  26  27
ATOM     27  C   UNL     1      25.252  32.485  53.733  1.00  0.00    -0.000 C 
BRANCH  27  28
ATOM     28  C   UNL     1      24.858  31.126  53.126  1.00  0.00    -0.000 C 
BRANCH  28  29
ATOM     29  C   UNL     1      24.126  30.190  54.110  1.00  0.00    -0.000 C 
BRANCH  29  30
ATOM     30  C   UNL     1      24.381  30.586  55.575  1.00  0.00    -0.000 C 
BRANCH  30  31
ATOM     31  C   UNL     1      23.176  30.291  56.482  1.00  0.00    -0.003 C 
ATOM     32  C   UNL     1      21.921  29.919  55.693  1.00  0.00     0.004 C 
ENDBRANCH  30  31
ENDBRANCH  29  30
ENDBRANCH  28  29
ENDBRANCH  27  28
ENDBRANCH  26  27
ENDBRANCH  25  26
ENDBRANCH  24  25
ENDBRANCH  23  24
ENDBRANCH  22  23
ENDBRANCH  21  22
ENDBRANCH  20  21
ENDBRANCH  19  20
ENDBRANCH  18  19
ENDBRANCH   1  18
TORSDOF 28
ENDMDL
MODEL 7
REMARK VINA RESULT:    -3.286      3.103      6.351
REMARK INTER + INTRA:         -13.629
REMARK INTER:                  -8.997
REMARK INTRA:                  -4.632
REMARK UNBOUND:                -4.963
REMARK SMILES CCCCCCCCCCCCCCCCCCCCCCCCCCCCCC(=O)[O-]
REMARK SMILES IDX 16 1 17 2 18 3 19 4 20 5 21 6 22 7 23 8 24 9 25 10 26 11
REMARK SMILES IDX 27 12 28 13 29 14 30 15 31 16 32 17 15 18 14 19 13 20 12 21
REMARK SMILES IDX 11 22 10 23 9 24 8 25 7 26 6 27 5 28 4 29 3 30 2 31 1 32
REMARK H PARENT
REMARK Flexibility Score: inf
ROOT
ATOM      1  C   UNL     1      30.125  33.778  54.527  1.00  0.00     0.000 C 
ENDROOT
BRANCH   1   2
ATOM      2  C   UNL     1      30.829  33.083  53.351  1.00  0.00     0.000 C 
BRANCH   2   3
ATOM      3  C   UNL     1      31.425  31.737  53.788  1.00  0.00     0.000 C 
BRANCH   3   4
ATOM      4  C   UNL     1      31.127  31.395  55.261  1.00  0.00     0.000 C 
BRANCH   4   5
ATOM      5  C   UNL     1      30.193  30.189  55.478  1.00  0.00     0.000 C 
BRANCH   5   6
ATOM      6  C   UNL     1      29.368  29.836  54.231  1.00  0.00     0.000 C 
BRANCH   6   7
ATOM      7  C   UNL     1      27.864  30.002  54.496  1.00  0.00     0.000 C 
BRANCH   7   8
ATOM      8  C   UNL     1      27.566  30.443  55.938  1.00  0.00     0.000 C 
BRANCH   8   9
ATOM      9  C   UNL     1      26.226  29.891  56.459  1.00  0.00     0.000 C 
BRANCH   9  10
ATOM     10  C   UNL     1      25.165  29.765  55.351  1.00  0.00     0.000 C 
BRANCH  10  11
ATOM     11  C   UNL     1      24.004  30.776  55.447  1.00  0.00     0.000 C 
BRANCH  11  12
ATOM     12  C   UNL     1      22.646  30.127  55.790  1.00  0.00     0.000 C 
BRANCH  12  13
ATOM     13  C   UNL     1      22.395  30.071  57.304  1.00  0.00     0.006 C 
BRANCH  13  14
ATOM     14  C   UNL     1      21.040  29.431  57.615  1.00  0.00     0.053 C 
BRANCH  14  15
ATOM     15  C   UNL     1      20.755  29.496  59.082  1.00  0.00     0.041 C 
ATOM     16  O   UNL     1      20.804  30.600  59.688  1.00  0.00    -0.550 OA
ATOM     17  O   UNL     1      20.480  28.332  59.791  1.00  0.00    -0.550 OA
ENDBRANCH  14  15
ENDBRANCH  13  14
ENDBRANCH  12  13
ENDBRANCH  11  12
ENDBRANCH  10  11
ENDBRANCH   9  10
ENDBRANCH   8   9
ENDBRANCH   7   8
ENDBRANCH   6   7
ENDBRANCH   5   6
ENDBRANCH   4   5
ENDBRANCH   3   4
ENDBRANCH   2   3
ENDBRANCH   1   2
BRANCH   1  18
ATOM     18  C   UNL     1      28.786  34.414  54.124  1.00  0.00     0.000 C 
BRANCH  18  19
ATOM     19  C   UNL     1      27.918  33.482  53.258  1.00  0.00     0.000 C 
BRANCH  19  20
ATOM     20  C   UNL     1      26.485  33.328  53.805  1.00  0.00     0.000 C 
BRANCH  20  21
ATOM     21  C   UNL     1      25.413  33.095  52.721  1.00  0.00     0.000 C 
BRANCH  21  22
ATOM     22  C   UNL     1      25.325  31.664  52.153  1.00  0.00     0.000 C 
BRANCH  22  23
ATOM     23  C   UNL     1      25.504  31.541  50.621  1.00  0.00     0.000 C 
BRANCH  23  24
ATOM     24  C   UNL     1      25.681  32.884  49.886  1.00  0.00    -0.000 C 
BRANCH  24  25
ATOM     25  C   UNL     1      27.150  33.240  49.583  1.00  0.00    -0.000 C 
BRANCH  25  26
ATOM     26  C   UNL     1      28.064  32.001  49.625  1.00  0.00    -0.000 C 
BRANCH  26  27
ATOM     27  C   UNL     1      29.508  32.330  50.058  1.00  0.00    -0.000 C 
BRANCH  27  28
ATOM     28  C   UNL     1      30.514  32.416  48.896  1.00  0.00    -0.000 C 
BRANCH  28  29
ATOM     29  C   UNL     1      30.903  33.858  48.510  1.00  0.00    -0.000 C 
BRANCH  29  30
ATOM     30  C   UNL     1      30.639  34.144  47.021  1.00  0.00    -0.000 C 
BRANCH  30  31
ATOM     31  C   UNL     1      29.554  33.230  46.430  1.00  0.00    -0.003 C 
ATOM     32  C   UNL     1      28.266  33.982  46.096  1.00  0.00     0.004 C 
ENDBRANCH  30  31
ENDBRANCH  29  30
ENDBRANCH  28  29
ENDBRANCH  27  28
ENDBRANCH  26  27
ENDBRANCH  25  26
ENDBRANCH  24  25
ENDBRANCH  23  24
ENDBRANCH  22  23
ENDBRANCH  21  22
ENDBRANCH  20  21
ENDBRANCH  19  20
ENDBRANCH  18  19
ENDBRANCH   1  18
TORSDOF 28
ENDMDL
MODEL 8
REMARK VINA RESULT:    -3.265      2.971      6.190
REMARK INTER + INTRA:         -13.571
REMARK INTER:                  -7.601
REMARK INTRA:                  -5.970
REMARK UNBOUND:                -4.963
REMARK SMILES CCCCCCCCCCCCCCCCCCCCCCCCCCCCCC(=O)[O-]
REMARK SMILES IDX 16 1 17 2 18 3 19 4 20 5 21 6 22 7 23 8 24 9 25 10 26 11
REMARK SMILES IDX 27 12 28 13 29 14 30 15 31 16 32 17 15 18 14 19 13 20 12 21
REMARK SMILES IDX 11 22 10 23 9 24 8 25 7 26 6 27 5 28 4 29 3 30 2 31 1 32
REMARK H PARENT
REMARK Flexibility Score: inf
ROOT
ATOM      1  C   UNL     1      28.238  28.694  52.921  1.00  0.00     0.000 C 
ENDROOT
BRANCH   1   2
ATOM      2  C   UNL     1      29.748  28.782  53.192  1.00  0.00     0.000 C 
BRANCH   2   3
ATOM      3  C   UNL     1      30.271  30.199  52.915  1.00  0.00     0.000 C 
BRANCH   3   4
ATOM      4  C   UNL     1      31.733  30.400  53.361  1.00  0.00     0.000 C 
BRANCH   4   5
ATOM      5  C   UNL     1      31.991  31.658  54.213  1.00  0.00     0.000 C 
BRANCH   5   6
ATOM      6  C   UNL     1      31.620  31.468  55.691  1.00  0.00     0.000 C 
BRANCH   6   7
ATOM      7  C   UNL     1      30.334  32.231  56.043  1.00  0.00     0.000 C 
BRANCH   7   8
ATOM      8  C   UNL     1      29.443  31.458  57.030  1.00  0.00     0.000 C 
BRANCH   8   9
ATOM      9  C   UNL     1      28.730  30.263  56.371  1.00  0.00     0.000 C 
BRANCH   9  10
ATOM     10  C   UNL     1      27.316  30.035  56.930  1.00  0.00     0.000 C 
BRANCH  10  11
ATOM     11  C   UNL     1      26.573  28.818  56.339  1.00  0.00     0.000 C 
BRANCH  11  12
ATOM     12  C   UNL     1      25.065  28.794  56.669  1.00  0.00     0.000 C 
BRANCH  12  13
ATOM     13  C   UNL     1      24.439  30.197  56.628  1.00  0.00     0.006 C 
BRANCH  13  14
ATOM     14  C   UNL     1      22.919  30.126  56.785  1.00  0.00     0.053 C 
BRANCH  14  15
ATOM     15  C   UNL     1      22.332  29.189  55.775  1.00  0.00     0.041 C 
ATOM     16  O   UNL     1      21.718  28.156  56.152  1.00  0.00    -0.550 OA
ATOM     17  O   UNL     1      22.504  29.433  54.417  1.00  0.00    -0.550 OA
ENDBRANCH  14  15
ENDBRANCH  13  14
ENDBRANCH  12  13
ENDBRANCH  11  12
ENDBRANCH  10  11
ENDBRANCH   9  10
ENDBRANCH   8   9
ENDBRANCH   7   8
ENDBRANCH   6   7
ENDBRANCH   5   6
ENDBRANCH   4   5
ENDBRANCH   3   4
ENDBRANCH   2   3
ENDBRANCH   1   2
BRANCH   1  18
ATOM     18  C   UNL     1      27.554  30.070  52.917  1.00  0.00     0.000 C 
BRANCH  18  19
ATOM     19  C   UNL     1      26.021  29.974  52.811  1.00  0.00     0.000 C 
BRANCH  19  20
ATOM     20  C   UNL     1      25.318  31.297  53.175  1.00  0.00     0.000 C 
BRANCH  20  21
ATOM     21  C   UNL     1      26.145  32.227  54.085  1.00  0.00     0.000 C 
BRANCH  21  22
ATOM     22  C   UNL     1      26.552  33.584  53.475  1.00  0.00     0.000 C 
BRANCH  22  23
ATOM     23  C   UNL     1      27.865  34.194  54.019  1.00  0.00     0.000 C 
BRANCH  23  24
ATOM     24  C   UNL     1      29.127  33.828  53.213  1.00  0.00    -0.000 C 
BRANCH  24  25
ATOM     25  C   UNL     1      28.831  33.297  51.797  1.00  0.00    -0.000 C 
BRANCH  25  26
ATOM     26  C   UNL     1      30.112  33.168  50.951  1.00  0.00    -0.000 C 
BRANCH  26  27
ATOM     27  C   UNL     1      29.925  32.281  49.703  1.00  0.00    -0.000 C 
BRANCH  27  28
ATOM     28  C   UNL     1      28.456  32.011  49.332  1.00  0.00    -0.000 C 
BRANCH  28  29
ATOM     29  C   UNL     1      27.944  32.855  48.146  1.00  0.00    -0.000 C 
BRANCH  29  30
ATOM     30  C   UNL     1      26.515  33.374  48.387  1.00  0.00    -0.000 C 
BRANCH  30  31
ATOM     31  C   UNL     1      25.923  32.872  49.713  1.00  0.00    -0.003 C 
ATOM     32  C   UNL     1      24.718  31.952  49.511  1.00  0.00     0.004 C 
ENDBRANCH  30  31
ENDBRANCH  29  30
ENDBRANCH  28  29
ENDBRANCH  27  28
ENDBRANCH  26  27
ENDBRANCH  25  26
ENDBRANCH  24  25
ENDBRANCH  23  24
ENDBRANCH  22  23
ENDBRANCH  21  22
ENDBRANCH  20  21
ENDBRANCH  19  20
ENDBRANCH  18  19
ENDBRANCH   1  18
TORSDOF 28
ENDMDL
MODEL 9
REMARK VINA RESULT:    -3.247      6.195      8.707
REMARK INTER + INTRA:         -13.525
REMARK INTER:                  -7.216
REMARK INTRA:                  -6.309
REMARK UNBOUND:                -4.963
REMARK SMILES CCCCCCCCCCCCCCCCCCCCCCCCCCCCCC(=O)[O-]
REMARK SMILES IDX 16 1 17 2 18 3 19 4 20 5 21 6 22 7 23 8 24 9 25 10 26 11
REMARK SMILES IDX 27 12 28 13 29 14 30 15 31 16 32 17 15 18 14 19 13 20 12 21
REMARK SMILES IDX 11 22 10 23 9 24 8 25 7 26 6 27 5 28 4 29 3 30 2 31 1 32
REMARK H PARENT
REMARK Flexibility Score: inf
ROOT
ATOM      1  C   UNL     1      30.154  31.923  51.065  1.00  0.00     0.000 C 
ENDROOT
BRANCH   1   2
ATOM      2  C   UNL     1      29.496  33.251  51.468  1.00  0.00     0.000 C 
BRANCH   2   3
ATOM      3  C   UNL     1      30.036  33.742  52.819  1.00  0.00     0.000 C 
BRANCH   3   4
ATOM      4  C   UNL     1      28.921  34.110  53.817  1.00  0.00     0.000 C 
BRANCH   4   5
ATOM      5  C   UNL     1      27.701  33.168  53.814  1.00  0.00     0.000 C 
BRANCH   5   6
ATOM      6  C   UNL     1      26.365  33.916  53.703  1.00  0.00     0.000 C 
BRANCH   6   7
ATOM      7  C   UNL     1      25.361  33.133  52.842  1.00  0.00     0.000 C 
BRANCH   7   8
ATOM      8  C   UNL     1      26.041  32.066  51.969  1.00  0.00     0.000 C 
BRANCH   8   9
ATOM      9  C   UNL     1      25.202  31.694  50.732  1.00  0.00     0.000 C 
BRANCH   9  10
ATOM     10  C   UNL     1      25.271  32.760  49.626  1.00  0.00     0.000 C 
BRANCH  10  11
ATOM     11  C   UNL     1      26.682  33.318  49.349  1.00  0.00     0.000 C 
BRANCH  11  12
ATOM     12  C   UNL     1      27.438  32.561  48.236  1.00  0.00     0.000 C 
BRANCH  12  13
ATOM     13  C   UNL     1      28.687  33.320  47.763  1.00  0.00     0.006 C 
BRANCH  13  14
ATOM     14  C   UNL     1      29.823  32.353  47.419  1.00  0.00     0.053 C 
BRANCH  14  15
ATOM     15  C   UNL     1      31.148  32.965  47.749  1.00  0.00     0.041 C 
ATOM     16  O   UNL     1      32.213  32.341  47.498  1.00  0.00    -0.550 OA
ATOM     17  O   UNL     1      31.206  34.204  48.377  1.00  0.00    -0.550 OA
ENDBRANCH  14  15
ENDBRANCH  13  14
ENDBRANCH  12  13
ENDBRANCH  11  12
ENDBRANCH  10  11
ENDBRANCH   9  10
ENDBRANCH   8   9
ENDBRANCH   7   8
ENDBRANCH   6   7
ENDBRANCH   5   6
ENDBRANCH   4   5
ENDBRANCH   3   4
ENDBRANCH   2   3
ENDBRANCH   1   2
BRANCH   1  18
ATOM     18  C   UNL     1      29.157  30.755  51.022  1.00  0.00     0.000 C 
BRANCH  18  19
ATOM     19  C   UNL     1      29.553  29.597  51.957  1.00  0.00     0.000 C 
BRANCH  19  20
ATOM     20  C   UNL     1      30.003  30.086  53.348  1.00  0.00     0.000 C 
BRANCH  20  21
ATOM     21  C   UNL     1      31.474  29.773  53.686  1.00  0.00     0.000 C 
BRANCH  21  22
ATOM     22  C   UNL     1      32.340  30.975  54.118  1.00  0.00     0.000 C 
BRANCH  22  23
ATOM     23  C   UNL     1      32.273  31.340  55.619  1.00  0.00     0.000 C 
BRANCH  23  24
ATOM     24  C   UNL     1      31.282  32.471  55.961  1.00  0.00    -0.000 C 
BRANCH  24  25
ATOM     25  C   UNL     1      30.315  32.126  57.111  1.00  0.00    -0.000 C 
BRANCH  25  26
ATOM     26  C   UNL     1      29.602  30.780  56.880  1.00  0.00    -0.000 C 
BRANCH  26  27
ATOM     27  C   UNL     1      28.097  30.937  56.580  1.00  0.00    -0.000 C 
BRANCH  27  28
ATOM     28  C   UNL     1      27.403  29.638  56.130  1.00  0.00    -0.000 C 
BRANCH  28  29
ATOM     29  C   UNL     1      26.704  29.745  54.759  1.00  0.00    -0.000 C 
BRANCH  29  30
ATOM     30  C   UNL     1      26.638  28.384  54.043  1.00  0.00    -0.000 C 
BRANCH  30  31
ATOM     31  C   UNL     1      25.553  28.345  52.955  1.00  0.00    -0.003 C 
ATOM     32  C   UNL     1      26.134  28.238  51.545  1.00  0.00     0.004 C 
ENDBRANCH  30  31
ENDBRANCH  29  30
ENDBRANCH  28  29
ENDBRANCH  27  28
ENDBRANCH  26  27
ENDBRANCH  25  26
ENDBRANCH  24  25
ENDBRANCH  23  24
ENDBRANCH  22  23
ENDBRANCH  21  22
ENDBRANCH  20  21
ENDBRANCH  19  20
ENDBRANCH  18  19
ENDBRANCH   1  18
TORSDOF 28
ENDMDL
