MODEL 1
REMARK VINA RESULT:    -4.431      0.000      0.000
REMARK INTER + INTRA:         -13.993
REMARK INTER:                 -10.129
REMARK INTRA:                  -3.864
REMARK UNBOUND:                -3.864
REMARK SMILES CCCCCCCCCCCCCCCCCCCCCCCC(=O)[O-]
REMARK SMILES IDX 13 1 14 2 15 3 16 4 17 5 18 6 19 7 20 8 21 9 22 10 23 11
REMARK SMILES IDX 24 12 25 13 26 14 12 15 11 16 10 17 9 18 8 19 7 20 6 21 5 22
REMARK SMILES IDX 4 23 3 24 2 25 1 26
REMARK H PARENT
REMARK Flexibility Score: inf
ROOT
ATOM      1  C   UNL     1      14.650   4.166   0.729  1.00  0.00     0.000 C 
ENDROOT
BRANCH   1   2
ATOM      2  C   UNL     1      15.350   3.862  -0.607  1.00  0.00     0.000 C 
BRANCH   2   3
ATOM      3  C   UNL     1      16.295   2.649  -0.523  1.00  0.00     0.000 C 
BRANCH   3   4
ATOM      4  C   UNL     1      16.216   1.758  -1.772  1.00  0.00     0.000 C 
BRANCH   4   5
ATOM      5  C   UNL     1      15.229   0.592  -1.599  1.00  0.00     0.000 C 
BRANCH   5   6
ATOM      6  C   UNL     1      13.789   0.961  -1.995  1.00  0.00     0.000 C 
BRANCH   6   7
ATOM      7  C   UNL     1      12.712   0.108  -1.289  1.00  0.00     0.000 C 
BRANCH   7   8
ATOM      8  C   UNL     1      11.492   0.948  -0.872  1.00  0.00     0.000 C 
BRANCH   8   9
ATOM      9  C   UNL     1      11.752   2.460  -0.956  1.00  0.00     0.000 C 
BRANCH   9  10
ATOM     10  C   UNL     1      10.510   3.295  -0.606  1.00  0.00     0.006 C 
BRANCH  10  11
ATOM     11  C   UNL     1      10.309   3.372   0.911  1.00  0.00     0.053 C 
BRANCH  11  12
ATOM     12  C   UNL     1      10.421   4.787   1.382  1.00  0.00     0.041 C 
ATOM     13  O   UNL     1       9.542   5.633   1.067  1.00  0.00    -0.550 OA
ATOM     14  O   UNL     1      11.518   5.184   2.137  1.00  0.00    -0.550 OA
ENDBRANCH  11  12
ENDBRANCH  10  11
ENDBRANCH   9  10
ENDBRANCH   8   9
ENDBRANCH   7   8
ENDBRANCH   6   7
ENDBRANCH   5   6
ENDBRANCH   4   5
ENDBRANCH   3   4
ENDBRANCH   2   3
ENDBRANCH   1   2
BRANCH   1  15
ATOM     15  C   UNL     1      14.891   3.067   1.782  1.00  0.00     0.000 C 
BRANCH  15  16
ATOM     16  C   UNL     1      13.599   2.327   2.177  1.00  0.00     0.000 C 
BRANCH  16  17
ATOM     17  C   UNL     1      13.732   0.793   2.260  1.00  0.00     0.000 C 
BRANCH  17  18
ATOM     18  C   UNL     1      12.429   0.104   2.693  1.00  0.00    -0.000 C 
BRANCH  18  19
ATOM     19  C   UNL     1      12.628  -0.674   3.999  1.00  0.00    -0.000 C 
BRANCH  19  20
ATOM     20  C   UNL     1      13.977  -0.324   4.648  1.00  0.00    -0.000 C 
BRANCH  20  21
ATOM     21  C   UNL     1      13.816   0.391   5.999  1.00  0.00    -0.000 C 
BRANCH  21  22
ATOM     22  C   UNL     1      14.483   1.778   6.019  1.00  0.00    -0.000 C 
BRANCH  22  23
ATOM     23  C   UNL     1      15.777   1.823   5.189  1.00  0.00    -0.000 C 
BRANCH  23  24
ATOM     24  C   UNL     1      17.004   2.213   6.033  1.00  0.00    -0.000 C 
BRANCH  24  25
ATOM     25  C   UNL     1      17.497   1.063   6.924  1.00  0.00    -0.003 C 
ATOM     26  C   UNL     1      18.962   0.708   6.674  1.00  0.00     0.004 C 
ENDBRANCH  24  25
ENDBRANCH  23  24
ENDBRANCH  22  23
ENDBRANCH  21  22
ENDBRANCH  20  21
ENDBRANCH  19  20
ENDBRANCH  18  19
ENDBRANCH  17  18
ENDBRANCH  16  17
ENDBRANCH  15  16
ENDBRANCH   1  15
TORSDOF 22
ENDMDL
MODEL 2
REMARK VINA RESULT:    -4.410      1.381      2.707
REMARK INTER + INTRA:         -13.946
REMARK INTER:                  -9.910
REMARK INTRA:                  -4.036
REMARK UNBOUND:                -3.864
REMARK SMILES CCCCCCCCCCCCCCCCCCCCCCCC(=O)[O-]
REMARK SMILES IDX 13 1 14 2 15 3 16 4 17 5 18 6 19 7 20 8 21 9 22 10 23 11
REMARK SMILES IDX 24 12 25 13 26 14 12 15 11 16 10 17 9 18 8 19 7 20 6 21 5 22
REMARK SMILES IDX 4 23 3 24 2 25 1 26
REMARK H PARENT
REMARK Flexibility Score: inf
ROOT
ATOM      1  C   UNL     1      16.511   1.914  -1.408  1.00  0.00     0.000 C 
ENDROOT
BRANCH   1   2
ATOM      2  C   UNL     1      16.350   0.727  -2.373  1.00  0.00     0.000 C 
BRANCH   2   3
ATOM      3  C   UNL     1      14.889   0.259  -2.503  1.00  0.00     0.000 C 
BRANCH   3   4
ATOM      4  C   UNL     1      14.425  -0.558  -1.287  1.00  0.00     0.000 C 
BRANCH   4   5
ATOM      5  C   UNL     1      13.012  -0.165  -0.822  1.00  0.00     0.000 C 
BRANCH   5   6
ATOM      6  C   UNL     1      12.334   0.853  -1.754  1.00  0.00     0.000 C 
BRANCH   6   7
ATOM      7  C   UNL     1      11.574   1.971  -1.007  1.00  0.00     0.000 C 
BRANCH   7   8
ATOM      8  C   UNL     1      11.099   1.516   0.384  1.00  0.00     0.000 C 
BRANCH   8   9
ATOM      9  C   UNL     1      10.693   2.689   1.288  1.00  0.00     0.000 C 
BRANCH   9  10
ATOM     10  C   UNL     1      11.276   4.031   0.815  1.00  0.00     0.006 C 
BRANCH  10  11
ATOM     11  C   UNL     1      10.339   5.191   1.165  1.00  0.00     0.053 C 
BRANCH  11  12
ATOM     12  C   UNL     1       9.597   5.649  -0.050  1.00  0.00     0.041 C 
ATOM     13  O   UNL     1       9.642   4.974  -1.113  1.00  0.00    -0.550 OA
ATOM     14  O   UNL     1       8.884   6.842  -0.023  1.00  0.00    -0.550 OA
ENDBRANCH  11  12
ENDBRANCH  10  11
ENDBRANCH   9  10
ENDBRANCH   8   9
ENDBRANCH   7   8
ENDBRANCH   6   7
ENDBRANCH   5   6
ENDBRANCH   4   5
ENDBRANCH   3   4
ENDBRANCH   2   3
ENDBRANCH   1   2
BRANCH   1  15
ATOM     15  C   UNL     1      15.423   2.986  -1.606  1.00  0.00     0.000 C 
BRANCH  15  16
ATOM     16  C   UNL     1      14.813   3.470  -0.277  1.00  0.00     0.000 C 
BRANCH  16  17
ATOM     17  C   UNL     1      15.040   2.525   0.920  1.00  0.00     0.000 C 
BRANCH  17  18
ATOM     18  C   UNL     1      14.793   3.208   2.274  1.00  0.00    -0.000 C 
BRANCH  18  19
ATOM     19  C   UNL     1      13.852   2.371   3.147  1.00  0.00    -0.000 C 
BRANCH  19  20
ATOM     20  C   UNL     1      13.916   0.885   2.757  1.00  0.00    -0.000 C 
BRANCH  20  21
ATOM     21  C   UNL     1      13.303  -0.034   3.827  1.00  0.00    -0.000 C 
BRANCH  21  22
ATOM     22  C   UNL     1      14.368  -0.800   4.632  1.00  0.00    -0.000 C 
BRANCH  22  23
ATOM     23  C   UNL     1      15.703  -0.042   4.716  1.00  0.00    -0.000 C 
BRANCH  23  24
ATOM     24  C   UNL     1      16.371  -0.176   6.096  1.00  0.00    -0.000 C 
BRANCH  24  25
ATOM     25  C   UNL     1      16.880   1.167   6.639  1.00  0.00    -0.003 C 
ATOM     26  C   UNL     1      16.607   2.332   5.689  1.00  0.00     0.004 C 
ENDBRANCH  24  25
ENDBRANCH  23  24
ENDBRANCH  22  23
ENDBRANCH  21  22
ENDBRANCH  20  21
ENDBRANCH  19  20
ENDBRANCH  18  19
ENDBRANCH  17  18
ENDBRANCH  16  17
ENDBRANCH  15  16
ENDBRANCH   1  15
TORSDOF 22
ENDMDL
MODEL 3
REMARK VINA RESULT:    -4.323      1.123      1.961
REMARK INTER + INTRA:         -13.747
REMARK INTER:                 -10.863
REMARK INTRA:                  -2.884
REMARK UNBOUND:                -3.864
REMARK SMILES CCCCCCCCCCCCCCCCCCCCCCCC(=O)[O-]
REMARK SMILES IDX 13 1 14 2 15 3 16 4 17 5 18 6 19 7 20 8 21 9 22 10 23 11
REMARK SMILES IDX 24 12 25 13 26 14 12 15 11 16 10 17 9 18 8 19 7 20 6 21 5 22
REMARK SMILES IDX 4 23 3 24 2 25 1 26
REMARK H PARENT
REMARK Flexibility Score: inf
ROOT
ATOM      1  C   UNL     1      14.587   4.134   0.603  1.00  0.00     0.000 C 
ENDROOT
BRANCH   1   2
ATOM      2  C   UNL     1      15.331   3.851  -0.714  1.00  0.00     0.000 C 
BRANCH   2   3
ATOM      3  C   UNL     1      16.346   2.700  -0.590  1.00  0.00     0.000 C 
BRANCH   3   4
ATOM      4  C   UNL     1      16.142   1.620  -1.664  1.00  0.00     0.000 C 
BRANCH   4   5
ATOM      5  C   UNL     1      14.924   0.727  -1.374  1.00  0.00     0.000 C 
BRANCH   5   6
ATOM      6  C   UNL     1      13.916   0.691  -2.535  1.00  0.00     0.000 C 
BRANCH   6   7
ATOM      7  C   UNL     1      12.482   1.096  -2.127  1.00  0.00     0.000 C 
BRANCH   7   8
ATOM      8  C   UNL     1      12.399   1.514  -0.648  1.00  0.00     0.000 C 
BRANCH   8   9
ATOM      9  C   UNL     1      10.968   1.461  -0.094  1.00  0.00     0.000 C 
BRANCH   9  10
ATOM     10  C   UNL     1      10.577   2.744   0.658  1.00  0.00     0.006 C 
BRANCH  10  11
ATOM     11  C   UNL     1      10.487   3.937  -0.298  1.00  0.00     0.053 C 
BRANCH  11  12
ATOM     12  C   UNL     1       9.824   5.097   0.373  1.00  0.00     0.041 C 
ATOM     13  O   UNL     1       9.522   6.125  -0.288  1.00  0.00    -0.550 OA
ATOM     14  O   UNL     1       9.574   5.061   1.740  1.00  0.00    -0.550 OA
ENDBRANCH  11  12
ENDBRANCH  10  11
ENDBRANCH   9  10
ENDBRANCH   8   9
ENDBRANCH   7   8
ENDBRANCH   6   7
ENDBRANCH   5   6
ENDBRANCH   4   5
ENDBRANCH   3   4
ENDBRANCH   2   3
ENDBRANCH   1   2
BRANCH   1  15
ATOM     15  C   UNL     1      15.041   3.205   1.745  1.00  0.00     0.000 C 
BRANCH  15  16
ATOM     16  C   UNL     1      13.876   2.412   2.367  1.00  0.00     0.000 C 
BRANCH  16  17
ATOM     17  C   UNL     1      14.210   0.951   2.728  1.00  0.00     0.000 C 
BRANCH  17  18
ATOM     18  C   UNL     1      15.007   0.827   4.036  1.00  0.00    -0.000 C 
BRANCH  18  19
ATOM     19  C   UNL     1      14.252   1.475   5.202  1.00  0.00    -0.000 C 
BRANCH  19  20
ATOM     20  C   UNL     1      15.219   1.877   6.328  1.00  0.00    -0.000 C 
BRANCH  20  21
ATOM     21  C   UNL     1      16.521   2.498   5.796  1.00  0.00    -0.000 C 
BRANCH  21  22
ATOM     22  C   UNL     1      17.770   1.700   6.209  1.00  0.00    -0.000 C 
BRANCH  22  23
ATOM     23  C   UNL     1      17.424   0.424   6.994  1.00  0.00    -0.000 C 
BRANCH  23  24
ATOM     24  C   UNL     1      18.659  -0.452   7.268  1.00  0.00    -0.000 C 
BRANCH  24  25
ATOM     25  C   UNL     1      19.914   0.376   7.583  1.00  0.00    -0.003 C 
ATOM     26  C   UNL     1      19.967   0.838   9.038  1.00  0.00     0.004 C 
ENDBRANCH  24  25
ENDBRANCH  23  24
ENDBRANCH  22  23
ENDBRANCH  21  22
ENDBRANCH  20  21
ENDBRANCH  19  20
ENDBRANCH  18  19
ENDBRANCH  17  18
ENDBRANCH  16  17
ENDBRANCH  15  16
ENDBRANCH   1  15
TORSDOF 22
ENDMDL
MODEL 4
REMARK VINA RESULT:    -4.290      3.037      6.997
REMARK INTER + INTRA:         -13.671
REMARK INTER:                 -10.028
REMARK INTRA:                  -3.643
REMARK UNBOUND:                -3.864
REMARK SMILES CCCCCCCCCCCCCCCCCCCCCCCC(=O)[O-]
REMARK SMILES IDX 13 1 14 2 15 3 16 4 17 5 18 6 19 7 20 8 21 9 22 10 23 11
REMARK SMILES IDX 24 12 25 13 26 14 12 15 11 16 10 17 9 18 8 19 7 20 6 21 5 22
REMARK SMILES IDX 4 23 3 24 2 25 1 26
REMARK H PARENT
REMARK Flexibility Score: inf
ROOT
ATOM      1  C   UNL     1      11.370   5.226   1.848  1.00  0.00     0.000 C 
ENDROOT
BRANCH   1   2
ATOM      2  C   UNL     1      12.352   4.189   1.274  1.00  0.00     0.000 C 
BRANCH   2   3
ATOM      3  C   UNL     1      13.820   4.509   1.608  1.00  0.00     0.000 C 
BRANCH   3   4
ATOM      4  C   UNL     1      14.596   3.272   2.087  1.00  0.00     0.000 C 
BRANCH   4   5
ATOM      5  C   UNL     1      13.665   2.145   2.562  1.00  0.00     0.000 C 
BRANCH   5   6
ATOM      6  C   UNL     1      14.310   0.752   2.465  1.00  0.00     0.000 C 
BRANCH   6   7
ATOM      7  C   UNL     1      14.260  -0.051   3.784  1.00  0.00     0.000 C 
BRANCH   7   8
ATOM      8  C   UNL     1      13.538   0.721   4.902  1.00  0.00     0.000 C 
BRANCH   8   9
ATOM      9  C   UNL     1      14.280   0.655   6.246  1.00  0.00     0.000 C 
BRANCH   9  10
ATOM     10  C   UNL     1      15.116   1.914   6.524  1.00  0.00     0.006 C 
BRANCH  10  11
ATOM     11  C   UNL     1      16.462   1.852   5.795  1.00  0.00     0.053 C 
BRANCH  11  12
ATOM     12  C   UNL     1      17.426   0.990   6.547  1.00  0.00     0.041 C 
ATOM     13  O   UNL     1      17.672  -0.180   6.152  1.00  0.00    -0.550 OA
ATOM     14  O   UNL     1      18.025   1.465   7.708  1.00  0.00    -0.550 OA
ENDBRANCH  11  12
ENDBRANCH  10  11
ENDBRANCH   9  10
ENDBRANCH   8   9
ENDBRANCH   7   8
ENDBRANCH   6   7
ENDBRANCH   5   6
ENDBRANCH   4   5
ENDBRANCH   3   4
ENDBRANCH   2   3
ENDBRANCH   1   2
BRANCH   1  15
ATOM     15  C   UNL     1       9.900   4.862   1.567  1.00  0.00     0.000 C 
BRANCH  15  16
ATOM     16  C   UNL     1       9.350   5.541   0.298  1.00  0.00     0.000 C 
BRANCH  16  17
ATOM     17  C   UNL     1       9.352   4.653  -0.962  1.00  0.00     0.000 C 
BRANCH  17  18
ATOM     18  C   UNL     1       8.835   3.232  -0.692  1.00  0.00    -0.000 C 
BRANCH  18  19
ATOM     19  C   UNL     1       9.880   2.183  -1.088  1.00  0.00    -0.000 C 
BRANCH  19  20
ATOM     20  C   UNL     1      10.391   1.421   0.146  1.00  0.00    -0.000 C 
BRANCH  20  21
ATOM     21  C   UNL     1      11.569   0.488  -0.181  1.00  0.00    -0.000 C 
BRANCH  21  22
ATOM     22  C   UNL     1      12.184   0.772  -1.562  1.00  0.00    -0.000 C 
BRANCH  22  23
ATOM     23  C   UNL     1      13.621   1.311  -1.471  1.00  0.00    -0.000 C 
BRANCH  23  24
ATOM     24  C   UNL     1      13.722   2.791  -1.880  1.00  0.00    -0.000 C 
BRANCH  24  25
ATOM     25  C   UNL     1      15.121   3.377  -1.636  1.00  0.00    -0.003 C 
ATOM     26  C   UNL     1      16.122   2.334  -1.142  1.00  0.00     0.004 C 
ENDBRANCH  24  25
ENDBRANCH  23  24
ENDBRANCH  22  23
ENDBRANCH  21  22
ENDBRANCH  20  21
ENDBRANCH  19  20
ENDBRANCH  18  19
ENDBRANCH  17  18
ENDBRANCH  16  17
ENDBRANCH  15  16
ENDBRANCH   1  15
TORSDOF 22
ENDMDL
MODEL 5
REMARK VINA RESULT:    -4.261      1.183      2.145
REMARK INTER + INTRA:         -13.605
REMARK INTER:                  -9.831
REMARK INTRA:                  -3.774
REMARK UNBOUND:                -3.864
REMARK SMILES CCCCCCCCCCCCCCCCCCCCCCCC(=O)[O-]
REMARK SMILES IDX 13 1 14 2 15 3 16 4 17 5 18 6 19 7 20 8 21 9 22 10 23 11
REMARK SMILES IDX 24 12 25 13 26 14 12 15 11 16 10 17 9 18 8 19 7 20 6 21 5 22
REMARK SMILES IDX 4 23 3 24 2 25 1 26
REMARK H PARENT
REMARK Flexibility Score: inf
ROOT
ATOM      1  C   UNL     1      15.187   3.976  -0.560  1.00  0.00     0.000 C 
ENDROOT
BRANCH   1   2
ATOM      2  C   UNL     1      15.374   2.994  -1.730  1.00  0.00     0.000 C 
BRANCH   2   3
ATOM      3  C   UNL     1      15.769   1.580  -1.264  1.00  0.00     0.000 C 
BRANCH   3   4
ATOM      4  C   UNL     1      14.642   0.557  -1.477  1.00  0.00     0.000 C 
BRANCH   4   5
ATOM      5  C   UNL     1      13.570   1.061  -2.457  1.00  0.00     0.000 C 
BRANCH   5   6
ATOM      6  C   UNL     1      12.154   1.050  -1.858  1.00  0.00     0.000 C 
BRANCH   6   7
ATOM      7  C   UNL     1      11.880   2.218  -0.885  1.00  0.00     0.000 C 
BRANCH   7   8
ATOM      8  C   UNL     1      10.578   2.015  -0.092  1.00  0.00     0.000 C 
BRANCH   8   9
ATOM      9  C   UNL     1       9.322   2.108  -0.972  1.00  0.00     0.000 C 
BRANCH   9  10
ATOM     10  C   UNL     1       8.469   3.348  -0.658  1.00  0.00     0.006 C 
BRANCH  10  11
ATOM     11  C   UNL     1       9.042   4.596  -1.336  1.00  0.00     0.053 C 
BRANCH  11  12
ATOM     12  C   UNL     1       9.331   5.657  -0.322  1.00  0.00     0.041 C 
ATOM     13  O   UNL     1       8.917   6.833  -0.498  1.00  0.00    -0.550 OA
ATOM     14  O   UNL     1      10.091   5.357   0.802  1.00  0.00    -0.550 OA
ENDBRANCH  11  12
ENDBRANCH  10  11
ENDBRANCH   9  10
ENDBRANCH   8   9
ENDBRANCH   7   8
ENDBRANCH   6   7
ENDBRANCH   5   6
ENDBRANCH   4   5
ENDBRANCH   3   4
ENDBRANCH   2   3
ENDBRANCH   1   2
BRANCH   1  15
ATOM     15  C   UNL     1      15.335   3.291   0.812  1.00  0.00     0.000 C 
BRANCH  15  16
ATOM     16  C   UNL     1      14.245   3.718   1.813  1.00  0.00     0.000 C 
BRANCH  16  17
ATOM     17  C   UNL     1      13.535   2.554   2.532  1.00  0.00     0.000 C 
BRANCH  17  18
ATOM     18  C   UNL     1      14.205   1.196   2.273  1.00  0.00    -0.000 C 
BRANCH  18  19
ATOM     19  C   UNL     1      13.159   0.118   1.964  1.00  0.00    -0.000 C 
BRANCH  19  20
ATOM     20  C   UNL     1      12.262  -0.144   3.185  1.00  0.00    -0.000 C 
BRANCH  20  21
ATOM     21  C   UNL     1      13.051  -0.661   4.399  1.00  0.00    -0.000 C 
BRANCH  21  22
ATOM     22  C   UNL     1      12.487  -0.146   5.735  1.00  0.00    -0.000 C 
BRANCH  22  23
ATOM     23  C   UNL     1      13.580   0.412   6.661  1.00  0.00    -0.000 C 
BRANCH  23  24
ATOM     24  C   UNL     1      14.049   1.817   6.241  1.00  0.00    -0.000 C 
BRANCH  24  25
ATOM     25  C   UNL     1      15.505   1.832   5.752  1.00  0.00    -0.003 C 
ATOM     26  C   UNL     1      16.411   0.908   6.563  1.00  0.00     0.004 C 
ENDBRANCH  24  25
ENDBRANCH  23  24
ENDBRANCH  22  23
ENDBRANCH  21  22
ENDBRANCH  20  21
ENDBRANCH  19  20
ENDBRANCH  18  19
ENDBRANCH  17  18
ENDBRANCH  16  17
ENDBRANCH  15  16
ENDBRANCH   1  15
TORSDOF 22
ENDMDL
MODEL 6
REMARK VINA RESULT:    -4.217      2.124      4.063
REMARK INTER + INTRA:         -13.505
REMARK INTER:                  -9.581
REMARK INTRA:                  -3.925
REMARK UNBOUND:                -3.864
REMARK SMILES CCCCCCCCCCCCCCCCCCCCCCCC(=O)[O-]
REMARK SMILES IDX 13 1 14 2 15 3 16 4 17 5 18 6 19 7 20 8 21 9 22 10 23 11
REMARK SMILES IDX 24 12 25 13 26 14 12 15 11 16 10 17 9 18 8 19 7 20 6 21 5 22
REMARK SMILES IDX 4 23 3 24 2 25 1 26
REMARK H PARENT
REMARK Flexibility Score: inf
ROOT
ATOM      1  C   UNL     1      12.300   4.466   2.047  1.00  0.00     0.000 C 
ENDROOT
BRANCH   1   2
ATOM      2  C   UNL     1      11.215   4.893   1.043  1.00  0.00     0.000 C 
BRANCH   2   3
ATOM      3  C   UNL     1       9.803   4.894   1.656  1.00  0.00     0.000 C 
BRANCH   3   4
ATOM      4  C   UNL     1       8.777   4.176   0.765  1.00  0.00     0.000 C 
BRANCH   4   5
ATOM      5  C   UNL     1       9.332   3.865  -0.635  1.00  0.00     0.000 C 
BRANCH   5   6
ATOM      6  C   UNL     1       9.403   2.358  -0.932  1.00  0.00     0.000 C 
BRANCH   6   7
ATOM      7  C   UNL     1       9.902   1.512   0.260  1.00  0.00     0.000 C 
BRANCH   7   8
ATOM      8  C   UNL     1      11.408   1.213   0.166  1.00  0.00     0.000 C 
BRANCH   8   9
ATOM      9  C   UNL     1      11.797   0.513  -1.145  1.00  0.00     0.000 C 
BRANCH   9  10
ATOM     10  C   UNL     1      13.210   0.888  -1.620  1.00  0.00     0.006 C 
BRANCH  10  11
ATOM     11  C   UNL     1      13.321   2.393  -1.883  1.00  0.00     0.053 C 
BRANCH  11  12
ATOM     12  C   UNL     1      14.715   2.868  -1.626  1.00  0.00     0.041 C 
ATOM     13  O   UNL     1      15.011   4.083  -1.779  1.00  0.00    -0.550 OA
ATOM     14  O   UNL     1      15.702   1.962  -1.253  1.00  0.00    -0.550 OA
ENDBRANCH  11  12
ENDBRANCH  10  11
ENDBRANCH   9  10
ENDBRANCH   8   9
ENDBRANCH   7   8
ENDBRANCH   6   7
ENDBRANCH   5   6
ENDBRANCH   4   5
ENDBRANCH   3   4
ENDBRANCH   2   3
ENDBRANCH   1   2
BRANCH   1  15
ATOM     15  C   UNL     1      13.723   4.628   1.479  1.00  0.00     0.000 C 
BRANCH  15  16
ATOM     16  C   UNL     1      14.685   3.524   1.958  1.00  0.00     0.000 C 
BRANCH  16  17
ATOM     17  C   UNL     1      14.006   2.347   2.687  1.00  0.00     0.000 C 
BRANCH  17  18
ATOM     18  C   UNL     1      14.390   0.981   2.100  1.00  0.00    -0.000 C 
BRANCH  18  19
ATOM     19  C   UNL     1      13.680  -0.156   2.845  1.00  0.00    -0.000 C 
BRANCH  19  20
ATOM     20  C   UNL     1      12.721   0.400   3.911  1.00  0.00    -0.000 C 
BRANCH  20  21
ATOM     21  C   UNL     1      12.596  -0.524   5.133  1.00  0.00    -0.000 C 
BRANCH  21  22
ATOM     22  C   UNL     1      12.772   0.227   6.464  1.00  0.00    -0.000 C 
BRANCH  22  23
ATOM     23  C   UNL     1      13.646   1.484   6.322  1.00  0.00    -0.000 C 
BRANCH  23  24
ATOM     24  C   UNL     1      15.130   1.208   6.625  1.00  0.00    -0.000 C 
BRANCH  24  25
ATOM     25  C   UNL     1      16.046   1.534   5.437  1.00  0.00    -0.003 C 
ATOM     26  C   UNL     1      16.949   2.738   5.699  1.00  0.00     0.004 C 
ENDBRANCH  24  25
ENDBRANCH  23  24
ENDBRANCH  22  23
ENDBRANCH  21  22
ENDBRANCH  20  21
ENDBRANCH  19  20
ENDBRANCH  18  19
ENDBRANCH  17  18
ENDBRANCH  16  17
ENDBRANCH  15  16
ENDBRANCH   1  15
TORSDOF 22
ENDMDL
MODEL 7
REMARK VINA RESULT:    -4.185      2.972      7.207
REMARK INTER + INTRA:         -13.432
REMARK INTER:                  -9.753
REMARK INTRA:                  -3.680
REMARK UNBOUND:                -3.864
REMARK SMILES CCCCCCCCCCCCCCCCCCCCCCCC(=O)[O-]
REMARK SMILES IDX 13 1 14 2 15 3 16 4 17 5 18 6 19 7 20 8 21 9 22 10 23 11
REMARK SMILES IDX 24 12 25 13 26 14 12 15 11 16 10 17 9 18 8 19 7 20 6 21 5 22
REMARK SMILES IDX 4 23 3 24 2 25 1 26
REMARK H PARENT
REMARK Flexibility Score: inf
ROOT
ATOM      1  C   UNL     1      13.289   1.333  -2.491  1.00  0.00     0.000 C 
ENDROOT
BRANCH   1   2
ATOM      2  C   UNL     1      12.075   0.686  -1.803  1.00  0.00     0.000 C 
BRANCH   2   3
ATOM      3  C   UNL     1      12.458  -0.109  -0.541  1.00  0.00     0.000 C 
BRANCH   3   4
ATOM      4  C   UNL     1      11.229  -0.546   0.272  1.00  0.00     0.000 C 
BRANCH   4   5
ATOM      5  C   UNL     1      11.527  -0.642   1.777  1.00  0.00     0.000 C 
BRANCH   5   6
ATOM      6  C   UNL     1      12.696   0.255   2.217  1.00  0.00     0.000 C 
BRANCH   6   7
ATOM      7  C   UNL     1      13.290  -0.126   3.591  1.00  0.00     0.000 C 
BRANCH   7   8
ATOM      8  C   UNL     1      14.701   0.453   3.790  1.00  0.00     0.000 C 
BRANCH   8   9
ATOM      9  C   UNL     1      14.711   1.708   4.677  1.00  0.00     0.000 C 
BRANCH   9  10
ATOM     10  C   UNL     1      16.133   2.199   4.992  1.00  0.00     0.006 C 
BRANCH  10  11
ATOM     11  C   UNL     1      16.404   2.169   6.499  1.00  0.00     0.053 C 
BRANCH  11  12
ATOM     12  C   UNL     1      17.419   1.121   6.828  1.00  0.00     0.041 C 
ATOM     13  O   UNL     1      17.469   0.054   6.161  1.00  0.00    -0.550 OA
ATOM     14  O   UNL     1      18.286   1.304   7.899  1.00  0.00    -0.550 OA
ENDBRANCH  11  12
ENDBRANCH  10  11
ENDBRANCH   9  10
ENDBRANCH   8   9
ENDBRANCH   7   8
ENDBRANCH   6   7
ENDBRANCH   5   6
ENDBRANCH   4   5
ENDBRANCH   3   4
ENDBRANCH   2   3
ENDBRANCH   1   2
BRANCH   1  15
ATOM     15  C   UNL     1      14.603   0.586  -2.190  1.00  0.00     0.000 C 
BRANCH  15  16
ATOM     16  C   UNL     1      15.716   1.520  -1.677  1.00  0.00     0.000 C 
BRANCH  16  17
ATOM     17  C   UNL     1      15.354   3.018  -1.680  1.00  0.00     0.000 C 
BRANCH  17  18
ATOM     18  C   UNL     1      15.782   3.737  -0.391  1.00  0.00    -0.000 C 
BRANCH  18  19
ATOM     19  C   UNL     1      15.117   3.105   0.837  1.00  0.00    -0.000 C 
BRANCH  19  20
ATOM     20  C   UNL     1      14.393   4.168   1.680  1.00  0.00    -0.000 C 
BRANCH  20  21
ATOM     21  C   UNL     1      12.919   3.815   1.938  1.00  0.00    -0.000 C 
BRANCH  21  22
ATOM     22  C   UNL     1      12.167   3.434   0.650  1.00  0.00    -0.000 C 
BRANCH  22  23
ATOM     23  C   UNL     1      10.653   3.288   0.871  1.00  0.00    -0.000 C 
BRANCH  23  24
ATOM     24  C   UNL     1       9.833   4.236  -0.022  1.00  0.00    -0.000 C 
BRANCH  24  25
ATOM     25  C   UNL     1       9.104   3.499  -1.155  1.00  0.00    -0.003 C 
ATOM     26  C   UNL     1       8.721   2.068  -0.779  1.00  0.00     0.004 C 
ENDBRANCH  24  25
ENDBRANCH  23  24
ENDBRANCH  22  23
ENDBRANCH  21  22
ENDBRANCH  20  21
ENDBRANCH  19  20
ENDBRANCH  18  19
ENDBRANCH  17  18
ENDBRANCH  16  17
ENDBRANCH  15  16
ENDBRANCH   1  15
TORSDOF 22
ENDMDL
MODEL 8
REMARK VINA RESULT:    -4.153      2.516      6.764
REMARK INTER + INTRA:         -13.358
REMARK INTER:                  -9.109
REMARK INTRA:                  -4.250
REMARK UNBOUND:                -3.864
REMARK SMILES CCCCCCCCCCCCCCCCCCCCCCCC(=O)[O-]
REMARK SMILES IDX 13 1 14 2 15 3 16 4 17 5 18 6 19 7 20 8 21 9 22 10 23 11
REMARK SMILES IDX 24 12 25 13 26 14 12 15 11 16 10 17 9 18 8 19 7 20 6 21 5 22
REMARK SMILES IDX 4 23 3 24 2 25 1 26
REMARK H PARENT
REMARK Flexibility Score: inf
ROOT
ATOM      1  C   UNL     1      11.982   4.879   2.118  1.00  0.00     0.000 C 
ENDROOT
BRANCH   1   2
ATOM      2  C   UNL     1      10.917   4.582   1.048  1.00  0.00     0.000 C 
BRANCH   2   3
ATOM      3  C   UNL     1       9.670   3.887   1.626  1.00  0.00     0.000 C 
BRANCH   3   4
ATOM      4  C   UNL     1       9.153   2.761   0.717  1.00  0.00     0.000 C 
BRANCH   4   5
ATOM      5  C   UNL     1       9.398   1.366   1.315  1.00  0.00     0.000 C 
BRANCH   5   6
ATOM      6  C   UNL     1      10.831   1.181   1.843  1.00  0.00     0.000 C 
BRANCH   6   7
ATOM      7  C   UNL     1      11.222  -0.294   2.079  1.00  0.00     0.000 C 
BRANCH   7   8
ATOM      8  C   UNL     1      12.734  -0.462   2.303  1.00  0.00     0.000 C 
BRANCH   8   9
ATOM      9  C   UNL     1      13.428   0.851   2.697  1.00  0.00     0.000 C 
BRANCH   9  10
ATOM     10  C   UNL     1      14.707   0.622   3.518  1.00  0.00     0.006 C 
BRANCH  10  11
ATOM     11  C   UNL     1      15.382   1.952   3.866  1.00  0.00     0.053 C 
BRANCH  11  12
ATOM     12  C   UNL     1      15.722   2.001   5.322  1.00  0.00     0.041 C 
ATOM     13  O   UNL     1      16.925   2.067   5.691  1.00  0.00    -0.550 OA
ATOM     14  O   UNL     1      14.713   1.934   6.275  1.00  0.00    -0.550 OA
ENDBRANCH  11  12
ENDBRANCH  10  11
ENDBRANCH   9  10
ENDBRANCH   8   9
ENDBRANCH   7   8
ENDBRANCH   6   7
ENDBRANCH   5   6
ENDBRANCH   4   5
ENDBRANCH   3   4
ENDBRANCH   2   3
ENDBRANCH   1   2
BRANCH   1  15
ATOM     15  C   UNL     1      13.404   4.513   1.650  1.00  0.00     0.000 C 
BRANCH  15  16
ATOM     16  C   UNL     1      13.406   3.545   0.452  1.00  0.00     0.000 C 
BRANCH  16  17
ATOM     17  C   UNL     1      14.300   3.980  -0.727  1.00  0.00     0.000 C 
BRANCH  17  18
ATOM     18  C   UNL     1      15.795   3.750  -0.460  1.00  0.00    -0.000 C 
BRANCH  18  19
ATOM     19  C   UNL     1      16.112   2.252  -0.374  1.00  0.00    -0.000 C 
BRANCH  19  20
ATOM     20  C   UNL     1      16.380   1.665  -1.770  1.00  0.00    -0.000 C 
BRANCH  20  21
ATOM     21  C   UNL     1      15.426   0.511  -2.119  1.00  0.00    -0.000 C 
BRANCH  21  22
ATOM     22  C   UNL     1      14.540   0.095  -0.931  1.00  0.00    -0.000 C 
BRANCH  22  23
ATOM     23  C   UNL     1      13.109  -0.269  -1.360  1.00  0.00    -0.000 C 
BRANCH  23  24
ATOM     24  C   UNL     1      12.180   0.956  -1.413  1.00  0.00    -0.000 C 
BRANCH  24  25
ATOM     25  C   UNL     1      10.840   0.652  -2.099  1.00  0.00    -0.003 C 
ATOM     26  C   UNL     1      10.233  -0.676  -1.650  1.00  0.00     0.004 C 
ENDBRANCH  24  25
ENDBRANCH  23  24
ENDBRANCH  22  23
ENDBRANCH  21  22
ENDBRANCH  20  21
ENDBRANCH  19  20
ENDBRANCH  18  19
ENDBRANCH  17  18
ENDBRANCH  16  17
ENDBRANCH  15  16
ENDBRANCH   1  15
TORSDOF 22
ENDMDL
MODEL 9
REMARK VINA RESULT:    -4.083      2.510      5.206
REMARK INTER + INTRA:         -13.198
REMARK INTER:                  -9.628
REMARK INTRA:                  -3.570
REMARK UNBOUND:                -3.864
REMARK SMILES CCCCCCCCCCCCCCCCCCCCCCCC(=O)[O-]
REMARK SMILES IDX 13 1 14 2 15 3 16 4 17 5 18 6 19 7 20 8 21 9 22 10 23 11
REMARK SMILES IDX 24 12 25 13 26 14 12 15 11 16 10 17 9 18 8 19 7 20 6 21 5 22
REMARK SMILES IDX 4 23 3 24 2 25 1 26
REMARK H PARENT
REMARK Flexibility Score: inf
ROOT
ATOM      1  C   UNL     1       8.949   3.657  -0.962  1.00  0.00     0.000 C 
ENDROOT
BRANCH   1   2
ATOM      2  C   UNL     1       8.058   4.368   0.071  1.00  0.00     0.000 C 
BRANCH   2   3
ATOM      3  C   UNL     1       8.848   5.331   0.977  1.00  0.00     0.000 C 
BRANCH   3   4
ATOM      4  C   UNL     1       9.960   4.617   1.761  1.00  0.00     0.000 C 
BRANCH   4   5
ATOM      5  C   UNL     1      11.362   5.116   1.375  1.00  0.00     0.000 C 
BRANCH   5   6
ATOM      6  C   UNL     1      12.491   4.284   2.006  1.00  0.00     0.000 C 
BRANCH   6   7
ATOM      7  C   UNL     1      13.907   4.741   1.592  1.00  0.00     0.000 C 
BRANCH   7   8
ATOM      8  C   UNL     1      14.588   3.732   0.651  1.00  0.00     0.000 C 
BRANCH   8   9
ATOM      9  C   UNL     1      14.268   3.988  -0.830  1.00  0.00     0.000 C 
BRANCH   9  10
ATOM     10  C   UNL     1      14.478   2.742  -1.705  1.00  0.00     0.006 C 
BRANCH  10  11
ATOM     11  C   UNL     1      14.713   1.497  -0.843  1.00  0.00     0.053 C 
BRANCH  11  12
ATOM     12  C   UNL     1      14.628   0.259  -1.677  1.00  0.00     0.041 C 
ATOM     13  O   UNL     1      15.396   0.105  -2.664  1.00  0.00    -0.550 OA
ATOM     14  O   UNL     1      13.675  -0.710  -1.390  1.00  0.00    -0.550 OA
ENDBRANCH  11  12
ENDBRANCH  10  11
ENDBRANCH   9  10
ENDBRANCH   8   9
ENDBRANCH   7   8
ENDBRANCH   6   7
ENDBRANCH   5   6
ENDBRANCH   4   5
ENDBRANCH   3   4
ENDBRANCH   2   3
ENDBRANCH   1   2
BRANCH   1  15
ATOM     15  C   UNL     1       8.655   2.147  -1.052  1.00  0.00     0.000 C 
BRANCH  15  16
ATOM     16  C   UNL     1       9.920   1.307  -1.310  1.00  0.00     0.000 C 
BRANCH  16  17
ATOM     17  C   UNL     1      11.084   1.577  -0.335  1.00  0.00     0.000 C 
BRANCH  17  18
ATOM     18  C   UNL     1      10.815   1.040   1.079  1.00  0.00    -0.000 C 
BRANCH  18  19
ATOM     19  C   UNL     1      11.998   0.206   1.583  1.00  0.00    -0.000 C 
BRANCH  19  20
ATOM     20  C   UNL     1      12.789   0.967   2.660  1.00  0.00    -0.000 C 
BRANCH  20  21
ATOM     21  C   UNL     1      14.272   0.564   2.700  1.00  0.00    -0.000 C 
BRANCH  21  22
ATOM     22  C   UNL     1      15.106   1.464   3.630  1.00  0.00    -0.000 C 
BRANCH  22  23
ATOM     23  C   UNL     1      14.399   1.751   4.964  1.00  0.00    -0.000 C 
BRANCH  23  24
ATOM     24  C   UNL     1      15.256   1.359   6.181  1.00  0.00    -0.000 C 
BRANCH  24  25
ATOM     25  C   UNL     1      16.613   2.078   6.204  1.00  0.00    -0.003 C 
ATOM     26  C   UNL     1      17.667   1.326   7.015  1.00  0.00     0.004 C 
ENDBRANCH  24  25
ENDBRANCH  23  24
ENDBRANCH  22  23
ENDBRANCH  21  22
ENDBRANCH  20  21
ENDBRANCH  19  20
ENDBRANCH  18  19
ENDBRANCH  17  18
ENDBRANCH  16  17
ENDBRANCH  15  16
ENDBRANCH   1  15
TORSDOF 22
ENDMDL
