MODEL 1
REMARK VINA RESULT:    -7.322      0.000      0.000
REMARK INTER + INTRA:          -9.148
REMARK INTER:                  -8.820
REMARK INTRA:                  -0.328
REMARK UNBOUND:                -0.328
REMARK SMILES O=c1c(O)c(-c2ccc(O)c(O)c2)oc2cc(O)cc(O)c12
REMARK SMILES IDX 5 1 3 2 2 3 1 4 22 5 20 6 19 7 17 8 16 9 15 10 14 11 6 12
REMARK SMILES IDX 7 13 8 14 9 15 13 16 11 17 10 18 12 20 4 22 21 24 18 26
REMARK H PARENT 10 19 12 21 4 23 21 25 18 27
REMARK Flexibility Score: inf
ROOT
ATOM      1  C   UNL     1     -24.490  81.592  78.046  1.00  0.00     0.180 A 
ATOM      2  C   UNL     1     -25.707  81.380  77.375  1.00  0.00     0.208 A 
ATOM      3  C   UNL     1     -26.125  82.313  76.414  1.00  0.00     0.238 A 
ATOM      4  O   UNL     1     -27.189  82.089  75.778  1.00  0.00    -0.285 OA
ATOM      5  C   UNL     1     -25.331  83.453  76.146  1.00  0.00     0.111 A 
ATOM      6  C   UNL     1     -25.679  84.483  75.220  1.00  0.00     0.134 A 
ATOM      7  C   UNL     1     -24.755  85.499  74.940  1.00  0.00     0.093 A 
ATOM      8  C   UNL     1     -23.526  85.557  75.600  1.00  0.00     0.123 A 
ATOM      9  C   UNL     1     -23.203  84.589  76.548  1.00  0.00     0.094 A 
ATOM     10  C   UNL     1     -24.087  83.544  76.823  1.00  0.00     0.146 A 
ATOM     11  O   UNL     1     -23.736  82.636  77.726  1.00  0.00    -0.452 OA
ENDROOT
BRANCH   1  12
ATOM     12  C   UNL     1     -23.994  80.666  79.091  1.00  0.00     0.025 A 
ATOM     13  C   UNL     1     -23.164  79.595  78.726  1.00  0.00     0.016 A 
ATOM     14  C   UNL     1     -22.668  78.721  79.698  1.00  0.00     0.051 A 
ATOM     15  C   UNL     1     -22.983  78.917  81.049  1.00  0.00     0.157 A 
ATOM     16  C   UNL     1     -24.290  80.871  80.451  1.00  0.00     0.062 A 
ATOM     17  C   UNL     1     -23.791  79.996  81.426  1.00  0.00     0.158 A 
BRANCH  15  18
ATOM     18  O   UNL     1     -22.491  78.048  82.021  1.00  0.00    -0.504 OA
ATOM     19  H   UNL     1     -21.519  77.762  82.034  1.00  0.00     0.293 HD
ENDBRANCH  15  18
BRANCH  17  20
ATOM     20  O   UNL     1     -24.091  80.196  82.773  1.00  0.00    -0.504 OA
ATOM     21  H   UNL     1     -23.532  79.779  83.509  1.00  0.00     0.293 HD
ENDBRANCH  17  20
ENDBRANCH   1  12
BRANCH   2  22
ATOM     22  O   UNL     1     -26.465  80.236  77.640  1.00  0.00    -0.502 OA
ATOM     23  H   UNL     1     -27.169  80.205  78.368  1.00  0.00     0.293 HD
ENDBRANCH   2  22
BRANCH   6  24
ATOM     24  O   UNL     1     -26.916  84.570  74.577  1.00  0.00    -0.507 OA
ATOM     25  H   UNL     1     -27.652  83.883  74.650  1.00  0.00     0.293 HD
ENDBRANCH   6  24
BRANCH   8  26
ATOM     26  O   UNL     1     -22.620  86.580  75.325  1.00  0.00    -0.508 OA
ATOM     27  H   UNL     1     -22.545  86.987  74.400  1.00  0.00     0.293 HD
ENDBRANCH   8  26
TORSDOF 6
ENDMDL
MODEL 2
REMARK VINA RESULT:    -7.006      1.325      3.113
REMARK INTER + INTRA:          -8.768
REMARK INTER:                  -8.444
REMARK INTRA:                  -0.323
REMARK UNBOUND:                -0.328
REMARK SMILES O=c1c(O)c(-c2ccc(O)c(O)c2)oc2cc(O)cc(O)c12
REMARK SMILES IDX 5 1 3 2 2 3 1 4 22 5 20 6 19 7 17 8 16 9 15 10 14 11 6 12
REMARK SMILES IDX 7 13 8 14 9 15 13 16 11 17 10 18 12 20 4 22 21 24 18 26
REMARK H PARENT 10 19 12 21 4 23 21 25 18 27
REMARK Flexibility Score: inf
ROOT
ATOM      1  C   UNL     1     -24.633  81.425  78.152  1.00  0.00     0.180 A 
ATOM      2  C   UNL     1     -23.881  82.482  77.610  1.00  0.00     0.208 A 
ATOM      3  C   UNL     1     -24.436  83.249  76.573  1.00  0.00     0.238 A 
ATOM      4  O   UNL     1     -23.780  84.229  76.129  1.00  0.00    -0.285 OA
ATOM      5  C   UNL     1     -25.726  82.940  76.080  1.00  0.00     0.111 A 
ATOM      6  C   UNL     1     -26.368  83.626  75.005  1.00  0.00     0.134 A 
ATOM      7  C   UNL     1     -27.698  83.320  74.688  1.00  0.00     0.093 A 
ATOM      8  C   UNL     1     -28.385  82.309  75.363  1.00  0.00     0.123 A 
ATOM      9  C   UNL     1     -27.746  81.594  76.374  1.00  0.00     0.094 A 
ATOM     10  C   UNL     1     -26.434  81.900  76.737  1.00  0.00     0.146 A 
ATOM     11  O   UNL     1     -25.865  81.201  77.713  1.00  0.00    -0.452 OA
ENDROOT
BRANCH   1  12
ATOM     12  C   UNL     1     -24.106  80.556  79.229  1.00  0.00     0.025 A 
ATOM     13  C   UNL     1     -23.353  79.420  78.894  1.00  0.00     0.016 A 
ATOM     14  C   UNL     1     -22.829  78.597  79.895  1.00  0.00     0.051 A 
ATOM     15  C   UNL     1     -23.038  78.908  81.245  1.00  0.00     0.157 A 
ATOM     16  C   UNL     1     -24.296  80.875  80.586  1.00  0.00     0.062 A 
ATOM     17  C   UNL     1     -23.768  80.051  81.591  1.00  0.00     0.158 A 
BRANCH  15  18
ATOM     18  O   UNL     1     -22.519  78.090  82.246  1.00  0.00    -0.504 OA
ATOM     19  H   UNL     1     -22.923  77.185  82.454  1.00  0.00     0.293 HD
ENDBRANCH  15  18
BRANCH  17  20
ATOM     20  O   UNL     1     -23.963  80.365  82.935  1.00  0.00    -0.504 OA
ATOM     21  H   UNL     1     -24.758  80.007  83.454  1.00  0.00     0.293 HD
ENDBRANCH  17  20
ENDBRANCH   1  12
BRANCH   2  22
ATOM     22  O   UNL     1     -22.618  82.784  78.126  1.00  0.00    -0.502 OA
ATOM     23  H   UNL     1     -21.761  82.566  77.631  1.00  0.00     0.293 HD
ENDBRANCH   2  22
BRANCH   6  24
ATOM     24  O   UNL     1     -25.742  84.587  74.208  1.00  0.00    -0.507 OA
ATOM     25  H   UNL     1     -25.610  84.510  73.210  1.00  0.00     0.293 HD
ENDBRANCH   6  24
BRANCH   8  26
ATOM     26  O   UNL     1     -29.702  82.000  75.030  1.00  0.00    -0.508 OA
ATOM     27  H   UNL     1     -30.428  82.708  75.028  1.00  0.00     0.293 HD
ENDBRANCH   8  26
TORSDOF 6
ENDMDL
MODEL 3
REMARK VINA RESULT:    -6.675      1.622      6.914
REMARK INTER + INTRA:          -8.369
REMARK INTER:                  -8.037
REMARK INTRA:                  -0.332
REMARK UNBOUND:                -0.328
REMARK SMILES O=c1c(O)c(-c2ccc(O)c(O)c2)oc2cc(O)cc(O)c12
REMARK SMILES IDX 5 1 3 2 2 3 1 4 22 5 20 6 19 7 17 8 16 9 15 10 14 11 6 12
REMARK SMILES IDX 7 13 8 14 9 15 13 16 11 17 10 18 12 20 4 22 21 24 18 26
REMARK H PARENT 10 19 12 21 4 23 21 25 18 27
REMARK Flexibility Score: inf
ROOT
ATOM      1  C   UNL     1     -24.462  81.949  77.514  1.00  0.00     0.180 A 
ATOM      2  C   UNL     1     -25.177  81.912  78.724  1.00  0.00     0.208 A 
ATOM      3  C   UNL     1     -24.814  80.970  79.700  1.00  0.00     0.238 A 
ATOM      4  O   UNL     1     -25.422  80.978  80.803  1.00  0.00    -0.285 OA
ATOM      5  C   UNL     1     -23.754  80.066  79.448  1.00  0.00     0.111 A 
ATOM      6  C   UNL     1     -23.328  79.045  80.350  1.00  0.00     0.134 A 
ATOM      7  C   UNL     1     -22.184  78.294  80.052  1.00  0.00     0.093 A 
ATOM      8  C   UNL     1     -21.490  78.484  78.854  1.00  0.00     0.123 A 
ATOM      9  C   UNL     1     -21.933  79.438  77.942  1.00  0.00     0.094 A 
ATOM     10  C   UNL     1     -23.049  80.227  78.227  1.00  0.00     0.146 A 
ATOM     11  O   UNL     1     -23.431  81.132  77.334  1.00  0.00    -0.452 OA
ENDROOT
BRANCH   1  12
ATOM     12  C   UNL     1     -24.802  82.896  76.427  1.00  0.00     0.025 A 
ATOM     13  C   UNL     1     -24.096  84.105  76.320  1.00  0.00     0.016 A 
ATOM     14  C   UNL     1     -24.386  85.004  75.290  1.00  0.00     0.051 A 
ATOM     15  C   UNL     1     -25.373  84.699  74.344  1.00  0.00     0.157 A 
ATOM     16  C   UNL     1     -25.778  82.585  75.463  1.00  0.00     0.062 A 
ATOM     17  C   UNL     1     -26.067  83.486  74.428  1.00  0.00     0.158 A 
BRANCH  15  18
ATOM     18  O   UNL     1     -25.666  85.594  73.316  1.00  0.00    -0.504 OA
ATOM     19  H   UNL     1     -26.596  85.661  72.921  1.00  0.00     0.293 HD
ENDBRANCH  15  18
BRANCH  17  20
ATOM     20  O   UNL     1     -27.040  83.180  73.478  1.00  0.00    -0.504 OA
ATOM     21  H   UNL     1     -26.872  82.499  72.746  1.00  0.00     0.293 HD
ENDBRANCH  17  20
ENDBRANCH   1  12
BRANCH   2  22
ATOM     22  O   UNL     1     -26.206  82.827  78.961  1.00  0.00    -0.502 OA
ATOM     23  H   UNL     1     -27.179  82.610  78.781  1.00  0.00     0.293 HD
ENDBRANCH   2  22
BRANCH   6  24
ATOM     24  O   UNL     1     -24.004  78.712  81.527  1.00  0.00    -0.507 OA
ATOM     25  H   UNL     1     -25.005  78.610  81.607  1.00  0.00     0.293 HD
ENDBRANCH   6  24
BRANCH   8  26
ATOM     26  O   UNL     1     -20.361  77.721  78.559  1.00  0.00    -0.508 OA
ATOM     27  H   UNL     1     -19.441  78.141  78.492  1.00  0.00     0.293 HD
ENDBRANCH   8  26
TORSDOF 6
ENDMDL
MODEL 4
REMARK VINA RESULT:    -6.658     11.666     13.467
REMARK INTER + INTRA:          -8.348
REMARK INTER:                  -8.126
REMARK INTRA:                  -0.223
REMARK UNBOUND:                -0.328
REMARK SMILES O=c1c(O)c(-c2ccc(O)c(O)c2)oc2cc(O)cc(O)c12
REMARK SMILES IDX 5 1 3 2 2 3 1 4 22 5 20 6 19 7 17 8 16 9 15 10 14 11 6 12
REMARK SMILES IDX 7 13 8 14 9 15 13 16 11 17 10 18 12 20 4 22 21 24 18 26
REMARK H PARENT 10 19 12 21 4 23 21 25 18 27
REMARK Flexibility Score: inf
ROOT
ATOM      1  C   UNL     1     -27.293  91.090  85.474  1.00  0.00     0.180 A 
ATOM      2  C   UNL     1     -25.889  91.167  85.445  1.00  0.00     0.208 A 
ATOM      3  C   UNL     1     -25.147  89.991  85.258  1.00  0.00     0.238 A 
ATOM      4  O   UNL     1     -23.893  90.074  85.177  1.00  0.00    -0.285 OA
ATOM      5  C   UNL     1     -25.815  88.751  85.118  1.00  0.00     0.111 A 
ATOM      6  C   UNL     1     -25.161  87.491  84.963  1.00  0.00     0.134 A 
ATOM      7  C   UNL     1     -25.923  86.345  84.702  1.00  0.00     0.093 A 
ATOM      8  C   UNL     1     -27.318  86.403  84.657  1.00  0.00     0.123 A 
ATOM      9  C   UNL     1     -27.967  87.617  84.865  1.00  0.00     0.094 A 
ATOM     10  C   UNL     1     -27.233  88.783  85.091  1.00  0.00     0.146 A 
ATOM     11  O   UNL     1     -27.891  89.922  85.275  1.00  0.00    -0.452 OA
ENDROOT
BRANCH   1  12
ATOM     12  C   UNL     1     -28.143  92.282  85.693  1.00  0.00     0.025 A 
ATOM     13  C   UNL     1     -28.995  92.721  84.667  1.00  0.00     0.016 A 
ATOM     14  C   UNL     1     -29.822  93.831  84.859  1.00  0.00     0.051 A 
ATOM     15  C   UNL     1     -29.819  94.509  86.085  1.00  0.00     0.157 A 
ATOM     16  C   UNL     1     -28.159  92.954  86.929  1.00  0.00     0.062 A 
ATOM     17  C   UNL     1     -28.990  94.067  87.123  1.00  0.00     0.158 A 
BRANCH  15  18
ATOM     18  O   UNL     1     -30.640  95.618  86.280  1.00  0.00    -0.504 OA
ATOM     19  H   UNL     1     -30.448  96.299  87.005  1.00  0.00     0.293 HD
ENDBRANCH  15  18
BRANCH  17  20
ATOM     20  O   UNL     1     -29.000  94.735  88.346  1.00  0.00    -0.504 OA
ATOM     21  H   UNL     1     -28.334  94.513  89.078  1.00  0.00     0.293 HD
ENDBRANCH  17  20
ENDBRANCH   1  12
BRANCH   2  22
ATOM     22  O   UNL     1     -25.251  92.405  85.563  1.00  0.00    -0.502 OA
ATOM     23  H   UNL     1     -24.859  92.893  84.767  1.00  0.00     0.293 HD
ENDBRANCH   2  22
BRANCH   6  24
ATOM     24  O   UNL     1     -23.780  87.309  85.083  1.00  0.00    -0.507 OA
ATOM     25  H   UNL     1     -23.131  88.017  85.391  1.00  0.00     0.293 HD
ENDBRANCH   6  24
BRANCH   8  26
ATOM     26  O   UNL     1     -28.068  85.255  84.412  1.00  0.00    -0.508 OA
ATOM     27  H   UNL     1     -29.082  85.273  84.417  1.00  0.00     0.293 HD
ENDBRANCH   8  26
TORSDOF 6
ENDMDL
MODEL 5
REMARK VINA RESULT:    -6.495      1.992      2.509
REMARK INTER + INTRA:          -8.152
REMARK INTER:                  -7.830
REMARK INTRA:                  -0.323
REMARK UNBOUND:                -0.328
REMARK SMILES O=c1c(O)c(-c2ccc(O)c(O)c2)oc2cc(O)cc(O)c12
REMARK SMILES IDX 5 1 3 2 2 3 1 4 22 5 20 6 19 7 17 8 16 9 15 10 14 11 6 12
REMARK SMILES IDX 7 13 8 14 9 15 13 16 11 17 10 18 12 20 4 22 21 24 18 26
REMARK H PARENT 10 19 12 21 4 23 21 25 18 27
REMARK Flexibility Score: inf
ROOT
ATOM      1  C   UNL     1     -25.964  82.265  77.355  1.00  0.00     0.180 A 
ATOM      2  C   UNL     1     -27.059  82.540  76.517  1.00  0.00     0.208 A 
ATOM      3  C   UNL     1     -26.988  83.636  75.643  1.00  0.00     0.238 A 
ATOM      4  O   UNL     1     -27.950  83.844  74.856  1.00  0.00    -0.285 OA
ATOM      5  C   UNL     1     -25.833  84.454  75.629  1.00  0.00     0.111 A 
ATOM      6  C   UNL     1     -25.671  85.613  74.812  1.00  0.00     0.134 A 
ATOM      7  C   UNL     1     -24.434  86.270  74.784  1.00  0.00     0.093 A 
ATOM      8  C   UNL     1     -23.377  85.849  75.593  1.00  0.00     0.123 A 
ATOM      9  C   UNL     1     -23.545  84.754  76.437  1.00  0.00     0.094 A 
ATOM     10  C   UNL     1     -24.754  84.056  76.460  1.00  0.00     0.146 A 
ATOM     11  O   UNL     1     -24.869  83.011  77.272  1.00  0.00    -0.452 OA
ENDROOT
BRANCH   1  12
ATOM     12  C   UNL     1     -25.973  81.143  78.321  1.00  0.00     0.025 A 
ATOM     13  C   UNL     1     -26.485  81.347  79.612  1.00  0.00     0.016 A 
ATOM     14  C   UNL     1     -26.523  80.296  80.532  1.00  0.00     0.051 A 
ATOM     15  C   UNL     1     -26.063  79.024  80.169  1.00  0.00     0.157 A 
ATOM     16  C   UNL     1     -25.531  79.858  77.955  1.00  0.00     0.062 A 
ATOM     17  C   UNL     1     -25.571  78.803  78.878  1.00  0.00     0.158 A 
BRANCH  15  18
ATOM     18  O   UNL     1     -26.097  77.973  81.085  1.00  0.00    -0.504 OA
ATOM     19  H   UNL     1     -26.048  77.007  80.785  1.00  0.00     0.293 HD
ENDBRANCH  15  18
BRANCH  17  20
ATOM     20  O   UNL     1     -25.126  77.533  78.516  1.00  0.00    -0.504 OA
ATOM     21  H   UNL     1     -24.480  77.395  77.747  1.00  0.00     0.293 HD
ENDBRANCH  17  20
ENDBRANCH   1  12
BRANCH   2  22
ATOM     22  O   UNL     1     -28.181  81.707  76.531  1.00  0.00    -0.502 OA
ATOM     23  H   UNL     1     -28.946  81.813  75.875  1.00  0.00     0.293 HD
ENDBRANCH   2  22
BRANCH   6  24
ATOM     24  O   UNL     1     -26.692  86.172  74.038  1.00  0.00    -0.507 OA
ATOM     25  H   UNL     1     -27.628  86.357  74.367  1.00  0.00     0.293 HD
ENDBRANCH   6  24
BRANCH   8  26
ATOM     26  O   UNL     1     -22.155  86.518  75.571  1.00  0.00    -0.508 OA
ATOM     27  H   UNL     1     -21.824  86.990  74.737  1.00  0.00     0.293 HD
ENDBRANCH   8  26
TORSDOF 6
ENDMDL
MODEL 6
REMARK VINA RESULT:    -6.431     11.178     13.049
REMARK INTER + INTRA:          -8.075
REMARK INTER:                  -7.771
REMARK INTRA:                  -0.304
REMARK UNBOUND:                -0.328
REMARK SMILES O=c1c(O)c(-c2ccc(O)c(O)c2)oc2cc(O)cc(O)c12
REMARK SMILES IDX 5 1 3 2 2 3 1 4 22 5 20 6 19 7 17 8 16 9 15 10 14 11 6 12
REMARK SMILES IDX 7 13 8 14 9 15 13 16 11 17 10 18 12 20 4 22 21 24 18 26
REMARK H PARENT 10 19 12 21 4 23 21 25 18 27
REMARK Flexibility Score: inf
ROOT
ATOM      1  C   UNL     1     -23.269  93.379  82.878  1.00  0.00     0.180 A 
ATOM      2  C   UNL     1     -23.713  93.694  81.582  1.00  0.00     0.208 A 
ATOM      3  C   UNL     1     -23.064  94.714  80.869  1.00  0.00     0.238 A 
ATOM      4  O   UNL     1     -23.432  94.954  79.689  1.00  0.00    -0.285 OA
ATOM      5  C   UNL     1     -21.991  95.418  81.465  1.00  0.00     0.111 A 
ATOM      6  C   UNL     1     -21.287  96.497  80.849  1.00  0.00     0.134 A 
ATOM      7  C   UNL     1     -20.157  97.033  81.480  1.00  0.00     0.093 A 
ATOM      8  C   UNL     1     -19.745  96.573  82.733  1.00  0.00     0.123 A 
ATOM      9  C   UNL     1     -20.461  95.561  83.368  1.00  0.00     0.094 A 
ATOM     10  C   UNL     1     -21.570  94.982  82.749  1.00  0.00     0.146 A 
ATOM     11  O   UNL     1     -22.218  94.012  83.384  1.00  0.00    -0.452 OA
ENDROOT
BRANCH   1  12
ATOM     12  C   UNL     1     -23.918  92.333  83.702  1.00  0.00     0.025 A 
ATOM     13  C   UNL     1     -25.098  92.637  84.398  1.00  0.00     0.016 A 
ATOM     14  C   UNL     1     -25.739  91.659  85.165  1.00  0.00     0.051 A 
ATOM     15  C   UNL     1     -25.216  90.361  85.231  1.00  0.00     0.157 A 
ATOM     16  C   UNL     1     -23.409  91.023  83.755  1.00  0.00     0.062 A 
ATOM     17  C   UNL     1     -24.053  90.041  84.522  1.00  0.00     0.158 A 
BRANCH  15  18
ATOM     18  O   UNL     1     -25.852  89.384  85.996  1.00  0.00    -0.504 OA
ATOM     19  H   UNL     1     -26.177  88.517  85.584  1.00  0.00     0.293 HD
ENDBRANCH  15  18
BRANCH  17  20
ATOM     20  O   UNL     1     -23.544  88.745  84.580  1.00  0.00    -0.504 OA
ATOM     21  H   UNL     1     -22.891  88.463  85.303  1.00  0.00     0.293 HD
ENDBRANCH  17  20
ENDBRANCH   1  12
BRANCH   2  22
ATOM     22  O   UNL     1     -24.761  92.972  81.004  1.00  0.00    -0.502 OA
ATOM     23  H   UNL     1     -24.850  91.968  81.103  1.00  0.00     0.293 HD
ENDBRANCH   2  22
BRANCH   6  24
ATOM     24  O   UNL     1     -21.671  97.091  79.644  1.00  0.00    -0.507 OA
ATOM     25  H   UNL     1     -22.173  96.622  78.905  1.00  0.00     0.293 HD
ENDBRANCH   6  24
BRANCH   8  26
ATOM     26  O   UNL     1     -18.629  97.123  83.359  1.00  0.00    -0.508 OA
ATOM     27  H   UNL     1     -18.584  98.108  83.593  1.00  0.00     0.293 HD
ENDBRANCH   8  26
TORSDOF 6
ENDMDL
MODEL 7
REMARK VINA RESULT:    -6.420     12.229     13.084
REMARK INTER + INTRA:          -8.061
REMARK INTER:                  -7.739
REMARK INTRA:                  -0.323
REMARK UNBOUND:                -0.328
REMARK SMILES O=c1c(O)c(-c2ccc(O)c(O)c2)oc2cc(O)cc(O)c12
REMARK SMILES IDX 5 1 3 2 2 3 1 4 22 5 20 6 19 7 17 8 16 9 15 10 14 11 6 12
REMARK SMILES IDX 7 13 8 14 9 15 13 16 11 17 10 18 12 20 4 22 21 24 18 26
REMARK H PARENT 10 19 12 21 4 23 21 25 18 27
REMARK Flexibility Score: inf
ROOT
ATOM      1  C   UNL     1     -27.621  90.879  85.479  1.00  0.00     0.180 A 
ATOM      2  C   UNL     1     -27.243  91.336  86.754  1.00  0.00     0.208 A 
ATOM      3  C   UNL     1     -27.802  92.527  87.243  1.00  0.00     0.238 A 
ATOM      4  O   UNL     1     -27.501  92.902  88.407  1.00  0.00    -0.285 OA
ATOM      5  C   UNL     1     -28.718  93.255  86.447  1.00  0.00     0.111 A 
ATOM      6  C   UNL     1     -29.315  94.495  86.828  1.00  0.00     0.134 A 
ATOM      7  C   UNL     1     -30.308  95.060  86.017  1.00  0.00     0.093 A 
ATOM      8  C   UNL     1     -30.677  94.464  84.809  1.00  0.00     0.123 A 
ATOM      9  C   UNL     1     -30.058  93.285  84.402  1.00  0.00     0.094 A 
ATOM     10  C   UNL     1     -29.091  92.679  85.205  1.00  0.00     0.146 A 
ATOM     11  O   UNL     1     -28.532  91.549  84.784  1.00  0.00    -0.452 OA
ENDROOT
BRANCH   1  12
ATOM     12  C   UNL     1     -27.057  89.646  84.884  1.00  0.00     0.025 A 
ATOM     13  C   UNL     1     -25.862  89.717  84.151  1.00  0.00     0.016 A 
ATOM     14  C   UNL     1     -25.301  88.563  83.598  1.00  0.00     0.051 A 
ATOM     15  C   UNL     1     -25.918  87.319  83.786  1.00  0.00     0.157 A 
ATOM     16  C   UNL     1     -27.662  88.392  85.087  1.00  0.00     0.062 A 
ATOM     17  C   UNL     1     -27.097  87.233  84.536  1.00  0.00     0.158 A 
BRANCH  15  18
ATOM     18  O   UNL     1     -25.362  86.165  83.236  1.00  0.00    -0.504 OA
ATOM     19  H   UNL     1     -25.480  85.935  82.256  1.00  0.00     0.293 HD
ENDBRANCH  15  18
BRANCH  17  20
ATOM     20  O   UNL     1     -27.701  85.992  84.732  1.00  0.00    -0.504 OA
ATOM     21  H   UNL     1     -28.624  85.910  85.143  1.00  0.00     0.293 HD
ENDBRANCH  17  20
ENDBRANCH   1  12
BRANCH   2  22
ATOM     22  O   UNL     1     -26.353  90.591  87.532  1.00  0.00    -0.502 OA
ATOM     23  H   UNL     1     -25.411  90.904  87.733  1.00  0.00     0.293 HD
ENDBRANCH   2  22
BRANCH   6  24
ATOM     24  O   UNL     1     -28.952  95.219  87.966  1.00  0.00    -0.507 OA
ATOM     25  H   UNL     1     -28.310  95.998  87.972  1.00  0.00     0.293 HD
ENDBRANCH   6  24
BRANCH   8  26
ATOM     26  O   UNL     1     -31.655  95.042  84.001  1.00  0.00    -0.508 OA
ATOM     27  H   UNL     1     -32.357  94.479  83.535  1.00  0.00     0.293 HD
ENDBRANCH   8  26
TORSDOF 6
ENDMDL
MODEL 8
REMARK VINA RESULT:    -6.381     11.050     12.614
REMARK INTER + INTRA:          -8.015
REMARK INTER:                  -7.703
REMARK INTRA:                  -0.312
REMARK UNBOUND:                -0.328
REMARK SMILES O=c1c(O)c(-c2ccc(O)c(O)c2)oc2cc(O)cc(O)c12
REMARK SMILES IDX 5 1 3 2 2 3 1 4 22 5 20 6 19 7 17 8 16 9 15 10 14 11 6 12
REMARK SMILES IDX 7 13 8 14 9 15 13 16 11 17 10 18 12 20 4 22 21 24 18 26
REMARK H PARENT 10 19 12 21 4 23 21 25 18 27
REMARK Flexibility Score: inf
ROOT
ATOM      1  C   UNL     1     -24.327  92.750  83.297  1.00  0.00     0.180 A 
ATOM      2  C   UNL     1     -24.870  92.982  82.020  1.00  0.00     0.208 A 
ATOM      3  C   UNL     1     -24.250  93.918  81.178  1.00  0.00     0.238 A 
ATOM      4  O   UNL     1     -24.709  94.082  80.016  1.00  0.00    -0.285 OA
ATOM      5  C   UNL     1     -23.106  94.621  81.625  1.00  0.00     0.111 A 
ATOM      6  C   UNL     1     -22.422  95.620  80.869  1.00  0.00     0.134 A 
ATOM      7  C   UNL     1     -21.224  96.157  81.359  1.00  0.00     0.093 A 
ATOM      8  C   UNL     1     -20.722  95.778  82.606  1.00  0.00     0.123 A 
ATOM      9  C   UNL     1     -21.415  94.847  83.376  1.00  0.00     0.094 A 
ATOM     10  C   UNL     1     -22.592  94.268  82.900  1.00  0.00     0.146 A 
ATOM     11  O   UNL     1     -23.215  93.377  83.662  1.00  0.00    -0.452 OA
ENDROOT
BRANCH   1  12
ATOM     12  C   UNL     1     -24.938  91.797  84.251  1.00  0.00     0.025 A 
ATOM     13  C   UNL     1     -24.601  90.437  84.181  1.00  0.00     0.016 A 
ATOM     14  C   UNL     1     -25.150  89.524  85.086  1.00  0.00     0.051 A 
ATOM     15  C   UNL     1     -26.031  89.962  86.082  1.00  0.00     0.157 A 
ATOM     16  C   UNL     1     -25.807  92.235  85.267  1.00  0.00     0.062 A 
ATOM     17  C   UNL     1     -26.356  91.320  86.177  1.00  0.00     0.158 A 
BRANCH  15  18
ATOM     18  O   UNL     1     -26.582  89.054  86.986  1.00  0.00    -0.504 OA
ATOM     19  H   UNL     1     -26.531  88.054  86.830  1.00  0.00     0.293 HD
ENDBRANCH  15  18
BRANCH  17  20
ATOM     20  O   UNL     1     -27.223  91.754  87.178  1.00  0.00    -0.504 OA
ATOM     21  H   UNL     1     -27.922  91.138  87.579  1.00  0.00     0.293 HD
ENDBRANCH  17  20
ENDBRANCH   1  12
BRANCH   2  22
ATOM     22  O   UNL     1     -25.987  92.261  81.590  1.00  0.00    -0.502 OA
ATOM     23  H   UNL     1     -26.133  92.012  80.619  1.00  0.00     0.293 HD
ENDBRANCH   2  22
BRANCH   6  24
ATOM     24  O   UNL     1     -22.887  96.136  79.656  1.00  0.00    -0.507 OA
ATOM     25  H   UNL     1     -23.701  96.723  79.555  1.00  0.00     0.293 HD
ENDBRANCH   6  24
BRANCH   8  26
ATOM     26  O   UNL     1     -19.538  96.328  83.092  1.00  0.00    -0.508 OA
ATOM     27  H   UNL     1     -19.514  97.255  83.503  1.00  0.00     0.293 HD
ENDBRANCH   8  26
TORSDOF 6
ENDMDL
MODEL 9
REMARK VINA RESULT:    -6.358      2.390      3.016
REMARK INTER + INTRA:          -7.986
REMARK INTER:                  -7.773
REMARK INTRA:                  -0.214
REMARK UNBOUND:                -0.328
REMARK SMILES O=c1c(O)c(-c2ccc(O)c(O)c2)oc2cc(O)cc(O)c12
REMARK SMILES IDX 5 1 3 2 2 3 1 4 22 5 20 6 19 7 17 8 16 9 15 10 14 11 6 12
REMARK SMILES IDX 7 13 8 14 9 15 13 16 11 17 10 18 12 20 4 22 21 24 18 26
REMARK H PARENT 10 19 12 21 4 23 21 25 18 27
REMARK Flexibility Score: inf
ROOT
ATOM      1  C   UNL     1     -25.175  82.952  77.382  1.00  0.00     0.180 A 
ATOM      2  C   UNL     1     -26.062  83.560  78.288  1.00  0.00     0.208 A 
ATOM      3  C   UNL     1     -26.701  84.754  77.917  1.00  0.00     0.238 A 
ATOM      4  O   UNL     1     -27.535  85.264  78.711  1.00  0.00    -0.285 OA
ATOM      5  C   UNL     1     -26.434  85.333  76.654  1.00  0.00     0.111 A 
ATOM      6  C   UNL     1     -26.996  86.561  76.190  1.00  0.00     0.134 A 
ATOM      7  C   UNL     1     -26.763  86.972  74.872  1.00  0.00     0.093 A 
ATOM      8  C   UNL     1     -25.937  86.233  74.022  1.00  0.00     0.123 A 
ATOM      9  C   UNL     1     -25.338  85.065  74.484  1.00  0.00     0.094 A 
ATOM     10  C   UNL     1     -25.579  84.610  75.782  1.00  0.00     0.146 A 
ATOM     11  O   UNL     1     -24.996  83.485  76.180  1.00  0.00    -0.452 OA
ENDROOT
BRANCH   1  12
ATOM     12  C   UNL     1     -24.444  81.707  77.711  1.00  0.00     0.025 A 
ATOM     13  C   UNL     1     -23.066  81.763  77.973  1.00  0.00     0.016 A 
ATOM     14  C   UNL     1     -22.361  80.603  78.305  1.00  0.00     0.051 A 
ATOM     15  C   UNL     1     -23.027  79.375  78.395  1.00  0.00     0.157 A 
ATOM     16  C   UNL     1     -25.112  80.474  77.823  1.00  0.00     0.062 A 
ATOM     17  C   UNL     1     -24.405  79.310  78.159  1.00  0.00     0.158 A 
BRANCH  15  18
ATOM     18  O   UNL     1     -22.327  78.215  78.725  1.00  0.00    -0.504 OA
ATOM     19  H   UNL     1     -22.646  77.301  78.428  1.00  0.00     0.293 HD
ENDBRANCH  15  18
BRANCH  17  20
ATOM     20  O   UNL     1     -25.067  78.088  78.263  1.00  0.00    -0.504 OA
ATOM     21  H   UNL     1     -26.079  78.032  78.275  1.00  0.00     0.293 HD
ENDBRANCH  17  20
ENDBRANCH   1  12
BRANCH   2  22
ATOM     22  O   UNL     1     -26.327  82.960  79.522  1.00  0.00    -0.502 OA
ATOM     23  H   UNL     1     -25.633  82.896  80.257  1.00  0.00     0.293 HD
ENDBRANCH   2  22
BRANCH   6  24
ATOM     24  O   UNL     1     -27.758  87.420  76.987  1.00  0.00    -0.507 OA
ATOM     25  H   UNL     1     -28.633  87.173  77.426  1.00  0.00     0.293 HD
ENDBRANCH   6  24
BRANCH   8  26
ATOM     26  O   UNL     1     -25.699  86.659  72.717  1.00  0.00    -0.508 OA
ATOM     27  H   UNL     1     -26.012  87.566  72.389  1.00  0.00     0.293 HD
ENDBRANCH   8  26
TORSDOF 6
ENDMDL
