MODEL 1
REMARK VINA RESULT:    -6.690      0.000      0.000
REMARK INTER + INTRA:          -8.257
REMARK INTER:                  -8.059
REMARK INTRA:                  -0.198
REMARK UNBOUND:                -0.198
REMARK SMILES O=c1c(O)c(-c2ccc(O)c(O)c2)oc2cc(O)cc(O)c12
REMARK SMILES IDX 5 1 3 2 2 3 1 4 22 5 20 6 19 7 17 8 16 9 15 10 14 11 6 12
REMARK SMILES IDX 7 13 8 14 9 15 13 16 11 17 10 18 12 20 4 22 21 24 18 26
REMARK H PARENT 10 19 12 21 4 23 21 25 18 27
REMARK Flexibility Score: inf
ROOT
ATOM      1  C   UNL     1      18.524  -1.227 -16.998  1.00  0.00     0.180 A 
ATOM      2  C   UNL     1      17.940  -0.391 -16.029  1.00  0.00     0.208 A 
ATOM      3  C   UNL     1      17.211  -0.971 -14.979  1.00  0.00     0.238 A 
ATOM      4  O   UNL     1      16.737  -0.221 -14.086  1.00  0.00    -0.285 OA
ATOM      5  C   UNL     1      17.061  -2.377 -14.918  1.00  0.00     0.111 A 
ATOM      6  C   UNL     1      16.310  -3.070 -13.921  1.00  0.00     0.134 A 
ATOM      7  C   UNL     1      16.338  -4.469 -13.883  1.00  0.00     0.093 A 
ATOM      8  C   UNL     1      17.035  -5.202 -14.843  1.00  0.00     0.123 A 
ATOM      9  C   UNL     1      17.724  -4.536 -15.857  1.00  0.00     0.094 A 
ATOM     10  C   UNL     1      17.745  -3.140 -15.901  1.00  0.00     0.146 A 
ATOM     11  O   UNL     1      18.421  -2.545 -16.876  1.00  0.00    -0.452 OA
ENDROOT
BRANCH   1  12
ATOM     12  C   UNL     1      19.286  -0.689 -18.148  1.00  0.00     0.025 A 
ATOM     13  C   UNL     1      18.805  -0.807 -19.463  1.00  0.00     0.016 A 
ATOM     14  C   UNL     1      19.553  -0.313 -20.536  1.00  0.00     0.051 A 
ATOM     15  C   UNL     1      20.796   0.294 -20.311  1.00  0.00     0.157 A 
ATOM     16  C   UNL     1      20.542  -0.099 -17.929  1.00  0.00     0.062 A 
ATOM     17  C   UNL     1      21.293   0.398 -19.001  1.00  0.00     0.158 A 
BRANCH  15  18
ATOM     18  O   UNL     1      21.539   0.787 -21.382  1.00  0.00    -0.504 OA
ATOM     19  H   UNL     1      22.517   1.034 -21.282  1.00  0.00     0.293 HD
ENDBRANCH  15  18
BRANCH  17  20
ATOM     20  O   UNL     1      22.530   0.990 -18.745  1.00  0.00    -0.504 OA
ATOM     21  H   UNL     1      23.376   0.695 -19.218  1.00  0.00     0.293 HD
ENDBRANCH  17  20
ENDBRANCH   1  12
BRANCH   2  22
ATOM     22  O   UNL     1      18.119   0.994 -16.097  1.00  0.00    -0.502 OA
ATOM     23  H   UNL     1      18.679   1.503 -15.423  1.00  0.00     0.293 HD
ENDBRANCH   2  22
BRANCH   6  24
ATOM     24  O   UNL     1      15.505  -2.436 -12.971  1.00  0.00    -0.507 OA
ATOM     25  H   UNL     1      15.690  -2.422 -11.979  1.00  0.00     0.293 HD
ENDBRANCH   6  24
BRANCH   8  26
ATOM     26  O   UNL     1      17.029  -6.594 -14.784  1.00  0.00    -0.508 OA
ATOM     27  H   UNL     1      16.194  -7.111 -14.539  1.00  0.00     0.293 HD
ENDBRANCH   8  26
TORSDOF 6
ENDMDL
MODEL 2
REMARK VINA RESULT:    -6.435      1.217      2.876
REMARK INTER + INTRA:          -7.950
REMARK INTER:                  -7.738
REMARK INTRA:                  -0.212
REMARK UNBOUND:                -0.198
REMARK SMILES O=c1c(O)c(-c2ccc(O)c(O)c2)oc2cc(O)cc(O)c12
REMARK SMILES IDX 5 1 3 2 2 3 1 4 22 5 20 6 19 7 17 8 16 9 15 10 14 11 6 12
REMARK SMILES IDX 7 13 8 14 9 15 13 16 11 17 10 18 12 20 4 22 21 24 18 26
REMARK H PARENT 10 19 12 21 4 23 21 25 18 27
REMARK Flexibility Score: inf
ROOT
ATOM      1  C   UNL     1      18.524  -2.264 -17.330  1.00  0.00     0.180 A 
ATOM      2  C   UNL     1      18.479  -3.649 -17.568  1.00  0.00     0.208 A 
ATOM      3  C   UNL     1      17.859  -4.483 -16.625  1.00  0.00     0.238 A 
ATOM      4  O   UNL     1      17.773  -5.714 -16.870  1.00  0.00    -0.285 OA
ATOM      5  C   UNL     1      17.306  -3.925 -15.447  1.00  0.00     0.111 A 
ATOM      6  C   UNL     1      16.689  -4.680 -14.405  1.00  0.00     0.134 A 
ATOM      7  C   UNL     1      16.060  -4.012 -13.347  1.00  0.00     0.093 A 
ATOM      8  C   UNL     1      16.081  -2.621 -13.260  1.00  0.00     0.123 A 
ATOM      9  C   UNL     1      16.733  -1.875 -14.242  1.00  0.00     0.094 A 
ATOM     10  C   UNL     1      17.338  -2.510 -15.329  1.00  0.00     0.146 A 
ATOM     11  O   UNL     1      17.938  -1.764 -16.248  1.00  0.00    -0.452 OA
ENDROOT
BRANCH   1  12
ATOM     12  C   UNL     1      19.182  -1.323 -18.266  1.00  0.00     0.025 A 
ATOM     13  C   UNL     1      18.637  -1.051 -19.532  1.00  0.00     0.016 A 
ATOM     14  C   UNL     1      19.288  -0.178 -20.409  1.00  0.00     0.051 A 
ATOM     15  C   UNL     1      20.498   0.424 -20.038  1.00  0.00     0.157 A 
ATOM     16  C   UNL     1      20.405  -0.734 -17.907  1.00  0.00     0.062 A 
ATOM     17  C   UNL     1      21.060   0.141 -18.782  1.00  0.00     0.158 A 
BRANCH  15  18
ATOM     18  O   UNL     1      21.145   1.295 -20.913  1.00  0.00    -0.504 OA
ATOM     19  H   UNL     1      21.274   2.275 -20.689  1.00  0.00     0.293 HD
ENDBRANCH  15  18
BRANCH  17  20
ATOM     20  O   UNL     1      22.267   0.717 -18.386  1.00  0.00    -0.504 OA
ATOM     21  H   UNL     1      23.051   0.160 -18.070  1.00  0.00     0.293 HD
ENDBRANCH  17  20
ENDBRANCH   1  12
BRANCH   2  22
ATOM     22  O   UNL     1      19.012  -4.176 -18.748  1.00  0.00    -0.502 OA
ATOM     23  H   UNL     1      19.282  -3.592 -19.531  1.00  0.00     0.293 HD
ENDBRANCH   2  22
BRANCH   6  24
ATOM     24  O   UNL     1      16.691  -6.077 -14.347  1.00  0.00    -0.507 OA
ATOM     25  H   UNL     1      15.884  -6.644 -14.139  1.00  0.00     0.293 HD
ENDBRANCH   6  24
BRANCH   8  26
ATOM     26  O   UNL     1      15.458  -1.989 -12.185  1.00  0.00    -0.508 OA
ATOM     27  H   UNL     1      15.309  -2.466 -11.304  1.00  0.00     0.293 HD
ENDBRANCH   8  26
TORSDOF 6
ENDMDL
MODEL 3
REMARK VINA RESULT:    -6.058      7.449     11.052
REMARK INTER + INTRA:          -7.495
REMARK INTER:                  -7.203
REMARK INTRA:                  -0.292
REMARK UNBOUND:                -0.198
REMARK SMILES O=c1c(O)c(-c2ccc(O)c(O)c2)oc2cc(O)cc(O)c12
REMARK SMILES IDX 5 1 3 2 2 3 1 4 22 5 20 6 19 7 17 8 16 9 15 10 14 11 6 12
REMARK SMILES IDX 7 13 8 14 9 15 13 16 11 17 10 18 12 20 4 22 21 24 18 26
REMARK H PARENT 10 19 12 21 4 23 21 25 18 27
REMARK Flexibility Score: inf
ROOT
ATOM      1  C   UNL     1      11.216  -6.244 -10.878  1.00  0.00     0.180 A 
ATOM      2  C   UNL     1      11.009  -6.511  -9.513  1.00  0.00     0.208 A 
ATOM      3  C   UNL     1       9.859  -7.218  -9.124  1.00  0.00     0.238 A 
ATOM      4  O   UNL     1       9.707  -7.502  -7.907  1.00  0.00    -0.285 OA
ATOM      5  C   UNL     1       8.923  -7.634 -10.101  1.00  0.00     0.111 A 
ATOM      6  C   UNL     1       7.706  -8.321  -9.816  1.00  0.00     0.134 A 
ATOM      7  C   UNL     1       6.919  -8.800 -10.871  1.00  0.00     0.093 A 
ATOM      8  C   UNL     1       7.272  -8.561 -12.198  1.00  0.00     0.123 A 
ATOM      9  C   UNL     1       8.430  -7.838 -12.488  1.00  0.00     0.094 A 
ATOM     10  C   UNL     1       9.255  -7.379 -11.458  1.00  0.00     0.146 A 
ATOM     11  O   UNL     1      10.353  -6.705 -11.776  1.00  0.00    -0.452 OA
ENDROOT
BRANCH   1  12
ATOM     12  C   UNL     1      12.390  -5.483 -11.363  1.00  0.00     0.025 A 
ATOM     13  C   UNL     1      13.647  -6.095 -11.509  1.00  0.00     0.016 A 
ATOM     14  C   UNL     1      14.747  -5.351 -11.946  1.00  0.00     0.051 A 
ATOM     15  C   UNL     1      14.610  -3.986 -12.229  1.00  0.00     0.157 A 
ATOM     16  C   UNL     1      12.262  -4.111 -11.628  1.00  0.00     0.062 A 
ATOM     17  C   UNL     1      13.362  -3.363 -12.066  1.00  0.00     0.158 A 
BRANCH  15  18
ATOM     18  O   UNL     1      15.709  -3.247 -12.666  1.00  0.00    -0.504 OA
ATOM     19  H   UNL     1      15.731  -2.236 -12.596  1.00  0.00     0.293 HD
ENDBRANCH  15  18
BRANCH  17  20
ATOM     20  O   UNL     1      13.194  -2.004 -12.333  1.00  0.00    -0.504 OA
ATOM     21  H   UNL     1      13.488  -1.287 -11.680  1.00  0.00     0.293 HD
ENDBRANCH  17  20
ENDBRANCH   1  12
BRANCH   2  22
ATOM     22  O   UNL     1      11.956  -6.110  -8.567  1.00  0.00    -0.502 OA
ATOM     23  H   UNL     1      11.700  -5.650  -7.702  1.00  0.00     0.293 HD
ENDBRANCH   2  22
BRANCH   6  24
ATOM     24  O   UNL     1       7.213  -8.533  -8.525  1.00  0.00    -0.507 OA
ATOM     25  H   UNL     1       7.741  -8.941  -7.769  1.00  0.00     0.293 HD
ENDBRANCH   6  24
BRANCH   8  26
ATOM     26  O   UNL     1       6.459  -9.039 -13.224  1.00  0.00    -0.508 OA
ATOM     27  H   UNL     1       5.696  -8.486 -13.597  1.00  0.00     0.293 HD
ENDBRANCH   8  26
TORSDOF 6
ENDMDL
MODEL 4
REMARK VINA RESULT:    -5.978      8.514     12.459
REMARK INTER + INTRA:          -7.399
REMARK INTER:                  -7.738
REMARK INTRA:                   0.339
REMARK UNBOUND:                -0.198
REMARK SMILES O=c1c(O)c(-c2ccc(O)c(O)c2)oc2cc(O)cc(O)c12
REMARK SMILES IDX 5 1 3 2 2 3 1 4 22 5 20 6 19 7 17 8 16 9 15 10 14 11 6 12
REMARK SMILES IDX 7 13 8 14 9 15 13 16 11 17 10 18 12 20 4 22 21 24 18 26
REMARK H PARENT 10 19 12 21 4 23 21 25 18 27
REMARK Flexibility Score: inf
ROOT
ATOM      1  C   UNL     1      10.835  -6.928  -9.533  1.00  0.00     0.180 A 
ATOM      2  C   UNL     1       9.938  -7.984  -9.772  1.00  0.00     0.208 A 
ATOM      3  C   UNL     1       8.897  -8.213  -8.859  1.00  0.00     0.238 A 
ATOM      4  O   UNL     1       8.065  -9.125  -9.107  1.00  0.00    -0.285 OA
ATOM      5  C   UNL     1       8.774  -7.396  -7.711  1.00  0.00     0.111 A 
ATOM      6  C   UNL     1       7.781  -7.563  -6.699  1.00  0.00     0.134 A 
ATOM      7  C   UNL     1       7.673  -6.615  -5.674  1.00  0.00     0.093 A 
ATOM      8  C   UNL     1       8.561  -5.544  -5.587  1.00  0.00     0.123 A 
ATOM      9  C   UNL     1       9.573  -5.403  -6.537  1.00  0.00     0.094 A 
ATOM     10  C   UNL     1       9.684  -6.312  -7.592  1.00  0.00     0.146 A 
ATOM     11  O   UNL     1      10.654  -6.138  -8.482  1.00  0.00    -0.452 OA
ENDROOT
BRANCH   1  12
ATOM     12  C   UNL     1      11.973  -6.640 -10.436  1.00  0.00     0.025 A 
ATOM     13  C   UNL     1      12.494  -7.625 -11.293  1.00  0.00     0.016 A 
ATOM     14  C   UNL     1      13.584  -7.337 -12.120  1.00  0.00     0.051 A 
ATOM     15  C   UNL     1      14.176  -6.067 -12.093  1.00  0.00     0.157 A 
ATOM     16  C   UNL     1      12.582  -5.376 -10.398  1.00  0.00     0.062 A 
ATOM     17  C   UNL     1      13.674  -5.084 -11.225  1.00  0.00     0.158 A 
BRANCH  15  18
ATOM     18  O   UNL     1      15.262  -5.783 -12.919  1.00  0.00    -0.504 OA
ATOM     19  H   UNL     1      16.105  -5.351 -12.559  1.00  0.00     0.293 HD
ENDBRANCH  15  18
BRANCH  17  20
ATOM     20  O   UNL     1      14.245  -3.812 -11.169  1.00  0.00    -0.504 OA
ATOM     21  H   UNL     1      14.276  -3.274 -10.312  1.00  0.00     0.293 HD
ENDBRANCH  17  20
ENDBRANCH   1  12
BRANCH   2  22
ATOM     22  O   UNL     1      10.065  -8.766 -10.924  1.00  0.00    -0.502 OA
ATOM     23  H   UNL     1       9.287  -8.947 -11.547  1.00  0.00     0.293 HD
ENDBRANCH   2  22
BRANCH   6  24
ATOM     24  O   UNL     1       6.902  -8.648  -6.640  1.00  0.00    -0.507 OA
ATOM     25  H   UNL     1       7.179  -9.602  -6.465  1.00  0.00     0.293 HD
ENDBRANCH   6  24
BRANCH   8  26
ATOM     26  O   UNL     1       8.434  -4.628  -4.545  1.00  0.00    -0.508 OA
ATOM     27  H   UNL     1       7.769  -4.767  -3.794  1.00  0.00     0.293 HD
ENDBRANCH   8  26
TORSDOF 6
ENDMDL
MODEL 5
REMARK VINA RESULT:    -5.932     10.686     11.908
REMARK INTER + INTRA:          -7.344
REMARK INTER:                  -7.047
REMARK INTRA:                  -0.297
REMARK UNBOUND:                -0.198
REMARK SMILES O=c1c(O)c(-c2ccc(O)c(O)c2)oc2cc(O)cc(O)c12
REMARK SMILES IDX 5 1 3 2 2 3 1 4 22 5 20 6 19 7 17 8 16 9 15 10 14 11 6 12
REMARK SMILES IDX 7 13 8 14 9 15 13 16 11 17 10 18 12 20 4 22 21 24 18 26
REMARK H PARENT 10 19 12 21 4 23 21 25 18 27
REMARK Flexibility Score: inf
ROOT
ATOM      1  C   UNL     1       9.111   3.495 -18.751  1.00  0.00     0.180 A 
ATOM      2  C   UNL     1       8.656   2.734 -19.842  1.00  0.00     0.208 A 
ATOM      3  C   UNL     1       7.286   2.445 -19.946  1.00  0.00     0.238 A 
ATOM      4  O   UNL     1       6.877   1.811 -20.954  1.00  0.00    -0.285 OA
ATOM      5  C   UNL     1       6.390   2.905 -18.952  1.00  0.00     0.111 A 
ATOM      6  C   UNL     1       4.989   2.637 -18.936  1.00  0.00     0.134 A 
ATOM      7  C   UNL     1       4.178   3.253 -17.973  1.00  0.00     0.093 A 
ATOM      8  C   UNL     1       4.727   4.073 -16.989  1.00  0.00     0.123 A 
ATOM      9  C   UNL     1       6.104   4.295 -16.958  1.00  0.00     0.094 A 
ATOM     10  C   UNL     1       6.934   3.724 -17.927  1.00  0.00     0.146 A 
ATOM     11  O   UNL     1       8.238   3.968 -17.870  1.00  0.00    -0.452 OA
ENDROOT
BRANCH   1  12
ATOM     12  C   UNL     1      10.543   3.819 -18.558  1.00  0.00     0.025 A 
ATOM     13  C   UNL     1      11.073   5.056 -18.964  1.00  0.00     0.016 A 
ATOM     14  C   UNL     1      12.433   5.331 -18.794  1.00  0.00     0.051 A 
ATOM     15  C   UNL     1      13.284   4.371 -18.231  1.00  0.00     0.157 A 
ATOM     16  C   UNL     1      11.403   2.852 -18.013  1.00  0.00     0.062 A 
ATOM     17  C   UNL     1      12.766   3.124 -17.842  1.00  0.00     0.158 A 
BRANCH  15  18
ATOM     18  O   UNL     1      14.640   4.648 -18.061  1.00  0.00    -0.504 OA
ATOM     19  H   UNL     1      15.142   5.251 -18.703  1.00  0.00     0.293 HD
ENDBRANCH  15  18
BRANCH  17  20
ATOM     20  O   UNL     1      13.588   2.145 -17.284  1.00  0.00    -0.504 OA
ATOM     21  H   UNL     1      13.448   1.158 -17.466  1.00  0.00     0.293 HD
ENDBRANCH  17  20
ENDBRANCH   1  12
BRANCH   2  22
ATOM     22  O   UNL     1       9.554   2.308 -20.825  1.00  0.00    -0.502 OA
ATOM     23  H   UNL     1      10.018   2.952 -21.453  1.00  0.00     0.293 HD
ENDBRANCH   2  22
BRANCH   6  24
ATOM     24  O   UNL     1       4.352   1.760 -19.818  1.00  0.00    -0.507 OA
ATOM     25  H   UNL     1       3.431   1.902 -20.205  1.00  0.00     0.293 HD
ENDBRANCH   6  24
BRANCH   8  26
ATOM     26  O   UNL     1       3.893   4.657 -16.037  1.00  0.00    -0.508 OA
ATOM     27  H   UNL     1       2.898   4.761 -16.196  1.00  0.00     0.293 HD
ENDBRANCH   8  26
TORSDOF 6
ENDMDL
MODEL 6
REMARK VINA RESULT:    -5.890      6.966      9.915
REMARK INTER + INTRA:          -7.293
REMARK INTER:                  -7.003
REMARK INTRA:                  -0.291
REMARK UNBOUND:                -0.198
REMARK SMILES O=c1c(O)c(-c2ccc(O)c(O)c2)oc2cc(O)cc(O)c12
REMARK SMILES IDX 5 1 3 2 2 3 1 4 22 5 20 6 19 7 17 8 16 9 15 10 14 11 6 12
REMARK SMILES IDX 7 13 8 14 9 15 13 16 11 17 10 18 12 20 4 22 21 24 18 26
REMARK H PARENT 10 19 12 21 4 23 21 25 18 27
REMARK Flexibility Score: inf
ROOT
ATOM      1  C   UNL     1      12.800  -5.350 -10.726  1.00  0.00     0.180 A 
ATOM      2  C   UNL     1      11.774  -4.617 -11.347  1.00  0.00     0.208 A 
ATOM      3  C   UNL     1      10.440  -4.880 -10.996  1.00  0.00     0.238 A 
ATOM      4  O   UNL     1       9.530  -4.183 -11.515  1.00  0.00    -0.285 OA
ATOM      5  C   UNL     1      10.147  -5.883 -10.041  1.00  0.00     0.111 A 
ATOM      6  C   UNL     1       8.831  -6.260  -9.639  1.00  0.00     0.134 A 
ATOM      7  C   UNL     1       8.663  -7.173  -8.591  1.00  0.00     0.093 A 
ATOM      8  C   UNL     1       9.761  -7.771  -7.975  1.00  0.00     0.123 A 
ATOM      9  C   UNL     1      11.052  -7.455  -8.399  1.00  0.00     0.094 A 
ATOM     10  C   UNL     1      11.253  -6.520  -9.418  1.00  0.00     0.146 A 
ATOM     11  O   UNL     1      12.497  -6.238  -9.786  1.00  0.00    -0.452 OA
ENDROOT
BRANCH   1  12
ATOM     12  C   UNL     1      14.228  -5.148 -11.061  1.00  0.00     0.025 A 
ATOM     13  C   UNL     1      14.782  -5.670 -12.243  1.00  0.00     0.016 A 
ATOM     14  C   UNL     1      16.139  -5.487 -12.527  1.00  0.00     0.051 A 
ATOM     15  C   UNL     1      16.962  -4.793 -11.631  1.00  0.00     0.157 A 
ATOM     16  C   UNL     1      15.061  -4.471 -10.157  1.00  0.00     0.062 A 
ATOM     17  C   UNL     1      16.420  -4.286 -10.438  1.00  0.00     0.158 A 
BRANCH  15  18
ATOM     18  O   UNL     1      18.314  -4.611 -11.918  1.00  0.00    -0.504 OA
ATOM     19  H   UNL     1      18.772  -3.719 -11.773  1.00  0.00     0.293 HD
ENDBRANCH  15  18
BRANCH  17  20
ATOM     20  O   UNL     1      17.214  -3.597  -9.522  1.00  0.00    -0.504 OA
ATOM     21  H   UNL     1      16.834  -3.202  -8.670  1.00  0.00     0.293 HD
ENDBRANCH  17  20
ENDBRANCH   1  12
BRANCH   2  22
ATOM     22  O   UNL     1      12.086  -3.617 -12.272  1.00  0.00    -0.502 OA
ATOM     23  H   UNL     1      11.479  -2.824 -12.441  1.00  0.00     0.293 HD
ENDBRANCH   2  22
BRANCH   6  24
ATOM     24  O   UNL     1       7.664  -5.792 -10.251  1.00  0.00    -0.507 OA
ATOM     25  H   UNL     1       6.953  -6.381 -10.657  1.00  0.00     0.293 HD
ENDBRANCH   6  24
BRANCH   8  26
ATOM     26  O   UNL     1       9.558  -8.687  -6.945  1.00  0.00    -0.508 OA
ATOM     27  H   UNL     1       8.700  -8.699  -6.407  1.00  0.00     0.293 HD
ENDBRANCH   8  26
TORSDOF 6
ENDMDL
MODEL 7
REMARK VINA RESULT:    -5.739      7.658     12.984
REMARK INTER + INTRA:          -7.112
REMARK INTER:                  -6.887
REMARK INTRA:                  -0.224
REMARK UNBOUND:                -0.198
REMARK SMILES O=c1c(O)c(-c2ccc(O)c(O)c2)oc2cc(O)cc(O)c12
REMARK SMILES IDX 5 1 3 2 2 3 1 4 22 5 20 6 19 7 17 8 16 9 15 10 14 11 6 12
REMARK SMILES IDX 7 13 8 14 9 15 13 16 11 17 10 18 12 20 4 22 21 24 18 26
REMARK H PARENT 10 19 12 21 4 23 21 25 18 27
REMARK Flexibility Score: inf
ROOT
ATOM      1  C   UNL     1      10.967  -6.507  -9.503  1.00  0.00     0.180 A 
ATOM      2  C   UNL     1      10.818  -7.708 -10.219  1.00  0.00     0.208 A 
ATOM      3  C   UNL     1      11.748  -8.023 -11.223  1.00  0.00     0.238 A 
ATOM      4  O   UNL     1      11.641  -9.125 -11.821  1.00  0.00    -0.285 OA
ATOM      5  C   UNL     1      12.805  -7.127 -11.511  1.00  0.00     0.111 A 
ATOM      6  C   UNL     1      13.780  -7.325 -12.533  1.00  0.00     0.134 A 
ATOM      7  C   UNL     1      14.857  -6.437 -12.643  1.00  0.00     0.093 A 
ATOM      8  C   UNL     1      14.959  -5.323 -11.811  1.00  0.00     0.123 A 
ATOM      9  C   UNL     1      13.979  -5.086 -10.846  1.00  0.00     0.094 A 
ATOM     10  C   UNL     1      12.912  -5.974 -10.688  1.00  0.00     0.146 A 
ATOM     11  O   UNL     1      12.006  -5.719  -9.752  1.00  0.00    -0.452 OA
ENDROOT
BRANCH   1  12
ATOM     12  C   UNL     1      10.014  -6.094  -8.448  1.00  0.00     0.025 A 
ATOM     13  C   UNL     1      10.366  -6.136  -7.088  1.00  0.00     0.016 A 
ATOM     14  C   UNL     1       9.441  -5.765  -6.107  1.00  0.00     0.051 A 
ATOM     15  C   UNL     1       8.150  -5.359  -6.471  1.00  0.00     0.157 A 
ATOM     16  C   UNL     1       8.713  -5.707  -8.806  1.00  0.00     0.062 A 
ATOM     17  C   UNL     1       7.784  -5.334  -7.826  1.00  0.00     0.158 A 
BRANCH  15  18
ATOM     18  O   UNL     1       7.231  -4.988  -5.491  1.00  0.00    -0.504 OA
ATOM     19  H   UNL     1       7.358  -4.151  -4.933  1.00  0.00     0.293 HD
ENDBRANCH  15  18
BRANCH  17  20
ATOM     20  O   UNL     1       6.504  -4.942  -8.220  1.00  0.00    -0.504 OA
ATOM     21  H   UNL     1       6.348  -4.347  -9.024  1.00  0.00     0.293 HD
ENDBRANCH  17  20
ENDBRANCH   1  12
BRANCH   2  22
ATOM     22  O   UNL     1       9.780  -8.589  -9.903  1.00  0.00    -0.502 OA
ATOM     23  H   UNL     1       9.922  -9.589  -9.818  1.00  0.00     0.293 HD
ENDBRANCH   2  22
BRANCH   6  24
ATOM     24  O   UNL     1      13.722  -8.355 -13.477  1.00  0.00    -0.507 OA
ATOM     25  H   UNL     1      12.987  -8.469 -14.158  1.00  0.00     0.293 HD
ENDBRANCH   6  24
BRANCH   8  26
ATOM     26  O   UNL     1      16.036  -4.451 -11.957  1.00  0.00    -0.508 OA
ATOM     27  H   UNL     1      15.963  -3.472 -11.710  1.00  0.00     0.293 HD
ENDBRANCH   8  26
TORSDOF 6
ENDMDL
MODEL 8
REMARK VINA RESULT:    -5.681     15.268     17.414
REMARK INTER + INTRA:          -7.042
REMARK INTER:                  -6.962
REMARK INTRA:                  -0.080
REMARK UNBOUND:                -0.198
REMARK SMILES O=c1c(O)c(-c2ccc(O)c(O)c2)oc2cc(O)cc(O)c12
REMARK SMILES IDX 5 1 3 2 2 3 1 4 22 5 20 6 19 7 17 8 16 9 15 10 14 11 6 12
REMARK SMILES IDX 7 13 8 14 9 15 13 16 11 17 10 18 12 20 4 22 21 24 18 26
REMARK H PARENT 10 19 12 21 4 23 21 25 18 27
REMARK Flexibility Score: inf
ROOT
ATOM      1  C   UNL     1       4.870   5.505 -10.540  1.00  0.00     0.180 A 
ATOM      2  C   UNL     1       4.727   6.902 -10.476  1.00  0.00     0.208 A 
ATOM      3  C   UNL     1       4.481   7.616 -11.659  1.00  0.00     0.238 A 
ATOM      4  O   UNL     1       4.299   8.860 -11.588  1.00  0.00    -0.285 OA
ATOM      5  C   UNL     1       4.397   6.929 -12.893  1.00  0.00     0.111 A 
ATOM      6  C   UNL     1       4.191   7.556 -14.159  1.00  0.00     0.134 A 
ATOM      7  C   UNL     1       3.994   6.765 -15.298  1.00  0.00     0.093 A 
ATOM      8  C   UNL     1       4.061   5.374 -15.229  1.00  0.00     0.123 A 
ATOM      9  C   UNL     1       4.321   4.752 -14.008  1.00  0.00     0.094 A 
ATOM     10  C   UNL     1       4.485   5.512 -12.847  1.00  0.00     0.146 A 
ATOM     11  O   UNL     1       4.720   4.881 -11.703  1.00  0.00    -0.452 OA
ENDROOT
BRANCH   1  12
ATOM     12  C   UNL     1       5.155   4.685  -9.340  1.00  0.00     0.025 A 
ATOM     13  C   UNL     1       4.300   4.700  -8.224  1.00  0.00     0.016 A 
ATOM     14  C   UNL     1       4.602   3.937  -7.093  1.00  0.00     0.051 A 
ATOM     15  C   UNL     1       5.768   3.160  -7.054  1.00  0.00     0.157 A 
ATOM     16  C   UNL     1       6.333   3.922  -9.288  1.00  0.00     0.062 A 
ATOM     17  C   UNL     1       6.638   3.157  -8.156  1.00  0.00     0.158 A 
BRANCH  15  18
ATOM     18  O   UNL     1       6.066   2.399  -5.925  1.00  0.00    -0.504 OA
ATOM     19  H   UNL     1       5.342   1.917  -5.404  1.00  0.00     0.293 HD
ENDBRANCH  15  18
BRANCH  17  20
ATOM     20  O   UNL     1       7.810   2.400  -8.147  1.00  0.00    -0.504 OA
ATOM     21  H   UNL     1       8.727   2.828  -8.193  1.00  0.00     0.293 HD
ENDBRANCH  17  20
ENDBRANCH   1  12
BRANCH   2  22
ATOM     22  O   UNL     1       4.791   7.559  -9.244  1.00  0.00    -0.502 OA
ATOM     23  H   UNL     1       4.653   7.077  -8.363  1.00  0.00     0.293 HD
ENDBRANCH   2  22
BRANCH   6  24
ATOM     24  O   UNL     1       4.199   8.940 -14.354  1.00  0.00    -0.507 OA
ATOM     25  H   UNL     1       3.751   9.608 -13.745  1.00  0.00     0.293 HD
ENDBRANCH   6  24
BRANCH   8  26
ATOM     26  O   UNL     1       3.875   4.619 -16.385  1.00  0.00    -0.508 OA
ATOM     27  H   UNL     1       3.141   3.924 -16.453  1.00  0.00     0.293 HD
ENDBRANCH   8  26
TORSDOF 6
ENDMDL
MODEL 9
REMARK VINA RESULT:    -5.571      6.454      8.973
REMARK INTER + INTRA:          -6.909
REMARK INTER:                  -6.620
REMARK INTRA:                  -0.289
REMARK UNBOUND:                -0.198
REMARK SMILES O=c1c(O)c(-c2ccc(O)c(O)c2)oc2cc(O)cc(O)c12
REMARK SMILES IDX 5 1 3 2 2 3 1 4 22 5 20 6 19 7 17 8 16 9 15 10 14 11 6 12
REMARK SMILES IDX 7 13 8 14 9 15 13 16 11 17 10 18 12 20 4 22 21 24 18 26
REMARK H PARENT 10 19 12 21 4 23 21 25 18 27
REMARK Flexibility Score: inf
ROOT
ATOM      1  C   UNL     1      17.801  -1.999  -9.179  1.00  0.00     0.180 A 
ATOM      2  C   UNL     1      17.033  -0.822  -9.124  1.00  0.00     0.208 A 
ATOM      3  C   UNL     1      16.014  -0.629 -10.069  1.00  0.00     0.238 A 
ATOM      4  O   UNL     1      15.295   0.400  -9.981  1.00  0.00    -0.285 OA
ATOM      5  C   UNL     1      15.783  -1.605 -11.068  1.00  0.00     0.111 A 
ATOM      6  C   UNL     1      14.804  -1.495 -12.099  1.00  0.00     0.134 A 
ATOM      7  C   UNL     1      14.575  -2.580 -12.954  1.00  0.00     0.093 A 
ATOM      8  C   UNL     1      15.334  -3.745 -12.857  1.00  0.00     0.123 A 
ATOM      9  C   UNL     1      16.335  -3.842 -11.890  1.00  0.00     0.094 A 
ATOM     10  C   UNL     1      16.563  -2.791 -10.999  1.00  0.00     0.146 A 
ATOM     11  O   UNL     1      17.517  -2.926 -10.087  1.00  0.00    -0.452 OA
ENDROOT
BRANCH   1  12
ATOM     12  C   UNL     1      18.909  -2.263  -8.233  1.00  0.00     0.025 A 
ATOM     13  C   UNL     1      20.251  -2.085  -8.612  1.00  0.00     0.016 A 
ATOM     14  C   UNL     1      21.282  -2.363  -7.710  1.00  0.00     0.051 A 
ATOM     15  C   UNL     1      20.988  -2.835  -6.424  1.00  0.00     0.157 A 
ATOM     16  C   UNL     1      18.621  -2.756  -6.951  1.00  0.00     0.062 A 
ATOM     17  C   UNL     1      19.651  -3.035  -6.045  1.00  0.00     0.158 A 
BRANCH  15  18
ATOM     18  O   UNL     1      22.018  -3.110  -5.526  1.00  0.00    -0.504 OA
ATOM     19  H   UNL     1      22.762  -2.444  -5.350  1.00  0.00     0.293 HD
ENDBRANCH  15  18
BRANCH  17  20
ATOM     20  O   UNL     1      19.325  -3.511  -4.774  1.00  0.00    -0.504 OA
ATOM     21  H   UNL     1      18.382  -3.789  -4.529  1.00  0.00     0.293 HD
ENDBRANCH  17  20
ENDBRANCH   1  12
BRANCH   2  22
ATOM     22  O   UNL     1      17.263   0.119  -8.116  1.00  0.00    -0.502 OA
ATOM     23  H   UNL     1      17.066  -0.070  -7.141  1.00  0.00     0.293 HD
ENDBRANCH   2  22
BRANCH   6  24
ATOM     24  O   UNL     1      14.054  -0.340 -12.343  1.00  0.00    -0.507 OA
ATOM     25  H   UNL     1      14.445   0.558 -12.581  1.00  0.00     0.293 HD
ENDBRANCH   6  24
BRANCH   8  26
ATOM     26  O   UNL     1      15.090  -4.800 -13.734  1.00  0.00    -0.508 OA
ATOM     27  H   UNL     1      15.051  -5.760 -13.412  1.00  0.00     0.293 HD
ENDBRANCH   8  26
TORSDOF 6
ENDMDL
