MODEL 1
REMARK VINA RESULT:    -2.884      0.000      0.000
REMARK INTER + INTRA:         -10.973
REMARK INTER:                  -6.594
REMARK INTRA:                  -4.380
REMARK UNBOUND:                -4.380
REMARK SMILES CCCCCCCCCCCCCCCCCCCCCCCC(=O)[O-]
REMARK SMILES IDX 13 1 14 2 15 3 16 4 17 5 18 6 19 7 20 8 21 9 22 10 23 11
REMARK SMILES IDX 24 12 25 13 26 14 12 15 11 16 10 17 9 18 8 19 7 20 6 21 5 22
REMARK SMILES IDX 4 23 3 24 2 25 1 26
REMARK H PARENT
REMARK Flexibility Score: inf
ROOT
ATOM      1  C   UNL     1     -16.847 -16.701  26.571  1.00  0.00     0.000 C 
ENDROOT
BRANCH   1   2
ATOM      2  C   UNL     1     -18.202 -15.977  26.660  1.00  0.00     0.000 C 
BRANCH   2   3
ATOM      3  C   UNL     1     -18.648 -15.610  28.091  1.00  0.00     0.000 C 
BRANCH   3   4
ATOM      4  C   UNL     1     -19.631 -14.425  28.187  1.00  0.00     0.000 C 
BRANCH   4   5
ATOM      5  C   UNL     1     -18.986 -13.073  28.538  1.00  0.00     0.000 C 
BRANCH   5   6
ATOM      6  C   UNL     1     -17.512 -13.203  28.947  1.00  0.00     0.000 C 
BRANCH   6   7
ATOM      7  C   UNL     1     -16.602 -12.456  27.961  1.00  0.00     0.000 C 
BRANCH   7   8
ATOM      8  C   UNL     1     -17.386 -11.821  26.802  1.00  0.00     0.000 C 
BRANCH   8   9
ATOM      9  C   UNL     1     -17.164 -12.558  25.470  1.00  0.00     0.000 C 
BRANCH   9  10
ATOM     10  C   UNL     1     -18.483 -12.898  24.760  1.00  0.00     0.006 C 
BRANCH  10  11
ATOM     11  C   UNL     1     -18.771 -11.965  23.577  1.00  0.00     0.053 C 
BRANCH  11  12
ATOM     12  C   UNL     1     -18.759 -12.731  22.291  1.00  0.00     0.041 C 
ATOM     13  O   UNL     1     -17.929 -13.663  22.115  1.00  0.00    -0.550 OA
ATOM     14  O   UNL     1     -19.688 -12.439  21.300  1.00  0.00    -0.550 OA
ENDBRANCH  11  12
ENDBRANCH  10  11
ENDBRANCH   9  10
ENDBRANCH   8   9
ENDBRANCH   7   8
ENDBRANCH   6   7
ENDBRANCH   5   6
ENDBRANCH   4   5
ENDBRANCH   3   4
ENDBRANCH   2   3
ENDBRANCH   1   2
BRANCH   1  15
ATOM     15  C   UNL     1     -15.654 -15.732  26.633  1.00  0.00     0.000 C 
BRANCH  15  16
ATOM     16  C   UNL     1     -14.871 -15.842  27.951  1.00  0.00     0.000 C 
BRANCH  16  17
ATOM     17  C   UNL     1     -15.031 -17.220  28.617  1.00  0.00     0.000 C 
BRANCH  17  18
ATOM     18  C   UNL     1     -15.073 -17.130  30.154  1.00  0.00    -0.000 C 
BRANCH  18  19
ATOM     19  C   UNL     1     -16.124 -16.137  30.689  1.00  0.00    -0.000 C 
BRANCH  19  20
ATOM     20  C   UNL     1     -15.485 -14.969  31.461  1.00  0.00    -0.000 C 
BRANCH  20  21
ATOM     21  C   UNL     1     -14.183 -15.375  32.169  1.00  0.00    -0.000 C 
BRANCH  21  22
ATOM     22  C   UNL     1     -13.050 -14.354  31.964  1.00  0.00    -0.000 C 
BRANCH  22  23
ATOM     23  C   UNL     1     -12.767 -14.090  30.470  1.00  0.00    -0.000 C 
BRANCH  23  24
ATOM     24  C   UNL     1     -11.435 -14.687  29.977  1.00  0.00    -0.000 C 
BRANCH  24  25
ATOM     25  C   UNL     1     -11.564 -16.046  29.267  1.00  0.00    -0.003 C 
ATOM     26  C   UNL     1     -11.143 -17.219  30.152  1.00  0.00     0.004 C 
ENDBRANCH  24  25
ENDBRANCH  23  24
ENDBRANCH  22  23
ENDBRANCH  21  22
ENDBRANCH  20  21
ENDBRANCH  19  20
ENDBRANCH  18  19
ENDBRANCH  17  18
ENDBRANCH  16  17
ENDBRANCH  15  16
ENDBRANCH   1  15
TORSDOF 22
ENDMDL
MODEL 2
REMARK VINA RESULT:    -2.883     10.634     13.586
REMARK INTER + INTRA:         -10.971
REMARK INTER:                  -7.242
REMARK INTRA:                  -3.730
REMARK UNBOUND:                -4.380
REMARK SMILES CCCCCCCCCCCCCCCCCCCCCCCC(=O)[O-]
REMARK SMILES IDX 13 1 14 2 15 3 16 4 17 5 18 6 19 7 20 8 21 9 22 10 23 11
REMARK SMILES IDX 24 12 25 13 26 14 12 15 11 16 10 17 9 18 8 19 7 20 6 21 5 22
REMARK SMILES IDX 4 23 3 24 2 25 1 26
REMARK H PARENT
REMARK Flexibility Score: inf
ROOT
ATOM      1  C   UNL     1     -12.546 -19.391  20.727  1.00  0.00     0.000 C 
ENDROOT
BRANCH   1   2
ATOM      2  C   UNL     1     -11.175 -19.911  21.195  1.00  0.00     0.000 C 
BRANCH   2   3
ATOM      3  C   UNL     1      -9.989 -19.509  20.294  1.00  0.00     0.000 C 
BRANCH   3   4
ATOM      4  C   UNL     1      -9.431 -20.637  19.402  1.00  0.00     0.000 C 
BRANCH   4   5
ATOM      5  C   UNL     1      -8.689 -20.161  18.140  1.00  0.00     0.000 C 
BRANCH   5   6
ATOM      6  C   UNL     1      -8.029 -18.786  18.319  1.00  0.00     0.000 C 
BRANCH   6   7
ATOM      7  C   UNL     1      -6.500 -18.915  18.376  1.00  0.00     0.000 C 
BRANCH   7   8
ATOM      8  C   UNL     1      -5.999 -19.377  19.754  1.00  0.00     0.000 C 
BRANCH   8   9
ATOM      9  C   UNL     1      -6.628 -18.571  20.905  1.00  0.00     0.000 C 
BRANCH   9  10
ATOM     10  C   UNL     1      -5.727 -18.528  22.150  1.00  0.00     0.006 C 
BRANCH  10  11
ATOM     11  C   UNL     1      -4.886 -19.801  22.310  1.00  0.00     0.053 C 
BRANCH  11  12
ATOM     12  C   UNL     1      -3.427 -19.469  22.292  1.00  0.00     0.041 C 
ATOM     13  O   UNL     1      -2.567 -20.380  22.433  1.00  0.00    -0.550 OA
ATOM     14  O   UNL     1      -3.014 -18.159  22.083  1.00  0.00    -0.550 OA
ENDBRANCH  11  12
ENDBRANCH  10  11
ENDBRANCH   9  10
ENDBRANCH   8   9
ENDBRANCH   7   8
ENDBRANCH   6   7
ENDBRANCH   5   6
ENDBRANCH   4   5
ENDBRANCH   3   4
ENDBRANCH   2   3
ENDBRANCH   1   2
BRANCH   1  15
ATOM     15  C   UNL     1     -12.434 -18.379  19.576  1.00  0.00     0.000 C 
BRANCH  15  16
ATOM     16  C   UNL     1     -13.499 -18.599  18.489  1.00  0.00     0.000 C 
BRANCH  16  17
ATOM     17  C   UNL     1     -13.637 -20.081  18.094  1.00  0.00     0.000 C 
BRANCH  17  18
ATOM     18  C   UNL     1     -12.439 -20.582  17.267  1.00  0.00    -0.000 C 
BRANCH  18  19
ATOM     19  C   UNL     1     -12.162 -22.090  17.424  1.00  0.00    -0.000 C 
BRANCH  19  20
ATOM     20  C   UNL     1     -12.524 -22.609  18.827  1.00  0.00    -0.000 C 
BRANCH  20  21
ATOM     21  C   UNL     1     -11.593 -23.739  19.293  1.00  0.00    -0.000 C 
BRANCH  21  22
ATOM     22  C   UNL     1     -11.192 -23.609  20.773  1.00  0.00    -0.000 C 
BRANCH  22  23
ATOM     23  C   UNL     1     -12.403 -23.302  21.679  1.00  0.00    -0.000 C 
BRANCH  23  24
ATOM     24  C   UNL     1     -12.023 -23.008  23.142  1.00  0.00    -0.000 C 
BRANCH  24  25
ATOM     25  C   UNL     1     -12.827 -21.873  23.799  1.00  0.00    -0.003 C 
ATOM     26  C   UNL     1     -14.218 -21.702  23.189  1.00  0.00     0.004 C 
ENDBRANCH  24  25
ENDBRANCH  23  24
ENDBRANCH  22  23
ENDBRANCH  21  22
ENDBRANCH  20  21
ENDBRANCH  19  20
ENDBRANCH  18  19
ENDBRANCH  17  18
ENDBRANCH  16  17
ENDBRANCH  15  16
ENDBRANCH   1  15
TORSDOF 22
ENDMDL
MODEL 3
REMARK VINA RESULT:    -2.770      9.753     12.139
REMARK INTER + INTRA:         -10.712
REMARK INTER:                  -6.388
REMARK INTRA:                  -4.325
REMARK UNBOUND:                -4.380
REMARK SMILES CCCCCCCCCCCCCCCCCCCCCCCC(=O)[O-]
REMARK SMILES IDX 13 1 14 2 15 3 16 4 17 5 18 6 19 7 20 8 21 9 22 10 23 11
REMARK SMILES IDX 24 12 25 13 26 14 12 15 11 16 10 17 9 18 8 19 7 20 6 21 5 22
REMARK SMILES IDX 4 23 3 24 2 25 1 26
REMARK H PARENT
REMARK Flexibility Score: inf
ROOT
ATOM      1  C   UNL     1     -12.146 -22.581  17.076  1.00  0.00     0.000 C 
ENDROOT
BRANCH   1   2
ATOM      2  C   UNL     1     -13.178 -21.460  17.292  1.00  0.00     0.000 C 
BRANCH   2   3
ATOM      3  C   UNL     1     -12.939 -20.188  16.453  1.00  0.00     0.000 C 
BRANCH   3   4
ATOM      4  C   UNL     1     -12.313 -19.005  17.219  1.00  0.00     0.000 C 
BRANCH   4   5
ATOM      5  C   UNL     1     -13.231 -18.353  18.270  1.00  0.00     0.000 C 
BRANCH   5   6
ATOM      6  C   UNL     1     -12.550 -18.190  19.636  1.00  0.00     0.000 C 
BRANCH   6   7
ATOM      7  C   UNL     1     -12.178 -19.556  20.229  1.00  0.00     0.000 C 
BRANCH   7   8
ATOM      8  C   UNL     1     -10.765 -19.569  20.835  1.00  0.00     0.000 C 
BRANCH   8   9
ATOM      9  C   UNL     1      -9.732 -20.223  19.899  1.00  0.00     0.000 C 
BRANCH   9  10
ATOM     10  C   UNL     1      -9.059 -19.204  18.966  1.00  0.00     0.006 C 
BRANCH  10  11
ATOM     11  C   UNL     1      -7.535 -19.370  18.918  1.00  0.00     0.053 C 
BRANCH  11  12
ATOM     12  C   UNL     1      -6.880 -18.480  19.927  1.00  0.00     0.041 C 
ATOM     13  O   UNL     1      -6.384 -17.376  19.574  1.00  0.00    -0.550 OA
ATOM     14  O   UNL     1      -6.846 -18.853  21.265  1.00  0.00    -0.550 OA
ENDBRANCH  11  12
ENDBRANCH  10  11
ENDBRANCH   9  10
ENDBRANCH   8   9
ENDBRANCH   7   8
ENDBRANCH   6   7
ENDBRANCH   5   6
ENDBRANCH   4   5
ENDBRANCH   3   4
ENDBRANCH   2   3
ENDBRANCH   1   2
BRANCH   1  15
ATOM     15  C   UNL     1     -11.461 -23.016  18.382  1.00  0.00     0.000 C 
BRANCH  15  16
ATOM     16  C   UNL     1     -12.459 -23.209  19.536  1.00  0.00     0.000 C 
BRANCH  16  17
ATOM     17  C   UNL     1     -11.819 -23.895  20.757  1.00  0.00     0.000 C 
BRANCH  17  18
ATOM     18  C   UNL     1     -11.577 -22.916  21.921  1.00  0.00    -0.000 C 
BRANCH  18  19
ATOM     19  C   UNL     1     -12.075 -23.435  23.284  1.00  0.00    -0.000 C 
BRANCH  19  20
ATOM     20  C   UNL     1     -12.795 -22.345  24.098  1.00  0.00    -0.000 C 
BRANCH  20  21
ATOM     21  C   UNL     1     -13.118 -21.101  23.256  1.00  0.00    -0.000 C 
BRANCH  21  22
ATOM     22  C   UNL     1     -14.617 -20.972  22.933  1.00  0.00    -0.000 C 
BRANCH  22  23
ATOM     23  C   UNL     1     -14.956 -21.507  21.525  1.00  0.00    -0.000 C 
BRANCH  23  24
ATOM     24  C   UNL     1     -15.997 -22.642  21.528  1.00  0.00    -0.000 C 
BRANCH  24  25
ATOM     25  C   UNL     1     -15.410 -24.050  21.730  1.00  0.00    -0.003 C 
ATOM     26  C   UNL     1     -15.648 -24.595  23.138  1.00  0.00     0.004 C 
ENDBRANCH  24  25
ENDBRANCH  23  24
ENDBRANCH  22  23
ENDBRANCH  21  22
ENDBRANCH  20  21
ENDBRANCH  19  20
ENDBRANCH  18  19
ENDBRANCH  17  18
ENDBRANCH  16  17
ENDBRANCH  15  16
ENDBRANCH   1  15
TORSDOF 22
ENDMDL
MODEL 4
REMARK VINA RESULT:    -2.757      9.398     11.808
REMARK INTER + INTRA:         -10.684
REMARK INTER:                  -6.959
REMARK INTRA:                  -3.725
REMARK UNBOUND:                -4.380
REMARK SMILES CCCCCCCCCCCCCCCCCCCCCCCC(=O)[O-]
REMARK SMILES IDX 13 1 14 2 15 3 16 4 17 5 18 6 19 7 20 8 21 9 22 10 23 11
REMARK SMILES IDX 24 12 25 13 26 14 12 15 11 16 10 17 9 18 8 19 7 20 6 21 5 22
REMARK SMILES IDX 4 23 3 24 2 25 1 26
REMARK H PARENT
REMARK Flexibility Score: inf
ROOT
ATOM      1  C   UNL     1     -13.005 -22.324  17.453  1.00  0.00     0.000 C 
ENDROOT
BRANCH   1   2
ATOM      2  C   UNL     1     -12.841 -22.735  18.927  1.00  0.00     0.000 C 
BRANCH   2   3
ATOM      3  C   UNL     1     -11.509 -23.439  19.260  1.00  0.00     0.000 C 
BRANCH   3   4
ATOM      4  C   UNL     1     -11.113 -23.423  20.750  1.00  0.00     0.000 C 
BRANCH   4   5
ATOM      5  C   UNL     1     -11.766 -24.521  21.608  1.00  0.00     0.000 C 
BRANCH   5   6
ATOM      6  C   UNL     1     -12.195 -24.019  22.994  1.00  0.00     0.000 C 
BRANCH   6   7
ATOM      7  C   UNL     1     -12.063 -22.492  23.089  1.00  0.00     0.000 C 
BRANCH   7   8
ATOM      8  C   UNL     1     -13.268 -21.839  23.784  1.00  0.00     0.000 C 
BRANCH   8   9
ATOM      9  C   UNL     1     -14.012 -20.854  22.865  1.00  0.00     0.000 C 
BRANCH   9  10
ATOM     10  C   UNL     1     -14.795 -21.567  21.752  1.00  0.00     0.006 C 
BRANCH  10  11
ATOM     11  C   UNL     1     -15.810 -22.577  22.303  1.00  0.00     0.053 C 
BRANCH  11  12
ATOM     12  C   UNL     1     -16.854 -21.879  23.116  1.00  0.00     0.041 C 
ATOM     13  O   UNL     1     -17.550 -20.961  22.604  1.00  0.00    -0.550 OA
ATOM     14  O   UNL     1     -17.084 -22.265  24.431  1.00  0.00    -0.550 OA
ENDBRANCH  11  12
ENDBRANCH  10  11
ENDBRANCH   9  10
ENDBRANCH   8   9
ENDBRANCH   7   8
ENDBRANCH   6   7
ENDBRANCH   5   6
ENDBRANCH   4   5
ENDBRANCH   3   4
ENDBRANCH   2   3
ENDBRANCH   1   2
BRANCH   1  15
ATOM     15  C   UNL     1     -12.775 -20.820  17.229  1.00  0.00     0.000 C 
BRANCH  15  16
ATOM     16  C   UNL     1     -13.536 -19.948  18.241  1.00  0.00     0.000 C 
BRANCH  16  17
ATOM     17  C   UNL     1     -12.807 -18.626  18.543  1.00  0.00     0.000 C 
BRANCH  17  18
ATOM     18  C   UNL     1     -12.407 -18.500  20.025  1.00  0.00    -0.000 C 
BRANCH  18  19
ATOM     19  C   UNL     1     -11.712 -19.755  20.590  1.00  0.00    -0.000 C 
BRANCH  19  20
ATOM     20  C   UNL     1     -10.181 -19.612  20.621  1.00  0.00    -0.000 C 
BRANCH  20  21
ATOM     21  C   UNL     1      -9.505 -20.281  19.414  1.00  0.00    -0.000 C 
BRANCH  21  22
ATOM     22  C   UNL     1      -9.088 -19.272  18.329  1.00  0.00    -0.000 C 
BRANCH  22  23
ATOM     23  C   UNL     1      -7.760 -18.563  18.674  1.00  0.00    -0.000 C 
BRANCH  23  24
ATOM     24  C   UNL     1      -6.947 -19.273  19.773  1.00  0.00    -0.000 C 
BRANCH  24  25
ATOM     25  C   UNL     1      -6.652 -18.410  21.012  1.00  0.00    -0.003 C 
ATOM     26  C   UNL     1      -5.758 -19.118  22.029  1.00  0.00     0.004 C 
ENDBRANCH  24  25
ENDBRANCH  23  24
ENDBRANCH  22  23
ENDBRANCH  21  22
ENDBRANCH  20  21
ENDBRANCH  19  20
ENDBRANCH  18  19
ENDBRANCH  17  18
ENDBRANCH  16  17
ENDBRANCH  15  16
ENDBRANCH   1  15
TORSDOF 22
ENDMDL
MODEL 5
REMARK VINA RESULT:    -2.744      3.346      7.552
REMARK INTER + INTRA:         -10.653
REMARK INTER:                  -6.664
REMARK INTRA:                  -3.989
REMARK UNBOUND:                -4.380
REMARK SMILES CCCCCCCCCCCCCCCCCCCCCCCC(=O)[O-]
REMARK SMILES IDX 13 1 14 2 15 3 16 4 17 5 18 6 19 7 20 8 21 9 22 10 23 11
REMARK SMILES IDX 24 12 25 13 26 14 12 15 11 16 10 17 9 18 8 19 7 20 6 21 5 22
REMARK SMILES IDX 4 23 3 24 2 25 1 26
REMARK H PARENT
REMARK Flexibility Score: inf
ROOT
ATOM      1  C   UNL     1     -16.348 -15.975  26.976  1.00  0.00     0.000 C 
ENDROOT
BRANCH   1   2
ATOM      2  C   UNL     1     -15.160 -16.626  27.705  1.00  0.00     0.000 C 
BRANCH   2   3
ATOM      3  C   UNL     1     -15.549 -17.632  28.809  1.00  0.00     0.000 C 
BRANCH   3   4
ATOM      4  C   UNL     1     -16.886 -17.340  29.520  1.00  0.00     0.000 C 
BRANCH   4   5
ATOM      5  C   UNL     1     -16.821 -16.250  30.605  1.00  0.00     0.000 C 
BRANCH   5   6
ATOM      6  C   UNL     1     -17.672 -15.018  30.265  1.00  0.00     0.000 C 
BRANCH   6   7
ATOM      7  C   UNL     1     -16.905 -13.723  30.566  1.00  0.00     0.000 C 
BRANCH   7   8
ATOM      8  C   UNL     1     -15.410 -13.970  30.825  1.00  0.00     0.000 C 
BRANCH   8   9
ATOM      9  C   UNL     1     -14.520 -13.414  29.699  1.00  0.00     0.000 C 
BRANCH   9  10
ATOM     10  C   UNL     1     -13.154 -14.115  29.632  1.00  0.00     0.006 C 
BRANCH  10  11
ATOM     11  C   UNL     1     -13.097 -15.375  30.505  1.00  0.00     0.053 C 
BRANCH  11  12
ATOM     12  C   UNL     1     -12.143 -16.371  29.924  1.00  0.00     0.041 C 
ATOM     13  O   UNL     1     -11.653 -16.188  28.777  1.00  0.00    -0.550 OA
ATOM     14  O   UNL     1     -11.765 -17.485  30.664  1.00  0.00    -0.550 OA
ENDBRANCH  11  12
ENDBRANCH  10  11
ENDBRANCH   9  10
ENDBRANCH   8   9
ENDBRANCH   7   8
ENDBRANCH   6   7
ENDBRANCH   5   6
ENDBRANCH   4   5
ENDBRANCH   3   4
ENDBRANCH   2   3
ENDBRANCH   1   2
BRANCH   1  15
ATOM     15  C   UNL     1     -15.984 -14.622  26.343  1.00  0.00     0.000 C 
BRANCH  15  16
ATOM     16  C   UNL     1     -16.814 -13.460  26.913  1.00  0.00     0.000 C 
BRANCH  16  17
ATOM     17  C   UNL     1     -18.150 -13.272  26.171  1.00  0.00     0.000 C 
BRANCH  17  18
ATOM     18  C   UNL     1     -18.115 -12.086  25.190  1.00  0.00    -0.000 C 
BRANCH  18  19
ATOM     19  C   UNL     1     -18.652 -12.424  23.785  1.00  0.00    -0.000 C 
BRANCH  19  20
ATOM     20  C   UNL     1     -17.713 -13.367  23.011  1.00  0.00    -0.000 C 
BRANCH  20  21
ATOM     21  C   UNL     1     -18.478 -14.464  22.254  1.00  0.00    -0.000 C 
BRANCH  21  22
ATOM     22  C   UNL     1     -19.267 -15.396  23.191  1.00  0.00    -0.000 C 
BRANCH  22  23
ATOM     23  C   UNL     1     -18.824 -16.868  23.055  1.00  0.00    -0.000 C 
BRANCH  23  24
ATOM     24  C   UNL     1     -18.117 -17.420  24.308  1.00  0.00    -0.000 C 
BRANCH  24  25
ATOM     25  C   UNL     1     -19.020 -18.238  25.247  1.00  0.00    -0.003 C 
ATOM     26  C   UNL     1     -19.600 -17.404  26.388  1.00  0.00     0.004 C 
ENDBRANCH  24  25
ENDBRANCH  23  24
ENDBRANCH  22  23
ENDBRANCH  21  22
ENDBRANCH  20  21
ENDBRANCH  19  20
ENDBRANCH  18  19
ENDBRANCH  17  18
ENDBRANCH  16  17
ENDBRANCH  15  16
ENDBRANCH   1  15
TORSDOF 22
ENDMDL
MODEL 6
REMARK VINA RESULT:    -2.728      4.035      8.004
REMARK INTER + INTRA:         -10.617
REMARK INTER:                  -7.191
REMARK INTRA:                  -3.426
REMARK UNBOUND:                -4.380
REMARK SMILES CCCCCCCCCCCCCCCCCCCCCCCC(=O)[O-]
REMARK SMILES IDX 13 1 14 2 15 3 16 4 17 5 18 6 19 7 20 8 21 9 22 10 23 11
REMARK SMILES IDX 24 12 25 13 26 14 12 15 11 16 10 17 9 18 8 19 7 20 6 21 5 22
REMARK SMILES IDX 4 23 3 24 2 25 1 26
REMARK H PARENT
REMARK Flexibility Score: inf
ROOT
ATOM      1  C   UNL     1     -14.909 -16.311  27.119  1.00  0.00     0.000 C 
ENDROOT
BRANCH   1   2
ATOM      2  C   UNL     1     -15.364 -17.169  28.312  1.00  0.00     0.000 C 
BRANCH   2   3
ATOM      3  C   UNL     1     -15.085 -16.552  29.698  1.00  0.00     0.000 C 
BRANCH   3   4
ATOM      4  C   UNL     1     -15.787 -15.205  29.969  1.00  0.00     0.000 C 
BRANCH   4   5
ATOM      5  C   UNL     1     -14.840 -14.020  30.230  1.00  0.00     0.000 C 
BRANCH   5   6
ATOM      6  C   UNL     1     -13.950 -13.691  29.023  1.00  0.00     0.000 C 
BRANCH   6   7
ATOM      7  C   UNL     1     -12.488 -13.508  29.454  1.00  0.00     0.000 C 
BRANCH   7   8
ATOM      8  C   UNL     1     -11.946 -14.722  30.226  1.00  0.00     0.000 C 
BRANCH   8   9
ATOM      9  C   UNL     1     -11.485 -15.853  29.289  1.00  0.00     0.000 C 
BRANCH   9  10
ATOM     10  C   UNL     1     -11.069 -17.117  30.058  1.00  0.00     0.006 C 
BRANCH  10  11
ATOM     11  C   UNL     1     -10.339 -16.794  31.368  1.00  0.00     0.053 C 
BRANCH  11  12
ATOM     12  C   UNL     1      -8.860 -16.744  31.146  1.00  0.00     0.041 C 
ATOM     13  O   UNL     1      -8.087 -17.437  31.859  1.00  0.00    -0.550 OA
ATOM     14  O   UNL     1      -8.337 -15.958  30.126  1.00  0.00    -0.550 OA
ENDBRANCH  11  12
ENDBRANCH  10  11
ENDBRANCH   9  10
ENDBRANCH   8   9
ENDBRANCH   7   8
ENDBRANCH   6   7
ENDBRANCH   5   6
ENDBRANCH   4   5
ENDBRANCH   3   4
ENDBRANCH   2   3
ENDBRANCH   1   2
BRANCH   1  15
ATOM     15  C   UNL     1     -16.047 -16.029  26.125  1.00  0.00     0.000 C 
BRANCH  15  16
ATOM     16  C   UNL     1     -17.414 -16.508  26.639  1.00  0.00     0.000 C 
BRANCH  16  17
ATOM     17  C   UNL     1     -18.444 -16.671  25.507  1.00  0.00     0.000 C 
BRANCH  17  18
ATOM     18  C   UNL     1     -17.860 -16.321  24.126  1.00  0.00    -0.000 C 
BRANCH  18  19
ATOM     19  C   UNL     1     -18.602 -15.176  23.408  1.00  0.00    -0.000 C 
BRANCH  19  20
ATOM     20  C   UNL     1     -17.768 -13.884  23.348  1.00  0.00    -0.000 C 
BRANCH  20  21
ATOM     21  C   UNL     1     -18.446 -12.714  24.079  1.00  0.00    -0.000 C 
BRANCH  21  22
ATOM     22  C   UNL     1     -17.669 -12.261  25.328  1.00  0.00    -0.000 C 
BRANCH  22  23
ATOM     23  C   UNL     1     -18.125 -13.010  26.599  1.00  0.00    -0.000 C 
BRANCH  23  24
ATOM     24  C   UNL     1     -17.417 -12.536  27.883  1.00  0.00    -0.000 C 
BRANCH  24  25
ATOM     25  C   UNL     1     -16.749 -11.155  27.775  1.00  0.00    -0.003 C 
ATOM     26  C   UNL     1     -16.122 -10.695  29.091  1.00  0.00     0.004 C 
ENDBRANCH  24  25
ENDBRANCH  23  24
ENDBRANCH  22  23
ENDBRANCH  21  22
ENDBRANCH  20  21
ENDBRANCH  19  20
ENDBRANCH  18  19
ENDBRANCH  17  18
ENDBRANCH  16  17
ENDBRANCH  15  16
ENDBRANCH   1  15
TORSDOF 22
ENDMDL
MODEL 7
REMARK VINA RESULT:    -2.722      9.756     12.577
REMARK INTER + INTRA:         -10.604
REMARK INTER:                  -6.045
REMARK INTRA:                  -4.559
REMARK UNBOUND:                -4.380
REMARK SMILES CCCCCCCCCCCCCCCCCCCCCCCC(=O)[O-]
REMARK SMILES IDX 13 1 14 2 15 3 16 4 17 5 18 6 19 7 20 8 21 9 22 10 23 11
REMARK SMILES IDX 24 12 25 13 26 14 12 15 11 16 10 17 9 18 8 19 7 20 6 21 5 22
REMARK SMILES IDX 4 23 3 24 2 25 1 26
REMARK H PARENT
REMARK Flexibility Score: inf
ROOT
ATOM      1  C   UNL     1     -14.390 -23.241  19.966  1.00  0.00     0.000 C 
ENDROOT
BRANCH   1   2
ATOM      2  C   UNL     1     -15.257 -22.527  21.018  1.00  0.00     0.000 C 
BRANCH   2   3
ATOM      3  C   UNL     1     -14.626 -21.254  21.621  1.00  0.00     0.000 C 
BRANCH   3   4
ATOM      4  C   UNL     1     -14.229 -21.360  23.107  1.00  0.00     0.000 C 
BRANCH   4   5
ATOM      5  C   UNL     1     -12.714 -21.417  23.373  1.00  0.00     0.000 C 
BRANCH   5   6
ATOM      6  C   UNL     1     -12.275 -22.728  24.040  1.00  0.00     0.000 C 
BRANCH   6   7
ATOM      7  C   UNL     1     -12.503 -23.923  23.104  1.00  0.00     0.000 C 
BRANCH   7   8
ATOM      8  C   UNL     1     -13.206 -25.095  23.807  1.00  0.00     0.000 C 
BRANCH   8   9
ATOM      9  C   UNL     1     -14.736 -25.039  23.652  1.00  0.00     0.000 C 
BRANCH   9  10
ATOM     10  C   UNL     1     -15.425 -24.402  24.868  1.00  0.00     0.006 C 
BRANCH  10  11
ATOM     11  C   UNL     1     -14.638 -24.615  26.167  1.00  0.00     0.053 C 
BRANCH  11  12
ATOM     12  C   UNL     1     -15.089 -25.865  26.855  1.00  0.00     0.041 C 
ATOM     13  O   UNL     1     -16.310 -26.043  27.113  1.00  0.00    -0.550 OA
ATOM     14  O   UNL     1     -14.167 -26.852  27.180  1.00  0.00    -0.550 OA
ENDBRANCH  11  12
ENDBRANCH  10  11
ENDBRANCH   9  10
ENDBRANCH   8   9
ENDBRANCH   7   8
ENDBRANCH   6   7
ENDBRANCH   5   6
ENDBRANCH   4   5
ENDBRANCH   3   4
ENDBRANCH   2   3
ENDBRANCH   1   2
BRANCH   1  15
ATOM     15  C   UNL     1     -13.865 -22.284  18.883  1.00  0.00     0.000 C 
BRANCH  15  16
ATOM     16  C   UNL     1     -12.410 -22.581  18.487  1.00  0.00     0.000 C 
BRANCH  16  17
ATOM     17  C   UNL     1     -11.604 -23.209  19.639  1.00  0.00     0.000 C 
BRANCH  17  18
ATOM     18  C   UNL     1     -10.731 -22.176  20.376  1.00  0.00    -0.000 C 
BRANCH  18  19
ATOM     19  C   UNL     1     -10.299 -20.986  19.496  1.00  0.00    -0.000 C 
BRANCH  19  20
ATOM     20  C   UNL     1     -10.448 -19.637  20.221  1.00  0.00    -0.000 C 
BRANCH  20  21
ATOM     21  C   UNL     1     -11.913 -19.304  20.546  1.00  0.00    -0.000 C 
BRANCH  21  22
ATOM     22  C   UNL     1     -12.480 -18.184  19.656  1.00  0.00    -0.000 C 
BRANCH  22  23
ATOM     23  C   UNL     1     -13.197 -18.741  18.407  1.00  0.00    -0.000 C 
BRANCH  23  24
ATOM     24  C   UNL     1     -12.419 -18.516  17.096  1.00  0.00    -0.000 C 
BRANCH  24  25
ATOM     25  C   UNL     1     -12.378 -19.734  16.157  1.00  0.00    -0.003 C 
ATOM     26  C   UNL     1     -10.959 -20.251  15.920  1.00  0.00     0.004 C 
ENDBRANCH  24  25
ENDBRANCH  23  24
ENDBRANCH  22  23
ENDBRANCH  21  22
ENDBRANCH  20  21
ENDBRANCH  19  20
ENDBRANCH  18  19
ENDBRANCH  17  18
ENDBRANCH  16  17
ENDBRANCH  15  16
ENDBRANCH   1  15
TORSDOF 22
ENDMDL
MODEL 8
REMARK VINA RESULT:    -2.698      1.845      3.164
REMARK INTER + INTRA:         -10.547
REMARK INTER:                  -6.231
REMARK INTRA:                  -4.316
REMARK UNBOUND:                -4.380
REMARK SMILES CCCCCCCCCCCCCCCCCCCCCCCC(=O)[O-]
REMARK SMILES IDX 13 1 14 2 15 3 16 4 17 5 18 6 19 7 20 8 21 9 22 10 23 11
REMARK SMILES IDX 24 12 25 13 26 14 12 15 11 16 10 17 9 18 8 19 7 20 6 21 5 22
REMARK SMILES IDX 4 23 3 24 2 25 1 26
REMARK H PARENT
REMARK Flexibility Score: inf
ROOT
ATOM      1  C   UNL     1     -15.405 -17.084  28.418  1.00  0.00     0.000 C 
ENDROOT
BRANCH   1   2
ATOM      2  C   UNL     1     -15.286 -16.312  27.092  1.00  0.00     0.000 C 
BRANCH   2   3
ATOM      3  C   UNL     1     -15.355 -14.777  27.227  1.00  0.00     0.000 C 
BRANCH   3   4
ATOM      4  C   UNL     1     -16.535 -14.244  28.065  1.00  0.00     0.000 C 
BRANCH   4   5
ATOM      5  C   UNL     1     -16.625 -12.711  28.160  1.00  0.00     0.000 C 
BRANCH   5   6
ATOM      6  C   UNL     1     -17.798 -12.132  27.356  1.00  0.00     0.000 C 
BRANCH   6   7
ATOM      7  C   UNL     1     -17.329 -11.642  25.978  1.00  0.00     0.000 C 
BRANCH   7   8
ATOM      8  C   UNL     1     -18.201 -12.181  24.833  1.00  0.00     0.000 C 
BRANCH   8   9
ATOM      9  C   UNL     1     -17.807 -13.610  24.419  1.00  0.00     0.000 C 
BRANCH   9  10
ATOM     10  C   UNL     1     -18.957 -14.613  24.604  1.00  0.00     0.006 C 
BRANCH  10  11
ATOM     11  C   UNL     1     -18.574 -15.782  25.521  1.00  0.00     0.053 C 
BRANCH  11  12
ATOM     12  C   UNL     1     -18.461 -17.049  24.733  1.00  0.00     0.041 C 
ATOM     13  O   UNL     1     -18.263 -17.009  23.489  1.00  0.00    -0.550 OA
ATOM     14  O   UNL     1     -18.539 -18.278  25.378  1.00  0.00    -0.550 OA
ENDBRANCH  11  12
ENDBRANCH  10  11
ENDBRANCH   9  10
ENDBRANCH   8   9
ENDBRANCH   7   8
ENDBRANCH   6   7
ENDBRANCH   5   6
ENDBRANCH   4   5
ENDBRANCH   3   4
ENDBRANCH   2   3
ENDBRANCH   1   2
BRANCH   1  15
ATOM     15  C   UNL     1     -14.056 -17.225  29.143  1.00  0.00     0.000 C 
BRANCH  15  16
ATOM     16  C   UNL     1     -14.132 -16.806  30.620  1.00  0.00     0.000 C 
BRANCH  16  17
ATOM     17  C   UNL     1     -15.404 -15.999  30.937  1.00  0.00     0.000 C 
BRANCH  17  18
ATOM     18  C   UNL     1     -15.145 -14.868  31.950  1.00  0.00    -0.000 C 
BRANCH  18  19
ATOM     19  C   UNL     1     -14.905 -13.492  31.298  1.00  0.00    -0.000 C 
BRANCH  19  20
ATOM     20  C   UNL     1     -13.411 -13.209  31.060  1.00  0.00    -0.000 C 
BRANCH  20  21
ATOM     21  C   UNL     1     -13.082 -13.003  29.573  1.00  0.00    -0.000 C 
BRANCH  21  22
ATOM     22  C   UNL     1     -12.120 -14.070  29.022  1.00  0.00    -0.000 C 
BRANCH  22  23
ATOM     23  C   UNL     1     -11.169 -14.613  30.109  1.00  0.00    -0.000 C 
BRANCH  23  24
ATOM     24  C   UNL     1     -10.577 -15.996  29.780  1.00  0.00    -0.000 C 
BRANCH  24  25
ATOM     25  C   UNL     1     -10.492 -16.960  30.976  1.00  0.00    -0.003 C 
ATOM     26  C   UNL     1     -10.922 -16.311  32.291  1.00  0.00     0.004 C 
ENDBRANCH  24  25
ENDBRANCH  23  24
ENDBRANCH  22  23
ENDBRANCH  21  22
ENDBRANCH  20  21
ENDBRANCH  19  20
ENDBRANCH  18  19
ENDBRANCH  17  18
ENDBRANCH  16  17
ENDBRANCH  15  16
ENDBRANCH   1  15
TORSDOF 22
ENDMDL
MODEL 9
REMARK VINA RESULT:    -2.667     10.012     12.449
REMARK INTER + INTRA:         -10.476
REMARK INTER:                  -6.201
REMARK INTRA:                  -4.275
REMARK UNBOUND:                -4.380
REMARK SMILES CCCCCCCCCCCCCCCCCCCCCCCC(=O)[O-]
REMARK SMILES IDX 13 1 14 2 15 3 16 4 17 5 18 6 19 7 20 8 21 9 22 10 23 11
REMARK SMILES IDX 24 12 25 13 26 14 12 15 11 16 10 17 9 18 8 19 7 20 6 21 5 22
REMARK SMILES IDX 4 23 3 24 2 25 1 26
REMARK H PARENT
REMARK Flexibility Score: inf
ROOT
ATOM      1  C   UNL     1     -10.768 -20.149  20.602  1.00  0.00     0.000 C 
ENDROOT
BRANCH   1   2
ATOM      2  C   UNL     1     -12.189 -19.579  20.761  1.00  0.00     0.000 C 
BRANCH   2   3
ATOM      3  C   UNL     1     -13.318 -20.631  20.720  1.00  0.00     0.000 C 
BRANCH   3   4
ATOM      4  C   UNL     1     -14.050 -20.860  22.058  1.00  0.00     0.000 C 
BRANCH   4   5
ATOM      5  C   UNL     1     -13.140 -20.891  23.300  1.00  0.00     0.000 C 
BRANCH   5   6
ATOM      6  C   UNL     1     -13.076 -22.276  23.958  1.00  0.00     0.000 C 
BRANCH   6   7
ATOM      7  C   UNL     1     -11.967 -23.131  23.329  1.00  0.00     0.000 C 
BRANCH   7   8
ATOM      8  C   UNL     1     -12.478 -24.502  22.856  1.00  0.00     0.000 C 
BRANCH   8   9
ATOM      9  C   UNL     1     -12.354 -24.680  21.332  1.00  0.00     0.000 C 
BRANCH   9  10
ATOM     10  C   UNL     1     -13.649 -24.311  20.591  1.00  0.00     0.006 C 
BRANCH  10  11
ATOM     11  C   UNL     1     -14.892 -24.936  21.237  1.00  0.00     0.053 C 
BRANCH  11  12
ATOM     12  C   UNL     1     -15.901 -23.880  21.561  1.00  0.00     0.041 C 
ATOM     13  O   UNL     1     -16.472 -23.241  20.636  1.00  0.00    -0.550 OA
ATOM     14  O   UNL     1     -16.240 -23.624  22.884  1.00  0.00    -0.550 OA
ENDBRANCH  11  12
ENDBRANCH  10  11
ENDBRANCH   9  10
ENDBRANCH   8   9
ENDBRANCH   7   8
ENDBRANCH   6   7
ENDBRANCH   5   6
ENDBRANCH   4   5
ENDBRANCH   3   4
ENDBRANCH   2   3
ENDBRANCH   1   2
BRANCH   1  15
ATOM     15  C   UNL     1     -10.763 -21.671  20.384  1.00  0.00     0.000 C 
BRANCH  15  16
ATOM     16  C   UNL     1     -10.267 -22.067  18.984  1.00  0.00     0.000 C 
BRANCH  16  17
ATOM     17  C   UNL     1     -11.417 -22.192  17.968  1.00  0.00     0.000 C 
BRANCH  17  18
ATOM     18  C   UNL     1     -11.604 -20.912  17.131  1.00  0.00    -0.000 C 
BRANCH  18  19
ATOM     19  C   UNL     1     -10.281 -20.225  16.742  1.00  0.00    -0.000 C 
BRANCH  19  20
ATOM     20  C   UNL     1     -10.212 -18.767  17.232  1.00  0.00    -0.000 C 
BRANCH  20  21
ATOM     21  C   UNL     1      -8.834 -18.407  17.811  1.00  0.00    -0.000 C 
BRANCH  21  22
ATOM     22  C   UNL     1      -7.837 -19.578  17.749  1.00  0.00    -0.000 C 
BRANCH  22  23
ATOM     23  C   UNL     1      -7.143 -19.822  19.106  1.00  0.00    -0.000 C 
BRANCH  23  24
ATOM     24  C   UNL     1      -7.629 -18.886  20.227  1.00  0.00    -0.000 C 
BRANCH  24  25
ATOM     25  C   UNL     1      -6.505 -18.186  21.011  1.00  0.00    -0.003 C 
ATOM     26  C   UNL     1      -5.912 -16.994  20.260  1.00  0.00     0.004 C 
ENDBRANCH  24  25
ENDBRANCH  23  24
ENDBRANCH  22  23
ENDBRANCH  21  22
ENDBRANCH  20  21
ENDBRANCH  19  20
ENDBRANCH  18  19
ENDBRANCH  17  18
ENDBRANCH  16  17
ENDBRANCH  15  16
ENDBRANCH   1  15
TORSDOF 22
ENDMDL
