MODEL 1
REMARK VINA RESULT:    -4.858      0.000      0.000
REMARK INTER + INTRA:         -16.393
REMARK INTER:                 -12.243
REMARK INTRA:                  -4.150
REMARK UNBOUND:                -4.150
REMARK SMILES CCCCCCCCCCCCCCCCCCCCCCCCCCCC(=O)[O-]
REMARK SMILES IDX 15 1 16 2 17 3 18 4 19 5 20 6 21 7 22 8 23 9 24 10 25 11
REMARK SMILES IDX 26 12 27 13 28 14 29 15 30 16 14 17 13 18 12 19 11 20 10 21
REMARK SMILES IDX 9 22 8 23 7 24 6 25 5 26 4 27 3 28 2 29 1 30
REMARK H PARENT
REMARK Flexibility Score: inf
ROOT
ATOM      1  C   UNL     1     208.293 206.354 157.556  1.00  0.00     0.000 C 
ENDROOT
BRANCH   1   2
ATOM      2  C   UNL     1     208.777 206.455 159.015  1.00  0.00     0.000 C 
BRANCH   2   3
ATOM      3  C   UNL     1     208.253 205.297 159.885  1.00  0.00     0.000 C 
BRANCH   3   4
ATOM      4  C   UNL     1     206.747 205.047 159.701  1.00  0.00     0.000 C 
BRANCH   4   5
ATOM      5  C   UNL     1     206.377 203.558 159.794  1.00  0.00     0.000 C 
BRANCH   5   6
ATOM      6  C   UNL     1     205.695 203.029 158.518  1.00  0.00     0.000 C 
BRANCH   6   7
ATOM      7  C   UNL     1     205.264 204.109 157.507  1.00  0.00     0.000 C 
BRANCH   7   8
ATOM      8  C   UNL     1     205.448 203.672 156.044  1.00  0.00     0.000 C 
BRANCH   8   9
ATOM      9  C   UNL     1     206.257 202.362 155.919  1.00  0.00     0.000 C 
BRANCH   9  10
ATOM     10  C   UNL     1     207.673 202.562 155.347  1.00  0.00     0.000 C 
BRANCH  10  11
ATOM     11  C   UNL     1     208.746 202.949 156.381  1.00  0.00     0.000 C 
BRANCH  11  12
ATOM     12  C   UNL     1     210.172 203.119 155.819  1.00  0.00     0.006 C 
BRANCH  12  13
ATOM     13  C   UNL     1     210.587 202.030 154.810  1.00  0.00     0.053 C 
BRANCH  13  14
ATOM     14  C   UNL     1     212.031 202.129 154.419  1.00  0.00     0.041 C 
ATOM     15  O   UNL     1     212.432 203.101 153.728  1.00  0.00    -0.550 OA
ATOM     16  O   UNL     1     212.942 201.171 154.851  1.00  0.00    -0.550 OA
ENDBRANCH  13  14
ENDBRANCH  12  13
ENDBRANCH  11  12
ENDBRANCH  10  11
ENDBRANCH   9  10
ENDBRANCH   8   9
ENDBRANCH   7   8
ENDBRANCH   6   7
ENDBRANCH   5   6
ENDBRANCH   4   5
ENDBRANCH   3   4
ENDBRANCH   2   3
ENDBRANCH   1   2
BRANCH   1  17
ATOM     17  C   UNL     1     209.042 207.327 156.626  1.00  0.00     0.000 C 
BRANCH  17  18
ATOM     18  C   UNL     1     208.692 207.130 155.140  1.00  0.00     0.000 C 
BRANCH  18  19
ATOM     19  C   UNL     1     207.520 206.170 154.861  1.00  0.00     0.000 C 
BRANCH  19  20
ATOM     20  C   UNL     1     206.389 206.823 154.048  1.00  0.00     0.000 C 
BRANCH  20  21
ATOM     21  C   UNL     1     205.106 207.041 154.873  1.00  0.00     0.000 C 
BRANCH  21  22
ATOM     22  C   UNL     1     205.195 208.144 155.945  1.00  0.00    -0.000 C 
BRANCH  22  23
ATOM     23  C   UNL     1     204.852 207.637 157.358  1.00  0.00    -0.000 C 
BRANCH  23  24
ATOM     24  C   UNL     1     205.596 208.410 158.458  1.00  0.00    -0.000 C 
BRANCH  24  25
ATOM     25  C   UNL     1     204.983 209.797 158.722  1.00  0.00    -0.000 C 
BRANCH  25  26
ATOM     26  C   UNL     1     203.927 209.768 159.848  1.00  0.00    -0.000 C 
BRANCH  26  27
ATOM     27  C   UNL     1     202.717 210.688 159.589  1.00  0.00    -0.000 C 
BRANCH  27  28
ATOM     28  C   UNL     1     201.492 210.419 160.484  1.00  0.00    -0.000 C 
BRANCH  28  29
ATOM     29  C   UNL     1     201.226 211.491 161.556  1.00  0.00    -0.003 C 
ATOM     30  C   UNL     1     199.867 211.329 162.241  1.00  0.00     0.004 C 
ENDBRANCH  28  29
ENDBRANCH  27  28
ENDBRANCH  26  27
ENDBRANCH  25  26
ENDBRANCH  24  25
ENDBRANCH  23  24
ENDBRANCH  22  23
ENDBRANCH  21  22
ENDBRANCH  20  21
ENDBRANCH  19  20
ENDBRANCH  18  19
ENDBRANCH  17  18
ENDBRANCH   1  17
TORSDOF 26
ENDMDL
MODEL 2
REMARK VINA RESULT:    -4.803      1.819      5.250
REMARK INTER + INTRA:         -16.254
REMARK INTER:                 -11.521
REMARK INTRA:                  -4.733
REMARK UNBOUND:                -4.150
REMARK SMILES CCCCCCCCCCCCCCCCCCCCCCCCCCCC(=O)[O-]
REMARK SMILES IDX 15 1 16 2 17 3 18 4 19 5 20 6 21 7 22 8 23 9 24 10 25 11
REMARK SMILES IDX 26 12 27 13 28 14 29 15 30 16 14 17 13 18 12 19 11 20 10 21
REMARK SMILES IDX 9 22 8 23 7 24 6 25 5 26 4 27 3 28 2 29 1 30
REMARK H PARENT
REMARK Flexibility Score: inf
ROOT
ATOM      1  C   UNL     1     207.866 208.972 157.440  1.00  0.00     0.000 C 
ENDROOT
BRANCH   1   2
ATOM      2  C   UNL     1     209.004 208.661 158.430  1.00  0.00     0.000 C 
BRANCH   2   3
ATOM      3  C   UNL     1     209.249 207.148 158.579  1.00  0.00     0.000 C 
BRANCH   3   4
ATOM      4  C   UNL     1     207.945 206.333 158.617  1.00  0.00     0.000 C 
BRANCH   4   5
ATOM      5  C   UNL     1     207.945 205.264 159.722  1.00  0.00     0.000 C 
BRANCH   5   6
ATOM      6  C   UNL     1     206.611 204.500 159.817  1.00  0.00     0.000 C 
BRANCH   6   7
ATOM      7  C   UNL     1     206.120 203.868 158.501  1.00  0.00     0.000 C 
BRANCH   7   8
ATOM      8  C   UNL     1     205.820 202.365 158.630  1.00  0.00     0.000 C 
BRANCH   8   9
ATOM      9  C   UNL     1     206.421 201.544 157.468  1.00  0.00     0.000 C 
BRANCH   9  10
ATOM     10  C   UNL     1     206.273 202.217 156.091  1.00  0.00     0.000 C 
BRANCH  10  11
ATOM     11  C   UNL     1     207.591 202.688 155.449  1.00  0.00     0.000 C 
BRANCH  11  12
ATOM     12  C   UNL     1     208.849 201.906 155.879  1.00  0.00     0.006 C 
BRANCH  12  13
ATOM     13  C   UNL     1     210.169 202.676 155.680  1.00  0.00     0.053 C 
BRANCH  13  14
ATOM     14  C   UNL     1     211.018 202.092 154.592  1.00  0.00     0.041 C 
ATOM     15  O   UNL     1     212.172 202.546 154.379  1.00  0.00    -0.550 OA
ATOM     16  O   UNL     1     210.553 201.019 153.840  1.00  0.00    -0.550 OA
ENDBRANCH  13  14
ENDBRANCH  12  13
ENDBRANCH  11  12
ENDBRANCH  10  11
ENDBRANCH   9  10
ENDBRANCH   8   9
ENDBRANCH   7   8
ENDBRANCH   6   7
ENDBRANCH   5   6
ENDBRANCH   4   5
ENDBRANCH   3   4
ENDBRANCH   2   3
ENDBRANCH   1   2
BRANCH   1  17
ATOM     17  C   UNL     1     207.023 210.183 157.885  1.00  0.00     0.000 C 
BRANCH  17  18
ATOM     18  C   UNL     1     205.512 209.977 157.668  1.00  0.00     0.000 C 
BRANCH  18  19
ATOM     19  C   UNL     1     204.652 210.014 158.945  1.00  0.00     0.000 C 
BRANCH  19  20
ATOM     20  C   UNL     1     204.290 208.613 159.465  1.00  0.00     0.000 C 
BRANCH  20  21
ATOM     21  C   UNL     1     204.756 207.484 158.525  1.00  0.00     0.000 C 
BRANCH  21  22
ATOM     22  C   UNL     1     203.641 206.547 158.023  1.00  0.00    -0.000 C 
BRANCH  22  23
ATOM     23  C   UNL     1     203.665 206.350 156.495  1.00  0.00    -0.000 C 
BRANCH  23  24
ATOM     24  C   UNL     1     204.905 206.978 155.840  1.00  0.00    -0.000 C 
BRANCH  24  25
ATOM     25  C   UNL     1     205.960 205.927 155.447  1.00  0.00    -0.000 C 
BRANCH  25  26
ATOM     26  C   UNL     1     207.016 206.491 154.473  1.00  0.00    -0.000 C 
BRANCH  26  27
ATOM     27  C   UNL     1     208.468 206.324 154.967  1.00  0.00    -0.000 C 
BRANCH  27  28
ATOM     28  C   UNL     1     209.336 207.592 154.875  1.00  0.00    -0.000 C 
BRANCH  28  29
ATOM     29  C   UNL     1     210.804 207.405 155.302  1.00  0.00    -0.003 C 
ATOM     30  C   UNL     1     211.363 206.028 154.940  1.00  0.00     0.004 C 
ENDBRANCH  28  29
ENDBRANCH  27  28
ENDBRANCH  26  27
ENDBRANCH  25  26
ENDBRANCH  24  25
ENDBRANCH  23  24
ENDBRANCH  22  23
ENDBRANCH  21  22
ENDBRANCH  20  21
ENDBRANCH  19  20
ENDBRANCH  18  19
ENDBRANCH  17  18
ENDBRANCH   1  17
TORSDOF 26
ENDMDL
MODEL 3
REMARK VINA RESULT:    -4.704      1.181      2.703
REMARK INTER + INTRA:         -16.004
REMARK INTER:                 -11.314
REMARK INTRA:                  -4.691
REMARK UNBOUND:                -4.150
REMARK SMILES CCCCCCCCCCCCCCCCCCCCCCCCCCCC(=O)[O-]
REMARK SMILES IDX 15 1 16 2 17 3 18 4 19 5 20 6 21 7 22 8 23 9 24 10 25 11
REMARK SMILES IDX 26 12 27 13 28 14 29 15 30 16 14 17 13 18 12 19 11 20 10 21
REMARK SMILES IDX 9 22 8 23 7 24 6 25 5 26 4 27 3 28 2 29 1 30
REMARK H PARENT
REMARK Flexibility Score: inf
ROOT
ATOM      1  C   UNL     1     205.700 207.368 154.585  1.00  0.00     0.000 C 
ENDROOT
BRANCH   1   2
ATOM      2  C   UNL     1     204.412 207.145 155.398  1.00  0.00     0.000 C 
BRANCH   2   3
ATOM      3  C   UNL     1     204.678 206.406 156.722  1.00  0.00     0.000 C 
BRANCH   3   4
ATOM      4  C   UNL     1     203.868 205.105 156.852  1.00  0.00     0.000 C 
BRANCH   4   5
ATOM      5  C   UNL     1     204.025 204.444 158.231  1.00  0.00     0.000 C 
BRANCH   5   6
ATOM      6  C   UNL     1     205.395 204.724 158.877  1.00  0.00     0.000 C 
BRANCH   6   7
ATOM      7  C   UNL     1     206.485 203.675 158.587  1.00  0.00     0.000 C 
BRANCH   7   8
ATOM      8  C   UNL     1     205.929 202.248 158.457  1.00  0.00     0.000 C 
BRANCH   8   9
ATOM      9  C   UNL     1     206.318 201.586 157.116  1.00  0.00     0.000 C 
BRANCH   9  10
ATOM     10  C   UNL     1     206.337 202.562 155.926  1.00  0.00     0.000 C 
BRANCH  10  11
ATOM     11  C   UNL     1     207.705 202.728 155.239  1.00  0.00     0.000 C 
BRANCH  11  12
ATOM     12  C   UNL     1     208.919 202.260 156.068  1.00  0.00     0.006 C 
BRANCH  12  13
ATOM     13  C   UNL     1     210.263 202.864 155.616  1.00  0.00     0.053 C 
BRANCH  13  14
ATOM     14  C   UNL     1     211.001 201.975 154.662  1.00  0.00     0.041 C 
ATOM     15  O   UNL     1     212.258 202.009 154.611  1.00  0.00    -0.550 OA
ATOM     16  O   UNL     1     210.305 201.079 153.857  1.00  0.00    -0.550 OA
ENDBRANCH  13  14
ENDBRANCH  12  13
ENDBRANCH  11  12
ENDBRANCH  10  11
ENDBRANCH   9  10
ENDBRANCH   8   9
ENDBRANCH   7   8
ENDBRANCH   6   7
ENDBRANCH   5   6
ENDBRANCH   4   5
ENDBRANCH   3   4
ENDBRANCH   2   3
ENDBRANCH   1   2
BRANCH   1  17
ATOM     17  C   UNL     1     206.744 206.262 154.834  1.00  0.00     0.000 C 
BRANCH  17  18
ATOM     18  C   UNL     1     208.187 206.721 154.553  1.00  0.00     0.000 C 
BRANCH  18  19
ATOM     19  C   UNL     1     209.123 206.737 155.775  1.00  0.00     0.000 C 
BRANCH  19  20
ATOM     20  C   UNL     1     208.523 206.025 156.999  1.00  0.00     0.000 C 
BRANCH  20  21
ATOM     21  C   UNL     1     208.067 207.003 158.099  1.00  0.00     0.000 C 
BRANCH  21  22
ATOM     22  C   UNL     1     208.295 208.494 157.787  1.00  0.00    -0.000 C 
BRANCH  22  23
ATOM     23  C   UNL     1     206.998 209.235 157.415  1.00  0.00    -0.000 C 
BRANCH  23  24
ATOM     24  C   UNL     1     206.749 210.467 158.298  1.00  0.00    -0.000 C 
BRANCH  24  25
ATOM     25  C   UNL     1     205.332 210.484 158.901  1.00  0.00    -0.000 C 
BRANCH  25  26
ATOM     26  C   UNL     1     204.866 209.081 159.345  1.00  0.00    -0.000 C 
BRANCH  26  27
ATOM     27  C   UNL     1     203.350 208.984 159.609  1.00  0.00    -0.000 C 
BRANCH  27  28
ATOM     28  C   UNL     1     202.620 210.337 159.711  1.00  0.00    -0.000 C 
BRANCH  28  29
ATOM     29  C   UNL     1     201.359 210.327 160.594  1.00  0.00    -0.003 C 
ATOM     30  C   UNL     1     201.191 211.608 161.414  1.00  0.00     0.004 C 
ENDBRANCH  28  29
ENDBRANCH  27  28
ENDBRANCH  26  27
ENDBRANCH  25  26
ENDBRANCH  24  25
ENDBRANCH  23  24
ENDBRANCH  22  23
ENDBRANCH  21  22
ENDBRANCH  20  21
ENDBRANCH  19  20
ENDBRANCH  18  19
ENDBRANCH  17  18
ENDBRANCH   1  17
TORSDOF 26
ENDMDL
MODEL 4
REMARK VINA RESULT:    -4.689      0.895      2.092
REMARK INTER + INTRA:         -15.966
REMARK INTER:                 -12.407
REMARK INTRA:                  -3.559
REMARK UNBOUND:                -4.150
REMARK SMILES CCCCCCCCCCCCCCCCCCCCCCCCCCCC(=O)[O-]
REMARK SMILES IDX 15 1 16 2 17 3 18 4 19 5 20 6 21 7 22 8 23 9 24 10 25 11
REMARK SMILES IDX 26 12 27 13 28 14 29 15 30 16 14 17 13 18 12 19 11 20 10 21
REMARK SMILES IDX 9 22 8 23 7 24 6 25 5 26 4 27 3 28 2 29 1 30
REMARK H PARENT
REMARK Flexibility Score: inf
ROOT
ATOM      1  C   UNL     1     209.041 207.243 155.269  1.00  0.00     0.000 C 
ENDROOT
BRANCH   1   2
ATOM      2  C   UNL     1     209.592 207.540 156.676  1.00  0.00     0.000 C 
BRANCH   2   3
ATOM      3  C   UNL     1     208.484 207.553 157.745  1.00  0.00     0.000 C 
BRANCH   3   4
ATOM      4  C   UNL     1     208.397 206.233 158.530  1.00  0.00     0.000 C 
BRANCH   4   5
ATOM      5  C   UNL     1     207.010 206.002 159.151  1.00  0.00     0.000 C 
BRANCH   5   6
ATOM      6  C   UNL     1     206.882 204.630 159.837  1.00  0.00     0.000 C 
BRANCH   6   7
ATOM      7  C   UNL     1     206.013 203.599 159.091  1.00  0.00     0.000 C 
BRANCH   7   8
ATOM      8  C   UNL     1     205.208 204.214 157.934  1.00  0.00     0.000 C 
BRANCH   8   9
ATOM      9  C   UNL     1     205.695 203.722 156.553  1.00  0.00     0.000 C 
BRANCH   9  10
ATOM     10  C   UNL     1     206.399 202.353 156.595  1.00  0.00     0.000 C 
BRANCH  10  11
ATOM     11  C   UNL     1     207.573 202.193 155.613  1.00  0.00     0.000 C 
BRANCH  11  12
ATOM     12  C   UNL     1     208.849 202.980 155.977  1.00  0.00     0.006 C 
BRANCH  12  13
ATOM     13  C   UNL     1     210.161 202.224 155.689  1.00  0.00     0.053 C 
BRANCH  13  14
ATOM     14  C   UNL     1     211.187 203.089 155.021  1.00  0.00     0.041 C 
ATOM     15  O   UNL     1     212.011 202.582 154.216  1.00  0.00    -0.550 OA
ATOM     16  O   UNL     1     211.210 204.459 155.255  1.00  0.00    -0.550 OA
ENDBRANCH  13  14
ENDBRANCH  12  13
ENDBRANCH  11  12
ENDBRANCH  10  11
ENDBRANCH   9  10
ENDBRANCH   8   9
ENDBRANCH   7   8
ENDBRANCH   6   7
ENDBRANCH   5   6
ENDBRANCH   4   5
ENDBRANCH   3   4
ENDBRANCH   2   3
ENDBRANCH   1   2
BRANCH   1  17
ATOM     17  C   UNL     1     207.756 206.394 155.315  1.00  0.00     0.000 C 
BRANCH  17  18
ATOM     18  C   UNL     1     206.772 206.728 154.178  1.00  0.00     0.000 C 
BRANCH  18  19
ATOM     19  C   UNL     1     205.291 206.814 154.593  1.00  0.00     0.000 C 
BRANCH  19  20
ATOM     20  C   UNL     1     205.088 207.509 155.950  1.00  0.00     0.000 C 
BRANCH  20  21
ATOM     21  C   UNL     1     205.610 208.959 155.966  1.00  0.00     0.000 C 
BRANCH  21  22
ATOM     22  C   UNL     1     205.557 209.660 157.337  1.00  0.00    -0.000 C 
BRANCH  22  23
ATOM     23  C   UNL     1     204.955 208.773 158.442  1.00  0.00    -0.000 C 
BRANCH  23  24
ATOM     24  C   UNL     1     204.541 209.578 159.684  1.00  0.00    -0.000 C 
BRANCH  24  25
ATOM     25  C   UNL     1     203.173 210.263 159.514  1.00  0.00    -0.000 C 
BRANCH  25  26
ATOM     26  C   UNL     1     202.015 209.408 160.072  1.00  0.00    -0.000 C 
BRANCH  26  27
ATOM     27  C   UNL     1     200.758 210.225 160.434  1.00  0.00    -0.000 C 
BRANCH  27  28
ATOM     28  C   UNL     1     201.011 211.434 161.353  1.00  0.00    -0.000 C 
BRANCH  28  29
ATOM     29  C   UNL     1     200.149 211.470 162.628  1.00  0.00    -0.003 C 
ATOM     30  C   UNL     1     198.707 211.020 162.391  1.00  0.00     0.004 C 
ENDBRANCH  28  29
ENDBRANCH  27  28
ENDBRANCH  26  27
ENDBRANCH  25  26
ENDBRANCH  24  25
ENDBRANCH  23  24
ENDBRANCH  22  23
ENDBRANCH  21  22
ENDBRANCH  20  21
ENDBRANCH  19  20
ENDBRANCH  18  19
ENDBRANCH  17  18
ENDBRANCH   1  17
TORSDOF 26
ENDMDL
MODEL 5
REMARK VINA RESULT:    -4.665      2.116      7.159
REMARK INTER + INTRA:         -15.907
REMARK INTER:                 -11.461
REMARK INTRA:                  -4.446
REMARK UNBOUND:                -4.150
REMARK SMILES CCCCCCCCCCCCCCCCCCCCCCCCCCCC(=O)[O-]
REMARK SMILES IDX 15 1 16 2 17 3 18 4 19 5 20 6 21 7 22 8 23 9 24 10 25 11
REMARK SMILES IDX 26 12 27 13 28 14 29 15 30 16 14 17 13 18 12 19 11 20 10 21
REMARK SMILES IDX 9 22 8 23 7 24 6 25 5 26 4 27 3 28 2 29 1 30
REMARK H PARENT
REMARK Flexibility Score: inf
ROOT
ATOM      1  C   UNL     1     207.809 208.680 157.492  1.00  0.00     0.000 C 
ENDROOT
BRANCH   1   2
ATOM      2  C   UNL     1     207.083 209.993 157.836  1.00  0.00     0.000 C 
BRANCH   2   3
ATOM      3  C   UNL     1     205.555 209.871 157.690  1.00  0.00     0.000 C 
BRANCH   3   4
ATOM      4  C   UNL     1     204.820 209.939 159.039  1.00  0.00     0.000 C 
BRANCH   4   5
ATOM      5  C   UNL     1     204.061 208.644 159.367  1.00  0.00     0.000 C 
BRANCH   5   6
ATOM      6  C   UNL     1     204.561 207.434 158.556  1.00  0.00     0.000 C 
BRANCH   6   7
ATOM      7  C   UNL     1     203.458 206.549 157.946  1.00  0.00     0.000 C 
BRANCH   7   8
ATOM      8  C   UNL     1     203.791 206.067 156.524  1.00  0.00     0.000 C 
BRANCH   8   9
ATOM      9  C   UNL     1     205.252 206.371 156.127  1.00  0.00     0.000 C 
BRANCH   9  10
ATOM     10  C   UNL     1     205.402 206.945 154.706  1.00  0.00     0.000 C 
BRANCH  10  11
ATOM     11  C   UNL     1     206.756 206.665 154.028  1.00  0.00     0.000 C 
BRANCH  11  12
ATOM     12  C   UNL     1     207.966 206.590 154.980  1.00  0.00     0.006 C 
BRANCH  12  13
ATOM     13  C   UNL     1     209.222 207.319 154.465  1.00  0.00     0.053 C 
BRANCH  13  14
ATOM     14  C   UNL     1     210.459 206.937 155.219  1.00  0.00     0.041 C 
ATOM     15  O   UNL     1     210.862 205.745 155.208  1.00  0.00    -0.550 OA
ATOM     16  O   UNL     1     211.191 207.903 155.901  1.00  0.00    -0.550 OA
ENDBRANCH  13  14
ENDBRANCH  12  13
ENDBRANCH  11  12
ENDBRANCH  10  11
ENDBRANCH   9  10
ENDBRANCH   8   9
ENDBRANCH   7   8
ENDBRANCH   6   7
ENDBRANCH   5   6
ENDBRANCH   4   5
ENDBRANCH   3   4
ENDBRANCH   2   3
ENDBRANCH   1   2
BRANCH   1  17
ATOM     17  C   UNL     1     209.022 208.428 158.408  1.00  0.00     0.000 C 
BRANCH  17  18
ATOM     18  C   UNL     1     209.091 206.982 158.933  1.00  0.00     0.000 C 
BRANCH  18  19
ATOM     19  C   UNL     1     207.944 206.061 158.478  1.00  0.00     0.000 C 
BRANCH  19  20
ATOM     20  C   UNL     1     206.974 205.704 159.617  1.00  0.00     0.000 C 
BRANCH  20  21
ATOM     21  C   UNL     1     206.714 204.190 159.731  1.00  0.00     0.000 C 
BRANCH  21  22
ATOM     22  C   UNL     1     205.885 203.578 158.586  1.00  0.00    -0.000 C 
BRANCH  22  23
ATOM     23  C   UNL     1     206.160 202.076 158.381  1.00  0.00    -0.000 C 
BRANCH  23  24
ATOM     24  C   UNL     1     206.391 201.715 156.906  1.00  0.00    -0.000 C 
BRANCH  24  25
ATOM     25  C   UNL     1     206.489 202.958 156.003  1.00  0.00    -0.000 C 
BRANCH  25  26
ATOM     26  C   UNL     1     207.675 202.877 155.018  1.00  0.00    -0.000 C 
BRANCH  26  27
ATOM     27  C   UNL     1     208.940 202.235 155.622  1.00  0.00    -0.000 C 
BRANCH  27  28
ATOM     28  C   UNL     1     210.022 201.841 154.599  1.00  0.00    -0.000 C 
BRANCH  28  29
ATOM     29  C   UNL     1     211.458 202.234 154.990  1.00  0.00    -0.003 C 
ATOM     30  C   UNL     1     212.215 202.940 153.864  1.00  0.00     0.004 C 
ENDBRANCH  28  29
ENDBRANCH  27  28
ENDBRANCH  26  27
ENDBRANCH  25  26
ENDBRANCH  24  25
ENDBRANCH  23  24
ENDBRANCH  22  23
ENDBRANCH  21  22
ENDBRANCH  20  21
ENDBRANCH  19  20
ENDBRANCH  18  19
ENDBRANCH  17  18
ENDBRANCH   1  17
TORSDOF 26
ENDMDL
MODEL 6
REMARK VINA RESULT:    -4.647      4.078      9.965
REMARK INTER + INTRA:         -15.860
REMARK INTER:                 -11.928
REMARK INTRA:                  -3.932
REMARK UNBOUND:                -4.150
REMARK SMILES CCCCCCCCCCCCCCCCCCCCCCCCCCCC(=O)[O-]
REMARK SMILES IDX 15 1 16 2 17 3 18 4 19 5 20 6 21 7 22 8 23 9 24 10 25 11
REMARK SMILES IDX 26 12 27 13 28 14 29 15 30 16 14 17 13 18 12 19 11 20 10 21
REMARK SMILES IDX 9 22 8 23 7 24 6 25 5 26 4 27 3 28 2 29 1 30
REMARK H PARENT
REMARK Flexibility Score: inf
ROOT
ATOM      1  C   UNL     1     207.590 205.369 159.304  1.00  0.00     0.000 C 
ENDROOT
BRANCH   1   2
ATOM      2  C   UNL     1     207.953 205.300 157.809  1.00  0.00     0.000 C 
BRANCH   2   3
ATOM      3  C   UNL     1     208.435 206.657 157.262  1.00  0.00     0.000 C 
BRANCH   3   4
ATOM      4  C   UNL     1     208.190 206.812 155.752  1.00  0.00     0.000 C 
BRANCH   4   5
ATOM      5  C   UNL     1     207.035 205.934 155.245  1.00  0.00     0.000 C 
BRANCH   5   6
ATOM      6  C   UNL     1     206.028 206.710 154.377  1.00  0.00     0.000 C 
BRANCH   6   7
ATOM      7  C   UNL     1     204.743 207.156 155.099  1.00  0.00     0.000 C 
BRANCH   7   8
ATOM      8  C   UNL     1     204.409 206.290 156.325  1.00  0.00     0.000 C 
BRANCH   8   9
ATOM      9  C   UNL     1     204.667 207.031 157.656  1.00  0.00     0.000 C 
BRANCH   9  10
ATOM     10  C   UNL     1     205.211 208.460 157.475  1.00  0.00     0.000 C 
BRANCH  10  11
ATOM     11  C   UNL     1     205.553 209.199 158.782  1.00  0.00     0.000 C 
BRANCH  11  12
ATOM     12  C   UNL     1     204.431 210.097 159.344  1.00  0.00     0.006 C 
BRANCH  12  13
ATOM     13  C   UNL     1     203.269 209.322 159.993  1.00  0.00     0.053 C 
BRANCH  13  14
ATOM     14  C   UNL     1     202.019 210.142 160.098  1.00  0.00     0.041 C 
ATOM     15  O   UNL     1     202.087 211.399 160.088  1.00  0.00    -0.550 OA
ATOM     16  O   UNL     1     200.776 209.523 160.165  1.00  0.00    -0.550 OA
ENDBRANCH  13  14
ENDBRANCH  12  13
ENDBRANCH  11  12
ENDBRANCH  10  11
ENDBRANCH   9  10
ENDBRANCH   8   9
ENDBRANCH   7   8
ENDBRANCH   6   7
ENDBRANCH   5   6
ENDBRANCH   4   5
ENDBRANCH   3   4
ENDBRANCH   2   3
ENDBRANCH   1   2
BRANCH   1  17
ATOM     17  C   UNL     1     206.482 204.366 159.680  1.00  0.00     0.000 C 
BRANCH  17  18
ATOM     18  C   UNL     1     205.875 203.653 158.458  1.00  0.00     0.000 C 
BRANCH  18  19
ATOM     19  C   UNL     1     205.975 202.117 158.475  1.00  0.00     0.000 C 
BRANCH  19  20
ATOM     20  C   UNL     1     206.675 201.547 157.230  1.00  0.00     0.000 C 
BRANCH  20  21
ATOM     21  C   UNL     1     206.450 202.405 155.970  1.00  0.00     0.000 C 
BRANCH  21  22
ATOM     22  C   UNL     1     207.649 202.480 155.004  1.00  0.00    -0.000 C 
BRANCH  22  23
ATOM     23  C   UNL     1     208.957 201.963 155.630  1.00  0.00    -0.000 C 
BRANCH  23  24
ATOM     24  C   UNL     1     209.924 203.100 155.997  1.00  0.00    -0.000 C 
BRANCH  24  25
ATOM     25  C   UNL     1     211.112 203.201 155.024  1.00  0.00    -0.000 C 
BRANCH  25  26
ATOM     26  C   UNL     1     211.504 201.830 154.431  1.00  0.00    -0.000 C 
BRANCH  26  27
ATOM     27  C   UNL     1     212.833 201.274 154.980  1.00  0.00    -0.000 C 
BRANCH  27  28
ATOM     28  C   UNL     1     213.396 200.061 154.215  1.00  0.00    -0.000 C 
BRANCH  28  29
ATOM     29  C   UNL     1     214.866 200.195 153.777  1.00  0.00    -0.003 C 
ATOM     30  C   UNL     1     215.845 200.186 154.952  1.00  0.00     0.004 C 
ENDBRANCH  28  29
ENDBRANCH  27  28
ENDBRANCH  26  27
ENDBRANCH  25  26
ENDBRANCH  24  25
ENDBRANCH  23  24
ENDBRANCH  22  23
ENDBRANCH  21  22
ENDBRANCH  20  21
ENDBRANCH  19  20
ENDBRANCH  18  19
ENDBRANCH  17  18
ENDBRANCH   1  17
TORSDOF 26
ENDMDL
MODEL 7
REMARK VINA RESULT:    -4.616      4.184      8.434
REMARK INTER + INTRA:         -15.782
REMARK INTER:                 -10.870
REMARK INTRA:                  -4.913
REMARK UNBOUND:                -4.150
REMARK SMILES CCCCCCCCCCCCCCCCCCCCCCCCCCCC(=O)[O-]
REMARK SMILES IDX 15 1 16 2 17 3 18 4 19 5 20 6 21 7 22 8 23 9 24 10 25 11
REMARK SMILES IDX 26 12 27 13 28 14 29 15 30 16 14 17 13 18 12 19 11 20 10 21
REMARK SMILES IDX 9 22 8 23 7 24 6 25 5 26 4 27 3 28 2 29 1 30
REMARK H PARENT
REMARK Flexibility Score: inf
ROOT
ATOM      1  C   UNL     1     206.395 204.289 159.355  1.00  0.00     0.000 C 
ENDROOT
BRANCH   1   2
ATOM      2  C   UNL     1     205.394 205.043 158.460  1.00  0.00     0.000 C 
BRANCH   2   3
ATOM      3  C   UNL     1     204.291 204.118 157.912  1.00  0.00     0.000 C 
BRANCH   3   4
ATOM      4  C   UNL     1     203.031 204.884 157.478  1.00  0.00     0.000 C 
BRANCH   4   5
ATOM      5  C   UNL     1     203.332 206.331 157.056  1.00  0.00     0.000 C 
BRANCH   5   6
ATOM      6  C   UNL     1     203.530 206.484 155.537  1.00  0.00     0.000 C 
BRANCH   6   7
ATOM      7  C   UNL     1     204.525 207.580 155.110  1.00  0.00     0.000 C 
BRANCH   7   8
ATOM      8  C   UNL     1     205.498 207.981 156.231  1.00  0.00     0.000 C 
BRANCH   8   9
ATOM      9  C   UNL     1     205.430 209.489 156.558  1.00  0.00     0.000 C 
BRANCH   9  10
ATOM     10  C   UNL     1     205.606 209.808 158.054  1.00  0.00     0.000 C 
BRANCH  10  11
ATOM     11  C   UNL     1     205.159 208.692 159.016  1.00  0.00     0.000 C 
BRANCH  11  12
ATOM     12  C   UNL     1     203.823 208.946 159.744  1.00  0.00     0.006 C 
BRANCH  12  13
ATOM     13  C   UNL     1     203.316 210.398 159.646  1.00  0.00     0.053 C 
BRANCH  13  14
ATOM     14  C   UNL     1     201.914 210.553 160.153  1.00  0.00     0.041 C 
ATOM     15  O   UNL     1     201.121 209.576 160.122  1.00  0.00    -0.550 OA
ATOM     16  O   UNL     1     201.494 211.761 160.697  1.00  0.00    -0.550 OA
ENDBRANCH  13  14
ENDBRANCH  12  13
ENDBRANCH  11  12
ENDBRANCH  10  11
ENDBRANCH   9  10
ENDBRANCH   8   9
ENDBRANCH   7   8
ENDBRANCH   6   7
ENDBRANCH   5   6
ENDBRANCH   4   5
ENDBRANCH   3   4
ENDBRANCH   2   3
ENDBRANCH   1   2
BRANCH   1  17
ATOM     17  C   UNL     1     207.309 205.249 160.141  1.00  0.00     0.000 C 
BRANCH  17  18
ATOM     18  C   UNL     1     208.731 205.340 159.558  1.00  0.00     0.000 C 
BRANCH  18  19
ATOM     19  C   UNL     1     209.222 206.764 159.237  1.00  0.00     0.000 C 
BRANCH  19  20
ATOM     20  C   UNL     1     208.461 207.411 158.068  1.00  0.00     0.000 C 
BRANCH  20  21
ATOM     21  C   UNL     1     209.224 207.323 156.732  1.00  0.00     0.000 C 
BRANCH  21  22
ATOM     22  C   UNL     1     208.458 206.641 155.582  1.00  0.00    -0.000 C 
BRANCH  22  23
ATOM     23  C   UNL     1     207.859 205.280 155.984  1.00  0.00    -0.000 C 
BRANCH  23  24
ATOM     24  C   UNL     1     206.815 204.776 154.976  1.00  0.00    -0.000 C 
BRANCH  24  25
ATOM     25  C   UNL     1     206.384 203.323 155.251  1.00  0.00    -0.000 C 
BRANCH  25  26
ATOM     26  C   UNL     1     207.578 202.345 155.242  1.00  0.00    -0.000 C 
BRANCH  26  27
ATOM     27  C   UNL     1     207.745 201.558 156.557  1.00  0.00    -0.000 C 
BRANCH  27  28
ATOM     28  C   UNL     1     206.445 200.961 157.129  1.00  0.00    -0.000 C 
BRANCH  28  29
ATOM     29  C   UNL     1     206.638 200.016 158.328  1.00  0.00    -0.003 C 
ATOM     30  C   UNL     1     206.076 200.580 159.634  1.00  0.00     0.004 C 
ENDBRANCH  28  29
ENDBRANCH  27  28
ENDBRANCH  26  27
ENDBRANCH  25  26
ENDBRANCH  24  25
ENDBRANCH  23  24
ENDBRANCH  22  23
ENDBRANCH  21  22
ENDBRANCH  20  21
ENDBRANCH  19  20
ENDBRANCH  18  19
ENDBRANCH  17  18
ENDBRANCH   1  17
TORSDOF 26
ENDMDL
MODEL 8
REMARK VINA RESULT:    -4.575      4.214      8.526
REMARK INTER + INTRA:         -15.680
REMARK INTER:                 -10.856
REMARK INTRA:                  -4.824
REMARK UNBOUND:                -4.150
REMARK SMILES CCCCCCCCCCCCCCCCCCCCCCCCCCCC(=O)[O-]
REMARK SMILES IDX 15 1 16 2 17 3 18 4 19 5 20 6 21 7 22 8 23 9 24 10 25 11
REMARK SMILES IDX 26 12 27 13 28 14 29 15 30 16 14 17 13 18 12 19 11 20 10 21
REMARK SMILES IDX 9 22 8 23 7 24 6 25 5 26 4 27 3 28 2 29 1 30
REMARK H PARENT
REMARK Flexibility Score: inf
ROOT
ATOM      1  C   UNL     1     208.162 205.250 159.785  1.00  0.00     0.000 C 
ENDROOT
BRANCH   1   2
ATOM      2  C   UNL     1     206.668 204.895 159.895  1.00  0.00     0.000 C 
BRANCH   2   3
ATOM      3  C   UNL     1     206.377 203.449 159.453  1.00  0.00     0.000 C 
BRANCH   3   4
ATOM      4  C   UNL     1     205.268 203.361 158.391  1.00  0.00     0.000 C 
BRANCH   4   5
ATOM      5  C   UNL     1     204.355 204.597 158.383  1.00  0.00     0.000 C 
BRANCH   5   6
ATOM      6  C   UNL     1     203.848 204.958 156.975  1.00  0.00     0.000 C 
BRANCH   6   7
ATOM      7  C   UNL     1     203.819 206.464 156.652  1.00  0.00     0.000 C 
BRANCH   7   8
ATOM      8  C   UNL     1     204.860 207.271 157.446  1.00  0.00     0.000 C 
BRANCH   8   9
ATOM      9  C   UNL     1     205.393 208.484 156.653  1.00  0.00     0.000 C 
BRANCH   9  10
ATOM     10  C   UNL     1     205.657 209.727 157.523  1.00  0.00     0.000 C 
BRANCH  10  11
ATOM     11  C   UNL     1     205.196 209.607 158.987  1.00  0.00     0.000 C 
BRANCH  11  12
ATOM     12  C   UNL     1     203.959 210.451 159.359  1.00  0.00     0.006 C 
BRANCH  12  13
ATOM     13  C   UNL     1     202.764 209.626 159.874  1.00  0.00     0.053 C 
BRANCH  13  14
ATOM     14  C   UNL     1     201.599 210.485 160.265  1.00  0.00     0.041 C 
ATOM     15  O   UNL     1     200.470 209.964 160.462  1.00  0.00    -0.550 OA
ATOM     16  O   UNL     1     201.767 211.852 160.453  1.00  0.00    -0.550 OA
ENDBRANCH  13  14
ENDBRANCH  12  13
ENDBRANCH  11  12
ENDBRANCH  10  11
ENDBRANCH   9  10
ENDBRANCH   8   9
ENDBRANCH   7   8
ENDBRANCH   6   7
ENDBRANCH   5   6
ENDBRANCH   4   5
ENDBRANCH   3   4
ENDBRANCH   2   3
ENDBRANCH   1   2
BRANCH   1  17
ATOM     17  C   UNL     1     208.530 205.795 158.391  1.00  0.00     0.000 C 
BRANCH  17  18
ATOM     18  C   UNL     1     208.579 207.333 158.340  1.00  0.00     0.000 C 
BRANCH  18  19
ATOM     19  C   UNL     1     208.818 207.938 156.944  1.00  0.00     0.000 C 
BRANCH  19  20
ATOM     20  C   UNL     1     209.768 207.091 156.079  1.00  0.00     0.000 C 
BRANCH  20  21
ATOM     21  C   UNL     1     209.168 206.733 154.705  1.00  0.00     0.000 C 
BRANCH  21  22
ATOM     22  C   UNL     1     207.752 207.279 154.445  1.00  0.00    -0.000 C 
BRANCH  22  23
ATOM     23  C   UNL     1     206.692 206.168 154.328  1.00  0.00    -0.000 C 
BRANCH  23  24
ATOM     24  C   UNL     1     207.001 204.962 155.227  1.00  0.00    -0.000 C 
BRANCH  24  25
ATOM     25  C   UNL     1     206.593 203.625 154.581  1.00  0.00    -0.000 C 
BRANCH  25  26
ATOM     26  C   UNL     1     206.792 202.427 155.535  1.00  0.00    -0.000 C 
BRANCH  26  27
ATOM     27  C   UNL     1     208.148 202.435 156.268  1.00  0.00    -0.000 C 
BRANCH  27  28
ATOM     28  C   UNL     1     209.358 202.034 155.403  1.00  0.00    -0.000 C 
BRANCH  28  29
ATOM     29  C   UNL     1     210.575 202.969 155.517  1.00  0.00    -0.003 C 
ATOM     30  C   UNL     1     211.654 202.679 154.472  1.00  0.00     0.004 C 
ENDBRANCH  28  29
ENDBRANCH  27  28
ENDBRANCH  26  27
ENDBRANCH  25  26
ENDBRANCH  24  25
ENDBRANCH  23  24
ENDBRANCH  22  23
ENDBRANCH  21  22
ENDBRANCH  20  21
ENDBRANCH  19  20
ENDBRANCH  18  19
ENDBRANCH  17  18
ENDBRANCH   1  17
TORSDOF 26
ENDMDL
MODEL 9
REMARK VINA RESULT:    -4.536      4.416      9.275
REMARK INTER + INTRA:         -15.580
REMARK INTER:                 -11.478
REMARK INTRA:                  -4.102
REMARK UNBOUND:                -4.150
REMARK SMILES CCCCCCCCCCCCCCCCCCCCCCCCCCCC(=O)[O-]
REMARK SMILES IDX 15 1 16 2 17 3 18 4 19 5 20 6 21 7 22 8 23 9 24 10 25 11
REMARK SMILES IDX 26 12 27 13 28 14 29 15 30 16 14 17 13 18 12 19 11 20 10 21
REMARK SMILES IDX 9 22 8 23 7 24 6 25 5 26 4 27 3 28 2 29 1 30
REMARK H PARENT
REMARK Flexibility Score: inf
ROOT
ATOM      1  C   UNL     1     206.379 206.009 154.155  1.00  0.00     0.000 C 
ENDROOT
BRANCH   1   2
ATOM      2  C   UNL     1     207.525 206.040 155.183  1.00  0.00     0.000 C 
BRANCH   2   3
ATOM      3  C   UNL     1     208.568 207.127 154.863  1.00  0.00     0.000 C 
BRANCH   3   4
ATOM      4  C   UNL     1     209.688 207.207 155.913  1.00  0.00     0.000 C 
BRANCH   4   5
ATOM      5  C   UNL     1     209.152 207.217 157.353  1.00  0.00     0.000 C 
BRANCH   5   6
ATOM      6  C   UNL     1     208.823 208.634 157.860  1.00  0.00     0.000 C 
BRANCH   6   7
ATOM      7  C   UNL     1     207.428 209.162 157.476  1.00  0.00     0.000 C 
BRANCH   7   8
ATOM      8  C   UNL     1     207.117 210.540 158.084  1.00  0.00     0.000 C 
BRANCH   8   9
ATOM      9  C   UNL     1     205.939 210.489 159.083  1.00  0.00     0.000 C 
BRANCH   9  10
ATOM     10  C   UNL     1     204.751 209.638 158.598  1.00  0.00     0.000 C 
BRANCH  10  11
ATOM     11  C   UNL     1     203.906 209.000 159.715  1.00  0.00     0.000 C 
BRANCH  11  12
ATOM     12  C   UNL     1     202.427 209.437 159.752  1.00  0.00     0.006 C 
BRANCH  12  13
ATOM     13  C   UNL     1     202.215 210.920 160.110  1.00  0.00     0.053 C 
BRANCH  13  14
ATOM     14  C   UNL     1     201.071 211.126 161.056  1.00  0.00     0.041 C 
ATOM     15  O   UNL     1     201.115 212.052 161.908  1.00  0.00    -0.550 OA
ATOM     16  O   UNL     1     199.939 210.323 160.973  1.00  0.00    -0.550 OA
ENDBRANCH  13  14
ENDBRANCH  12  13
ENDBRANCH  11  12
ENDBRANCH  10  11
ENDBRANCH   9  10
ENDBRANCH   8   9
ENDBRANCH   7   8
ENDBRANCH   6   7
ENDBRANCH   5   6
ENDBRANCH   4   5
ENDBRANCH   3   4
ENDBRANCH   2   3
ENDBRANCH   1   2
BRANCH   1  17
ATOM     17  C   UNL     1     205.346 207.125 154.403  1.00  0.00     0.000 C 
BRANCH  17  18
ATOM     18  C   UNL     1     204.929 207.242 155.880  1.00  0.00     0.000 C 
BRANCH  18  19
ATOM     19  C   UNL     1     203.970 206.146 156.382  1.00  0.00     0.000 C 
BRANCH  19  20
ATOM     20  C   UNL     1     204.235 205.740 157.842  1.00  0.00     0.000 C 
BRANCH  20  21
ATOM     21  C   UNL     1     205.654 206.107 158.319  1.00  0.00     0.000 C 
BRANCH  21  22
ATOM     22  C   UNL     1     206.649 204.933 158.385  1.00  0.00    -0.000 C 
BRANCH  22  23
ATOM     23  C   UNL     1     206.177 203.796 159.311  1.00  0.00    -0.000 C 
BRANCH  23  24
ATOM     24  C   UNL     1     206.001 202.464 158.566  1.00  0.00    -0.000 C 
BRANCH  24  25
ATOM     25  C   UNL     1     205.827 202.655 157.048  1.00  0.00    -0.000 C 
BRANCH  25  26
ATOM     26  C   UNL     1     206.806 201.785 156.231  1.00  0.00    -0.000 C 
BRANCH  26  27
ATOM     27  C   UNL     1     207.940 202.588 155.561  1.00  0.00    -0.000 C 
BRANCH  27  28
ATOM     28  C   UNL     1     209.365 202.134 155.929  1.00  0.00    -0.000 C 
BRANCH  28  29
ATOM     29  C   UNL     1     210.480 203.123 155.545  1.00  0.00    -0.003 C 
ATOM     30  C   UNL     1     211.575 202.489 154.686  1.00  0.00     0.004 C 
ENDBRANCH  28  29
ENDBRANCH  27  28
ENDBRANCH  26  27
ENDBRANCH  25  26
ENDBRANCH  24  25
ENDBRANCH  23  24
ENDBRANCH  22  23
ENDBRANCH  21  22
ENDBRANCH  20  21
ENDBRANCH  19  20
ENDBRANCH  18  19
ENDBRANCH  17  18
ENDBRANCH   1  17
TORSDOF 26
ENDMDL
