MODEL 1
REMARK VINA RESULT:    -5.522      0.000      0.000
REMARK INTER + INTRA:         -13.440
REMARK INTER:                 -11.979
REMARK INTRA:                  -1.462
REMARK UNBOUND:                -1.462
REMARK SMILES CCCCCCCCCCCCCCCCCCCCCC(=O)[O-]
REMARK SMILES IDX 12 1 11 2 10 3 9 4 8 5 7 6 6 7 5 8 4 9 3 10 2 11 1 12 13 13
REMARK SMILES IDX 14 14 15 15 16 16 17 17 18 18 19 19 20 20 21 21 22 22 23 23
REMARK SMILES IDX 24 24
REMARK H PARENT
REMARK Flexibility Score: inf
ROOT
ATOM      1  C   UNL     1      14.971  21.499  35.152  1.00  0.00     0.000 C 
ENDROOT
BRANCH   1   2
ATOM      2  C   UNL     1      13.802  20.724  34.514  1.00  0.00     0.000 C 
BRANCH   2   3
ATOM      3  C   UNL     1      12.436  21.433  34.638  1.00  0.00     0.000 C 
BRANCH   3   4
ATOM      4  C   UNL     1      12.453  22.587  35.656  1.00  0.00    -0.000 C 
BRANCH   4   5
ATOM      5  C   UNL     1      11.705  22.227  36.957  1.00  0.00    -0.000 C 
BRANCH   5   6
ATOM      6  C   UNL     1      12.436  22.681  38.232  1.00  0.00    -0.000 C 
BRANCH   6   7
ATOM      7  C   UNL     1      12.789  21.515  39.166  1.00  0.00    -0.000 C 
BRANCH   7   8
ATOM      8  C   UNL     1      12.253  21.765  40.583  1.00  0.00    -0.000 C 
BRANCH   8   9
ATOM      9  C   UNL     1      11.062  20.858  40.931  1.00  0.00    -0.000 C 
BRANCH   9  10
ATOM     10  C   UNL     1       9.713  21.465  40.506  1.00  0.00    -0.000 C 
BRANCH  10  11
ATOM     11  C   UNL     1       9.386  22.761  41.262  1.00  0.00    -0.003 C 
ATOM     12  C   UNL     1       9.392  23.991  40.355  1.00  0.00     0.004 C 
ENDBRANCH  10  11
ENDBRANCH   9  10
ENDBRANCH   8   9
ENDBRANCH   7   8
ENDBRANCH   6   7
ENDBRANCH   5   6
ENDBRANCH   4   5
ENDBRANCH   3   4
ENDBRANCH   2   3
ENDBRANCH   1   2
BRANCH   1  13
ATOM     13  C   UNL     1      15.936  22.171  34.156  1.00  0.00     0.000 C 
BRANCH  13  14
ATOM     14  C   UNL     1      17.354  21.571  34.107  1.00  0.00     0.000 C 
BRANCH  14  15
ATOM     15  C   UNL     1      18.283  22.314  33.133  1.00  0.00     0.000 C 
BRANCH  15  16
ATOM     16  C   UNL     1      19.425  21.426  32.603  1.00  0.00     0.000 C 
BRANCH  16  17
ATOM     17  C   UNL     1      20.237  20.687  33.686  1.00  0.00     0.000 C 
BRANCH  17  18
ATOM     18  C   UNL     1      21.066  21.593  34.618  1.00  0.00     0.000 C 
BRANCH  18  19
ATOM     19  C   UNL     1      20.939  21.272  36.119  1.00  0.00     0.000 C 
BRANCH  19  20
ATOM     20  C   UNL     1      22.216  21.602  36.910  1.00  0.00     0.006 C 
BRANCH  20  21
ATOM     21  C   UNL     1      23.334  22.137  36.005  1.00  0.00     0.053 C 
BRANCH  21  22
ATOM     22  C   UNL     1      24.234  23.086  36.736  1.00  0.00     0.041 C 
ATOM     23  O   UNL     1      23.745  24.013  37.434  1.00  0.00    -0.550 OA
ATOM     24  O   UNL     1      25.613  22.928  36.670  1.00  0.00    -0.550 OA
ENDBRANCH  21  22
ENDBRANCH  20  21
ENDBRANCH  19  20
ENDBRANCH  18  19
ENDBRANCH  17  18
ENDBRANCH  16  17
ENDBRANCH  15  16
ENDBRANCH  14  15
ENDBRANCH  13  14
ENDBRANCH   1  13
TORSDOF 20
ENDMDL
MODEL 2
REMARK VINA RESULT:    -5.345      1.139      1.736
REMARK INTER + INTRA:         -13.056
REMARK INTER:                 -11.914
REMARK INTRA:                  -1.143
REMARK UNBOUND:                -1.462
REMARK SMILES CCCCCCCCCCCCCCCCCCCCCC(=O)[O-]
REMARK SMILES IDX 12 1 11 2 10 3 9 4 8 5 7 6 6 7 5 8 4 9 3 10 2 11 1 12 13 13
REMARK SMILES IDX 14 14 15 15 16 16 17 17 18 18 19 19 20 20 21 21 22 22 23 23
REMARK SMILES IDX 24 24
REMARK H PARENT
REMARK Flexibility Score: inf
ROOT
ATOM      1  C   UNL     1      16.350  22.106  34.534  1.00  0.00     0.000 C 
ENDROOT
BRANCH   1   2
ATOM      2  C   UNL     1      14.891  21.618  34.452  1.00  0.00     0.000 C 
BRANCH   2   3
ATOM      3  C   UNL     1      13.845  22.751  34.533  1.00  0.00     0.000 C 
BRANCH   3   4
ATOM      4  C   UNL     1      12.401  22.244  34.369  1.00  0.00    -0.000 C 
BRANCH   4   5
ATOM      5  C   UNL     1      11.755  21.882  35.724  1.00  0.00    -0.000 C 
BRANCH   5   6
ATOM      6  C   UNL     1      12.372  22.629  36.918  1.00  0.00    -0.000 C 
BRANCH   6   7
ATOM      7  C   UNL     1      12.211  21.873  38.244  1.00  0.00    -0.000 C 
BRANCH   7   8
ATOM      8  C   UNL     1      10.733  21.777  38.646  1.00  0.00    -0.000 C 
BRANCH   8   9
ATOM      9  C   UNL     1      10.546  21.349  40.110  1.00  0.00    -0.000 C 
BRANCH   9  10
ATOM     10  C   UNL     1       9.456  22.164  40.830  1.00  0.00    -0.000 C 
BRANCH  10  11
ATOM     11  C   UNL     1      10.042  23.252  41.742  1.00  0.00    -0.003 C 
ATOM     12  C   UNL     1      10.891  22.676  42.876  1.00  0.00     0.004 C 
ENDBRANCH  10  11
ENDBRANCH   9  10
ENDBRANCH   8   9
ENDBRANCH   7   8
ENDBRANCH   6   7
ENDBRANCH   5   6
ENDBRANCH   4   5
ENDBRANCH   3   4
ENDBRANCH   2   3
ENDBRANCH   1   2
BRANCH   1  13
ATOM     13  C   UNL     1      17.173  21.938  33.242  1.00  0.00     0.000 C 
BRANCH  13  14
ATOM     14  C   UNL     1      18.608  22.494  33.299  1.00  0.00     0.000 C 
BRANCH  14  15
ATOM     15  C   UNL     1      19.652  21.512  32.742  1.00  0.00     0.000 C 
BRANCH  15  16
ATOM     16  C   UNL     1      20.567  20.930  33.836  1.00  0.00     0.000 C 
BRANCH  16  17
ATOM     17  C   UNL     1      20.248  21.393  35.272  1.00  0.00     0.000 C 
BRANCH  17  18
ATOM     18  C   UNL     1      21.383  22.157  35.983  1.00  0.00     0.000 C 
BRANCH  18  19
ATOM     19  C   UNL     1      22.784  21.952  35.378  1.00  0.00     0.000 C 
BRANCH  19  20
ATOM     20  C   UNL     1      23.873  21.760  36.447  1.00  0.00     0.006 C 
BRANCH  20  21
ATOM     21  C   UNL     1      24.588  23.075  36.786  1.00  0.00     0.053 C 
BRANCH  21  22
ATOM     22  C   UNL     1      24.038  23.701  38.031  1.00  0.00     0.041 C 
ATOM     23  O   UNL     1      23.203  24.641  37.953  1.00  0.00    -0.550 OA
ATOM     24  O   UNL     1      24.424  23.227  39.278  1.00  0.00    -0.550 OA
ENDBRANCH  21  22
ENDBRANCH  20  21
ENDBRANCH  19  20
ENDBRANCH  18  19
ENDBRANCH  17  18
ENDBRANCH  16  17
ENDBRANCH  15  16
ENDBRANCH  14  15
ENDBRANCH  13  14
ENDBRANCH   1  13
TORSDOF 20
ENDMDL
MODEL 3
REMARK VINA RESULT:    -5.322      4.576     10.871
REMARK INTER + INTRA:         -13.006
REMARK INTER:                 -11.870
REMARK INTRA:                  -1.136
REMARK UNBOUND:                -1.462
REMARK SMILES CCCCCCCCCCCCCCCCCCCCCC(=O)[O-]
REMARK SMILES IDX 12 1 11 2 10 3 9 4 8 5 7 6 6 7 5 8 4 9 3 10 2 11 1 12 13 13
REMARK SMILES IDX 14 14 15 15 16 16 17 17 18 18 19 19 20 20 21 21 22 22 23 23
REMARK SMILES IDX 24 24
REMARK H PARENT
REMARK Flexibility Score: inf
ROOT
ATOM      1  C   UNL     1      16.320  22.273  34.998  1.00  0.00     0.000 C 
ENDROOT
BRANCH   1   2
ATOM      2  C   UNL     1      17.478  21.550  34.284  1.00  0.00     0.000 C 
BRANCH   2   3
ATOM      3  C   UNL     1      17.670  21.972  32.812  1.00  0.00     0.000 C 
BRANCH   3   4
ATOM      4  C   UNL     1      19.150  22.012  32.390  1.00  0.00    -0.000 C 
BRANCH   4   5
ATOM      5  C   UNL     1      20.072  22.458  33.544  1.00  0.00    -0.000 C 
BRANCH   5   6
ATOM      6  C   UNL     1      21.013  21.349  34.042  1.00  0.00    -0.000 C 
BRANCH   6   7
ATOM      7  C   UNL     1      22.012  21.842  35.099  1.00  0.00    -0.000 C 
BRANCH   7   8
ATOM      8  C   UNL     1      21.541  21.475  36.513  1.00  0.00    -0.000 C 
BRANCH   8   9
ATOM      9  C   UNL     1      22.456  22.048  37.607  1.00  0.00    -0.000 C 
BRANCH   9  10
ATOM     10  C   UNL     1      23.246  23.280  37.131  1.00  0.00    -0.000 C 
BRANCH  10  11
ATOM     11  C   UNL     1      24.757  23.136  37.367  1.00  0.00    -0.003 C 
ATOM     12  C   UNL     1      25.447  22.309  36.283  1.00  0.00     0.004 C 
ENDBRANCH  10  11
ENDBRANCH   9  10
ENDBRANCH   8   9
ENDBRANCH   7   8
ENDBRANCH   6   7
ENDBRANCH   5   6
ENDBRANCH   4   5
ENDBRANCH   3   4
ENDBRANCH   2   3
ENDBRANCH   1   2
BRANCH   1  13
ATOM     13  C   UNL     1      14.955  22.189  34.288  1.00  0.00     0.000 C 
BRANCH  13  14
ATOM     14  C   UNL     1      14.071  20.996  34.700  1.00  0.00     0.000 C 
BRANCH  14  15
ATOM     15  C   UNL     1      12.568  21.294  34.570  1.00  0.00     0.000 C 
BRANCH  15  16
ATOM     16  C   UNL     1      12.040  22.199  35.699  1.00  0.00     0.000 C 
BRANCH  16  17
ATOM     17  C   UNL     1      12.585  21.878  37.105  1.00  0.00     0.000 C 
BRANCH  17  18
ATOM     18  C   UNL     1      11.528  21.836  38.227  1.00  0.00     0.000 C 
BRANCH  18  19
ATOM     19  C   UNL     1      12.098  21.787  39.656  1.00  0.00     0.000 C 
BRANCH  19  20
ATOM     20  C   UNL     1      11.147  21.105  40.654  1.00  0.00     0.006 C 
BRANCH  20  21
ATOM     21  C   UNL     1       9.682  21.497  40.418  1.00  0.00     0.053 C 
BRANCH  21  22
ATOM     22  C   UNL     1       9.364  22.840  40.999  1.00  0.00     0.041 C 
ATOM     23  O   UNL     1       9.469  23.878  40.293  1.00  0.00    -0.550 OA
ATOM     24  O   UNL     1       8.921  22.944  42.311  1.00  0.00    -0.550 OA
ENDBRANCH  21  22
ENDBRANCH  20  21
ENDBRANCH  19  20
ENDBRANCH  18  19
ENDBRANCH  17  18
ENDBRANCH  16  17
ENDBRANCH  15  16
ENDBRANCH  14  15
ENDBRANCH  13  14
ENDBRANCH   1  13
TORSDOF 20
ENDMDL
MODEL 4
REMARK VINA RESULT:    -5.292      4.648     10.630
REMARK INTER + INTRA:         -12.942
REMARK INTER:                 -11.710
REMARK INTRA:                  -1.232
REMARK UNBOUND:                -1.462
REMARK SMILES CCCCCCCCCCCCCCCCCCCCCC(=O)[O-]
REMARK SMILES IDX 12 1 11 2 10 3 9 4 8 5 7 6 6 7 5 8 4 9 3 10 2 11 1 12 13 13
REMARK SMILES IDX 14 14 15 15 16 16 17 17 18 18 19 19 20 20 21 21 22 22 23 23
REMARK SMILES IDX 24 24
REMARK H PARENT
REMARK Flexibility Score: inf
ROOT
ATOM      1  C   UNL     1      11.019  22.697  38.843  1.00  0.00     0.000 C 
ENDROOT
BRANCH   1   2
ATOM      2  C   UNL     1      12.389  22.622  38.142  1.00  0.00     0.000 C 
BRANCH   2   3
ATOM      3  C   UNL     1      12.439  21.623  36.966  1.00  0.00     0.000 C 
BRANCH   3   4
ATOM      4  C   UNL     1      11.622  22.092  35.748  1.00  0.00    -0.000 C 
BRANCH   4   5
ATOM      5  C   UNL     1      12.496  22.245  34.485  1.00  0.00    -0.000 C 
BRANCH   5   6
ATOM      6  C   UNL     1      13.855  21.534  34.589  1.00  0.00    -0.000 C 
BRANCH   6   7
ATOM      7  C   UNL     1      15.045  22.496  34.462  1.00  0.00    -0.000 C 
BRANCH   7   8
ATOM      8  C   UNL     1      16.372  21.725  34.412  1.00  0.00    -0.000 C 
BRANCH   8   9
ATOM      9  C   UNL     1      17.263  22.160  33.238  1.00  0.00    -0.000 C 
BRANCH   9  10
ATOM     10  C   UNL     1      18.753  22.226  33.620  1.00  0.00    -0.000 C 
BRANCH  10  11
ATOM     11  C   UNL     1      19.636  21.388  32.684  1.00  0.00    -0.003 C 
ATOM     12  C   UNL     1      20.060  20.058  33.307  1.00  0.00     0.004 C 
ENDBRANCH  10  11
ENDBRANCH   9  10
ENDBRANCH   8   9
ENDBRANCH   7   8
ENDBRANCH   6   7
ENDBRANCH   5   6
ENDBRANCH   4   5
ENDBRANCH   3   4
ENDBRANCH   2   3
ENDBRANCH   1   2
BRANCH   1  13
ATOM     13  C   UNL     1      10.407  21.339  39.236  1.00  0.00     0.000 C 
BRANCH  13  14
ATOM     14  C   UNL     1      10.106  21.163  40.737  1.00  0.00     0.000 C 
BRANCH  14  15
ATOM     15  C   UNL     1       9.467  22.412  41.368  1.00  0.00     0.000 C 
BRANCH  15  16
ATOM     16  C   UNL     1      10.355  23.054  42.450  1.00  0.00     0.000 C 
BRANCH  16  17
ATOM     17  C   UNL     1      11.796  22.510  42.524  1.00  0.00     0.000 C 
BRANCH  17  18
ATOM     18  C   UNL     1      12.628  23.014  43.720  1.00  0.00     0.000 C 
BRANCH  18  19
ATOM     19  C   UNL     1      11.805  23.502  44.926  1.00  0.00     0.000 C 
BRANCH  19  20
ATOM     20  C   UNL     1      12.666  24.199  45.993  1.00  0.00     0.006 C 
BRANCH  20  21
ATOM     21  C   UNL     1      13.027  23.257  47.150  1.00  0.00     0.053 C 
BRANCH  21  22
ATOM     22  C   UNL     1      14.418  22.718  47.015  1.00  0.00     0.041 C 
ATOM     23  O   UNL     1      14.649  21.744  46.250  1.00  0.00    -0.550 OA
ATOM     24  O   UNL     1      15.465  23.310  47.710  1.00  0.00    -0.550 OA
ENDBRANCH  21  22
ENDBRANCH  20  21
ENDBRANCH  19  20
ENDBRANCH  18  19
ENDBRANCH  17  18
ENDBRANCH  16  17
ENDBRANCH  15  16
ENDBRANCH  14  15
ENDBRANCH  13  14
ENDBRANCH   1  13
TORSDOF 20
ENDMDL
MODEL 5
REMARK VINA RESULT:    -5.277      2.414      3.709
REMARK INTER + INTRA:         -12.908
REMARK INTER:                 -12.035
REMARK INTRA:                  -0.873
REMARK UNBOUND:                -1.462
REMARK SMILES CCCCCCCCCCCCCCCCCCCCCC(=O)[O-]
REMARK SMILES IDX 12 1 11 2 10 3 9 4 8 5 7 6 6 7 5 8 4 9 3 10 2 11 1 12 13 13
REMARK SMILES IDX 14 14 15 15 16 16 17 17 18 18 19 19 20 20 21 21 22 22 23 23
REMARK SMILES IDX 24 24
REMARK H PARENT
REMARK Flexibility Score: inf
ROOT
ATOM      1  C   UNL     1      12.408  22.338  35.090  1.00  0.00     0.000 C 
ENDROOT
BRANCH   1   2
ATOM      2  C   UNL     1      12.490  22.566  36.611  1.00  0.00     0.000 C 
BRANCH   2   3
ATOM      3  C   UNL     1      11.212  22.160  37.377  1.00  0.00     0.000 C 
BRANCH   3   4
ATOM      4  C   UNL     1      11.419  22.110  38.901  1.00  0.00    -0.000 C 
BRANCH   4   5
ATOM      5  C   UNL     1      10.459  23.059  39.650  1.00  0.00    -0.000 C 
BRANCH   5   6
ATOM      6  C   UNL     1       9.628  22.358  40.738  1.00  0.00    -0.000 C 
BRANCH   6   7
ATOM      7  C   UNL     1       9.934  22.876  42.150  1.00  0.00    -0.000 C 
BRANCH   7   8
ATOM      8  C   UNL     1      11.318  22.406  42.620  1.00  0.00    -0.000 C 
BRANCH   8   9
ATOM      9  C   UNL     1      11.795  23.145  43.880  1.00  0.00    -0.000 C 
BRANCH   9  10
ATOM     10  C   UNL     1      12.838  22.341  44.678  1.00  0.00    -0.000 C 
BRANCH  10  11
ATOM     11  C   UNL     1      12.363  22.012  46.101  1.00  0.00    -0.003 C 
ATOM     12  C   UNL     1      13.210  22.691  47.177  1.00  0.00     0.004 C 
ENDBRANCH  10  11
ENDBRANCH   9  10
ENDBRANCH   8   9
ENDBRANCH   7   8
ENDBRANCH   6   7
ENDBRANCH   5   6
ENDBRANCH   4   5
ENDBRANCH   3   4
ENDBRANCH   2   3
ENDBRANCH   1   2
BRANCH   1  13
ATOM     13  C   UNL     1      13.162  21.100  34.568  1.00  0.00     0.000 C 
BRANCH  13  14
ATOM     14  C   UNL     1      14.627  20.979  35.029  1.00  0.00     0.000 C 
BRANCH  14  15
ATOM     15  C   UNL     1      15.533  22.067  34.430  1.00  0.00     0.000 C 
BRANCH  15  16
ATOM     16  C   UNL     1      16.958  21.560  34.134  1.00  0.00     0.000 C 
BRANCH  16  17
ATOM     17  C   UNL     1      17.597  22.117  32.846  1.00  0.00     0.000 C 
BRANCH  17  18
ATOM     18  C   UNL     1      19.034  21.634  32.564  1.00  0.00     0.000 C 
BRANCH  18  19
ATOM     19  C   UNL     1      19.586  20.611  33.574  1.00  0.00     0.000 C 
BRANCH  19  20
ATOM     20  C   UNL     1      21.009  20.950  34.049  1.00  0.00     0.006 C 
BRANCH  20  21
ATOM     21  C   UNL     1      21.007  21.944  35.218  1.00  0.00     0.053 C 
BRANCH  21  22
ATOM     22  C   UNL     1      22.219  21.789  36.083  1.00  0.00     0.041 C 
ATOM     23  O   UNL     1      23.279  22.412  35.809  1.00  0.00    -0.550 OA
ATOM     24  O   UNL     1      22.170  20.980  37.212  1.00  0.00    -0.550 OA
ENDBRANCH  21  22
ENDBRANCH  20  21
ENDBRANCH  19  20
ENDBRANCH  18  19
ENDBRANCH  17  18
ENDBRANCH  16  17
ENDBRANCH  15  16
ENDBRANCH  14  15
ENDBRANCH  13  14
ENDBRANCH   1  13
TORSDOF 20
ENDMDL
MODEL 6
REMARK VINA RESULT:    -5.188      4.928     10.882
REMARK INTER + INTRA:         -12.716
REMARK INTER:                 -11.555
REMARK INTRA:                  -1.161
REMARK UNBOUND:                -1.462
REMARK SMILES CCCCCCCCCCCCCCCCCCCCCC(=O)[O-]
REMARK SMILES IDX 12 1 11 2 10 3 9 4 8 5 7 6 6 7 5 8 4 9 3 10 2 11 1 12 13 13
REMARK SMILES IDX 14 14 15 15 16 16 17 17 18 18 19 19 20 20 21 21 22 22 23 23
REMARK SMILES IDX 24 24
REMARK H PARENT
REMARK Flexibility Score: inf
ROOT
ATOM      1  C   UNL     1      12.571  22.595  38.105  1.00  0.00     0.000 C 
ENDROOT
BRANCH   1   2
ATOM      2  C   UNL     1      12.699  21.567  36.965  1.00  0.00     0.000 C 
BRANCH   2   3
ATOM      3  C   UNL     1      11.984  21.982  35.661  1.00  0.00     0.000 C 
BRANCH   3   4
ATOM      4  C   UNL     1      12.959  22.470  34.575  1.00  0.00    -0.000 C 
BRANCH   4   5
ATOM      5  C   UNL     1      14.243  21.615  34.519  1.00  0.00    -0.000 C 
BRANCH   5   6
ATOM      6  C   UNL     1      15.536  22.442  34.612  1.00  0.00    -0.000 C 
BRANCH   6   7
ATOM      7  C   UNL     1      16.797  21.613  34.332  1.00  0.00    -0.000 C 
BRANCH   7   8
ATOM      8  C   UNL     1      17.447  22.031  33.006  1.00  0.00    -0.000 C 
BRANCH   8   9
ATOM      9  C   UNL     1      18.957  21.745  32.973  1.00  0.00    -0.000 C 
BRANCH   9  10
ATOM     10  C   UNL     1      19.707  22.391  34.151  1.00  0.00    -0.000 C 
BRANCH  10  11
ATOM     11  C   UNL     1      20.635  21.402  34.871  1.00  0.00    -0.003 C 
ATOM     12  C   UNL     1      22.097  21.846  34.854  1.00  0.00     0.004 C 
ENDBRANCH  10  11
ENDBRANCH   9  10
ENDBRANCH   8   9
ENDBRANCH   7   8
ENDBRANCH   6   7
ENDBRANCH   5   6
ENDBRANCH   4   5
ENDBRANCH   3   4
ENDBRANCH   2   3
ENDBRANCH   1   2
BRANCH   1  13
ATOM     13  C   UNL     1      11.196  22.642  38.798  1.00  0.00     0.000 C 
BRANCH  13  14
ATOM     14  C   UNL     1      10.550  21.271  39.072  1.00  0.00     0.000 C 
BRANCH  14  15
ATOM     15  C   UNL     1       9.979  21.153  40.495  1.00  0.00     0.000 C 
BRANCH  15  16
ATOM     16  C   UNL     1       9.250  22.431  40.952  1.00  0.00     0.000 C 
BRANCH  16  17
ATOM     17  C   UNL     1       9.694  22.984  42.321  1.00  0.00     0.000 C 
BRANCH  17  18
ATOM     18  C   UNL     1      11.218  23.047  42.542  1.00  0.00     0.000 C 
BRANCH  18  19
ATOM     19  C   UNL     1      11.697  22.549  43.918  1.00  0.00     0.000 C 
BRANCH  19  20
ATOM     20  C   UNL     1      12.279  23.674  44.791  1.00  0.00     0.006 C 
BRANCH  20  21
ATOM     21  C   UNL     1      13.429  23.180  45.679  1.00  0.00     0.053 C 
BRANCH  21  22
ATOM     22  C   UNL     1      12.929  22.609  46.971  1.00  0.00     0.041 C 
ATOM     23  O   UNL     1      12.640  21.386  47.053  1.00  0.00    -0.550 OA
ATOM     24  O   UNL     1      12.813  23.421  48.092  1.00  0.00    -0.550 OA
ENDBRANCH  21  22
ENDBRANCH  20  21
ENDBRANCH  19  20
ENDBRANCH  18  19
ENDBRANCH  17  18
ENDBRANCH  16  17
ENDBRANCH  15  16
ENDBRANCH  14  15
ENDBRANCH  13  14
ENDBRANCH   1  13
TORSDOF 20
ENDMDL
MODEL 7
REMARK VINA RESULT:    -5.135      5.758      9.523
REMARK INTER + INTRA:         -12.600
REMARK INTER:                 -11.817
REMARK INTRA:                  -0.783
REMARK UNBOUND:                -1.462
REMARK SMILES CCCCCCCCCCCCCCCCCCCCCC(=O)[O-]
REMARK SMILES IDX 12 1 11 2 10 3 9 4 8 5 7 6 6 7 5 8 4 9 3 10 2 11 1 12 13 13
REMARK SMILES IDX 14 14 15 15 16 16 17 17 18 18 19 19 20 20 21 21 22 22 23 23
REMARK SMILES IDX 24 24
REMARK H PARENT
REMARK Flexibility Score: inf
ROOT
ATOM      1  C   UNL     1      10.140  22.994  42.637  1.00  0.00     0.000 C 
ENDROOT
BRANCH   1   2
ATOM      2  C   UNL     1      11.644  22.968  42.969  1.00  0.00     0.000 C 
BRANCH   2   3
ATOM      3  C   UNL     1      11.968  22.421  44.376  1.00  0.00     0.000 C 
BRANCH   3   4
ATOM      4  C   UNL     1      13.015  23.269  45.120  1.00  0.00    -0.000 C 
BRANCH   4   5
ATOM      5  C   UNL     1      12.728  23.351  46.634  1.00  0.00    -0.000 C 
BRANCH   5   6
ATOM      6  C   UNL     1      13.991  23.247  47.505  1.00  0.00    -0.000 C 
BRANCH   6   7
ATOM      7  C   UNL     1      15.289  23.342  46.691  1.00  0.00    -0.000 C 
BRANCH   7   8
ATOM      8  C   UNL     1      16.502  22.936  47.540  1.00  0.00    -0.000 C 
BRANCH   8   9
ATOM      9  C   UNL     1      17.804  22.890  46.725  1.00  0.00    -0.000 C 
BRANCH   9  10
ATOM     10  C   UNL     1      18.822  21.887  47.295  1.00  0.00    -0.000 C 
BRANCH  10  11
ATOM     11  C   UNL     1      19.201  22.196  48.750  1.00  0.00    -0.003 C 
ATOM     12  C   UNL     1      20.254  23.298  48.865  1.00  0.00     0.004 C 
ENDBRANCH  10  11
ENDBRANCH   9  10
ENDBRANCH   8   9
ENDBRANCH   7   8
ENDBRANCH   6   7
ENDBRANCH   5   6
ENDBRANCH   4   5
ENDBRANCH   3   4
ENDBRANCH   2   3
ENDBRANCH   1   2
BRANCH   1  13
ATOM     13  C   UNL     1       9.793  22.848  41.143  1.00  0.00     0.000 C 
BRANCH  13  14
ATOM     14  C   UNL     1      10.457  21.655  40.428  1.00  0.00     0.000 C 
BRANCH  14  15
ATOM     15  C   UNL     1      10.520  21.834  38.902  1.00  0.00     0.000 C 
BRANCH  15  16
ATOM     16  C   UNL     1      11.914  22.268  38.410  1.00  0.00     0.000 C 
BRANCH  16  17
ATOM     17  C   UNL     1      12.407  21.561  37.131  1.00  0.00     0.000 C 
BRANCH  17  18
ATOM     18  C   UNL     1      12.028  22.256  35.808  1.00  0.00     0.000 C 
BRANCH  18  19
ATOM     19  C   UNL     1      12.456  21.505  34.534  1.00  0.00     0.000 C 
BRANCH  19  20
ATOM     20  C   UNL     1      13.934  21.082  34.558  1.00  0.00     0.006 C 
BRANCH  20  21
ATOM     21  C   UNL     1      14.880  22.289  34.625  1.00  0.00     0.053 C 
BRANCH  21  22
ATOM     22  C   UNL     1      16.315  21.878  34.501  1.00  0.00     0.041 C 
ATOM     23  O   UNL     1      16.900  21.945  33.388  1.00  0.00    -0.550 OA
ATOM     24  O   UNL     1      17.016  21.452  35.622  1.00  0.00    -0.550 OA
ENDBRANCH  21  22
ENDBRANCH  20  21
ENDBRANCH  19  20
ENDBRANCH  18  19
ENDBRANCH  17  18
ENDBRANCH  16  17
ENDBRANCH  15  16
ENDBRANCH  14  15
ENDBRANCH  13  14
ENDBRANCH   1  13
TORSDOF 20
ENDMDL
MODEL 8
REMARK VINA RESULT:    -5.120      2.176      2.501
REMARK INTER + INTRA:         -12.568
REMARK INTER:                 -10.594
REMARK INTRA:                  -1.973
REMARK UNBOUND:                -1.462
REMARK SMILES CCCCCCCCCCCCCCCCCCCCCC(=O)[O-]
REMARK SMILES IDX 12 1 11 2 10 3 9 4 8 5 7 6 6 7 5 8 4 9 3 10 2 11 1 12 13 13
REMARK SMILES IDX 14 14 15 15 16 16 17 17 18 18 19 19 20 20 21 21 22 22 23 23
REMARK SMILES IDX 24 24
REMARK H PARENT
REMARK Flexibility Score: inf
ROOT
ATOM      1  C   UNL     1      15.017  21.488  35.134  1.00  0.00     0.000 C 
ENDROOT
BRANCH   1   2
ATOM      2  C   UNL     1      13.831  20.741  34.495  1.00  0.00     0.000 C 
BRANCH   2   3
ATOM      3  C   UNL     1      12.465  21.426  34.714  1.00  0.00     0.000 C 
BRANCH   3   4
ATOM      4  C   UNL     1      12.529  22.569  35.744  1.00  0.00    -0.000 C 
BRANCH   4   5
ATOM      5  C   UNL     1      11.780  22.219  37.048  1.00  0.00    -0.000 C 
BRANCH   5   6
ATOM      6  C   UNL     1      12.506  22.689  38.319  1.00  0.00    -0.000 C 
BRANCH   6   7
ATOM      7  C   UNL     1      12.827  21.539  39.284  1.00  0.00    -0.000 C 
BRANCH   7   8
ATOM      8  C   UNL     1      12.211  21.794  40.667  1.00  0.00    -0.000 C 
BRANCH   8   9
ATOM      9  C   UNL     1      11.008  20.882  40.954  1.00  0.00    -0.000 C 
BRANCH   9  10
ATOM     10  C   UNL     1       9.680  21.483  40.460  1.00  0.00    -0.000 C 
BRANCH  10  11
ATOM     11  C   UNL     1       9.318  22.786  41.187  1.00  0.00    -0.003 C 
ATOM     12  C   UNL     1       9.510  24.023  40.309  1.00  0.00     0.004 C 
ENDBRANCH  10  11
ENDBRANCH   9  10
ENDBRANCH   8   9
ENDBRANCH   7   8
ENDBRANCH   6   7
ENDBRANCH   5   6
ENDBRANCH   4   5
ENDBRANCH   3   4
ENDBRANCH   2   3
ENDBRANCH   1   2
BRANCH   1  13
ATOM     13  C   UNL     1      15.971  22.180  34.140  1.00  0.00     0.000 C 
BRANCH  13  14
ATOM     14  C   UNL     1      17.370  21.546  34.021  1.00  0.00     0.000 C 
BRANCH  14  15
ATOM     15  C   UNL     1      18.275  22.280  33.018  1.00  0.00     0.000 C 
BRANCH  15  16
ATOM     16  C   UNL     1      19.483  21.434  32.574  1.00  0.00     0.000 C 
BRANCH  16  17
ATOM     17  C   UNL     1      20.366  20.900  33.719  1.00  0.00     0.000 C 
BRANCH  17  18
ATOM     18  C   UNL     1      21.164  21.970  34.489  1.00  0.00     0.000 C 
BRANCH  18  19
ATOM     19  C   UNL     1      21.467  21.625  35.959  1.00  0.00     0.000 C 
BRANCH  19  20
ATOM     20  C   UNL     1      20.729  22.540  36.951  1.00  0.00     0.006 C 
BRANCH  20  21
ATOM     21  C   UNL     1      19.714  23.453  36.251  1.00  0.00     0.053 C 
BRANCH  21  22
ATOM     22  C   UNL     1      18.406  23.493  36.979  1.00  0.00     0.041 C 
ATOM     23  O   UNL     1      17.807  24.588  37.148  1.00  0.00    -0.550 OA
ATOM     24  O   UNL     1      17.832  22.316  37.444  1.00  0.00    -0.550 OA
ENDBRANCH  21  22
ENDBRANCH  20  21
ENDBRANCH  19  20
ENDBRANCH  18  19
ENDBRANCH  17  18
ENDBRANCH  16  17
ENDBRANCH  15  16
ENDBRANCH  14  15
ENDBRANCH  13  14
ENDBRANCH   1  13
TORSDOF 20
ENDMDL
MODEL 9
REMARK VINA RESULT:    -5.103      7.533     12.440
REMARK INTER + INTRA:         -12.532
REMARK INTER:                 -10.315
REMARK INTRA:                  -2.217
REMARK UNBOUND:                -1.462
REMARK SMILES CCCCCCCCCCCCCCCCCCCCCC(=O)[O-]
REMARK SMILES IDX 12 1 11 2 10 3 9 4 8 5 7 6 6 7 5 8 4 9 3 10 2 11 1 12 13 13
REMARK SMILES IDX 14 14 15 15 16 16 17 17 18 18 19 19 20 20 21 21 22 22 23 23
REMARK SMILES IDX 24 24
REMARK H PARENT
REMARK Flexibility Score: inf
ROOT
ATOM      1  C   UNL     1      15.752  22.677  45.739  1.00  0.00     0.000 C 
ENDROOT
BRANCH   1   2
ATOM      2  C   UNL     1      15.955  23.275  47.144  1.00  0.00     0.000 C 
BRANCH   2   3
ATOM      3  C   UNL     1      17.434  23.375  47.577  1.00  0.00     0.000 C 
BRANCH   3   4
ATOM      4  C   UNL     1      17.891  22.171  48.421  1.00  0.00    -0.000 C 
BRANCH   4   5
ATOM      5  C   UNL     1      19.415  21.943  48.329  1.00  0.00    -0.000 C 
BRANCH   5   6
ATOM      6  C   UNL     1      20.246  23.155  48.781  1.00  0.00    -0.000 C 
BRANCH   6   7
ATOM      7  C   UNL     1      21.347  23.532  47.779  1.00  0.00    -0.000 C 
BRANCH   7   8
ATOM      8  C   UNL     1      21.084  22.893  46.408  1.00  0.00    -0.000 C 
BRANCH   8   9
ATOM      9  C   UNL     1      20.523  23.896  45.388  1.00  0.00    -0.000 C 
BRANCH   9  10
ATOM     10  C   UNL     1      19.417  23.288  44.507  1.00  0.00    -0.000 C 
BRANCH  10  11
ATOM     11  C   UNL     1      19.304  21.765  44.673  1.00  0.00    -0.003 C 
ATOM     12  C   UNL     1      19.650  21.006  43.392  1.00  0.00     0.004 C 
ENDBRANCH  10  11
ENDBRANCH   9  10
ENDBRANCH   8   9
ENDBRANCH   7   8
ENDBRANCH   6   7
ENDBRANCH   5   6
ENDBRANCH   4   5
ENDBRANCH   3   4
ENDBRANCH   2   3
ENDBRANCH   1   2
BRANCH   1  13
ATOM     13  C   UNL     1      14.612  21.646  45.621  1.00  0.00     0.000 C 
BRANCH  13  14
ATOM     14  C   UNL     1      13.297  22.037  46.323  1.00  0.00     0.000 C 
BRANCH  14  15
ATOM     15  C   UNL     1      12.097  22.076  45.362  1.00  0.00     0.000 C 
BRANCH  15  16
ATOM     16  C   UNL     1      12.297  23.064  44.197  1.00  0.00     0.000 C 
BRANCH  16  17
ATOM     17  C   UNL     1      11.678  22.628  42.854  1.00  0.00     0.000 C 
BRANCH  17  18
ATOM     18  C   UNL     1      10.172  22.921  42.699  1.00  0.00     0.000 C 
BRANCH  18  19
ATOM     19  C   UNL     1       9.563  22.498  41.350  1.00  0.00     0.000 C 
BRANCH  19  20
ATOM     20  C   UNL     1      10.399  21.429  40.626  1.00  0.00     0.006 C 
BRANCH  20  21
ATOM     21  C   UNL     1      10.716  21.826  39.178  1.00  0.00     0.053 C 
BRANCH  21  22
ATOM     22  C   UNL     1      12.155  22.208  39.008  1.00  0.00     0.041 C 
ATOM     23  O   UNL     1      12.566  23.328  39.410  1.00  0.00    -0.550 OA
ATOM     24  O   UNL     1      13.049  21.313  38.434  1.00  0.00    -0.550 OA
ENDBRANCH  21  22
ENDBRANCH  20  21
ENDBRANCH  19  20
ENDBRANCH  18  19
ENDBRANCH  17  18
ENDBRANCH  16  17
ENDBRANCH  15  16
ENDBRANCH  14  15
ENDBRANCH  13  14
ENDBRANCH   1  13
TORSDOF 20
ENDMDL
