MODEL 1
REMARK VINA RESULT:    -5.024      0.000      0.000
REMARK INTER + INTRA:         -12.002
REMARK INTER:                  -9.430
REMARK INTRA:                  -2.571
REMARK UNBOUND:                -2.571
REMARK SMILES CCCCCCCCC=CCCCCCCCC(=O)[O-]
REMARK SMILES IDX 10 1 9 2 11 3 12 4 13 5 14 6 15 7 16 8 17 9 18 10 19 11
REMARK SMILES IDX 20 12 8 13 7 14 6 15 5 16 4 17 3 18 2 19 1 20
REMARK H PARENT
REMARK Flexibility Score: inf
ROOT
ATOM      1  C   UNL     1      -0.654 -23.908  50.517  1.00  0.00    -0.031 C 
ATOM      2  C   UNL     1      -1.858 -24.503  50.425  1.00  0.00    -0.031 C 
ENDROOT
BRANCH   1   3
ATOM      3  C   UNL     1      -0.406 -22.422  50.404  1.00  0.00     0.027 C 
BRANCH   3   4
ATOM      4  C   UNL     1      -0.068 -22.020  48.963  1.00  0.00     0.004 C 
BRANCH   4   5
ATOM      5  C   UNL     1      -1.298 -21.485  48.208  1.00  0.00     0.000 C 
BRANCH   5   6
ATOM      6  C   UNL     1      -1.466 -22.141  46.828  1.00  0.00     0.000 C 
BRANCH   6   7
ATOM      7  C   UNL     1      -1.165 -23.650  46.858  1.00  0.00     0.000 C 
BRANCH   7   8
ATOM      8  C   UNL     1      -2.271 -24.488  46.198  1.00  0.00     0.006 C 
BRANCH   8   9
ATOM      9  C   UNL     1      -2.250 -25.956  46.641  1.00  0.00     0.053 C 
BRANCH   9  10
ATOM     10  C   UNL     1      -3.096 -26.788  45.731  1.00  0.00     0.041 C 
ATOM     11  O   UNL     1      -4.234 -26.381  45.376  1.00  0.00    -0.550 OA
ATOM     12  O   UNL     1      -2.650 -28.036  45.312  1.00  0.00    -0.550 OA
ENDBRANCH   9  10
ENDBRANCH   8   9
ENDBRANCH   7   8
ENDBRANCH   6   7
ENDBRANCH   5   6
ENDBRANCH   4   5
ENDBRANCH   3   4
ENDBRANCH   1   3
BRANCH   2  13
ATOM     13  C   UNL     1      -3.169 -23.780  50.246  1.00  0.00     0.027 C 
BRANCH  13  14
ATOM     14  C   UNL     1      -4.215 -24.637  49.511  1.00  0.00     0.004 C 
BRANCH  14  15
ATOM     15  C   UNL     1      -5.349 -23.823  48.861  1.00  0.00     0.000 C 
BRANCH  15  16
ATOM     16  C   UNL     1      -4.874 -22.460  48.326  1.00  0.00     0.000 C 
BRANCH  16  17
ATOM     17  C   UNL     1      -6.031 -21.445  48.217  1.00  0.00    -0.000 C 
BRANCH  17  18
ATOM     18  C   UNL     1      -6.043 -20.403  49.348  1.00  0.00    -0.000 C 
BRANCH  18  19
ATOM     19  C   UNL     1      -5.084 -20.753  50.492  1.00  0.00    -0.003 C 
ATOM     20  C   UNL     1      -4.499 -19.495  51.126  1.00  0.00     0.004 C 
ENDBRANCH  18  19
ENDBRANCH  17  18
ENDBRANCH  16  17
ENDBRANCH  15  16
ENDBRANCH  14  15
ENDBRANCH  13  14
ENDBRANCH   2  13
TORSDOF 15
ENDMDL
MODEL 2
REMARK VINA RESULT:    -4.923      3.230      4.303
REMARK INTER + INTRA:         -11.812
REMARK INTER:                  -9.156
REMARK INTRA:                  -2.656
REMARK UNBOUND:                -2.571
REMARK SMILES CCCCCCCCC=CCCCCCCCC(=O)[O-]
REMARK SMILES IDX 10 1 9 2 11 3 12 4 13 5 14 6 15 7 16 8 17 9 18 10 19 11
REMARK SMILES IDX 20 12 8 13 7 14 6 15 5 16 4 17 3 18 2 19 1 20
REMARK H PARENT
REMARK Flexibility Score: inf
ROOT
ATOM      1  C   UNL     1      -1.170 -22.608  50.380  1.00  0.00    -0.031 C 
ATOM      2  C   UNL     1      -1.595 -23.882  50.465  1.00  0.00    -0.031 C 
ENDROOT
BRANCH   1   3
ATOM      3  C   UNL     1      -0.605 -21.959  49.138  1.00  0.00     0.027 C 
BRANCH   3   4
ATOM      4  C   UNL     1      -1.718 -21.400  48.244  1.00  0.00     0.004 C 
BRANCH   4   5
ATOM      5  C   UNL     1      -1.550 -21.826  46.775  1.00  0.00     0.000 C 
BRANCH   5   6
ATOM      6  C   UNL     1      -2.896 -22.131  46.098  1.00  0.00     0.000 C 
BRANCH   6   7
ATOM      7  C   UNL     1      -3.962 -21.065  46.408  1.00  0.00     0.000 C 
BRANCH   7   8
ATOM      8  C   UNL     1      -5.048 -20.981  45.325  1.00  0.00     0.006 C 
BRANCH   8   9
ATOM      9  C   UNL     1      -6.034 -19.830  45.558  1.00  0.00     0.053 C 
BRANCH   9  10
ATOM     10  C   UNL     1      -5.729 -18.688  44.643  1.00  0.00     0.041 C 
ATOM     11  O   UNL     1      -6.588 -18.296  43.810  1.00  0.00    -0.550 OA
ATOM     12  O   UNL     1      -4.477 -18.086  44.675  1.00  0.00    -0.550 OA
ENDBRANCH   9  10
ENDBRANCH   8   9
ENDBRANCH   7   8
ENDBRANCH   6   7
ENDBRANCH   5   6
ENDBRANCH   4   5
ENDBRANCH   3   4
ENDBRANCH   1   3
BRANCH   2  13
ATOM     13  C   UNL     1      -1.629 -24.861  49.319  1.00  0.00     0.027 C 
BRANCH  13  14
ATOM     14  C   UNL     1      -2.994 -24.886  48.609  1.00  0.00     0.004 C 
BRANCH  14  15
ATOM     15  C   UNL     1      -4.192 -24.627  49.540  1.00  0.00     0.000 C 
BRANCH  15  16
ATOM     16  C   UNL     1      -5.454 -24.184  48.779  1.00  0.00     0.000 C 
BRANCH  16  17
ATOM     17  C   UNL     1      -5.658 -22.655  48.833  1.00  0.00    -0.000 C 
BRANCH  17  18
ATOM     18  C   UNL     1      -4.891 -21.974  49.978  1.00  0.00    -0.000 C 
BRANCH  18  19
ATOM     19  C   UNL     1      -5.163 -20.468  50.067  1.00  0.00    -0.003 C 
ATOM     20  C   UNL     1      -4.334 -19.821  51.172  1.00  0.00     0.004 C 
ENDBRANCH  18  19
ENDBRANCH  17  18
ENDBRANCH  16  17
ENDBRANCH  15  16
ENDBRANCH  14  15
ENDBRANCH  13  14
ENDBRANCH   2  13
TORSDOF 15
ENDMDL
MODEL 3
REMARK VINA RESULT:    -4.913      3.303      6.756
REMARK INTER + INTRA:         -11.793
REMARK INTER:                 -10.105
REMARK INTRA:                  -1.688
REMARK UNBOUND:                -2.571
REMARK SMILES CCCCCCCCC=CCCCCCCCC(=O)[O-]
REMARK SMILES IDX 10 1 9 2 11 3 12 4 13 5 14 6 15 7 16 8 17 9 18 10 19 11
REMARK SMILES IDX 20 12 8 13 7 14 6 15 5 16 4 17 3 18 2 19 1 20
REMARK H PARENT
REMARK Flexibility Score: inf
ROOT
ATOM      1  C   UNL     1      -5.620 -23.992  48.609  1.00  0.00    -0.031 C 
ATOM      2  C   UNL     1      -4.765 -24.846  48.017  1.00  0.00    -0.031 C 
ENDROOT
BRANCH   1   3
ATOM      3  C   UNL     1      -5.602 -22.489  48.448  1.00  0.00     0.027 C 
BRANCH   3   4
ATOM      4  C   UNL     1      -5.118 -21.796  49.727  1.00  0.00     0.004 C 
BRANCH   4   5
ATOM      5  C   UNL     1      -3.722 -21.172  49.555  1.00  0.00     0.000 C 
BRANCH   5   6
ATOM      6  C   UNL     1      -2.711 -21.714  50.579  1.00  0.00     0.000 C 
BRANCH   6   7
ATOM      7  C   UNL     1      -2.638 -23.250  50.573  1.00  0.00     0.000 C 
BRANCH   7   8
ATOM      8  C   UNL     1      -1.218 -23.775  50.311  1.00  0.00     0.006 C 
BRANCH   8   9
ATOM      9  C   UNL     1      -0.430 -22.897  49.331  1.00  0.00     0.053 C 
BRANCH   9  10
ATOM     10  C   UNL     1       0.722 -22.244  50.025  1.00  0.00     0.041 C 
ATOM     11  O   UNL     1       1.710 -21.831  49.362  1.00  0.00    -0.550 OA
ATOM     12  O   UNL     1       0.727 -22.132  51.410  1.00  0.00    -0.550 OA
ENDBRANCH   9  10
ENDBRANCH   8   9
ENDBRANCH   7   8
ENDBRANCH   6   7
ENDBRANCH   5   6
ENDBRANCH   4   5
ENDBRANCH   3   4
ENDBRANCH   1   3
BRANCH   2  13
ATOM     13  C   UNL     1      -3.677 -24.451  47.051  1.00  0.00     0.027 C 
BRANCH  13  14
ATOM     14  C   UNL     1      -2.510 -25.454  47.040  1.00  0.00     0.004 C 
BRANCH  14  15
ATOM     15  C   UNL     1      -2.275 -26.129  45.677  1.00  0.00     0.000 C 
BRANCH  15  16
ATOM     16  C   UNL     1      -3.421 -27.073  45.273  1.00  0.00     0.000 C 
BRANCH  16  17
ATOM     17  C   UNL     1      -2.960 -28.544  45.189  1.00  0.00    -0.000 C 
BRANCH  17  18
ATOM     18  C   UNL     1      -3.995 -29.475  44.536  1.00  0.00    -0.000 C 
BRANCH  18  19
ATOM     19  C   UNL     1      -5.337 -28.785  44.273  1.00  0.00    -0.003 C 
ATOM     20  C   UNL     1      -6.133 -29.517  43.195  1.00  0.00     0.004 C 
ENDBRANCH  18  19
ENDBRANCH  17  18
ENDBRANCH  16  17
ENDBRANCH  15  16
ENDBRANCH  14  15
ENDBRANCH  13  14
ENDBRANCH   2  13
TORSDOF 15
ENDMDL
MODEL 4
REMARK VINA RESULT:    -4.910      2.913      6.027
REMARK INTER + INTRA:         -11.786
REMARK INTER:                  -9.260
REMARK INTRA:                  -2.527
REMARK UNBOUND:                -2.571
REMARK SMILES CCCCCCCCC=CCCCCCCCC(=O)[O-]
REMARK SMILES IDX 10 1 9 2 11 3 12 4 13 5 14 6 15 7 16 8 17 9 18 10 19 11
REMARK SMILES IDX 20 12 8 13 7 14 6 15 5 16 4 17 3 18 2 19 1 20
REMARK H PARENT
REMARK Flexibility Score: inf
ROOT
ATOM      1  C   UNL     1      -1.364 -22.118  49.158  1.00  0.00    -0.031 C 
ATOM      2  C   UNL     1      -1.827 -21.626  47.994  1.00  0.00    -0.031 C 
ENDROOT
BRANCH   1   3
ATOM      3  C   UNL     1      -0.738 -23.481  49.339  1.00  0.00     0.027 C 
BRANCH   3   4
ATOM      4  C   UNL     1      -1.804 -24.581  49.407  1.00  0.00     0.004 C 
BRANCH   4   5
ATOM      5  C   UNL     1      -3.135 -24.064  49.980  1.00  0.00     0.000 C 
BRANCH   5   6
ATOM      6  C   UNL     1      -4.340 -24.883  49.488  1.00  0.00     0.000 C 
BRANCH   6   7
ATOM      7  C   UNL     1      -5.533 -23.992  49.101  1.00  0.00     0.000 C 
BRANCH   7   8
ATOM      8  C   UNL     1      -5.202 -22.494  49.172  1.00  0.00     0.006 C 
BRANCH   8   9
ATOM      9  C   UNL     1      -5.953 -21.667  48.120  1.00  0.00     0.053 C 
BRANCH   9  10
ATOM     10  C   UNL     1      -5.594 -20.220  48.241  1.00  0.00     0.041 C 
ATOM     11  O   UNL     1      -5.630 -19.472  47.228  1.00  0.00    -0.550 OA
ATOM     12  O   UNL     1      -5.174 -19.706  49.462  1.00  0.00    -0.550 OA
ENDBRANCH   9  10
ENDBRANCH   8   9
ENDBRANCH   7   8
ENDBRANCH   6   7
ENDBRANCH   5   6
ENDBRANCH   4   5
ENDBRANCH   3   4
ENDBRANCH   1   3
BRANCH   2  13
ATOM     13  C   UNL     1      -1.750 -22.332  46.664  1.00  0.00     0.027 C 
BRANCH  13  14
ATOM     14  C   UNL     1      -3.031 -22.153  45.830  1.00  0.00     0.004 C 
BRANCH  14  15
ATOM     15  C   UNL     1      -3.903 -23.418  45.737  1.00  0.00     0.000 C 
BRANCH  15  16
ATOM     16  C   UNL     1      -3.119 -24.706  46.044  1.00  0.00     0.000 C 
BRANCH  16  17
ATOM     17  C   UNL     1      -3.913 -25.973  45.662  1.00  0.00    -0.000 C 
BRANCH  17  18
ATOM     18  C   UNL     1      -3.021 -27.154  45.244  1.00  0.00    -0.000 C 
BRANCH  18  19
ATOM     19  C   UNL     1      -3.822 -28.410  44.885  1.00  0.00    -0.003 C 
ATOM     20  C   UNL     1      -5.229 -28.051  44.413  1.00  0.00     0.004 C 
ENDBRANCH  18  19
ENDBRANCH  17  18
ENDBRANCH  16  17
ENDBRANCH  15  16
ENDBRANCH  14  15
ENDBRANCH  13  14
ENDBRANCH   2  13
TORSDOF 15
ENDMDL
MODEL 5
REMARK VINA RESULT:    -4.874      3.170      4.943
REMARK INTER + INTRA:         -11.720
REMARK INTER:                  -9.276
REMARK INTRA:                  -2.444
REMARK UNBOUND:                -2.571
REMARK SMILES CCCCCCCCC=CCCCCCCCC(=O)[O-]
REMARK SMILES IDX 10 1 9 2 11 3 12 4 13 5 14 6 15 7 16 8 17 9 18 10 19 11
REMARK SMILES IDX 20 12 8 13 7 14 6 15 5 16 4 17 3 18 2 19 1 20
REMARK H PARENT
REMARK Flexibility Score: inf
ROOT
ATOM      1  C   UNL     1      -5.181 -24.092  48.037  1.00  0.00    -0.031 C 
ATOM      2  C   UNL     1      -5.270 -23.748  49.335  1.00  0.00    -0.031 C 
ENDROOT
BRANCH   1   3
ATOM      3  C   UNL     1      -4.067 -23.682  47.101  1.00  0.00     0.027 C 
BRANCH   3   4
ATOM      4  C   UNL     1      -3.468 -24.895  46.379  1.00  0.00     0.004 C 
BRANCH   4   5
ATOM      5  C   UNL     1      -2.311 -25.528  47.172  1.00  0.00     0.000 C 
BRANCH   5   6
ATOM      6  C   UNL     1      -1.496 -24.482  47.950  1.00  0.00     0.000 C 
BRANCH   6   7
ATOM      7  C   UNL     1      -1.142 -24.956  49.370  1.00  0.00     0.000 C 
BRANCH   7   8
ATOM      8  C   UNL     1      -0.937 -23.790  50.350  1.00  0.00     0.006 C 
BRANCH   8   9
ATOM      9  C   UNL     1      -0.570 -22.478  49.645  1.00  0.00     0.053 C 
BRANCH   9  10
ATOM     10  C   UNL     1       0.799 -22.034  50.048  1.00  0.00     0.041 C 
ATOM     11  O   UNL     1       1.113 -21.974  51.267  1.00  0.00    -0.550 OA
ATOM     12  O   UNL     1       1.717 -21.641  49.081  1.00  0.00    -0.550 OA
ENDBRANCH   9  10
ENDBRANCH   8   9
ENDBRANCH   7   8
ENDBRANCH   6   7
ENDBRANCH   5   6
ENDBRANCH   4   5
ENDBRANCH   3   4
ENDBRANCH   1   3
BRANCH   2  13
ATOM     13  C   UNL     1      -4.245 -22.939  50.088  1.00  0.00     0.027 C 
BRANCH  13  14
ATOM     14  C   UNL     1      -4.286 -21.446  49.717  1.00  0.00     0.004 C 
BRANCH  14  15
ATOM     15  C   UNL     1      -5.589 -20.734  50.122  1.00  0.00     0.000 C 
BRANCH  15  16
ATOM     16  C   UNL     1      -6.465 -20.359  48.913  1.00  0.00     0.000 C 
BRANCH  16  17
ATOM     17  C   UNL     1      -5.641 -20.244  47.613  1.00  0.00    -0.000 C 
BRANCH  17  18
ATOM     18  C   UNL     1      -6.486 -20.387  46.336  1.00  0.00    -0.000 C 
BRANCH  18  19
ATOM     19  C   UNL     1      -5.673 -20.883  45.136  1.00  0.00    -0.003 C 
ATOM     20  C   UNL     1      -4.200 -20.509  45.273  1.00  0.00     0.004 C 
ENDBRANCH  18  19
ENDBRANCH  17  18
ENDBRANCH  16  17
ENDBRANCH  15  16
ENDBRANCH  14  15
ENDBRANCH  13  14
ENDBRANCH   2  13
TORSDOF 15
ENDMDL
MODEL 6
REMARK VINA RESULT:    -4.871      2.215      4.853
REMARK INTER + INTRA:         -11.714
REMARK INTER:                  -8.793
REMARK INTRA:                  -2.921
REMARK UNBOUND:                -2.571
REMARK SMILES CCCCCCCCC=CCCCCCCCC(=O)[O-]
REMARK SMILES IDX 10 1 9 2 11 3 12 4 13 5 14 6 15 7 16 8 17 9 18 10 19 11
REMARK SMILES IDX 20 12 8 13 7 14 6 15 5 16 4 17 3 18 2 19 1 20
REMARK H PARENT
REMARK Flexibility Score: inf
ROOT
ATOM      1  C   UNL     1      -3.649 -23.326  50.235  1.00  0.00    -0.031 C 
ATOM      2  C   UNL     1      -4.350 -24.338  49.691  1.00  0.00    -0.031 C 
ENDROOT
BRANCH   1   3
ATOM      3  C   UNL     1      -3.666 -21.895  49.750  1.00  0.00     0.027 C 
BRANCH   3   4
ATOM      4  C   UNL     1      -4.257 -20.954  50.806  1.00  0.00     0.004 C 
BRANCH   4   5
ATOM      5  C   UNL     1      -5.183 -19.894  50.184  1.00  0.00     0.000 C 
BRANCH   5   6
ATOM      6  C   UNL     1      -6.162 -20.501  49.165  1.00  0.00     0.000 C 
BRANCH   6   7
ATOM      7  C   UNL     1      -6.030 -19.859  47.773  1.00  0.00     0.000 C 
BRANCH   7   8
ATOM      8  C   UNL     1      -5.715 -20.886  46.675  1.00  0.00     0.006 C 
BRANCH   8   9
ATOM      9  C   UNL     1      -4.231 -20.912  46.291  1.00  0.00     0.053 C 
BRANCH   9  10
ATOM     10  C   UNL     1      -4.076 -21.094  44.815  1.00  0.00     0.041 C 
ATOM     11  O   UNL     1      -3.714 -20.129  44.092  1.00  0.00    -0.550 OA
ATOM     12  O   UNL     1      -4.379 -22.317  44.229  1.00  0.00    -0.550 OA
ENDBRANCH   9  10
ENDBRANCH   8   9
ENDBRANCH   7   8
ENDBRANCH   6   7
ENDBRANCH   5   6
ENDBRANCH   4   5
ENDBRANCH   3   4
ENDBRANCH   1   3
BRANCH   2  13
ATOM     13  C   UNL     1      -5.311 -24.203  48.537  1.00  0.00     0.027 C 
BRANCH  13  14
ATOM     14  C   UNL     1      -4.624 -24.399  47.174  1.00  0.00     0.004 C 
BRANCH  14  15
ATOM     15  C   UNL     1      -3.243 -25.074  47.258  1.00  0.00     0.000 C 
BRANCH  15  16
ATOM     16  C   UNL     1      -2.134 -24.250  46.581  1.00  0.00     0.000 C 
BRANCH  16  17
ATOM     17  C   UNL     1      -1.064 -23.778  47.589  1.00  0.00    -0.000 C 
BRANCH  17  18
ATOM     18  C   UNL     1      -0.713 -22.287  47.458  1.00  0.00    -0.000 C 
BRANCH  18  19
ATOM     19  C   UNL     1      -0.068 -21.712  48.723  1.00  0.00    -0.003 C 
ATOM     20  C   UNL     1       0.058 -22.776  49.811  1.00  0.00     0.004 C 
ENDBRANCH  18  19
ENDBRANCH  17  18
ENDBRANCH  16  17
ENDBRANCH  15  16
ENDBRANCH  14  15
ENDBRANCH  13  14
ENDBRANCH   2  13
TORSDOF 15
ENDMDL
MODEL 7
REMARK VINA RESULT:    -4.839      3.030      5.494
REMARK INTER + INTRA:         -11.654
REMARK INTER:                  -8.911
REMARK INTRA:                  -2.744
REMARK UNBOUND:                -2.571
REMARK SMILES CCCCCCCCC=CCCCCCCCC(=O)[O-]
REMARK SMILES IDX 10 1 9 2 11 3 12 4 13 5 14 6 15 7 16 8 17 9 18 10 19 11
REMARK SMILES IDX 20 12 8 13 7 14 6 15 5 16 4 17 3 18 2 19 1 20
REMARK H PARENT
REMARK Flexibility Score: inf
ROOT
ATOM      1  C   UNL     1      -0.934 -23.549  50.876  1.00  0.00    -0.031 C 
ATOM      2  C   UNL     1      -0.137 -22.470  50.771  1.00  0.00    -0.031 C 
ENDROOT
BRANCH   1   3
ATOM      3  C   UNL     1      -0.848 -24.783  50.009  1.00  0.00     0.027 C 
BRANCH   3   4
ATOM      4  C   UNL     1      -2.136 -24.990  49.202  1.00  0.00     0.004 C 
BRANCH   4   5
ATOM      5  C   UNL     1      -3.323 -24.210  49.795  1.00  0.00     0.000 C 
BRANCH   5   6
ATOM      6  C   UNL     1      -4.675 -24.853  49.449  1.00  0.00     0.000 C 
BRANCH   6   7
ATOM      7  C   UNL     1      -5.613 -23.882  48.711  1.00  0.00     0.000 C 
BRANCH   7   8
ATOM      8  C   UNL     1      -5.084 -22.439  48.704  1.00  0.00     0.006 C 
BRANCH   8   9
ATOM      9  C   UNL     1      -5.538 -21.645  47.472  1.00  0.00     0.053 C 
BRANCH   9  10
ATOM     10  C   UNL     1      -6.023 -20.289  47.876  1.00  0.00     0.041 C 
ATOM     11  O   UNL     1      -6.761 -19.624  47.102  1.00  0.00    -0.550 OA
ATOM     12  O   UNL     1      -5.621 -19.737  49.086  1.00  0.00    -0.550 OA
ENDBRANCH   9  10
ENDBRANCH   8   9
ENDBRANCH   7   8
ENDBRANCH   6   7
ENDBRANCH   5   6
ENDBRANCH   4   5
ENDBRANCH   3   4
ENDBRANCH   1   3
BRANCH   2  13
ATOM     13  C   UNL     1       1.011 -22.332  49.804  1.00  0.00     0.027 C 
BRANCH  13  14
ATOM     14  C   UNL     1       0.650 -21.470  48.582  1.00  0.00     0.004 C 
BRANCH  14  15
ATOM     15  C   UNL     1      -0.066 -22.241  47.458  1.00  0.00     0.000 C 
BRANCH  15  16
ATOM     16  C   UNL     1      -1.544 -21.841  47.309  1.00  0.00     0.000 C 
BRANCH  16  17
ATOM     17  C   UNL     1      -2.176 -22.423  46.026  1.00  0.00    -0.000 C 
BRANCH  17  18
ATOM     18  C   UNL     1      -2.593 -23.896  46.161  1.00  0.00    -0.000 C 
BRANCH  18  19
ATOM     19  C   UNL     1      -3.909 -24.212  45.442  1.00  0.00    -0.003 C 
ATOM     20  C   UNL     1      -4.176 -25.715  45.414  1.00  0.00     0.004 C 
ENDBRANCH  18  19
ENDBRANCH  17  18
ENDBRANCH  16  17
ENDBRANCH  15  16
ENDBRANCH  14  15
ENDBRANCH  13  14
ENDBRANCH   2  13
TORSDOF 15
ENDMDL
MODEL 8
REMARK VINA RESULT:    -4.805      2.649      4.995
REMARK INTER + INTRA:         -11.590
REMARK INTER:                  -8.693
REMARK INTRA:                  -2.897
REMARK UNBOUND:                -2.571
REMARK SMILES CCCCCCCCC=CCCCCCCCC(=O)[O-]
REMARK SMILES IDX 10 1 9 2 11 3 12 4 13 5 14 6 15 7 16 8 17 9 18 10 19 11
REMARK SMILES IDX 20 12 8 13 7 14 6 15 5 16 4 17 3 18 2 19 1 20
REMARK H PARENT
REMARK Flexibility Score: inf
ROOT
ATOM      1  C   UNL     1      -4.450 -24.807  47.188  1.00  0.00    -0.031 C 
ATOM      2  C   UNL     1      -5.148 -24.378  48.256  1.00  0.00    -0.031 C 
ENDROOT
BRANCH   1   3
ATOM      3  C   UNL     1      -3.021 -25.297  47.221  1.00  0.00     0.027 C 
BRANCH   3   4
ATOM      4  C   UNL     1      -2.151 -24.551  46.203  1.00  0.00     0.004 C 
BRANCH   4   5
ATOM      5  C   UNL     1      -1.177 -23.570  46.880  1.00  0.00     0.000 C 
BRANCH   5   6
ATOM      6  C   UNL     1      -1.409 -22.117  46.436  1.00  0.00     0.000 C 
BRANCH   6   7
ATOM      7  C   UNL     1      -2.663 -21.502  47.080  1.00  0.00     0.000 C 
BRANCH   7   8
ATOM      8  C   UNL     1      -3.679 -21.002  46.041  1.00  0.00     0.006 C 
BRANCH   8   9
ATOM      9  C   UNL     1      -5.133 -21.213  46.480  1.00  0.00     0.053 C 
BRANCH   9  10
ATOM     10  C   UNL     1      -6.072 -20.761  45.407  1.00  0.00     0.041 C 
ATOM     11  O   UNL     1      -7.060 -20.035  45.695  1.00  0.00    -0.550 OA
ATOM     12  O   UNL     1      -5.885 -21.180  44.096  1.00  0.00    -0.550 OA
ENDBRANCH   9  10
ENDBRANCH   8   9
ENDBRANCH   7   8
ENDBRANCH   6   7
ENDBRANCH   5   6
ENDBRANCH   4   5
ENDBRANCH   3   4
ENDBRANCH   1   3
BRANCH   2  13
ATOM     13  C   UNL     1      -4.639 -24.364  49.675  1.00  0.00     0.027 C 
BRANCH  13  14
ATOM     14  C   UNL     1      -4.222 -22.956  50.135  1.00  0.00     0.004 C 
BRANCH  14  15
ATOM     15  C   UNL     1      -2.712 -22.798  50.387  1.00  0.00     0.000 C 
BRANCH  15  16
ATOM     16  C   UNL     1      -1.988 -24.148  50.536  1.00  0.00     0.000 C 
BRANCH  16  17
ATOM     17  C   UNL     1      -0.484 -23.970  50.835  1.00  0.00    -0.000 C 
BRANCH  17  18
ATOM     18  C   UNL     1      -0.061 -22.501  50.999  1.00  0.00    -0.000 C 
BRANCH  18  19
ATOM     19  C   UNL     1       1.305 -22.200  50.372  1.00  0.00    -0.003 C 
ATOM     20  C   UNL     1       1.151 -21.513  49.018  1.00  0.00     0.004 C 
ENDBRANCH  18  19
ENDBRANCH  17  18
ENDBRANCH  16  17
ENDBRANCH  15  16
ENDBRANCH  14  15
ENDBRANCH  13  14
ENDBRANCH   2  13
TORSDOF 15
ENDMDL
MODEL 9
REMARK VINA RESULT:    -4.738      3.096      4.592
REMARK INTER + INTRA:         -11.465
REMARK INTER:                  -8.280
REMARK INTRA:                  -3.185
REMARK UNBOUND:                -2.571
REMARK SMILES CCCCCCCCC=CCCCCCCCC(=O)[O-]
REMARK SMILES IDX 10 1 9 2 11 3 12 4 13 5 14 6 15 7 16 8 17 9 18 10 19 11
REMARK SMILES IDX 20 12 8 13 7 14 6 15 5 16 4 17 3 18 2 19 1 20
REMARK H PARENT
REMARK Flexibility Score: inf
ROOT
ATOM      1  C   UNL     1      -3.637 -24.864  47.466  1.00  0.00    -0.031 C 
ATOM      2  C   UNL     1      -4.097 -24.506  48.679  1.00  0.00    -0.031 C 
ENDROOT
BRANCH   1   3
ATOM      3  C   UNL     1      -4.188 -24.374  46.147  1.00  0.00     0.027 C 
BRANCH   3   4
ATOM      4  C   UNL     1      -3.145 -23.554  45.377  1.00  0.00     0.004 C 
BRANCH   4   5
ATOM      5  C   UNL     1      -3.555 -22.077  45.241  1.00  0.00     0.000 C 
BRANCH   5   6
ATOM      6  C   UNL     1      -2.620 -21.138  46.020  1.00  0.00     0.000 C 
BRANCH   6   7
ATOM      7  C   UNL     1      -1.435 -21.888  46.654  1.00  0.00     0.000 C 
BRANCH   7   8
ATOM      8  C   UNL     1      -1.414 -21.772  48.186  1.00  0.00     0.006 C 
BRANCH   8   9
ATOM      9  C   UNL     1      -0.671 -22.933  48.861  1.00  0.00     0.053 C 
BRANCH   9  10
ATOM     10  C   UNL     1      -0.913 -22.920  50.336  1.00  0.00     0.041 C 
ATOM     11  O   UNL     1      -1.653 -23.791  50.865  1.00  0.00    -0.550 OA
ATOM     12  O   UNL     1      -0.360 -21.917  51.123  1.00  0.00    -0.550 OA
ENDBRANCH   9  10
ENDBRANCH   8   9
ENDBRANCH   7   8
ENDBRANCH   6   7
ENDBRANCH   5   6
ENDBRANCH   4   5
ENDBRANCH   3   4
ENDBRANCH   1   3
BRANCH   2  13
ATOM     13  C   UNL     1      -5.205 -23.514  48.927  1.00  0.00     0.027 C 
BRANCH  13  14
ATOM     14  C   UNL     1      -4.721 -22.276  49.703  1.00  0.00     0.004 C 
BRANCH  14  15
ATOM     15  C   UNL     1      -4.968 -20.942  48.976  1.00  0.00     0.000 C 
BRANCH  15  16
ATOM     16  C   UNL     1      -5.975 -21.071  47.819  1.00  0.00     0.000 C 
BRANCH  16  17
ATOM     17  C   UNL     1      -5.993 -19.815  46.922  1.00  0.00    -0.000 C 
BRANCH  17  18
ATOM     18  C   UNL     1      -6.814 -19.992  45.635  1.00  0.00    -0.000 C 
BRANCH  18  19
ATOM     19  C   UNL     1      -6.217 -19.245  44.438  1.00  0.00    -0.003 C 
ATOM     20  C   UNL     1      -4.946 -18.496  44.833  1.00  0.00     0.004 C 
ENDBRANCH  18  19
ENDBRANCH  17  18
ENDBRANCH  16  17
ENDBRANCH  15  16
ENDBRANCH  14  15
ENDBRANCH  13  14
ENDBRANCH   2  13
TORSDOF 15
ENDMDL
