MODEL 1
REMARK VINA RESULT:    -4.124      0.000      0.000
REMARK INTER + INTRA:         -13.309
REMARK INTER:                  -9.428
REMARK INTRA:                  -3.881
REMARK UNBOUND:                -3.881
REMARK SMILES CCCCCCCCCCCCCCCCCCCCCCCC(=O)[O-]
REMARK SMILES IDX 13 1 14 2 15 3 16 4 17 5 18 6 19 7 20 8 21 9 22 10 23 11
REMARK SMILES IDX 24 12 25 13 26 14 12 15 11 16 10 17 9 18 8 19 7 20 6 21 5 22
REMARK SMILES IDX 4 23 3 24 2 25 1 26
REMARK H PARENT
REMARK Flexibility Score: inf
ROOT
ATOM      1  C   UNL     1       8.287  -2.369  41.768  1.00  0.00     0.000 C 
ENDROOT
BRANCH   1   2
ATOM      2  C   UNL     1       8.996  -2.076  43.098  1.00  0.00     0.000 C 
BRANCH   2   3
ATOM      3  C   UNL     1       9.946  -0.868  43.016  1.00  0.00     0.000 C 
BRANCH   3   4
ATOM      4  C   UNL     1      11.444  -1.213  43.100  1.00  0.00     0.000 C 
BRANCH   4   5
ATOM      5  C   UNL     1      11.841  -2.382  42.187  1.00  0.00     0.000 C 
BRANCH   5   6
ATOM      6  C   UNL     1      12.032  -1.907  40.740  1.00  0.00     0.000 C 
BRANCH   6   7
ATOM      7  C   UNL     1      11.549  -2.939  39.708  1.00  0.00     0.000 C 
BRANCH   7   8
ATOM      8  C   UNL     1      11.438  -4.354  40.294  1.00  0.00     0.000 C 
BRANCH   8   9
ATOM      9  C   UNL     1      10.068  -4.974  39.980  1.00  0.00     0.000 C 
BRANCH   9  10
ATOM     10  C   UNL     1       9.691  -6.112  40.946  1.00  0.00     0.006 C 
BRANCH  10  11
ATOM     11  C   UNL     1       9.557  -5.679  42.415  1.00  0.00     0.053 C 
BRANCH  11  12
ATOM     12  C   UNL     1       8.243  -6.094  43.004  1.00  0.00     0.041 C 
ATOM     13  O   UNL     1       8.208  -6.895  43.976  1.00  0.00    -0.550 OA
ATOM     14  O   UNL     1       7.059  -5.571  42.498  1.00  0.00    -0.550 OA
ENDBRANCH  11  12
ENDBRANCH  10  11
ENDBRANCH   9  10
ENDBRANCH   8   9
ENDBRANCH   7   8
ENDBRANCH   6   7
ENDBRANCH   5   6
ENDBRANCH   4   5
ENDBRANCH   3   4
ENDBRANCH   2   3
ENDBRANCH   1   2
BRANCH   1  15
ATOM     15  C   UNL     1       8.284  -1.133  40.859  1.00  0.00     0.000 C 
BRANCH  15  16
ATOM     16  C   UNL     1       8.134  -1.487  39.369  1.00  0.00     0.000 C 
BRANCH  16  17
ATOM     17  C   UNL     1       7.219  -2.703  39.109  1.00  0.00     0.000 C 
BRANCH  17  18
ATOM     18  C   UNL     1       6.226  -2.449  37.960  1.00  0.00    -0.000 C 
BRANCH  18  19
ATOM     19  C   UNL     1       6.749  -1.420  36.945  1.00  0.00    -0.000 C 
BRANCH  19  20
ATOM     20  C   UNL     1       7.028  -2.043  35.568  1.00  0.00    -0.000 C 
BRANCH  20  21
ATOM     21  C   UNL     1       6.985  -3.578  35.639  1.00  0.00    -0.000 C 
BRANCH  21  22
ATOM     22  C   UNL     1       8.329  -4.223  35.265  1.00  0.00    -0.000 C 
BRANCH  22  23
ATOM     23  C   UNL     1       9.470  -3.813  36.214  1.00  0.00    -0.000 C 
BRANCH  23  24
ATOM     24  C   UNL     1      10.796  -4.521  35.864  1.00  0.00    -0.000 C 
BRANCH  24  25
ATOM     25  C   UNL     1      11.718  -3.688  34.957  1.00  0.00    -0.003 C 
ATOM     26  C   UNL     1      11.699  -4.143  33.499  1.00  0.00     0.004 C 
ENDBRANCH  24  25
ENDBRANCH  23  24
ENDBRANCH  22  23
ENDBRANCH  21  22
ENDBRANCH  20  21
ENDBRANCH  19  20
ENDBRANCH  18  19
ENDBRANCH  17  18
ENDBRANCH  16  17
ENDBRANCH  15  16
ENDBRANCH   1  15
TORSDOF 22
ENDMDL
MODEL 2
REMARK VINA RESULT:    -4.097      3.104      7.436
REMARK INTER + INTRA:         -13.248
REMARK INTER:                 -10.034
REMARK INTRA:                  -3.215
REMARK UNBOUND:                -3.881
REMARK SMILES CCCCCCCCCCCCCCCCCCCCCCCC(=O)[O-]
REMARK SMILES IDX 13 1 14 2 15 3 16 4 17 5 18 6 19 7 20 8 21 9 22 10 23 11
REMARK SMILES IDX 24 12 25 13 26 14 12 15 11 16 10 17 9 18 8 19 7 20 6 21 5 22
REMARK SMILES IDX 4 23 3 24 2 25 1 26
REMARK H PARENT
REMARK Flexibility Score: inf
ROOT
ATOM      1  C   UNL     1       6.347  -2.602  38.249  1.00  0.00     0.000 C 
ENDROOT
BRANCH   1   2
ATOM      2  C   UNL     1       6.110  -1.232  37.598  1.00  0.00     0.000 C 
BRANCH   2   3
ATOM      3  C   UNL     1       6.375  -1.236  36.082  1.00  0.00     0.000 C 
BRANCH   3   4
ATOM      4  C   UNL     1       6.540  -2.631  35.455  1.00  0.00     0.000 C 
BRANCH   4   5
ATOM      5  C   UNL     1       7.971  -2.907  34.973  1.00  0.00     0.000 C 
BRANCH   5   6
ATOM      6  C   UNL     1       8.363  -4.369  35.230  1.00  0.00     0.000 C 
BRANCH   6   7
ATOM      7  C   UNL     1       9.886  -4.583  35.236  1.00  0.00     0.000 C 
BRANCH   7   8
ATOM      8  C   UNL     1      10.586  -3.880  34.063  1.00  0.00     0.000 C 
BRANCH   8   9
ATOM      9  C   UNL     1      10.557  -4.754  32.800  1.00  0.00     0.000 C 
BRANCH   9  10
ATOM     10  C   UNL     1      11.964  -5.118  32.292  1.00  0.00     0.006 C 
BRANCH  10  11
ATOM     11  C   UNL     1      12.242  -6.628  32.220  1.00  0.00     0.053 C 
BRANCH  11  12
ATOM     12  C   UNL     1      11.554  -7.378  33.320  1.00  0.00     0.041 C 
ATOM     13  O   UNL     1      11.995  -7.322  34.499  1.00  0.00    -0.550 OA
ATOM     14  O   UNL     1      10.406  -8.113  33.047  1.00  0.00    -0.550 OA
ENDBRANCH  11  12
ENDBRANCH  10  11
ENDBRANCH   9  10
ENDBRANCH   8   9
ENDBRANCH   7   8
ENDBRANCH   6   7
ENDBRANCH   5   6
ENDBRANCH   4   5
ENDBRANCH   3   4
ENDBRANCH   2   3
ENDBRANCH   1   2
BRANCH   1  15
ATOM     15  C   UNL     1       7.688  -2.637  38.994  1.00  0.00     0.000 C 
BRANCH  15  16
ATOM     16  C   UNL     1       8.440  -3.967  38.808  1.00  0.00     0.000 C 
BRANCH  16  17
ATOM     17  C   UNL     1       9.945  -3.880  39.141  1.00  0.00     0.000 C 
BRANCH  17  18
ATOM     18  C   UNL     1      10.320  -2.538  39.795  1.00  0.00    -0.000 C 
BRANCH  18  19
ATOM     19  C   UNL     1      11.322  -2.702  40.948  1.00  0.00    -0.000 C 
BRANCH  19  20
ATOM     20  C   UNL     1      10.653  -3.189  42.243  1.00  0.00    -0.000 C 
BRANCH  20  21
ATOM     21  C   UNL     1       9.349  -2.422  42.512  1.00  0.00    -0.000 C 
BRANCH  21  22
ATOM     22  C   UNL     1       8.152  -3.358  42.740  1.00  0.00    -0.000 C 
BRANCH  22  23
ATOM     23  C   UNL     1       8.528  -4.846  42.619  1.00  0.00    -0.000 C 
BRANCH  23  24
ATOM     24  C   UNL     1       7.456  -5.654  41.856  1.00  0.00    -0.000 C 
BRANCH  24  25
ATOM     25  C   UNL     1       7.822  -7.136  41.665  1.00  0.00    -0.003 C 
ATOM     26  C   UNL     1       9.306  -7.357  41.381  1.00  0.00     0.004 C 
ENDBRANCH  24  25
ENDBRANCH  23  24
ENDBRANCH  22  23
ENDBRANCH  21  22
ENDBRANCH  20  21
ENDBRANCH  19  20
ENDBRANCH  18  19
ENDBRANCH  17  18
ENDBRANCH  16  17
ENDBRANCH  15  16
ENDBRANCH   1  15
TORSDOF 22
ENDMDL
MODEL 3
REMARK VINA RESULT:    -4.076      3.408      7.402
REMARK INTER + INTRA:         -13.200
REMARK INTER:                  -9.996
REMARK INTRA:                  -3.204
REMARK UNBOUND:                -3.881
REMARK SMILES CCCCCCCCCCCCCCCCCCCCCCCC(=O)[O-]
REMARK SMILES IDX 13 1 14 2 15 3 16 4 17 5 18 6 19 7 20 8 21 9 22 10 23 11
REMARK SMILES IDX 24 12 25 13 26 14 12 15 11 16 10 17 9 18 8 19 7 20 6 21 5 22
REMARK SMILES IDX 4 23 3 24 2 25 1 26
REMARK H PARENT
REMARK Flexibility Score: inf
ROOT
ATOM      1  C   UNL     1       9.386  -4.104  38.822  1.00  0.00     0.000 C 
ENDROOT
BRANCH   1   2
ATOM      2  C   UNL     1       7.935  -3.859  39.259  1.00  0.00     0.000 C 
BRANCH   2   3
ATOM      3  C   UNL     1       7.470  -2.413  39.010  1.00  0.00     0.000 C 
BRANCH   3   4
ATOM      4  C   UNL     1       6.229  -2.275  38.110  1.00  0.00     0.000 C 
BRANCH   4   5
ATOM      5  C   UNL     1       6.319  -1.086  37.143  1.00  0.00     0.000 C 
BRANCH   5   6
ATOM      6  C   UNL     1       6.551  -1.568  35.704  1.00  0.00     0.000 C 
BRANCH   6   7
ATOM      7  C   UNL     1       6.924  -3.058  35.629  1.00  0.00     0.000 C 
BRANCH   7   8
ATOM      8  C   UNL     1       8.288  -3.294  34.963  1.00  0.00     0.000 C 
BRANCH   8   9
ATOM      9  C   UNL     1       8.616  -4.792  34.897  1.00  0.00     0.000 C 
BRANCH   9  10
ATOM     10  C   UNL     1      10.098  -5.067  34.577  1.00  0.00     0.006 C 
BRANCH  10  11
ATOM     11  C   UNL     1      10.515  -4.701  33.143  1.00  0.00     0.053 C 
BRANCH  11  12
ATOM     12  C   UNL     1      11.771  -3.886  33.116  1.00  0.00     0.041 C 
ATOM     13  O   UNL     1      12.895  -4.448  33.200  1.00  0.00    -0.550 OA
ATOM     14  O   UNL     1      11.700  -2.505  32.966  1.00  0.00    -0.550 OA
ENDBRANCH  11  12
ENDBRANCH  10  11
ENDBRANCH   9  10
ENDBRANCH   8   9
ENDBRANCH   7   8
ENDBRANCH   6   7
ENDBRANCH   5   6
ENDBRANCH   4   5
ENDBRANCH   3   4
ENDBRANCH   2   3
ENDBRANCH   1   2
BRANCH   1  15
ATOM     15  C   UNL     1      10.277  -2.900  39.160  1.00  0.00     0.000 C 
BRANCH  15  16
ATOM     16  C   UNL     1      11.206  -3.163  40.358  1.00  0.00     0.000 C 
BRANCH  16  17
ATOM     17  C   UNL     1      11.187  -2.038  41.415  1.00  0.00     0.000 C 
BRANCH  17  18
ATOM     18  C   UNL     1      10.092  -0.993  41.134  1.00  0.00    -0.000 C 
BRANCH  18  19
ATOM     19  C   UNL     1       8.957  -1.034  42.170  1.00  0.00    -0.000 C 
BRANCH  19  20
ATOM     20  C   UNL     1       9.084  -2.224  43.134  1.00  0.00    -0.000 C 
BRANCH  20  21
ATOM     21  C   UNL     1       8.034  -3.302  42.820  1.00  0.00    -0.000 C 
BRANCH  21  22
ATOM     22  C   UNL     1       8.653  -4.699  42.659  1.00  0.00    -0.000 C 
BRANCH  22  23
ATOM     23  C   UNL     1       7.606  -5.825  42.721  1.00  0.00    -0.000 C 
BRANCH  23  24
ATOM     24  C   UNL     1       7.745  -6.810  41.541  1.00  0.00    -0.000 C 
BRANCH  24  25
ATOM     25  C   UNL     1       7.751  -8.288  41.969  1.00  0.00    -0.003 C 
ATOM     26  C   UNL     1       8.195  -8.492  43.416  1.00  0.00     0.004 C 
ENDBRANCH  24  25
ENDBRANCH  23  24
ENDBRANCH  22  23
ENDBRANCH  21  22
ENDBRANCH  20  21
ENDBRANCH  19  20
ENDBRANCH  18  19
ENDBRANCH  17  18
ENDBRANCH  16  17
ENDBRANCH  15  16
ENDBRANCH   1  15
TORSDOF 22
ENDMDL
MODEL 4
REMARK VINA RESULT:    -3.921      2.036      4.101
REMARK INTER + INTRA:         -12.845
REMARK INTER:                  -9.458
REMARK INTRA:                  -3.387
REMARK UNBOUND:                -3.881
REMARK SMILES CCCCCCCCCCCCCCCCCCCCCCCC(=O)[O-]
REMARK SMILES IDX 13 1 14 2 15 3 16 4 17 5 18 6 19 7 20 8 21 9 22 10 23 11
REMARK SMILES IDX 24 12 25 13 26 14 12 15 11 16 10 17 9 18 8 19 7 20 6 21 5 22
REMARK SMILES IDX 4 23 3 24 2 25 1 26
REMARK H PARENT
REMARK Flexibility Score: inf
ROOT
ATOM      1  C   UNL     1      12.291  -1.857  42.702  1.00  0.00     0.000 C 
ENDROOT
BRANCH   1   2
ATOM      2  C   UNL     1      12.751  -1.777  41.240  1.00  0.00     0.000 C 
BRANCH   2   3
ATOM      3  C   UNL     1      11.620  -2.073  40.239  1.00  0.00     0.000 C 
BRANCH   3   4
ATOM      4  C   UNL     1      12.024  -2.951  39.042  1.00  0.00     0.000 C 
BRANCH   4   5
ATOM      5  C   UNL     1      10.991  -4.041  38.723  1.00  0.00     0.000 C 
BRANCH   5   6
ATOM      6  C   UNL     1      10.814  -4.994  39.914  1.00  0.00     0.000 C 
BRANCH   6   7
ATOM      7  C   UNL     1       9.364  -5.051  40.419  1.00  0.00     0.000 C 
BRANCH   7   8
ATOM      8  C   UNL     1       9.267  -4.968  41.950  1.00  0.00     0.000 C 
BRANCH   8   9
ATOM      9  C   UNL     1       7.815  -5.141  42.420  1.00  0.00     0.000 C 
BRANCH   9  10
ATOM     10  C   UNL     1       7.679  -6.134  43.589  1.00  0.00     0.006 C 
BRANCH  10  11
ATOM     11  C   UNL     1       8.681  -7.299  43.552  1.00  0.00     0.053 C 
BRANCH  11  12
ATOM     12  C   UNL     1       8.074  -8.543  42.978  1.00  0.00     0.041 C 
ATOM     13  O   UNL     1       7.856  -9.541  43.715  1.00  0.00    -0.550 OA
ATOM     14  O   UNL     1       7.720  -8.586  41.634  1.00  0.00    -0.550 OA
ENDBRANCH  11  12
ENDBRANCH  10  11
ENDBRANCH   9  10
ENDBRANCH   8   9
ENDBRANCH   7   8
ENDBRANCH   6   7
ENDBRANCH   5   6
ENDBRANCH   4   5
ENDBRANCH   3   4
ENDBRANCH   2   3
ENDBRANCH   1   2
BRANCH   1  15
ATOM     15  C   UNL     1      11.115  -0.906  42.966  1.00  0.00     0.000 C 
BRANCH  15  16
ATOM     16  C   UNL     1       9.872  -1.630  43.512  1.00  0.00     0.000 C 
BRANCH  16  17
ATOM     17  C   UNL     1       8.633  -1.509  42.599  1.00  0.00     0.000 C 
BRANCH  17  18
ATOM     18  C   UNL     1       8.639  -0.205  41.781  1.00  0.00    -0.000 C 
BRANCH  18  19
ATOM     19  C   UNL     1       8.260  -0.431  40.308  1.00  0.00    -0.000 C 
BRANCH  19  20
ATOM     20  C   UNL     1       7.886  -1.892  40.015  1.00  0.00    -0.000 C 
BRANCH  20  21
ATOM     21  C   UNL     1       7.781  -2.141  38.501  1.00  0.00    -0.000 C 
BRANCH  21  22
ATOM     22  C   UNL     1       6.354  -2.507  38.063  1.00  0.00    -0.000 C 
BRANCH  22  23
ATOM     23  C   UNL     1       5.548  -1.287  37.581  1.00  0.00    -0.000 C 
BRANCH  23  24
ATOM     24  C   UNL     1       6.262  -0.536  36.437  1.00  0.00    -0.000 C 
BRANCH  24  25
ATOM     25  C   UNL     1       6.513  -1.406  35.192  1.00  0.00    -0.003 C 
ATOM     26  C   UNL     1       5.340  -1.409  34.215  1.00  0.00     0.004 C 
ENDBRANCH  24  25
ENDBRANCH  23  24
ENDBRANCH  22  23
ENDBRANCH  21  22
ENDBRANCH  20  21
ENDBRANCH  19  20
ENDBRANCH  18  19
ENDBRANCH  17  18
ENDBRANCH  16  17
ENDBRANCH  15  16
ENDBRANCH   1  15
TORSDOF 22
ENDMDL
MODEL 5
REMARK VINA RESULT:    -3.819      3.292      6.728
REMARK INTER + INTRA:         -12.611
REMARK INTER:                  -9.025
REMARK INTRA:                  -3.586
REMARK UNBOUND:                -3.881
REMARK SMILES CCCCCCCCCCCCCCCCCCCCCCCC(=O)[O-]
REMARK SMILES IDX 13 1 14 2 15 3 16 4 17 5 18 6 19 7 20 8 21 9 22 10 23 11
REMARK SMILES IDX 24 12 25 13 26 14 12 15 11 16 10 17 9 18 8 19 7 20 6 21 5 22
REMARK SMILES IDX 4 23 3 24 2 25 1 26
REMARK H PARENT
REMARK Flexibility Score: inf
ROOT
ATOM      1  C   UNL     1       7.558  -4.663  42.411  1.00  0.00     0.000 C 
ENDROOT
BRANCH   1   2
ATOM      2  C   UNL     1       8.170  -5.887  43.108  1.00  0.00     0.000 C 
BRANCH   2   3
ATOM      3  C   UNL     1       9.375  -6.468  42.348  1.00  0.00     0.000 C 
BRANCH   3   4
ATOM      4  C   UNL     1       9.485  -6.034  40.875  1.00  0.00     0.000 C 
BRANCH   4   5
ATOM      5  C   UNL     1      10.765  -5.240  40.578  1.00  0.00     0.000 C 
BRANCH   5   6
ATOM      6  C   UNL     1      10.701  -4.600  39.184  1.00  0.00     0.000 C 
BRANCH   6   7
ATOM      7  C   UNL     1       9.704  -3.431  39.112  1.00  0.00     0.000 C 
BRANCH   7   8
ATOM      8  C   UNL     1       8.480  -3.750  38.242  1.00  0.00     0.000 C 
BRANCH   8   9
ATOM      9  C   UNL     1       7.244  -2.978  38.726  1.00  0.00     0.000 C 
BRANCH   9  10
ATOM     10  C   UNL     1       6.280  -2.613  37.581  1.00  0.00     0.006 C 
BRANCH  10  11
ATOM     11  C   UNL     1       6.479  -1.199  37.011  1.00  0.00     0.053 C 
BRANCH  11  12
ATOM     12  C   UNL     1       6.327  -1.169  35.521  1.00  0.00     0.041 C 
ATOM     13  O   UNL     1       6.192  -2.243  34.875  1.00  0.00    -0.550 OA
ATOM     14  O   UNL     1       6.302   0.048  34.849  1.00  0.00    -0.550 OA
ENDBRANCH  11  12
ENDBRANCH  10  11
ENDBRANCH   9  10
ENDBRANCH   8   9
ENDBRANCH   7   8
ENDBRANCH   6   7
ENDBRANCH   5   6
ENDBRANCH   4   5
ENDBRANCH   3   4
ENDBRANCH   2   3
ENDBRANCH   1   2
BRANCH   1  15
ATOM     15  C   UNL     1       7.873  -3.373  43.179  1.00  0.00     0.000 C 
BRANCH  15  16
ATOM     16  C   UNL     1       9.012  -2.559  42.540  1.00  0.00     0.000 C 
BRANCH  16  17
ATOM     17  C   UNL     1       8.525  -1.324  41.752  1.00  0.00     0.000 C 
BRANCH  17  18
ATOM     18  C   UNL     1       9.126  -0.014  42.293  1.00  0.00    -0.000 C 
BRANCH  18  19
ATOM     19  C   UNL     1       8.980   0.117  43.818  1.00  0.00    -0.000 C 
BRANCH  19  20
ATOM     20  C   UNL     1      10.246   0.678  44.484  1.00  0.00    -0.000 C 
BRANCH  20  21
ATOM     21  C   UNL     1      11.366  -0.375  44.515  1.00  0.00    -0.000 C 
BRANCH  21  22
ATOM     22  C   UNL     1      12.750   0.229  44.230  1.00  0.00    -0.000 C 
BRANCH  22  23
ATOM     23  C   UNL     1      13.371  -0.296  42.923  1.00  0.00    -0.000 C 
BRANCH  23  24
ATOM     24  C   UNL     1      12.501  -1.389  42.267  1.00  0.00    -0.000 C 
BRANCH  24  25
ATOM     25  C   UNL     1      12.231  -1.147  40.772  1.00  0.00    -0.003 C 
ATOM     26  C   UNL     1      13.125  -1.981  39.857  1.00  0.00     0.004 C 
ENDBRANCH  24  25
ENDBRANCH  23  24
ENDBRANCH  22  23
ENDBRANCH  21  22
ENDBRANCH  20  21
ENDBRANCH  19  20
ENDBRANCH  18  19
ENDBRANCH  17  18
ENDBRANCH  16  17
ENDBRANCH  15  16
ENDBRANCH   1  15
TORSDOF 22
ENDMDL
MODEL 6
REMARK VINA RESULT:    -3.811      3.667      7.966
REMARK INTER + INTRA:         -12.594
REMARK INTER:                 -10.864
REMARK INTRA:                  -1.730
REMARK UNBOUND:                -3.881
REMARK SMILES CCCCCCCCCCCCCCCCCCCCCCCC(=O)[O-]
REMARK SMILES IDX 13 1 14 2 15 3 16 4 17 5 18 6 19 7 20 8 21 9 22 10 23 11
REMARK SMILES IDX 24 12 25 13 26 14 12 15 11 16 10 17 9 18 8 19 7 20 6 21 5 22
REMARK SMILES IDX 4 23 3 24 2 25 1 26
REMARK H PARENT
REMARK Flexibility Score: inf
ROOT
ATOM      1  C   UNL     1       7.521  -3.003  39.248  1.00  0.00     0.000 C 
ENDROOT
BRANCH   1   2
ATOM      2  C   UNL     1       6.494  -2.636  38.167  1.00  0.00     0.000 C 
BRANCH   2   3
ATOM      3  C   UNL     1       6.735  -3.372  36.837  1.00  0.00     0.000 C 
BRANCH   3   4
ATOM      4  C   UNL     1       7.261  -2.488  35.692  1.00  0.00     0.000 C 
BRANCH   4   5
ATOM      5  C   UNL     1       8.366  -3.167  34.870  1.00  0.00     0.000 C 
BRANCH   5   6
ATOM      6  C   UNL     1       8.439  -4.668  35.186  1.00  0.00     0.000 C 
BRANCH   6   7
ATOM      7  C   UNL     1       9.547  -5.386  34.400  1.00  0.00     0.000 C 
BRANCH   7   8
ATOM      8  C   UNL     1       9.998  -4.600  33.160  1.00  0.00     0.000 C 
BRANCH   8   9
ATOM      9  C   UNL     1      10.817  -5.488  32.212  1.00  0.00     0.000 C 
BRANCH   9  10
ATOM     10  C   UNL     1      10.790  -6.975  32.612  1.00  0.00     0.006 C 
BRANCH  10  11
ATOM     11  C   UNL     1      12.148  -7.536  33.063  1.00  0.00     0.053 C 
BRANCH  11  12
ATOM     12  C   UNL     1      11.993  -8.712  33.979  1.00  0.00     0.041 C 
ATOM     13  O   UNL     1      12.277  -9.871  33.576  1.00  0.00    -0.550 OA
ATOM     14  O   UNL     1      11.564  -8.521  35.287  1.00  0.00    -0.550 OA
ENDBRANCH  11  12
ENDBRANCH  10  11
ENDBRANCH   9  10
ENDBRANCH   8   9
ENDBRANCH   7   8
ENDBRANCH   6   7
ENDBRANCH   5   6
ENDBRANCH   4   5
ENDBRANCH   3   4
ENDBRANCH   2   3
ENDBRANCH   1   2
BRANCH   1  15
ATOM     15  C   UNL     1       8.271  -1.760  39.745  1.00  0.00     0.000 C 
BRANCH  15  16
ATOM     16  C   UNL     1       8.508  -1.774  41.266  1.00  0.00     0.000 C 
BRANCH  16  17
ATOM     17  C   UNL     1       8.807  -3.178  41.834  1.00  0.00     0.000 C 
BRANCH  17  18
ATOM     18  C   UNL     1       7.823  -3.575  42.949  1.00  0.00    -0.000 C 
BRANCH  18  19
ATOM     19  C   UNL     1       7.638  -5.097  43.058  1.00  0.00    -0.000 C 
BRANCH  19  20
ATOM     20  C   UNL     1       7.547  -5.778  41.684  1.00  0.00    -0.000 C 
BRANCH  20  21
ATOM     21  C   UNL     1       8.548  -6.940  41.577  1.00  0.00    -0.000 C 
BRANCH  21  22
ATOM     22  C   UNL     1       8.916  -7.529  42.948  1.00  0.00    -0.000 C 
BRANCH  22  23
ATOM     23  C   UNL     1       8.079  -8.770  43.307  1.00  0.00    -0.000 C 
BRANCH  23  24
ATOM     24  C   UNL     1       7.491  -9.454  42.054  1.00  0.00    -0.000 C 
BRANCH  24  25
ATOM     25  C   UNL     1       6.422 -10.513  42.376  1.00  0.00    -0.003 C 
ATOM     26  C   UNL     1       6.637 -11.194  43.726  1.00  0.00     0.004 C 
ENDBRANCH  24  25
ENDBRANCH  23  24
ENDBRANCH  22  23
ENDBRANCH  21  22
ENDBRANCH  20  21
ENDBRANCH  19  20
ENDBRANCH  18  19
ENDBRANCH  17  18
ENDBRANCH  16  17
ENDBRANCH  15  16
ENDBRANCH   1  15
TORSDOF 22
ENDMDL
MODEL 7
REMARK VINA RESULT:    -3.753      3.521      7.138
REMARK INTER + INTRA:         -12.462
REMARK INTER:                  -9.559
REMARK INTRA:                  -2.902
REMARK UNBOUND:                -3.881
REMARK SMILES CCCCCCCCCCCCCCCCCCCCCCCC(=O)[O-]
REMARK SMILES IDX 13 1 14 2 15 3 16 4 17 5 18 6 19 7 20 8 21 9 22 10 23 11
REMARK SMILES IDX 24 12 25 13 26 14 12 15 11 16 10 17 9 18 8 19 7 20 6 21 5 22
REMARK SMILES IDX 4 23 3 24 2 25 1 26
REMARK H PARENT
REMARK Flexibility Score: inf
ROOT
ATOM      1  C   UNL     1      12.290  -0.066  40.916  1.00  0.00     0.000 C 
ENDROOT
BRANCH   1   2
ATOM      2  C   UNL     1      12.357  -1.227  39.914  1.00  0.00     0.000 C 
BRANCH   2   3
ATOM      3  C   UNL     1      12.526  -2.597  40.595  1.00  0.00     0.000 C 
BRANCH   3   4
ATOM      4  C   UNL     1      11.530  -3.678  40.137  1.00  0.00     0.000 C 
BRANCH   4   5
ATOM      5  C   UNL     1      10.324  -3.100  39.384  1.00  0.00     0.000 C 
BRANCH   5   6
ATOM      6  C   UNL     1       9.278  -4.191  39.107  1.00  0.00     0.000 C 
BRANCH   6   7
ATOM      7  C   UNL     1       7.840  -3.650  39.117  1.00  0.00     0.000 C 
BRANCH   7   8
ATOM      8  C   UNL     1       7.371  -3.190  37.728  1.00  0.00     0.000 C 
BRANCH   8   9
ATOM      9  C   UNL     1       6.096  -2.340  37.831  1.00  0.00     0.000 C 
BRANCH   9  10
ATOM     10  C   UNL     1       6.347  -0.848  37.543  1.00  0.00     0.006 C 
BRANCH  10  11
ATOM     11  C   UNL     1       5.568  -0.294  36.339  1.00  0.00     0.053 C 
BRANCH  11  12
ATOM     12  C   UNL     1       6.407  -0.250  35.099  1.00  0.00     0.041 C 
ATOM     13  O   UNL     1       6.969  -1.296  34.677  1.00  0.00    -0.550 OA
ATOM     14  O   UNL     1       6.543   0.940  34.394  1.00  0.00    -0.550 OA
ENDBRANCH  11  12
ENDBRANCH  10  11
ENDBRANCH   9  10
ENDBRANCH   8   9
ENDBRANCH   7   8
ENDBRANCH   6   7
ENDBRANCH   5   6
ENDBRANCH   4   5
ENDBRANCH   3   4
ENDBRANCH   2   3
ENDBRANCH   1   2
BRANCH   1  15
ATOM     15  C   UNL     1      13.449  -0.134  41.920  1.00  0.00     0.000 C 
BRANCH  15  16
ATOM     16  C   UNL     1      13.056   0.370  43.320  1.00  0.00     0.000 C 
BRANCH  16  17
ATOM     17  C   UNL     1      12.129  -0.595  44.089  1.00  0.00     0.000 C 
BRANCH  17  18
ATOM     18  C   UNL     1      10.842   0.097  44.575  1.00  0.00    -0.000 C 
BRANCH  18  19
ATOM     19  C   UNL     1       9.572  -0.664  44.163  1.00  0.00    -0.000 C 
BRANCH  19  20
ATOM     20  C   UNL     1       9.813  -1.616  42.982  1.00  0.00    -0.000 C 
BRANCH  20  21
ATOM     21  C   UNL     1       8.566  -2.467  42.696  1.00  0.00    -0.000 C 
BRANCH  21  22
ATOM     22  C   UNL     1       8.867  -3.974  42.699  1.00  0.00    -0.000 C 
BRANCH  22  23
ATOM     23  C   UNL     1       7.593  -4.836  42.631  1.00  0.00    -0.000 C 
BRANCH  23  24
ATOM     24  C   UNL     1       7.870  -6.308  43.002  1.00  0.00    -0.000 C 
BRANCH  24  25
ATOM     25  C   UNL     1       9.126  -6.888  42.328  1.00  0.00    -0.003 C 
ATOM     26  C   UNL     1       8.844  -8.145  41.509  1.00  0.00     0.004 C 
ENDBRANCH  24  25
ENDBRANCH  23  24
ENDBRANCH  22  23
ENDBRANCH  21  22
ENDBRANCH  20  21
ENDBRANCH  19  20
ENDBRANCH  18  19
ENDBRANCH  17  18
ENDBRANCH  16  17
ENDBRANCH  15  16
ENDBRANCH   1  15
TORSDOF 22
ENDMDL
MODEL 8
REMARK VINA RESULT:    -3.703      1.508      4.425
REMARK INTER + INTRA:         -12.346
REMARK INTER:                  -8.828
REMARK INTRA:                  -3.518
REMARK UNBOUND:                -3.881
REMARK SMILES CCCCCCCCCCCCCCCCCCCCCCCC(=O)[O-]
REMARK SMILES IDX 13 1 14 2 15 3 16 4 17 5 18 6 19 7 20 8 21 9 22 10 23 11
REMARK SMILES IDX 24 12 25 13 26 14 12 15 11 16 10 17 9 18 8 19 7 20 6 21 5 22
REMARK SMILES IDX 4 23 3 24 2 25 1 26
REMARK H PARENT
REMARK Flexibility Score: inf
ROOT
ATOM      1  C   UNL     1      11.351  -4.763  38.973  1.00  0.00     0.000 C 
ENDROOT
BRANCH   1   2
ATOM      2  C   UNL     1      12.332  -4.206  40.014  1.00  0.00     0.000 C 
BRANCH   2   3
ATOM      3  C   UNL     1      12.648  -2.715  39.801  1.00  0.00     0.000 C 
BRANCH   3   4
ATOM      4  C   UNL     1      12.166  -1.782  40.926  1.00  0.00     0.000 C 
BRANCH   4   5
ATOM      5  C   UNL     1      11.658  -2.543  42.159  1.00  0.00     0.000 C 
BRANCH   5   6
ATOM      6  C   UNL     1      10.426  -1.850  42.761  1.00  0.00     0.000 C 
BRANCH   6   7
ATOM      7  C   UNL     1       9.619  -1.062  41.716  1.00  0.00     0.000 C 
BRANCH   7   8
ATOM      8  C   UNL     1       8.288  -1.743  41.361  1.00  0.00     0.000 C 
BRANCH   8   9
ATOM      9  C   UNL     1       8.375  -2.442  39.996  1.00  0.00     0.000 C 
BRANCH   9  10
ATOM     10  C   UNL     1       8.048  -3.945  40.073  1.00  0.00     0.006 C 
BRANCH  10  11
ATOM     11  C   UNL     1       7.925  -4.496  41.502  1.00  0.00     0.053 C 
BRANCH  11  12
ATOM     12  C   UNL     1       8.967  -5.532  41.796  1.00  0.00     0.041 C 
ATOM     13  O   UNL     1       9.772  -5.369  42.751  1.00  0.00    -0.550 OA
ATOM     14  O   UNL     1       9.027  -6.692  41.032  1.00  0.00    -0.550 OA
ENDBRANCH  11  12
ENDBRANCH  10  11
ENDBRANCH   9  10
ENDBRANCH   8   9
ENDBRANCH   7   8
ENDBRANCH   6   7
ENDBRANCH   5   6
ENDBRANCH   4   5
ENDBRANCH   3   4
ENDBRANCH   2   3
ENDBRANCH   1   2
BRANCH   1  15
ATOM     15  C   UNL     1      11.550  -4.089  37.608  1.00  0.00     0.000 C 
BRANCH  15  16
ATOM     16  C   UNL     1      12.501  -4.874  36.687  1.00  0.00     0.000 C 
BRANCH  16  17
ATOM     17  C   UNL     1      12.293  -4.580  35.186  1.00  0.00     0.000 C 
BRANCH  17  18
ATOM     18  C   UNL     1      11.791  -5.815  34.415  1.00  0.00    -0.000 C 
BRANCH  18  19
ATOM     19  C   UNL     1      10.258  -5.870  34.324  1.00  0.00    -0.000 C 
BRANCH  19  20
ATOM     20  C   UNL     1       9.614  -4.477  34.391  1.00  0.00    -0.000 C 
BRANCH  20  21
ATOM     21  C   UNL     1       8.208  -4.548  35.008  1.00  0.00    -0.000 C 
BRANCH  21  22
ATOM     22  C   UNL     1       8.150  -3.933  36.414  1.00  0.00    -0.000 C 
BRANCH  22  23
ATOM     23  C   UNL     1       6.868  -3.114  36.653  1.00  0.00    -0.000 C 
BRANCH  23  24
ATOM     24  C   UNL     1       6.278  -2.565  35.337  1.00  0.00    -0.000 C 
BRANCH  24  25
ATOM     25  C   UNL     1       5.836  -1.094  35.426  1.00  0.00    -0.003 C 
ATOM     26  C   UNL     1       5.444  -0.669  36.840  1.00  0.00     0.004 C 
ENDBRANCH  24  25
ENDBRANCH  23  24
ENDBRANCH  22  23
ENDBRANCH  21  22
ENDBRANCH  20  21
ENDBRANCH  19  20
ENDBRANCH  18  19
ENDBRANCH  17  18
ENDBRANCH  16  17
ENDBRANCH  15  16
ENDBRANCH   1  15
TORSDOF 22
ENDMDL
MODEL 9
REMARK VINA RESULT:    -3.698      4.960      7.723
REMARK INTER + INTRA:         -12.335
REMARK INTER:                  -9.345
REMARK INTRA:                  -2.989
REMARK UNBOUND:                -3.881
REMARK SMILES CCCCCCCCCCCCCCCCCCCCCCCC(=O)[O-]
REMARK SMILES IDX 13 1 14 2 15 3 16 4 17 5 18 6 19 7 20 8 21 9 22 10 23 11
REMARK SMILES IDX 24 12 25 13 26 14 12 15 11 16 10 17 9 18 8 19 7 20 6 21 5 22
REMARK SMILES IDX 4 23 3 24 2 25 1 26
REMARK H PARENT
REMARK Flexibility Score: inf
ROOT
ATOM      1  C   UNL     1       9.060  -7.586  41.742  1.00  0.00     0.000 C 
ENDROOT
BRANCH   1   2
ATOM      2  C   UNL     1       7.592  -7.994  41.549  1.00  0.00     0.000 C 
BRANCH   2   3
ATOM      3  C   UNL     1       7.404  -9.518  41.438  1.00  0.00     0.000 C 
BRANCH   3   4
ATOM      4  C   UNL     1       7.098 -10.233  42.767  1.00  0.00     0.000 C 
BRANCH   4   5
ATOM      5  C   UNL     1       5.795 -11.043  42.724  1.00  0.00     0.000 C 
BRANCH   5   6
ATOM      6  C   UNL     1       6.088 -12.551  42.717  1.00  0.00     0.000 C 
BRANCH   6   7
ATOM      7  C   UNL     1       5.445 -13.276  41.524  1.00  0.00     0.000 C 
BRANCH   7   8
ATOM      8  C   UNL     1       5.420 -12.415  40.252  1.00  0.00     0.000 C 
BRANCH   8   9
ATOM      9  C   UNL     1       6.413 -12.945  39.209  1.00  0.00     0.000 C 
BRANCH   9  10
ATOM     10  C   UNL     1       7.879 -12.628  39.562  1.00  0.00     0.006 C 
BRANCH  10  11
ATOM     11  C   UNL     1       8.862 -13.775  39.277  1.00  0.00     0.053 C 
BRANCH  11  12
ATOM     12  C   UNL     1       9.279 -14.481  40.531  1.00  0.00     0.041 C 
ATOM     13  O   UNL     1      10.472 -14.416  40.930  1.00  0.00    -0.550 OA
ATOM     14  O   UNL     1       8.339 -15.185  41.276  1.00  0.00    -0.550 OA
ENDBRANCH  11  12
ENDBRANCH  10  11
ENDBRANCH   9  10
ENDBRANCH   8   9
ENDBRANCH   7   8
ENDBRANCH   6   7
ENDBRANCH   5   6
ENDBRANCH   4   5
ENDBRANCH   3   4
ENDBRANCH   2   3
ENDBRANCH   1   2
BRANCH   1  15
ATOM     15  C   UNL     1       9.188  -6.442  42.756  1.00  0.00     0.000 C 
BRANCH  15  16
ATOM     16  C   UNL     1       7.832  -6.006  43.340  1.00  0.00     0.000 C 
BRANCH  16  17
ATOM     17  C   UNL     1       7.447  -4.551  42.994  1.00  0.00     0.000 C 
BRANCH  17  18
ATOM     18  C   UNL     1       8.648  -3.740  42.473  1.00  0.00    -0.000 C 
BRANCH  18  19
ATOM     19  C   UNL     1       8.238  -2.672  41.446  1.00  0.00    -0.000 C 
BRANCH  19  20
ATOM     20  C   UNL     1       7.906  -3.275  40.073  1.00  0.00    -0.000 C 
BRANCH  20  21
ATOM     21  C   UNL     1       8.846  -4.446  39.743  1.00  0.00    -0.000 C 
BRANCH  21  22
ATOM     22  C   UNL     1      10.221  -3.975  39.242  1.00  0.00    -0.000 C 
BRANCH  22  23
ATOM     23  C   UNL     1      11.383  -4.787  39.842  1.00  0.00    -0.000 C 
BRANCH  23  24
ATOM     24  C   UNL     1      12.022  -4.076  41.053  1.00  0.00    -0.000 C 
BRANCH  24  25
ATOM     25  C   UNL     1      11.905  -2.542  40.999  1.00  0.00    -0.003 C 
ATOM     26  C   UNL     1      13.129  -1.867  40.385  1.00  0.00     0.004 C 
ENDBRANCH  24  25
ENDBRANCH  23  24
ENDBRANCH  22  23
ENDBRANCH  21  22
ENDBRANCH  20  21
ENDBRANCH  19  20
ENDBRANCH  18  19
ENDBRANCH  17  18
ENDBRANCH  16  17
ENDBRANCH  15  16
ENDBRANCH   1  15
TORSDOF 22
ENDMDL
