MODEL 1
REMARK VINA RESULT:    -4.133      0.000      0.000
REMARK INTER + INTRA:          -4.133
REMARK INTER:                  -4.133
REMARK INTRA:                   0.000
REMARK UNBOUND:                 0.000
REMARK SMILES CC1(C)C(=O)[C@]2(C)CC[C@H]1C2
REMARK SMILES IDX 1 1 2 2 10 3 9 4 8 5 6 6 11 7 4 8 5 9 7 10 3 11
REMARK H PARENT
REMARK Flexibility Score: inf
ROOT
ATOM      1  C   UNL     1     116.587 119.209 112.081  1.00  0.00     0.020 C 
ATOM      2  C   UNL     1     116.999 117.937 112.853  1.00  0.00     0.027 C 
ATOM      3  C   UNL     1     118.209 117.160 112.220  1.00  0.00     0.003 C 
ATOM      4  C   UNL     1     119.377 118.123 111.888  1.00  0.00     0.005 C 
ATOM      5  C   UNL     1     119.880 118.557 113.283  1.00  0.00     0.015 C 
ATOM      6  C   UNL     1     119.005 117.714 114.233  1.00  0.00     0.027 C 
ATOM      7  C   UNL     1     118.816 116.446 113.426  1.00  0.00     0.019 C 
ATOM      8  C   UNL     1     117.610 118.273 114.182  1.00  0.00     0.144 C 
ATOM      9  O   UNL     1     117.086 118.955 115.050  1.00  0.00    -0.298 OA
ATOM     10  C   UNL     1     119.576 117.503 115.636  1.00  0.00     0.020 C 
ATOM     11  C   UNL     1     115.763 117.025 113.020  1.00  0.00     0.020 C 
ENDROOT
TORSDOF 0
ENDMDL
MODEL 2
REMARK VINA RESULT:    -4.093      2.464      3.446
REMARK INTER + INTRA:          -4.093
REMARK INTER:                  -4.093
REMARK INTRA:                   0.000
REMARK UNBOUND:                 0.000
REMARK SMILES CC1(C)C(=O)[C@]2(C)CC[C@H]1C2
REMARK SMILES IDX 1 1 2 2 10 3 9 4 8 5 6 6 11 7 4 8 5 9 7 10 3 11
REMARK H PARENT
REMARK Flexibility Score: inf
ROOT
ATOM      1  C   UNL     1     114.004 116.495 112.137  1.00  0.00     0.020 C 
ATOM      2  C   UNL     1     115.309 116.896 112.858  1.00  0.00     0.027 C 
ATOM      3  C   UNL     1     116.080 118.088 112.185  1.00  0.00     0.003 C 
ATOM      4  C   UNL     1     115.122 119.267 111.875  1.00  0.00     0.005 C 
ATOM      5  C   UNL     1     114.746 119.790 113.280  1.00  0.00     0.015 C 
ATOM      6  C   UNL     1     115.610 118.912 114.208  1.00  0.00     0.027 C 
ATOM      7  C   UNL     1     116.846 118.697 113.358  1.00  0.00     0.019 C 
ATOM      8  C   UNL     1     115.030 117.525 114.192  1.00  0.00     0.144 C 
ATOM      9  O   UNL     1     114.373 117.020 115.090  1.00  0.00    -0.298 OA
ATOM     10  C   UNL     1     115.881 119.494 115.596  1.00  0.00     0.020 C 
ATOM     11  C   UNL     1     116.209 115.649 113.005  1.00  0.00     0.020 C 
ENDROOT
TORSDOF 0
ENDMDL
MODEL 3
REMARK VINA RESULT:    -4.089      2.543      3.544
REMARK INTER + INTRA:          -4.089
REMARK INTER:                  -4.089
REMARK INTRA:                   0.000
REMARK UNBOUND:                 0.000
REMARK SMILES CC1(C)C(=O)[C@]2(C)CC[C@H]1C2
REMARK SMILES IDX 1 1 2 2 10 3 9 4 8 5 6 6 11 7 4 8 5 9 7 10 3 11
REMARK H PARENT
REMARK Flexibility Score: inf
ROOT
ATOM      1  C   UNL     1     119.186 116.583 112.064  1.00  0.00     0.020 C 
ATOM      2  C   UNL     1     117.900 116.179 112.816  1.00  0.00     0.027 C 
ATOM      3  C   UNL     1     117.134 114.963 112.180  1.00  0.00     0.003 C 
ATOM      4  C   UNL     1     118.102 113.791 111.876  1.00  0.00     0.005 C 
ATOM      5  C   UNL     1     118.510 113.301 113.284  1.00  0.00     0.015 C 
ATOM      6  C   UNL     1     117.651 114.185 114.210  1.00  0.00     0.027 C 
ATOM      7  C   UNL     1     116.398 114.367 113.379  1.00  0.00     0.019 C 
ATOM      8  C   UNL     1     118.212 115.580 114.156  1.00  0.00     0.144 C 
ATOM      9  O   UNL     1     118.879 116.111 115.032  1.00  0.00    -0.298 OA
ATOM     10  C   UNL     1     117.414 113.627 115.614  1.00  0.00     0.020 C 
ATOM     11  C   UNL     1     116.987 117.416 112.955  1.00  0.00     0.020 C 
ENDROOT
TORSDOF 0
ENDMDL
MODEL 4
REMARK VINA RESULT:    -4.045      2.865      4.964
REMARK INTER + INTRA:          -4.045
REMARK INTER:                  -4.045
REMARK INTRA:                   0.000
REMARK UNBOUND:                 0.000
REMARK SMILES CC1(C)C(=O)[C@]2(C)CC[C@H]1C2
REMARK SMILES IDX 1 1 2 2 10 3 9 4 8 5 6 6 11 7 4 8 5 9 7 10 3 11
REMARK H PARENT
REMARK Flexibility Score: inf
ROOT
ATOM      1  C   UNL     1     116.603 114.111 111.937  1.00  0.00     0.020 C 
ATOM      2  C   UNL     1     116.195 115.322 112.803  1.00  0.00     0.027 C 
ATOM      3  C   UNL     1     114.905 116.068 112.305  1.00  0.00     0.003 C 
ATOM      4  C   UNL     1     113.759 115.066 112.013  1.00  0.00     0.005 C 
ATOM      5  C   UNL     1     113.387 114.540 113.418  1.00  0.00     0.015 C 
ATOM      6  C   UNL     1     114.295 115.379 114.341  1.00  0.00     0.027 C 
ATOM      7  C   UNL     1     114.362 116.692 113.589  1.00  0.00     0.019 C 
ATOM      8  C   UNL     1     115.706 114.893 114.155  1.00  0.00     0.144 C 
ATOM      9  O   UNL     1     116.327 114.196 114.945  1.00  0.00    -0.298 OA
ATOM     10  C   UNL     1     113.826 115.494 115.793  1.00  0.00     0.020 C 
ATOM     11  C   UNL     1     117.397 116.285 112.922  1.00  0.00     0.020 C 
ENDROOT
TORSDOF 0
ENDMDL
MODEL 5
REMARK VINA RESULT:    -4.011      1.573      2.936
REMARK INTER + INTRA:          -4.011
REMARK INTER:                  -4.011
REMARK INTRA:                   0.000
REMARK UNBOUND:                 0.000
REMARK SMILES CC1(C)C(=O)[C@]2(C)CC[C@H]1C2
REMARK SMILES IDX 1 1 2 2 10 3 9 4 8 5 6 6 11 7 4 8 5 9 7 10 3 11
REMARK H PARENT
REMARK Flexibility Score: inf
ROOT
ATOM      1  C   UNL     1     118.716 115.173 112.265  1.00  0.00     0.020 C 
ATOM      2  C   UNL     1     118.380 116.125 113.433  1.00  0.00     0.027 C 
ATOM      3  C   UNL     1     119.232 117.445 113.456  1.00  0.00     0.003 C 
ATOM      4  C   UNL     1     119.256 118.117 112.059  1.00  0.00     0.005 C 
ATOM      5  C   UNL     1     117.798 118.597 111.877  1.00  0.00     0.015 C 
ATOM      6  C   UNL     1     117.152 118.229 113.227  1.00  0.00     0.027 C 
ATOM      7  C   UNL     1     118.311 118.424 114.182  1.00  0.00     0.019 C 
ATOM      8  C   UNL     1     117.017 116.731 113.274  1.00  0.00     0.144 C 
ATOM      9  O   UNL     1     115.976 116.107 113.130  1.00  0.00    -0.298 OA
ATOM     10  C   UNL     1     115.888 119.013 113.584  1.00  0.00     0.020 C 
ATOM     11  C   UNL     1     118.496 115.350 114.765  1.00  0.00     0.020 C 
ENDROOT
TORSDOF 0
ENDMDL
MODEL 6
REMARK VINA RESULT:    -3.982      1.963      3.482
REMARK INTER + INTRA:          -3.982
REMARK INTER:                  -3.982
REMARK INTRA:                   0.000
REMARK UNBOUND:                 0.000
REMARK SMILES CC1(C)C(=O)[C@]2(C)CC[C@H]1C2
REMARK SMILES IDX 1 1 2 2 10 3 9 4 8 5 6 6 11 7 4 8 5 9 7 10 3 11
REMARK H PARENT
REMARK Flexibility Score: inf
ROOT
ATOM      1  C   UNL     1     114.320 116.358 114.382  1.00  0.00     0.020 C 
ATOM      2  C   UNL     1     114.864 117.183 113.196  1.00  0.00     0.027 C 
ATOM      3  C   UNL     1     114.744 118.738 113.381  1.00  0.00     0.003 C 
ATOM      4  C   UNL     1     115.272 119.177 114.771  1.00  0.00     0.005 C 
ATOM      5  C   UNL     1     116.791 118.913 114.667  1.00  0.00     0.015 C 
ATOM      6  C   UNL     1     116.953 118.453 113.204  1.00  0.00     0.027 C 
ATOM      7  C   UNL     1     115.881 119.268 112.510  1.00  0.00     0.019 C 
ATOM      8  C   UNL     1     116.357 117.077 113.091  1.00  0.00     0.144 C 
ATOM      9  O   UNL     1     116.989 116.034 113.004  1.00  0.00    -0.298 OA
ATOM     10  C   UNL     1     118.358 118.611 112.619  1.00  0.00     0.020 C 
ATOM     11  C   UNL     1     114.177 116.711 111.896  1.00  0.00     0.020 C 
ENDROOT
TORSDOF 0
ENDMDL
MODEL 7
REMARK VINA RESULT:    -3.980      1.452      2.515
REMARK INTER + INTRA:          -3.980
REMARK INTER:                  -3.980
REMARK INTRA:                   0.000
REMARK UNBOUND:                 0.000
REMARK SMILES CC1(C)C(=O)[C@]2(C)CC[C@H]1C2
REMARK SMILES IDX 1 1 2 2 10 3 9 4 8 5 6 6 11 7 4 8 5 9 7 10 3 11
REMARK H PARENT
REMARK Flexibility Score: inf
ROOT
ATOM      1  C   UNL     1     116.361 118.891 114.365  1.00  0.00     0.020 C 
ATOM      2  C   UNL     1     117.169 118.413 113.140  1.00  0.00     0.027 C 
ATOM      3  C   UNL     1     118.725 118.576 113.287  1.00  0.00     0.003 C 
ATOM      4  C   UNL     1     119.218 118.017 114.646  1.00  0.00     0.005 C 
ATOM      5  C   UNL     1     118.998 116.494 114.499  1.00  0.00     0.015 C 
ATOM      6  C   UNL     1     118.503 116.366 113.044  1.00  0.00     0.027 C 
ATOM      7  C   UNL     1     119.265 117.485 112.364  1.00  0.00     0.019 C 
ATOM      8  C   UNL     1     117.106 116.921 112.988  1.00  0.00     0.144 C 
ATOM      9  O   UNL     1     116.082 116.260 112.908  1.00  0.00    -0.298 OA
ATOM     10  C   UNL     1     118.686 114.986 112.408  1.00  0.00     0.020 C 
ATOM     11  C   UNL     1     116.640 119.127 111.876  1.00  0.00     0.020 C 
ENDROOT
TORSDOF 0
ENDMDL
MODEL 8
REMARK VINA RESULT:    -3.973      2.504      4.072
REMARK INTER + INTRA:          -3.973
REMARK INTER:                  -3.973
REMARK INTRA:                   0.000
REMARK UNBOUND:                 0.000
REMARK SMILES CC1(C)C(=O)[C@]2(C)CC[C@H]1C2
REMARK SMILES IDX 1 1 2 2 10 3 9 4 8 5 6 6 11 7 4 8 5 9 7 10 3 11
REMARK H PARENT
REMARK Flexibility Score: inf
ROOT
ATOM      1  C   UNL     1     116.705 118.429 113.758  1.00  0.00     0.020 C 
ATOM      2  C   UNL     1     115.339 117.985 113.194  1.00  0.00     0.027 C 
ATOM      3  C   UNL     1     115.429 117.127 111.881  1.00  0.00     0.003 C 
ATOM      4  C   UNL     1     116.470 115.987 112.030  1.00  0.00     0.005 C 
ATOM      5  C   UNL     1     115.812 115.047 113.065  1.00  0.00     0.015 C 
ATOM      6  C   UNL     1     114.442 115.713 113.301  1.00  0.00     0.027 C 
ATOM      7  C   UNL     1     114.148 116.296 111.934  1.00  0.00     0.019 C 
ATOM      8  C   UNL     1     114.678 116.974 114.085  1.00  0.00     0.144 C 
ATOM      9  O   UNL     1     114.439 117.126 115.274  1.00  0.00    -0.298 OA
ATOM     10  C   UNL     1     113.351 114.792 113.852  1.00  0.00     0.020 C 
ATOM     11  C   UNL     1     114.444 119.229 112.999  1.00  0.00     0.020 C 
ENDROOT
TORSDOF 0
ENDMDL
MODEL 9
REMARK VINA RESULT:    -3.942      3.040      4.740
REMARK INTER + INTRA:          -3.942
REMARK INTER:                  -3.942
REMARK INTRA:                   0.000
REMARK UNBOUND:                 0.000
REMARK SMILES CC1(C)C(=O)[C@]2(C)CC[C@H]1C2
REMARK SMILES IDX 1 1 2 2 10 3 9 4 8 5 6 6 11 7 4 8 5 9 7 10 3 11
REMARK H PARENT
REMARK Flexibility Score: inf
ROOT
ATOM      1  C   UNL     1     116.900 114.323 114.358  1.00  0.00     0.020 C 
ATOM      2  C   UNL     1     116.101 114.797 113.125  1.00  0.00     0.027 C 
ATOM      3  C   UNL     1     114.542 114.677 113.281  1.00  0.00     0.003 C 
ATOM      4  C   UNL     1     114.068 115.275 114.630  1.00  0.00     0.005 C 
ATOM      5  C   UNL     1     114.326 116.789 114.450  1.00  0.00     0.015 C 
ATOM      6  C   UNL     1     114.819 116.875 112.992  1.00  0.00     0.027 C 
ATOM      7  C   UNL     1     114.026 115.762 112.337  1.00  0.00     0.019 C 
ATOM      8  C   UNL     1     116.201 116.283 112.943  1.00  0.00     0.144 C 
ATOM      9  O   UNL     1     117.242 116.917 112.846  1.00  0.00    -0.298 OA
ATOM     10  C   UNL     1     114.668 118.245 112.328  1.00  0.00     0.020 C 
ATOM     11  C   UNL     1     116.607 114.044 111.875  1.00  0.00     0.020 C 
ENDROOT
TORSDOF 0
ENDMDL
