MODEL 1
REMARK VINA RESULT:    -5.017      0.000      0.000
REMARK INTER + INTRA:          -6.144
REMARK INTER:                  -5.897
REMARK INTRA:                  -0.247
REMARK UNBOUND:                -0.247
REMARK SMILES O=c1c(O)c(-c2ccc(O)cc2)oc2cc(O)cc(O)c12
REMARK SMILES IDX 5 1 3 2 2 3 1 4 21 5 19 6 18 7 16 8 15 9 14 10 13 11 6 12
REMARK SMILES IDX 7 13 8 14 9 15 12 16 11 17 10 18 4 20 20 22 17 24
REMARK H PARENT 10 19 4 21 20 23 17 25
REMARK Flexibility Score: inf
ROOT
ATOM      1  C   UNL     1      14.953  48.418  30.783  1.00  0.00     0.180 A 
ATOM      2  C   UNL     1      15.017  49.822  30.753  1.00  0.00     0.208 A 
ATOM      3  C   UNL     1      15.694  50.450  29.694  1.00  0.00     0.238 A 
ATOM      4  O   UNL     1      15.701  51.707  29.643  1.00  0.00    -0.285 OA
ATOM      5  C   UNL     1      16.311  49.666  28.690  1.00  0.00     0.111 A 
ATOM      6  C   UNL     1      17.057  50.195  27.594  1.00  0.00     0.134 A 
ATOM      7  C   UNL     1      17.512  49.333  26.588  1.00  0.00     0.093 A 
ATOM      8  C   UNL     1      17.304  47.954  26.674  1.00  0.00     0.123 A 
ATOM      9  C   UNL     1      16.630  47.422  27.770  1.00  0.00     0.094 A 
ATOM     10  C   UNL     1      16.132  48.260  28.770  1.00  0.00     0.146 A 
ATOM     11  O   UNL     1      15.485  47.714  29.792  1.00  0.00    -0.452 OA
ENDROOT
BRANCH   1  12
ATOM     12  C   UNL     1      14.280  47.684  31.880  1.00  0.00     0.021 A 
ATOM     13  C   UNL     1      15.016  47.046  32.896  1.00  0.00     0.016 A 
ATOM     14  C   UNL     1      14.359  46.338  33.907  1.00  0.00     0.047 A 
ATOM     15  C   UNL     1      12.961  46.249  33.909  1.00  0.00     0.115 A 
ATOM     16  C   UNL     1      12.880  47.570  31.879  1.00  0.00     0.016 A 
ATOM     17  C   UNL     1      12.226  46.864  32.892  1.00  0.00     0.047 A 
BRANCH  15  18
ATOM     18  O   UNL     1      12.295  45.548  34.913  1.00  0.00    -0.508 OA
ATOM     19  H   UNL     1      12.267  45.889  35.867  1.00  0.00     0.293 HD
ENDBRANCH  15  18
ENDBRANCH   1  12
BRANCH   2  20
ATOM     20  O   UNL     1      14.383  50.577  31.743  1.00  0.00    -0.502 OA
ATOM     21  H   UNL     1      13.833  50.154  32.482  1.00  0.00     0.293 HD
ENDBRANCH   2  20
BRANCH   6  22
ATOM     22  O   UNL     1      17.398  51.544  27.461  1.00  0.00    -0.507 OA
ATOM     23  H   UNL     1      16.894  52.211  26.896  1.00  0.00     0.293 HD
ENDBRANCH   6  22
BRANCH   8  24
ATOM     24  O   UNL     1      17.775  47.102  25.677  1.00  0.00    -0.508 OA
ATOM     25  H   UNL     1      17.150  46.686  24.996  1.00  0.00     0.293 HD
ENDBRANCH   8  24
TORSDOF 5
ENDMDL
MODEL 2
REMARK VINA RESULT:    -5.001      1.878      3.526
REMARK INTER + INTRA:          -6.125
REMARK INTER:                  -6.325
REMARK INTRA:                   0.200
REMARK UNBOUND:                -0.247
REMARK SMILES O=c1c(O)c(-c2ccc(O)cc2)oc2cc(O)cc(O)c12
REMARK SMILES IDX 5 1 3 2 2 3 1 4 21 5 19 6 18 7 16 8 15 9 14 10 13 11 6 12
REMARK SMILES IDX 7 13 8 14 9 15 12 16 11 17 10 18 4 20 20 22 17 24
REMARK H PARENT 10 19 4 21 20 23 17 25
REMARK Flexibility Score: inf
ROOT
ATOM      1  C   UNL     1      14.269  47.717  31.938  1.00  0.00     0.180 A 
ATOM      2  C   UNL     1      15.442  47.147  31.412  1.00  0.00     0.208 A 
ATOM      3  C   UNL     1      16.230  47.904  30.529  1.00  0.00     0.238 A 
ATOM      4  O   UNL     1      17.305  47.409  30.103  1.00  0.00    -0.285 OA
ATOM      5  C   UNL     1      15.826  49.212  30.171  1.00  0.00     0.111 A 
ATOM      6  C   UNL     1      16.526  50.054  29.254  1.00  0.00     0.134 A 
ATOM      7  C   UNL     1      16.108  51.378  29.074  1.00  0.00     0.093 A 
ATOM      8  C   UNL     1      14.977  51.871  29.729  1.00  0.00     0.123 A 
ATOM      9  C   UNL     1      14.253  51.040  30.580  1.00  0.00     0.094 A 
ATOM     10  C   UNL     1      14.666  49.725  30.808  1.00  0.00     0.146 A 
ATOM     11  O   UNL     1      13.953  48.970  31.635  1.00  0.00    -0.452 OA
ENDROOT
BRANCH   1  12
ATOM     12  C   UNL     1      13.375  46.973  32.855  1.00  0.00     0.021 A 
ATOM     13  C   UNL     1      11.974  47.073  32.754  1.00  0.00     0.016 A 
ATOM     14  C   UNL     1      11.151  46.380  33.646  1.00  0.00     0.047 A 
ATOM     15  C   UNL     1      11.715  45.590  34.656  1.00  0.00     0.115 A 
ATOM     16  C   UNL     1      13.931  46.196  33.884  1.00  0.00     0.016 A 
ATOM     17  C   UNL     1      13.104  45.502  34.773  1.00  0.00     0.047 A 
BRANCH  15  18
ATOM     18  O   UNL     1      10.903  44.893  35.550  1.00  0.00    -0.508 OA
ATOM     19  H   UNL     1       9.951  45.185  35.738  1.00  0.00     0.293 HD
ENDBRANCH  15  18
ENDBRANCH   1  12
BRANCH   2  20
ATOM     20  O   UNL     1      15.832  45.862  31.795  1.00  0.00    -0.502 OA
ATOM     21  H   UNL     1      16.656  45.689  32.359  1.00  0.00     0.293 HD
ENDBRANCH   2  20
BRANCH   6  22
ATOM     22  O   UNL     1      17.611  49.632  28.481  1.00  0.00    -0.507 OA
ATOM     23  H   UNL     1      17.563  48.931  27.757  1.00  0.00     0.293 HD
ENDBRANCH   6  22
BRANCH   8  24
ATOM     24  O   UNL     1      14.559  53.185  29.532  1.00  0.00    -0.508 OA
ATOM     25  H   UNL     1      13.905  53.634  30.164  1.00  0.00     0.293 HD
ENDBRANCH   8  24
TORSDOF 5
ENDMDL
MODEL 3
REMARK VINA RESULT:    -4.904      3.444      6.241
REMARK INTER + INTRA:          -6.011
REMARK INTER:                  -5.713
REMARK INTRA:                  -0.297
REMARK UNBOUND:                -0.247
REMARK SMILES O=c1c(O)c(-c2ccc(O)cc2)oc2cc(O)cc(O)c12
REMARK SMILES IDX 5 1 3 2 2 3 1 4 21 5 19 6 18 7 16 8 15 9 14 10 13 11 6 12
REMARK SMILES IDX 7 13 8 14 9 15 12 16 11 17 10 18 4 20 20 22 17 24
REMARK H PARENT 10 19 4 21 20 23 17 25
REMARK Flexibility Score: inf
ROOT
ATOM      1  C   UNL     1      14.607  50.530  31.086  1.00  0.00     0.180 A 
ATOM      2  C   UNL     1      13.394  50.743  30.409  1.00  0.00     0.208 A 
ATOM      3  C   UNL     1      12.652  51.903  30.691  1.00  0.00     0.238 A 
ATOM      4  O   UNL     1      11.595  52.116  30.044  1.00  0.00    -0.285 OA
ATOM      5  C   UNL     1      13.126  52.823  31.657  1.00  0.00     0.111 A 
ATOM      6  C   UNL     1      12.438  54.011  32.051  1.00  0.00     0.134 A 
ATOM      7  C   UNL     1      13.061  54.915  32.920  1.00  0.00     0.093 A 
ATOM      8  C   UNL     1      14.321  54.643  33.458  1.00  0.00     0.123 A 
ATOM      9  C   UNL     1      14.975  53.459  33.127  1.00  0.00     0.094 A 
ATOM     10  C   UNL     1      14.395  52.555  32.235  1.00  0.00     0.146 A 
ATOM     11  O   UNL     1      15.056  51.444  31.937  1.00  0.00    -0.452 OA
ENDROOT
BRANCH   1  12
ATOM     12  C   UNL     1      15.431  49.320  30.861  1.00  0.00     0.021 A 
ATOM     13  C   UNL     1      15.196  48.129  31.575  1.00  0.00     0.016 A 
ATOM     14  C   UNL     1      16.003  47.007  31.363  1.00  0.00     0.047 A 
ATOM     15  C   UNL     1      17.060  47.064  30.445  1.00  0.00     0.115 A 
ATOM     16  C   UNL     1      16.507  49.373  29.959  1.00  0.00     0.016 A 
ATOM     17  C   UNL     1      17.311  48.248  29.748  1.00  0.00     0.047 A 
BRANCH  15  18
ATOM     18  O   UNL     1      17.870  45.951  30.225  1.00  0.00    -0.508 OA
ATOM     19  H   UNL     1      17.806  45.126  30.810  1.00  0.00     0.293 HD
ENDBRANCH  15  18
ENDBRANCH   1  12
BRANCH   2  20
ATOM     20  O   UNL     1      12.956  49.833  29.445  1.00  0.00    -0.502 OA
ATOM     21  H   UNL     1      12.788  50.099  28.482  1.00  0.00     0.293 HD
ENDBRANCH   2  20
BRANCH   6  22
ATOM     22  O   UNL     1      11.140  54.331  31.643  1.00  0.00    -0.507 OA
ATOM     23  H   UNL     1      10.914  54.915  30.851  1.00  0.00     0.293 HD
ENDBRANCH   6  22
BRANCH   8  24
ATOM     24  O   UNL     1      14.927  55.541  34.334  1.00  0.00    -0.508 OA
ATOM     25  H   UNL     1      15.726  55.274  34.898  1.00  0.00     0.293 HD
ENDBRANCH   8  24
TORSDOF 5
ENDMDL
MODEL 4
REMARK VINA RESULT:    -4.824      5.423      7.677
REMARK INTER + INTRA:          -5.917
REMARK INTER:                  -5.626
REMARK INTRA:                  -0.291
REMARK UNBOUND:                -0.247
REMARK SMILES O=c1c(O)c(-c2ccc(O)cc2)oc2cc(O)cc(O)c12
REMARK SMILES IDX 5 1 3 2 2 3 1 4 21 5 19 6 18 7 16 8 15 9 14 10 13 11 6 12
REMARK SMILES IDX 7 13 8 14 9 15 12 16 11 17 10 18 4 20 20 22 17 24
REMARK H PARENT 10 19 4 21 20 23 17 25
REMARK Flexibility Score: inf
ROOT
ATOM      1  C   UNL     1      14.623  54.021  31.226  1.00  0.00     0.180 A 
ATOM      2  C   UNL     1      13.483  54.722  31.656  1.00  0.00     0.208 A 
ATOM      3  C   UNL     1      13.623  56.052  32.085  1.00  0.00     0.238 A 
ATOM      4  O   UNL     1      12.592  56.692  32.417  1.00  0.00    -0.285 OA
ATOM      5  C   UNL     1      14.902  56.658  32.094  1.00  0.00     0.111 A 
ATOM      6  C   UNL     1      15.167  57.986  32.545  1.00  0.00     0.134 A 
ATOM      7  C   UNL     1      16.449  58.528  32.387  1.00  0.00     0.093 A 
ATOM      8  C   UNL     1      17.491  57.765  31.852  1.00  0.00     0.123 A 
ATOM      9  C   UNL     1      17.257  56.449  31.464  1.00  0.00     0.094 A 
ATOM     10  C   UNL     1      15.980  55.893  31.576  1.00  0.00     0.146 A 
ATOM     11  O   UNL     1      15.798  54.638  31.185  1.00  0.00    -0.452 OA
ENDROOT
BRANCH   1  12
ATOM     12  C   UNL     1      14.560  52.609  30.785  1.00  0.00     0.021 A 
ATOM     13  C   UNL     1      14.601  51.548  31.709  1.00  0.00     0.016 A 
ATOM     14  C   UNL     1      14.564  50.223  31.266  1.00  0.00     0.047 A 
ATOM     15  C   UNL     1      14.497  49.940  29.895  1.00  0.00     0.115 A 
ATOM     16  C   UNL     1      14.514  52.315  29.411  1.00  0.00     0.016 A 
ATOM     17  C   UNL     1      14.475  50.988  28.972  1.00  0.00     0.047 A 
BRANCH  15  18
ATOM     18  O   UNL     1      14.458  48.623  29.443  1.00  0.00    -0.508 OA
ATOM     19  H   UNL     1      13.752  48.310  28.785  1.00  0.00     0.293 HD
ENDBRANCH  15  18
ENDBRANCH   1  12
BRANCH   2  20
ATOM     20  O   UNL     1      12.227  54.112  31.619  1.00  0.00    -0.502 OA
ATOM     21  H   UNL     1      11.532  54.339  30.918  1.00  0.00     0.293 HD
ENDBRANCH   2  20
BRANCH   6  22
ATOM     22  O   UNL     1      14.221  58.798  33.176  1.00  0.00    -0.507 OA
ATOM     23  H   UNL     1      13.989  58.755  34.157  1.00  0.00     0.293 HD
ENDBRANCH   6  22
BRANCH   8  24
ATOM     24  O   UNL     1      18.767  58.307  31.713  1.00  0.00    -0.508 OA
ATOM     25  H   UNL     1      19.061  58.757  30.854  1.00  0.00     0.293 HD
ENDBRANCH   8  24
TORSDOF 5
ENDMDL
MODEL 5
REMARK VINA RESULT:    -4.722      3.728      5.086
REMARK INTER + INTRA:          -5.797
REMARK INTER:                  -5.576
REMARK INTRA:                  -0.221
REMARK UNBOUND:                -0.247
REMARK SMILES O=c1c(O)c(-c2ccc(O)cc2)oc2cc(O)cc(O)c12
REMARK SMILES IDX 5 1 3 2 2 3 1 4 21 5 19 6 18 7 16 8 15 9 14 10 13 11 6 12
REMARK SMILES IDX 7 13 8 14 9 15 12 16 11 17 10 18 4 20 20 22 17 24
REMARK H PARENT 10 19 4 21 20 23 17 25
REMARK Flexibility Score: inf
ROOT
ATOM      1  C   UNL     1      14.902  52.802  31.766  1.00  0.00     0.180 A 
ATOM      2  C   UNL     1      15.048  53.623  30.634  1.00  0.00     0.208 A 
ATOM      3  C   UNL     1      15.421  53.037  29.413  1.00  0.00     0.238 A 
ATOM      4  O   UNL     1      15.498  53.768  28.391  1.00  0.00    -0.285 OA
ATOM      5  C   UNL     1      15.659  51.644  29.344  1.00  0.00     0.111 A 
ATOM      6  C   UNL     1      16.079  50.950  28.169  1.00  0.00     0.134 A 
ATOM      7  C   UNL     1      16.158  49.552  28.182  1.00  0.00     0.093 A 
ATOM      8  C   UNL     1      15.892  48.827  29.346  1.00  0.00     0.123 A 
ATOM      9  C   UNL     1      15.539  49.499  30.514  1.00  0.00     0.094 A 
ATOM     10  C   UNL     1      15.417  50.890  30.523  1.00  0.00     0.146 A 
ATOM     11  O   UNL     1      15.068  51.490  31.654  1.00  0.00    -0.452 OA
ENDROOT
BRANCH   1  12
ATOM     12  C   UNL     1      14.537  53.349  33.093  1.00  0.00     0.021 A 
ATOM     13  C   UNL     1      15.482  53.448  34.131  1.00  0.00     0.016 A 
ATOM     14  C   UNL     1      15.107  53.945  35.383  1.00  0.00     0.047 A 
ATOM     15  C   UNL     1      13.783  54.338  35.617  1.00  0.00     0.115 A 
ATOM     16  C   UNL     1      13.206  53.725  33.344  1.00  0.00     0.016 A 
ATOM     17  C   UNL     1      12.835  54.223  34.597  1.00  0.00     0.047 A 
BRANCH  15  18
ATOM     18  O   UNL     1      13.398  54.837  36.860  1.00  0.00    -0.508 OA
ATOM     19  H   UNL     1      13.263  55.830  37.013  1.00  0.00     0.293 HD
ENDBRANCH  15  18
ENDBRANCH   1  12
BRANCH   2  20
ATOM     20  O   UNL     1      14.788  54.993  30.720  1.00  0.00    -0.502 OA
ATOM     21  H   UNL     1      15.480  55.658  31.044  1.00  0.00     0.293 HD
ENDBRANCH   2  20
BRANCH   6  22
ATOM     22  O   UNL     1      16.456  51.585  26.982  1.00  0.00    -0.507 OA
ATOM     23  H   UNL     1      15.954  51.516  26.109  1.00  0.00     0.293 HD
ENDBRANCH   6  22
BRANCH   8  24
ATOM     24  O   UNL     1      15.988  47.437  29.355  1.00  0.00    -0.508 OA
ATOM     25  H   UNL     1      15.311  46.857  28.874  1.00  0.00     0.293 HD
ENDBRANCH   8  24
TORSDOF 5
ENDMDL
MODEL 6
REMARK VINA RESULT:    -4.712      2.032      4.064
REMARK INTER + INTRA:          -5.785
REMARK INTER:                  -5.485
REMARK INTRA:                  -0.300
REMARK UNBOUND:                -0.247
REMARK SMILES O=c1c(O)c(-c2ccc(O)cc2)oc2cc(O)cc(O)c12
REMARK SMILES IDX 5 1 3 2 2 3 1 4 21 5 19 6 18 7 16 8 15 9 14 10 13 11 6 12
REMARK SMILES IDX 7 13 8 14 9 15 12 16 11 17 10 18 4 20 20 22 17 24
REMARK H PARENT 10 19 4 21 20 23 17 25
REMARK Flexibility Score: inf
ROOT
ATOM      1  C   UNL     1      14.545  49.212  31.151  1.00  0.00     0.180 A 
ATOM      2  C   UNL     1      14.782  49.074  29.772  1.00  0.00     0.208 A 
ATOM      3  C   UNL     1      15.084  50.218  29.016  1.00  0.00     0.238 A 
ATOM      4  O   UNL     1      15.349  50.082  27.793  1.00  0.00    -0.285 OA
ATOM      5  C   UNL     1      15.129  51.485  29.644  1.00  0.00     0.111 A 
ATOM      6  C   UNL     1      15.386  52.717  28.969  1.00  0.00     0.134 A 
ATOM      7  C   UNL     1      15.537  53.895  29.711  1.00  0.00     0.093 A 
ATOM      8  C   UNL     1      15.375  53.896  31.099  1.00  0.00     0.123 A 
ATOM      9  C   UNL     1      15.065  52.710  31.760  1.00  0.00     0.094 A 
ATOM     10  C   UNL     1      14.945  51.513  31.052  1.00  0.00     0.146 A 
ATOM     11  O   UNL     1      14.659  50.404  31.722  1.00  0.00    -0.452 OA
ENDROOT
BRANCH   1  12
ATOM     12  C   UNL     1      14.196  48.056  32.009  1.00  0.00     0.021 A 
ATOM     13  C   UNL     1      12.859  47.649  32.183  1.00  0.00     0.016 A 
ATOM     14  C   UNL     1      12.552  46.570  33.018  1.00  0.00     0.047 A 
ATOM     15  C   UNL     1      13.573  45.893  33.698  1.00  0.00     0.115 A 
ATOM     16  C   UNL     1      15.210  47.385  32.712  1.00  0.00     0.016 A 
ATOM     17  C   UNL     1      14.900  46.305  33.545  1.00  0.00     0.047 A 
BRANCH  15  18
ATOM     18  O   UNL     1      13.279  44.816  34.531  1.00  0.00    -0.508 OA
ATOM     19  H   UNL     1      12.855  43.968  34.170  1.00  0.00     0.293 HD
ENDBRANCH  15  18
ENDBRANCH   1  12
BRANCH   2  20
ATOM     20  O   UNL     1      14.754  47.810  29.176  1.00  0.00    -0.502 OA
ATOM     21  H   UNL     1      15.520  47.153  29.259  1.00  0.00     0.293 HD
ENDBRANCH   2  20
BRANCH   6  22
ATOM     22  O   UNL     1      15.475  52.840  27.579  1.00  0.00    -0.507 OA
ATOM     23  H   UNL     1      14.730  52.620  26.934  1.00  0.00     0.293 HD
ENDBRANCH   6  22
BRANCH   8  24
ATOM     24  O   UNL     1      15.510  55.075  31.828  1.00  0.00    -0.508 OA
ATOM     25  H   UNL     1      16.308  55.237  32.432  1.00  0.00     0.293 HD
ENDBRANCH   8  24
TORSDOF 5
ENDMDL
MODEL 7
REMARK VINA RESULT:    -4.705      3.034      4.847
REMARK INTER + INTRA:          -5.777
REMARK INTER:                  -5.633
REMARK INTRA:                  -0.144
REMARK UNBOUND:                -0.247
REMARK SMILES O=c1c(O)c(-c2ccc(O)cc2)oc2cc(O)cc(O)c12
REMARK SMILES IDX 5 1 3 2 2 3 1 4 21 5 19 6 18 7 16 8 15 9 14 10 13 11 6 12
REMARK SMILES IDX 7 13 8 14 9 15 12 16 11 17 10 18 4 20 20 22 17 24
REMARK H PARENT 10 19 4 21 20 23 17 25
REMARK Flexibility Score: inf
ROOT
ATOM      1  C   UNL     1      15.398  51.592  30.718  1.00  0.00     0.180 A 
ATOM      2  C   UNL     1      15.426  51.940  29.356  1.00  0.00     0.208 A 
ATOM      3  C   UNL     1      15.958  51.027  28.430  1.00  0.00     0.238 A 
ATOM      4  O   UNL     1      15.931  51.321  27.208  1.00  0.00    -0.285 OA
ATOM      5  C   UNL     1      16.469  49.786  28.880  1.00  0.00     0.111 A 
ATOM      6  C   UNL     1      17.068  48.802  28.037  1.00  0.00     0.134 A 
ATOM      7  C   UNL     1      17.421  47.556  28.570  1.00  0.00     0.093 A 
ATOM      8  C   UNL     1      17.256  47.283  29.931  1.00  0.00     0.123 A 
ATOM      9  C   UNL     1      16.728  48.258  30.773  1.00  0.00     0.094 A 
ATOM     10  C   UNL     1      16.333  49.497  30.264  1.00  0.00     0.146 A 
ATOM     11  O   UNL     1      15.825  50.394  31.100  1.00  0.00    -0.452 OA
ENDROOT
BRANCH   1  12
ATOM     12  C   UNL     1      14.877  52.511  31.755  1.00  0.00     0.021 A 
ATOM     13  C   UNL     1      13.518  52.874  31.798  1.00  0.00     0.016 A 
ATOM     14  C   UNL     1      13.054  53.763  32.772  1.00  0.00     0.047 A 
ATOM     15  C   UNL     1      13.943  54.309  33.707  1.00  0.00     0.115 A 
ATOM     16  C   UNL     1      15.765  53.081  32.684  1.00  0.00     0.016 A 
ATOM     17  C   UNL     1      15.297  53.968  33.658  1.00  0.00     0.047 A 
BRANCH  15  18
ATOM     18  O   UNL     1      13.492  55.195  34.684  1.00  0.00    -0.508 OA
ATOM     19  H   UNL     1      14.122  55.842  35.144  1.00  0.00     0.293 HD
ENDBRANCH  15  18
ENDBRANCH   1  12
BRANCH   2  20
ATOM     20  O   UNL     1      14.897  53.161  28.931  1.00  0.00    -0.502 OA
ATOM     21  H   UNL     1      14.658  53.904  29.577  1.00  0.00     0.293 HD
ENDBRANCH   2  20
BRANCH   6  22
ATOM     22  O   UNL     1      17.360  49.007  26.685  1.00  0.00    -0.507 OA
ATOM     23  H   UNL     1      17.716  49.868  26.299  1.00  0.00     0.293 HD
ENDBRANCH   6  22
BRANCH   8  24
ATOM     24  O   UNL     1      17.624  46.046  30.456  1.00  0.00    -0.508 OA
ATOM     25  H   UNL     1      18.598  45.784  30.562  1.00  0.00     0.293 HD
ENDBRANCH   8  24
TORSDOF 5
ENDMDL
MODEL 8
REMARK VINA RESULT:    -4.689      1.328      3.172
REMARK INTER + INTRA:          -5.758
REMARK INTER:                  -5.464
REMARK INTRA:                  -0.294
REMARK UNBOUND:                -0.247
REMARK SMILES O=c1c(O)c(-c2ccc(O)cc2)oc2cc(O)cc(O)c12
REMARK SMILES IDX 5 1 3 2 2 3 1 4 21 5 19 6 18 7 16 8 15 9 14 10 13 11 6 12
REMARK SMILES IDX 7 13 8 14 9 15 12 16 11 17 10 18 4 20 20 22 17 24
REMARK H PARENT 10 19 4 21 20 23 17 25
REMARK Flexibility Score: inf
ROOT
ATOM      1  C   UNL     1      15.651  47.567  30.272  1.00  0.00     0.180 A 
ATOM      2  C   UNL     1      16.337  46.692  29.411  1.00  0.00     0.208 A 
ATOM      3  C   UNL     1      16.950  47.213  28.259  1.00  0.00     0.238 A 
ATOM      4  O   UNL     1      17.608  46.435  27.521  1.00  0.00    -0.285 OA
ATOM      5  C   UNL     1      16.854  48.596  27.975  1.00  0.00     0.111 A 
ATOM      6  C   UNL     1      17.402  49.226  26.816  1.00  0.00     0.134 A 
ATOM      7  C   UNL     1      17.360  50.621  26.702  1.00  0.00     0.093 A 
ATOM      8  C   UNL     1      16.734  51.404  27.675  1.00  0.00     0.123 A 
ATOM      9  C   UNL     1      16.144  50.794  28.780  1.00  0.00     0.094 A 
ATOM     10  C   UNL     1      16.201  49.408  28.939  1.00  0.00     0.146 A 
ATOM     11  O   UNL     1      15.636  48.869  30.012  1.00  0.00    -0.452 OA
ENDROOT
BRANCH   1  12
ATOM     12  C   UNL     1      14.959  47.090  31.491  1.00  0.00     0.021 A 
ATOM     13  C   UNL     1      13.598  46.731  31.469  1.00  0.00     0.016 A 
ATOM     14  C   UNL     1      12.961  46.307  32.639  1.00  0.00     0.047 A 
ATOM     15  C   UNL     1      13.670  46.246  33.845  1.00  0.00     0.115 A 
ATOM     16  C   UNL     1      15.656  47.046  32.710  1.00  0.00     0.016 A 
ATOM     17  C   UNL     1      15.016  46.619  33.877  1.00  0.00     0.047 A 
BRANCH  15  18
ATOM     18  O   UNL     1      13.045  45.822  35.017  1.00  0.00    -0.508 OA
ATOM     19  H   UNL     1      13.233  44.910  35.417  1.00  0.00     0.293 HD
ENDBRANCH  15  18
ENDBRANCH   1  12
BRANCH   2  20
ATOM     20  O   UNL     1      16.437  45.334  29.722  1.00  0.00    -0.502 OA
ATOM     21  H   UNL     1      17.324  44.844  29.741  1.00  0.00     0.293 HD
ENDBRANCH   2  20
BRANCH   6  22
ATOM     22  O   UNL     1      17.968  48.529  25.744  1.00  0.00    -0.507 OA
ATOM     23  H   UNL     1      18.209  48.940  24.855  1.00  0.00     0.293 HD
ENDBRANCH   6  22
BRANCH   8  24
ATOM     24  O   UNL     1      16.683  52.790  27.546  1.00  0.00    -0.508 OA
ATOM     25  H   UNL     1      16.467  53.388  28.335  1.00  0.00     0.293 HD
ENDBRANCH   8  24
TORSDOF 5
ENDMDL
MODEL 9
REMARK VINA RESULT:    -4.683      3.729      6.446
REMARK INTER + INTRA:          -5.751
REMARK INTER:                  -5.536
REMARK INTRA:                  -0.216
REMARK UNBOUND:                -0.247
REMARK SMILES O=c1c(O)c(-c2ccc(O)cc2)oc2cc(O)cc(O)c12
REMARK SMILES IDX 5 1 3 2 2 3 1 4 21 5 19 6 18 7 16 8 15 9 14 10 13 11 6 12
REMARK SMILES IDX 7 13 8 14 9 15 12 16 11 17 10 18 4 20 20 22 17 24
REMARK H PARENT 10 19 4 21 20 23 17 25
REMARK Flexibility Score: inf
ROOT
ATOM      1  C   UNL     1      15.262  51.569  31.151  1.00  0.00     0.180 A 
ATOM      2  C   UNL     1      15.360  52.584  30.184  1.00  0.00     0.208 A 
ATOM      3  C   UNL     1      15.297  53.926  30.597  1.00  0.00     0.238 A 
ATOM      4  O   UNL     1      15.440  54.831  29.734  1.00  0.00    -0.285 OA
ATOM      5  C   UNL     1      15.121  54.233  31.967  1.00  0.00     0.111 A 
ATOM      6  C   UNL     1      15.004  55.555  32.493  1.00  0.00     0.134 A 
ATOM      7  C   UNL     1      14.964  55.747  33.880  1.00  0.00     0.093 A 
ATOM      8  C   UNL     1      14.971  54.659  34.757  1.00  0.00     0.123 A 
ATOM      9  C   UNL     1      15.025  53.363  34.251  1.00  0.00     0.094 A 
ATOM     10  C   UNL     1      15.103  53.141  32.875  1.00  0.00     0.146 A 
ATOM     11  O   UNL     1      15.163  51.891  32.436  1.00  0.00    -0.452 OA
ENDROOT
BRANCH   1  12
ATOM     12  C   UNL     1      15.294  50.133  30.791  1.00  0.00     0.021 A 
ATOM     13  C   UNL     1      14.133  49.337  30.844  1.00  0.00     0.016 A 
ATOM     14  C   UNL     1      14.194  47.978  30.523  1.00  0.00     0.047 A 
ATOM     15  C   UNL     1      15.413  47.395  30.156  1.00  0.00     0.115 A 
ATOM     16  C   UNL     1      16.516  49.534  30.443  1.00  0.00     0.016 A 
ATOM     17  C   UNL     1      16.572  48.174  30.120  1.00  0.00     0.047 A 
BRANCH  15  18
ATOM     18  O   UNL     1      15.484  46.041  29.832  1.00  0.00    -0.508 OA
ATOM     19  H   UNL     1      16.349  45.617  29.515  1.00  0.00     0.293 HD
ENDBRANCH  15  18
ENDBRANCH   1  12
BRANCH   2  20
ATOM     20  O   UNL     1      15.555  52.259  28.840  1.00  0.00    -0.502 OA
ATOM     21  H   UNL     1      16.014  52.886  28.189  1.00  0.00     0.293 HD
ENDBRANCH   2  20
BRANCH   6  22
ATOM     22  O   UNL     1      14.897  56.702  31.701  1.00  0.00    -0.507 OA
ATOM     23  H   UNL     1      14.246  56.815  30.939  1.00  0.00     0.293 HD
ENDBRANCH   6  22
BRANCH   8  24
ATOM     24  O   UNL     1      14.915  54.858  36.135  1.00  0.00    -0.508 OA
ATOM     25  H   UNL     1      15.514  55.531  36.598  1.00  0.00     0.293 HD
ENDBRANCH   8  24
TORSDOF 5
ENDMDL
