MODEL 1
REMARK VINA RESULT:    -6.504      0.000      0.000
REMARK INTER + INTRA:          -7.963
REMARK INTER:                  -7.645
REMARK INTRA:                  -0.318
REMARK UNBOUND:                -0.318
REMARK SMILES O=c1cc(-c2ccc(O)c(O)c2)oc2cc(O)cc(O)c12
REMARK SMILES IDX 4 1 3 2 2 3 1 4 21 5 19 6 18 7 16 8 15 9 14 10 13 11 5 12
REMARK SMILES IDX 6 13 7 14 8 15 12 16 10 17 9 18 11 20 20 22 17 24
REMARK H PARENT 9 19 11 21 20 23 17 25
REMARK Flexibility Score: inf
ROOT
ATOM      1  C   UNL     1      10.115  -3.180  19.312  1.00  0.00     0.138 A 
ATOM      2  C   UNL     1      11.324  -2.477  19.388  1.00  0.00     0.100 A 
ATOM      3  C   UNL     1      11.338  -1.098  19.171  1.00  0.00     0.197 A 
ATOM      4  O   UNL     1      12.447  -0.505  19.191  1.00  0.00    -0.289 OA
ATOM      5  C   UNL     1      10.125  -0.415  18.913  1.00  0.00     0.107 A 
ATOM      6  C   UNL     1      10.011   0.993  18.710  1.00  0.00     0.134 A 
ATOM      7  C   UNL     1       8.770   1.542  18.364  1.00  0.00     0.093 A 
ATOM      8  C   UNL     1       7.628   0.743  18.270  1.00  0.00     0.123 A 
ATOM      9  C   UNL     1       7.719  -0.625  18.515  1.00  0.00     0.094 A 
ATOM     10  C   UNL     1       8.949  -1.209  18.828  1.00  0.00     0.146 A 
ATOM     11  O   UNL     1       8.995  -2.520  19.037  1.00  0.00    -0.456 OA
ENDROOT
BRANCH   1  12
ATOM     12  C   UNL     1      10.043  -4.646  19.537  1.00  0.00     0.021 A 
ATOM     13  C   UNL     1      11.176  -5.394  19.908  1.00  0.00     0.016 A 
ATOM     14  C   UNL     1      11.080  -6.775  20.104  1.00  0.00     0.051 A 
ATOM     15  C   UNL     1       9.857  -7.431  19.925  1.00  0.00     0.157 A 
ATOM     16  C   UNL     1       8.821  -5.316  19.347  1.00  0.00     0.062 A 
ATOM     17  C   UNL     1       8.725  -6.701  19.543  1.00  0.00     0.158 A 
BRANCH  15  18
ATOM     18  O   UNL     1       9.759  -8.807  20.120  1.00  0.00    -0.504 OA
ATOM     19  H   UNL     1       9.832  -9.219  21.042  1.00  0.00     0.293 HD
ENDBRANCH  15  18
BRANCH  17  20
ATOM     20  O   UNL     1       7.510  -7.357  19.361  1.00  0.00    -0.504 OA
ATOM     21  H   UNL     1       6.868  -7.090  18.624  1.00  0.00     0.293 HD
ENDBRANCH  17  20
ENDBRANCH   1  12
BRANCH   6  22
ATOM     22  O   UNL     1      11.070   1.895  18.857  1.00  0.00    -0.507 OA
ATOM     23  H   UNL     1      11.077   2.842  18.511  1.00  0.00     0.293 HD
ENDBRANCH   6  22
BRANCH   8  24
ATOM     24  O   UNL     1       6.394   1.300  17.940  1.00  0.00    -0.508 OA
ATOM     25  H   UNL     1       5.675   0.758  17.476  1.00  0.00     0.293 HD
ENDBRANCH   8  24
TORSDOF 5
ENDMDL
MODEL 2
REMARK VINA RESULT:    -6.430      1.101      2.660
REMARK INTER + INTRA:          -7.876
REMARK INTER:                  -7.581
REMARK INTRA:                  -0.295
REMARK UNBOUND:                -0.318
REMARK SMILES O=c1cc(-c2ccc(O)c(O)c2)oc2cc(O)cc(O)c12
REMARK SMILES IDX 4 1 3 2 2 3 1 4 21 5 19 6 18 7 16 8 15 9 14 10 13 11 5 12
REMARK SMILES IDX 6 13 7 14 8 15 12 16 10 17 9 18 11 20 20 22 17 24
REMARK H PARENT 9 19 11 21 20 23 17 25
REMARK Flexibility Score: inf
ROOT
ATOM      1  C   UNL     1       9.239  -2.996  19.231  1.00  0.00     0.138 A 
ATOM      2  C   UNL     1       7.999  -2.440  18.891  1.00  0.00     0.100 A 
ATOM      3  C   UNL     1       7.896  -1.065  18.667  1.00  0.00     0.197 A 
ATOM      4  O   UNL     1       6.759  -0.588  18.418  1.00  0.00    -0.289 OA
ATOM      5  C   UNL     1       9.051  -0.252  18.749  1.00  0.00     0.107 A 
ATOM      6  C   UNL     1       9.074   1.156  18.508  1.00  0.00     0.134 A 
ATOM      7  C   UNL     1      10.260   1.871  18.716  1.00  0.00     0.093 A 
ATOM      8  C   UNL     1      11.436   1.224  19.101  1.00  0.00     0.123 A 
ATOM      9  C   UNL     1      11.436  -0.156  19.291  1.00  0.00     0.094 A 
ATOM     10  C   UNL     1      10.262  -0.894  19.125  1.00  0.00     0.146 A 
ATOM     11  O   UNL     1      10.302  -2.205  19.333  1.00  0.00    -0.456 OA
ENDROOT
BRANCH   1  12
ATOM     12  C   UNL     1       9.405  -4.451  19.477  1.00  0.00     0.021 A 
ATOM     13  C   UNL     1      10.666  -5.017  19.746  1.00  0.00     0.016 A 
ATOM     14  C   UNL     1      10.795  -6.391  19.963  1.00  0.00     0.051 A 
ATOM     15  C   UNL     1       9.671  -7.224  19.906  1.00  0.00     0.157 A 
ATOM     16  C   UNL     1       8.284  -5.298  19.409  1.00  0.00     0.062 A 
ATOM     17  C   UNL     1       8.413  -6.676  19.626  1.00  0.00     0.158 A 
BRANCH  15  18
ATOM     18  O   UNL     1       9.796  -8.595  20.122  1.00  0.00    -0.504 OA
ATOM     19  H   UNL     1      10.443  -8.967  20.808  1.00  0.00     0.293 HD
ENDBRANCH  15  18
BRANCH  17  20
ATOM     20  O   UNL     1       7.297  -7.508  19.566  1.00  0.00    -0.504 OA
ATOM     21  H   UNL     1       6.357  -7.132  19.516  1.00  0.00     0.293 HD
ENDBRANCH  17  20
ENDBRANCH   1  12
BRANCH   6  22
ATOM     22  O   UNL     1       7.978   1.890  18.044  1.00  0.00    -0.507 OA
ATOM     23  H   UNL     1       7.128   1.492  17.677  1.00  0.00     0.293 HD
ENDBRANCH   6  22
BRANCH   8  24
ATOM     24  O   UNL     1      12.614   1.943  19.292  1.00  0.00    -0.508 OA
ATOM     25  H   UNL     1      13.210   1.779  20.095  1.00  0.00     0.293 HD
ENDBRANCH   8  24
TORSDOF 5
ENDMDL
MODEL 3
REMARK VINA RESULT:    -6.146      2.280      3.302
REMARK INTER + INTRA:          -7.542
REMARK INTER:                  -7.248
REMARK INTRA:                  -0.295
REMARK UNBOUND:                -0.318
REMARK SMILES O=c1cc(-c2ccc(O)c(O)c2)oc2cc(O)cc(O)c12
REMARK SMILES IDX 4 1 3 2 2 3 1 4 21 5 19 6 18 7 16 8 15 9 14 10 13 11 5 12
REMARK SMILES IDX 6 13 7 14 8 15 12 16 10 17 9 18 11 20 20 22 17 24
REMARK H PARENT 9 19 11 21 20 23 17 25
REMARK Flexibility Score: inf
ROOT
ATOM      1  C   UNL     1      10.824  -3.794  19.678  1.00  0.00     0.138 A 
ATOM      2  C   UNL     1      12.145  -4.182  19.419  1.00  0.00     0.100 A 
ATOM      3  C   UNL     1      13.151  -3.216  19.359  1.00  0.00     0.197 A 
ATOM      4  O   UNL     1      14.317  -3.589  19.070  1.00  0.00    -0.289 OA
ATOM      5  C   UNL     1      12.835  -1.857  19.598  1.00  0.00     0.107 A 
ATOM      6  C   UNL     1      13.783  -0.789  19.598  1.00  0.00     0.134 A 
ATOM      7  C   UNL     1      13.335   0.530  19.750  1.00  0.00     0.093 A 
ATOM      8  C   UNL     1      11.984   0.814  19.959  1.00  0.00     0.123 A 
ATOM      9  C   UNL     1      11.058  -0.225  20.011  1.00  0.00     0.094 A 
ATOM     10  C   UNL     1      11.467  -1.548  19.828  1.00  0.00     0.146 A 
ATOM     11  O   UNL     1      10.549  -2.508  19.867  1.00  0.00    -0.456 OA
ENDROOT
BRANCH   1  12
ATOM     12  C   UNL     1       9.717  -4.780  19.755  1.00  0.00     0.021 A 
ATOM     13  C   UNL     1       8.379  -4.378  19.937  1.00  0.00     0.016 A 
ATOM     14  C   UNL     1       7.358  -5.329  20.016  1.00  0.00     0.051 A 
ATOM     15  C   UNL     1       7.655  -6.694  19.926  1.00  0.00     0.157 A 
ATOM     16  C   UNL     1      10.006  -6.154  19.678  1.00  0.00     0.062 A 
ATOM     17  C   UNL     1       8.983  -7.108  19.758  1.00  0.00     0.158 A 
BRANCH  15  18
ATOM     18  O   UNL     1       6.639  -7.645  20.004  1.00  0.00    -0.504 OA
ATOM     19  H   UNL     1       6.678  -8.507  19.474  1.00  0.00     0.293 HD
ENDBRANCH  15  18
BRANCH  17  20
ATOM     20  O   UNL     1       9.276  -8.467  19.672  1.00  0.00    -0.504 OA
ATOM     21  H   UNL     1       8.616  -9.128  19.277  1.00  0.00     0.293 HD
ENDBRANCH  17  20
ENDBRANCH   1  12
BRANCH   6  22
ATOM     22  O   UNL     1      15.164  -0.966  19.478  1.00  0.00    -0.507 OA
ATOM     23  H   UNL     1      15.759  -1.381  20.178  1.00  0.00     0.293 HD
ENDBRANCH   6  22
BRANCH   8  24
ATOM     24  O   UNL     1      11.550   2.128  20.124  1.00  0.00    -0.508 OA
ATOM     25  H   UNL     1      10.985   2.591  19.422  1.00  0.00     0.293 HD
ENDBRANCH   8  24
TORSDOF 5
ENDMDL
MODEL 4
REMARK VINA RESULT:    -5.947      1.397      6.726
REMARK INTER + INTRA:          -7.309
REMARK INTER:                  -6.992
REMARK INTRA:                  -0.316
REMARK UNBOUND:                -0.318
REMARK SMILES O=c1cc(-c2ccc(O)c(O)c2)oc2cc(O)cc(O)c12
REMARK SMILES IDX 4 1 3 2 2 3 1 4 21 5 19 6 18 7 16 8 15 9 14 10 13 11 5 12
REMARK SMILES IDX 6 13 7 14 8 15 12 16 10 17 9 18 11 20 20 22 17 24
REMARK H PARENT 9 19 11 21 20 23 17 25
REMARK Flexibility Score: inf
ROOT
ATOM      1  C   UNL     1       9.846  -1.997  19.303  1.00  0.00     0.138 A 
ATOM      2  C   UNL     1      11.176  -2.347  19.574  1.00  0.00     0.100 A 
ATOM      3  C   UNL     1      11.502  -3.682  19.821  1.00  0.00     0.197 A 
ATOM      4  O   UNL     1      12.694  -3.956  20.116  1.00  0.00    -0.289 OA
ATOM      5  C   UNL     1      10.496  -4.675  19.758  1.00  0.00     0.107 A 
ATOM      6  C   UNL     1      10.717  -6.072  19.957  1.00  0.00     0.134 A 
ATOM      7  C   UNL     1       9.624  -6.948  19.968  1.00  0.00     0.093 A 
ATOM      8  C   UNL     1       8.327  -6.487  19.731  1.00  0.00     0.123 A 
ATOM      9  C   UNL     1       8.107  -5.134  19.485  1.00  0.00     0.094 A 
ATOM     10  C   UNL     1       9.171  -4.229  19.502  1.00  0.00     0.146 A 
ATOM     11  O   UNL     1       8.915  -2.944  19.281  1.00  0.00    -0.456 OA
ENDROOT
BRANCH   1  12
ATOM     12  C   UNL     1       9.444  -0.594  19.030  1.00  0.00     0.021 A 
ATOM     13  C   UNL     1      10.313   0.487  19.276  1.00  0.00     0.016 A 
ATOM     14  C   UNL     1       9.903   1.798  19.019  1.00  0.00     0.051 A 
ATOM     15  C   UNL     1       8.620   2.053  18.522  1.00  0.00     0.157 A 
ATOM     16  C   UNL     1       8.152  -0.327  18.543  1.00  0.00     0.062 A 
ATOM     17  C   UNL     1       7.741   0.989  18.285  1.00  0.00     0.158 A 
BRANCH  15  18
ATOM     18  O   UNL     1       8.209   3.359  18.264  1.00  0.00    -0.504 OA
ATOM     19  H   UNL     1       7.637   3.586  17.459  1.00  0.00     0.293 HD
ENDBRANCH  15  18
BRANCH  17  20
ATOM     20  O   UNL     1       6.463   1.246  17.795  1.00  0.00    -0.504 OA
ATOM     21  H   UNL     1       6.038   2.162  17.876  1.00  0.00     0.293 HD
ENDBRANCH  17  20
ENDBRANCH   1  12
BRANCH   6  22
ATOM     22  O   UNL     1      11.979  -6.650  20.124  1.00  0.00    -0.507 OA
ATOM     23  H   UNL     1      12.491  -6.684  20.992  1.00  0.00     0.293 HD
ENDBRANCH   6  22
BRANCH   8  24
ATOM     24  O   UNL     1       7.248  -7.369  19.729  1.00  0.00    -0.508 OA
ATOM     25  H   UNL     1       6.413  -7.185  20.272  1.00  0.00     0.293 HD
ENDBRANCH   8  24
TORSDOF 5
ENDMDL
MODEL 5
REMARK VINA RESULT:    -5.744      3.046      5.432
REMARK INTER + INTRA:          -7.070
REMARK INTER:                  -6.752
REMARK INTRA:                  -0.318
REMARK UNBOUND:                -0.318
REMARK SMILES O=c1cc(-c2ccc(O)c(O)c2)oc2cc(O)cc(O)c12
REMARK SMILES IDX 4 1 3 2 2 3 1 4 21 5 19 6 18 7 16 8 15 9 14 10 13 11 5 12
REMARK SMILES IDX 6 13 7 14 8 15 12 16 10 17 9 18 11 20 20 22 17 24
REMARK H PARENT 9 19 11 21 20 23 17 25
REMARK Flexibility Score: inf
ROOT
ATOM      1  C   UNL     1      11.888  -4.018  19.696  1.00  0.00     0.138 A 
ATOM      2  C   UNL     1      11.772  -2.634  19.513  1.00  0.00     0.100 A 
ATOM      3  C   UNL     1      12.922  -1.843  19.467  1.00  0.00     0.197 A 
ATOM      4  O   UNL     1      12.782  -0.598  19.359  1.00  0.00    -0.289 OA
ATOM      5  C   UNL     1      14.196  -2.450  19.568  1.00  0.00     0.107 A 
ATOM      6  C   UNL     1      15.439  -1.750  19.500  1.00  0.00     0.134 A 
ATOM      7  C   UNL     1      16.635  -2.447  19.711  1.00  0.00     0.093 A 
ATOM      8  C   UNL     1      16.638  -3.827  19.930  1.00  0.00     0.123 A 
ATOM      9  C   UNL     1      15.434  -4.527  19.949  1.00  0.00     0.094 A 
ATOM     10  C   UNL     1      14.221  -3.856  19.776  1.00  0.00     0.146 A 
ATOM     11  O   UNL     1      13.095  -4.559  19.819  1.00  0.00    -0.456 OA
ENDROOT
BRANCH   1  12
ATOM     12  C   UNL     1      10.699  -4.906  19.749  1.00  0.00     0.021 A 
ATOM     13  C   UNL     1       9.389  -4.394  19.677  1.00  0.00     0.016 A 
ATOM     14  C   UNL     1       8.288  -5.253  19.739  1.00  0.00     0.051 A 
ATOM     15  C   UNL     1       8.475  -6.632  19.883  1.00  0.00     0.157 A 
ATOM     16  C   UNL     1      10.876  -6.292  19.906  1.00  0.00     0.062 A 
ATOM     17  C   UNL     1       9.772  -7.153  19.968  1.00  0.00     0.158 A 
BRANCH  15  18
ATOM     18  O   UNL     1       7.380  -7.491  19.945  1.00  0.00    -0.504 OA
ATOM     19  H   UNL     1       6.939  -7.850  19.106  1.00  0.00     0.293 HD
ENDBRANCH  15  18
BRANCH  17  20
ATOM     20  O   UNL     1       9.956  -8.527  20.116  1.00  0.00    -0.504 OA
ATOM     21  H   UNL     1      10.308  -9.099  19.357  1.00  0.00     0.293 HD
ENDBRANCH  17  20
ENDBRANCH   1  12
BRANCH   6  22
ATOM     22  O   UNL     1      15.556  -0.388  19.207  1.00  0.00    -0.507 OA
ATOM     23  H   UNL     1      16.357   0.044  18.773  1.00  0.00     0.293 HD
ENDBRANCH   6  22
BRANCH   8  24
ATOM     24  O   UNL     1      17.835  -4.514  20.125  1.00  0.00    -0.508 OA
ATOM     25  H   UNL     1      18.346  -4.917  19.349  1.00  0.00     0.293 HD
ENDBRANCH   8  24
TORSDOF 5
ENDMDL
MODEL 6
REMARK VINA RESULT:    -5.712      3.067      6.794
REMARK INTER + INTRA:          -7.032
REMARK INTER:                  -6.715
REMARK INTRA:                  -0.317
REMARK UNBOUND:                -0.318
REMARK SMILES O=c1cc(-c2ccc(O)c(O)c2)oc2cc(O)cc(O)c12
REMARK SMILES IDX 4 1 3 2 2 3 1 4 21 5 19 6 18 7 16 8 15 9 14 10 13 11 5 12
REMARK SMILES IDX 6 13 7 14 8 15 12 16 10 17 9 18 11 20 20 22 17 24
REMARK H PARENT 9 19 11 21 20 23 17 25
REMARK Flexibility Score: inf
ROOT
ATOM      1  C   UNL     1      12.520  -3.358  19.574  1.00  0.00     0.138 A 
ATOM      2  C   UNL     1      11.459  -2.517  19.216  1.00  0.00     0.100 A 
ATOM      3  C   UNL     1      10.167  -3.038  19.114  1.00  0.00     0.197 A 
ATOM      4  O   UNL     1       9.246  -2.271  18.736  1.00  0.00    -0.289 OA
ATOM      5  C   UNL     1       9.936  -4.403  19.409  1.00  0.00     0.107 A 
ATOM      6  C   UNL     1       8.657  -5.038  19.373  1.00  0.00     0.134 A 
ATOM      7  C   UNL     1       8.567  -6.419  19.589  1.00  0.00     0.093 A 
ATOM      8  C   UNL     1       9.699  -7.177  19.897  1.00  0.00     0.123 A 
ATOM      9  C   UNL     1      10.944  -6.559  19.984  1.00  0.00     0.094 A 
ATOM     10  C   UNL     1      11.073  -5.189  19.740  1.00  0.00     0.146 A 
ATOM     11  O   UNL     1      12.281  -4.642  19.815  1.00  0.00    -0.456 OA
ENDROOT
BRANCH   1  12
ATOM     12  C   UNL     1      13.912  -2.855  19.701  1.00  0.00     0.021 A 
ATOM     13  C   UNL     1      14.211  -1.480  19.642  1.00  0.00     0.016 A 
ATOM     14  C   UNL     1      15.531  -1.036  19.754  1.00  0.00     0.051 A 
ATOM     15  C   UNL     1      16.574  -1.955  19.918  1.00  0.00     0.157 A 
ATOM     16  C   UNL     1      14.968  -3.771  19.853  1.00  0.00     0.062 A 
ATOM     17  C   UNL     1      16.292  -3.326  19.966  1.00  0.00     0.158 A 
BRANCH  15  18
ATOM     18  O   UNL     1      17.892  -1.516  20.031  1.00  0.00    -0.504 OA
ATOM     19  H   UNL     1      18.147  -0.552  19.851  1.00  0.00     0.293 HD
ENDBRANCH  15  18
BRANCH  17  20
ATOM     20  O   UNL     1      17.333  -4.239  20.125  1.00  0.00    -0.504 OA
ATOM     21  H   UNL     1      18.264  -4.049  19.772  1.00  0.00     0.293 HD
ENDBRANCH  17  20
ENDBRANCH   1  12
BRANCH   6  22
ATOM     22  O   UNL     1       7.452  -4.363  19.154  1.00  0.00    -0.507 OA
ATOM     23  H   UNL     1       7.274  -3.402  19.400  1.00  0.00     0.293 HD
ENDBRANCH   6  22
BRANCH   8  24
ATOM     24  O   UNL     1       9.596  -8.548  20.125  1.00  0.00    -0.508 OA
ATOM     25  H   UNL     1       9.576  -9.212  19.360  1.00  0.00     0.293 HD
ENDBRANCH   8  24
TORSDOF 5
ENDMDL
MODEL 7
REMARK VINA RESULT:    -5.291      3.815      7.876
REMARK INTER + INTRA:          -6.537
REMARK INTER:                  -6.248
REMARK INTRA:                  -0.289
REMARK UNBOUND:                -0.318
REMARK SMILES O=c1cc(-c2ccc(O)c(O)c2)oc2cc(O)cc(O)c12
REMARK SMILES IDX 4 1 3 2 2 3 1 4 21 5 19 6 18 7 16 8 15 9 14 10 13 11 5 12
REMARK SMILES IDX 6 13 7 14 8 15 12 16 10 17 9 18 11 20 20 22 17 24
REMARK H PARENT 9 19 11 21 20 23 17 25
REMARK Flexibility Score: inf
ROOT
ATOM      1  C   UNL     1      13.097  -1.140  19.334  1.00  0.00     0.138 A 
ATOM      2  C   UNL     1      12.709  -2.487  19.338  1.00  0.00     0.100 A 
ATOM      3  C   UNL     1      13.671  -3.482  19.519  1.00  0.00     0.197 A 
ATOM      4  O   UNL     1      13.300  -4.683  19.461  1.00  0.00    -0.289 OA
ATOM      5  C   UNL     1      15.023  -3.123  19.735  1.00  0.00     0.107 A 
ATOM      6  C   UNL     1      16.085  -4.049  19.966  1.00  0.00     0.134 A 
ATOM      7  C   UNL     1      17.400  -3.578  20.069  1.00  0.00     0.093 A 
ATOM      8  C   UNL     1      17.685  -2.212  20.006  1.00  0.00     0.123 A 
ATOM      9  C   UNL     1      16.650  -1.297  19.832  1.00  0.00     0.094 A 
ATOM     10  C   UNL     1      15.331  -1.736  19.691  1.00  0.00     0.146 A 
ATOM     11  O   UNL     1      14.377  -0.830  19.508  1.00  0.00    -0.456 OA
ENDROOT
BRANCH   1  12
ATOM     12  C   UNL     1      12.115  -0.041  19.149  1.00  0.00     0.021 A 
ATOM     13  C   UNL     1      12.380   1.270  19.588  1.00  0.00     0.016 A 
ATOM     14  C   UNL     1      11.434   2.282  19.410  1.00  0.00     0.051 A 
ATOM     15  C   UNL     1      10.206   2.002  18.800  1.00  0.00     0.157 A 
ATOM     16  C   UNL     1      10.873  -0.316  18.549  1.00  0.00     0.062 A 
ATOM     17  C   UNL     1       9.924   0.700  18.370  1.00  0.00     0.158 A 
BRANCH  15  18
ATOM     18  O   UNL     1       9.260   3.009  18.620  1.00  0.00    -0.504 OA
ATOM     19  H   UNL     1       9.182   3.513  17.745  1.00  0.00     0.293 HD
ENDBRANCH  15  18
BRANCH  17  20
ATOM     20  O   UNL     1       8.699   0.422  17.767  1.00  0.00    -0.504 OA
ATOM     21  H   UNL     1       7.847   0.338  18.310  1.00  0.00     0.293 HD
ENDBRANCH  17  20
ENDBRANCH   1  12
BRANCH   6  22
ATOM     22  O   UNL     1      15.903  -5.426  20.125  1.00  0.00    -0.507 OA
ATOM     23  H   UNL     1      16.409  -6.139  19.623  1.00  0.00     0.293 HD
ENDBRANCH   6  22
BRANCH   8  24
ATOM     24  O   UNL     1      18.995  -1.753  20.124  1.00  0.00    -0.508 OA
ATOM     25  H   UNL     1      19.374  -1.063  19.486  1.00  0.00     0.293 HD
ENDBRANCH   8  24
TORSDOF 5
ENDMDL
MODEL 8
REMARK VINA RESULT:    -5.059      3.011      4.689
REMARK INTER + INTRA:          -6.265
REMARK INTER:                  -5.971
REMARK INTRA:                  -0.294
REMARK UNBOUND:                -0.318
REMARK SMILES O=c1cc(-c2ccc(O)c(O)c2)oc2cc(O)cc(O)c12
REMARK SMILES IDX 4 1 3 2 2 3 1 4 21 5 19 6 18 7 16 8 15 9 14 10 13 11 5 12
REMARK SMILES IDX 6 13 7 14 8 15 12 16 10 17 9 18 11 20 20 22 17 24
REMARK H PARENT 9 19 11 21 20 23 17 25
REMARK Flexibility Score: inf
ROOT
ATOM      1  C   UNL     1      10.862  -0.949  18.923  1.00  0.00     0.138 A 
ATOM      2  C   UNL     1       9.796  -1.835  18.720  1.00  0.00     0.100 A 
ATOM      3  C   UNL     1       8.510  -1.332  18.508  1.00  0.00     0.197 A 
ATOM      4  O   UNL     1       7.565  -2.153  18.386  1.00  0.00    -0.289 OA
ATOM      5  C   UNL     1       8.302   0.067  18.462  1.00  0.00     0.107 A 
ATOM      6  C   UNL     1       7.042   0.694  18.218  1.00  0.00     0.134 A 
ATOM      7  C   UNL     1       6.941   2.089  18.293  1.00  0.00     0.093 A 
ATOM      8  C   UNL     1       8.062   2.882  18.547  1.00  0.00     0.123 A 
ATOM      9  C   UNL     1       9.305   2.283  18.736  1.00  0.00     0.094 A 
ATOM     10  C   UNL     1       9.434   0.892  18.702  1.00  0.00     0.146 A 
ATOM     11  O   UNL     1      10.634   0.360  18.905  1.00  0.00    -0.456 OA
ENDROOT
BRANCH   1  12
ATOM     12  C   UNL     1      12.249  -1.428  19.149  1.00  0.00     0.021 A 
ATOM     13  C   UNL     1      13.295  -0.543  19.474  1.00  0.00     0.016 A 
ATOM     14  C   UNL     1      14.593  -1.022  19.672  1.00  0.00     0.051 A 
ATOM     15  C   UNL     1      14.871  -2.387  19.540  1.00  0.00     0.157 A 
ATOM     16  C   UNL     1      12.541  -2.797  19.006  1.00  0.00     0.062 A 
ATOM     17  C   UNL     1      13.842  -3.277  19.204  1.00  0.00     0.158 A 
BRANCH  15  18
ATOM     18  O   UNL     1      16.164  -2.867  19.737  1.00  0.00    -0.504 OA
ATOM     19  H   UNL     1      16.348  -3.855  19.870  1.00  0.00     0.293 HD
ENDBRANCH  15  18
BRANCH  17  20
ATOM     20  O   UNL     1      14.123  -4.635  19.069  1.00  0.00    -0.504 OA
ATOM     21  H   UNL     1      13.636  -5.212  18.393  1.00  0.00     0.293 HD
ENDBRANCH  17  20
ENDBRANCH   1  12
BRANCH   6  22
ATOM     22  O   UNL     1       5.875   0.004  17.877  1.00  0.00    -0.507 OA
ATOM     23  H   UNL     1       5.260  -0.453  18.532  1.00  0.00     0.293 HD
ENDBRANCH   6  22
BRANCH   8  24
ATOM     24  O   UNL     1       7.954   4.270  18.605  1.00  0.00    -0.508 OA
ATOM     25  H   UNL     1       7.381   4.785  17.947  1.00  0.00     0.293 HD
ENDBRANCH   8  24
TORSDOF 5
ENDMDL
