MODEL 1
REMARK VINA RESULT:    -5.698      0.000      0.000
REMARK INTER + INTRA:          -7.207
REMARK INTER:                  -6.863
REMARK INTRA:                  -0.343
REMARK UNBOUND:                -0.343
REMARK SMILES O=c1c(O)c(-c2ccc(O)cc2O)oc2cc(O)cc(O)c12
REMARK SMILES IDX 5 1 3 2 2 3 1 4 22 5 20 6 19 7 17 8 16 9 15 10 14 11 6 12
REMARK SMILES IDX 8 13 7 14 9 15 11 16 12 17 10 18 13 20 4 22 21 24 18 26
REMARK H PARENT 10 19 13 21 4 23 21 25 18 27
REMARK Flexibility Score: inf
ROOT
ATOM      1  C   UNL     1     -33.643   9.911 -39.035  1.00  0.00     0.184 A 
ATOM      2  C   UNL     1     -32.688   9.407 -39.932  1.00  0.00     0.208 A 
ATOM      3  C   UNL     1     -33.029   9.278 -41.287  1.00  0.00     0.238 A 
ATOM      4  O   UNL     1     -32.151   8.875 -42.095  1.00  0.00    -0.285 OA
ATOM      5  C   UNL     1     -34.326   9.640 -41.724  1.00  0.00     0.111 A 
ATOM      6  C   UNL     1     -34.794   9.514 -43.067  1.00  0.00     0.134 A 
ATOM      7  C   UNL     1     -36.051  10.024 -43.412  1.00  0.00     0.093 A 
ATOM      8  C   UNL     1     -36.883  10.597 -42.452  1.00  0.00     0.123 A 
ATOM      9  C   UNL     1     -36.461  10.673 -41.123  1.00  0.00     0.094 A 
ATOM     10  C   UNL     1     -35.197  10.205 -40.756  1.00  0.00     0.146 A 
ATOM     11  O   UNL     1     -34.829  10.305 -39.484  1.00  0.00    -0.451 OA
ENDROOT
BRANCH   1  12
ATOM     12  C   UNL     1     -33.355  10.057 -37.593  1.00  0.00     0.063 A 
ATOM     13  C   UNL     1     -32.740   9.020 -35.481  1.00  0.00     0.047 A 
ATOM     14  C   UNL     1     -33.025   8.916 -36.845  1.00  0.00     0.020 A 
ATOM     15  C   UNL     1     -32.769  10.270 -34.850  1.00  0.00     0.119 A 
ATOM     16  C   UNL     1     -33.074  11.415 -35.592  1.00  0.00     0.093 A 
ATOM     17  C   UNL     1     -33.355  11.320 -36.963  1.00  0.00     0.130 A 
BRANCH  15  18
ATOM     18  O   UNL     1     -32.491  10.385 -33.490  1.00  0.00    -0.508 OA
ATOM     19  H   UNL     1     -33.177  10.138 -32.787  1.00  0.00     0.293 HD
ENDBRANCH  15  18
BRANCH  17  20
ATOM     20  O   UNL     1     -33.609  12.476 -37.701  1.00  0.00    -0.507 OA
ATOM     21  H   UNL     1     -33.547  12.486 -38.712  1.00  0.00     0.293 HD
ENDBRANCH  17  20
ENDBRANCH   1  12
BRANCH   2  22
ATOM     22  O   UNL     1     -31.410   9.074 -39.476  1.00  0.00    -0.502 OA
ATOM     23  H   UNL     1     -30.619   8.974 -40.101  1.00  0.00     0.293 HD
ENDBRANCH   2  22
BRANCH   6  24
ATOM     24  O   UNL     1     -34.079   8.875 -44.085  1.00  0.00    -0.507 OA
ATOM     25  H   UNL     1     -33.819   9.302 -44.961  1.00  0.00     0.293 HD
ENDBRANCH   6  24
BRANCH   8  26
ATOM     26  O   UNL     1     -38.135  11.081 -42.827  1.00  0.00    -0.508 OA
ATOM     27  H   UNL     1     -38.951  10.481 -42.849  1.00  0.00     0.293 HD
ENDBRANCH   8  26
TORSDOF 6
ENDMDL
MODEL 2
REMARK VINA RESULT:    -5.454      1.543      6.456
REMARK INTER + INTRA:          -6.914
REMARK INTER:                  -6.833
REMARK INTRA:                  -0.081
REMARK UNBOUND:                -0.343
REMARK SMILES O=c1c(O)c(-c2ccc(O)cc2O)oc2cc(O)cc(O)c12
REMARK SMILES IDX 5 1 3 2 2 3 1 4 22 5 20 6 19 7 17 8 16 9 15 10 14 11 6 12
REMARK SMILES IDX 8 13 7 14 9 15 11 16 12 17 10 18 13 20 4 22 21 24 18 26
REMARK H PARENT 10 19 13 21 4 23 21 25 18 27
REMARK Flexibility Score: inf
ROOT
ATOM      1  C   UNL     1     -33.779  10.406 -39.158  1.00  0.00     0.184 A 
ATOM      2  C   UNL     1     -32.550   9.736 -39.050  1.00  0.00     0.208 A 
ATOM      3  C   UNL     1     -31.843   9.801 -37.840  1.00  0.00     0.238 A 
ATOM      4  O   UNL     1     -30.767   9.155 -37.733  1.00  0.00    -0.285 OA
ATOM      5  C   UNL     1     -32.367  10.550 -36.758  1.00  0.00     0.111 A 
ATOM      6  C   UNL     1     -31.717  10.718 -35.499  1.00  0.00     0.134 A 
ATOM      7  C   UNL     1     -32.387  11.371 -34.457  1.00  0.00     0.093 A 
ATOM      8  C   UNL     1     -33.655  11.917 -34.647  1.00  0.00     0.123 A 
ATOM      9  C   UNL     1     -34.277  11.810 -35.893  1.00  0.00     0.094 A 
ATOM     10  C   UNL     1     -33.648  11.133 -36.941  1.00  0.00     0.146 A 
ATOM     11  O   UNL     1     -34.278  11.044 -38.106  1.00  0.00    -0.451 OA
ENDROOT
BRANCH   1  12
ATOM     12  C   UNL     1     -34.566  10.391 -40.408  1.00  0.00     0.063 A 
ATOM     13  C   UNL     1     -35.476   9.127 -42.276  1.00  0.00     0.047 A 
ATOM     14  C   UNL     1     -34.732   9.177 -41.094  1.00  0.00     0.020 A 
ATOM     15  C   UNL     1     -36.074  10.288 -42.780  1.00  0.00     0.119 A 
ATOM     16  C   UNL     1     -35.933  11.496 -42.092  1.00  0.00     0.093 A 
ATOM     17  C   UNL     1     -35.194  11.554 -40.901  1.00  0.00     0.130 A 
BRANCH  15  18
ATOM     18  O   UNL     1     -36.814  10.250 -43.960  1.00  0.00    -0.508 OA
ATOM     19  H   UNL     1     -37.826  10.227 -43.949  1.00  0.00     0.293 HD
ENDBRANCH  15  18
BRANCH  17  20
ATOM     20  O   UNL     1     -35.103  12.756 -40.199  1.00  0.00    -0.507 OA
ATOM     21  H   UNL     1     -35.914  13.345 -40.047  1.00  0.00     0.293 HD
ENDBRANCH  17  20
ENDBRANCH   1  12
BRANCH   2  22
ATOM     22  O   UNL     1     -32.065   8.991 -40.128  1.00  0.00    -0.502 OA
ATOM     23  H   UNL     1     -31.552   8.126 -40.004  1.00  0.00     0.293 HD
ENDBRANCH   2  22
BRANCH   6  24
ATOM     24  O   UNL     1     -30.413  10.291 -35.231  1.00  0.00    -0.507 OA
ATOM     25  H   UNL     1     -30.149   9.338 -35.031  1.00  0.00     0.293 HD
ENDBRANCH   6  24
BRANCH   8  26
ATOM     26  O   UNL     1     -34.287  12.573 -33.592  1.00  0.00    -0.508 OA
ATOM     27  H   UNL     1     -34.760  13.459 -33.727  1.00  0.00     0.293 HD
ENDBRANCH   8  26
TORSDOF 6
ENDMDL
MODEL 3
REMARK VINA RESULT:    -3.565      2.491      4.192
REMARK INTER + INTRA:          -4.638
REMARK INTER:                  -4.398
REMARK INTRA:                  -0.240
REMARK UNBOUND:                -0.343
REMARK SMILES O=c1c(O)c(-c2ccc(O)cc2O)oc2cc(O)cc(O)c12
REMARK SMILES IDX 5 1 3 2 2 3 1 4 22 5 20 6 19 7 17 8 16 9 15 10 14 11 6 12
REMARK SMILES IDX 8 13 7 14 9 15 11 16 12 17 10 18 13 20 4 22 21 24 18 26
REMARK H PARENT 10 19 13 21 4 23 21 25 18 27
REMARK Flexibility Score: inf
ROOT
ATOM      1  C   UNL     1     -32.768  11.569 -35.536  1.00  0.00     0.184 A 
ATOM      2  C   UNL     1     -32.067  10.402 -35.878  1.00  0.00     0.208 A 
ATOM      3  C   UNL     1     -32.185   9.893 -37.180  1.00  0.00     0.238 A 
ATOM      4  O   UNL     1     -31.513   8.876 -37.496  1.00  0.00    -0.285 OA
ATOM      5  C   UNL     1     -33.017  10.550 -38.120  1.00  0.00     0.111 A 
ATOM      6  C   UNL     1     -33.244  10.101 -39.455  1.00  0.00     0.134 A 
ATOM      7  C   UNL     1     -33.982  10.900 -40.337  1.00  0.00     0.093 A 
ATOM      8  C   UNL     1     -34.555  12.099 -39.915  1.00  0.00     0.123 A 
ATOM      9  C   UNL     1     -34.390  12.519 -38.593  1.00  0.00     0.094 A 
ATOM     10  C   UNL     1     -33.628  11.761 -37.700  1.00  0.00     0.146 A 
ATOM     11  O   UNL     1     -33.487  12.202 -36.456  1.00  0.00    -0.451 OA
ENDROOT
BRANCH   1  12
ATOM     12  C   UNL     1     -32.699  12.148 -34.179  1.00  0.00     0.063 A 
ATOM     13  C   UNL     1     -31.343  13.005 -32.351  1.00  0.00     0.047 A 
ATOM     14  C   UNL     1     -31.443  12.451 -33.630  1.00  0.00     0.020 A 
ATOM     15  C   UNL     1     -32.500  13.275 -31.609  1.00  0.00     0.119 A 
ATOM     16  C   UNL     1     -33.756  12.998 -32.157  1.00  0.00     0.093 A 
ATOM     17  C   UNL     1     -33.865  12.448 -33.443  1.00  0.00     0.130 A 
BRANCH  15  18
ATOM     18  O   UNL     1     -32.412  13.824 -30.332  1.00  0.00    -0.508 OA
ATOM     19  H   UNL     1     -31.802  14.608 -30.133  1.00  0.00     0.293 HD
ENDBRANCH  15  18
BRANCH  17  20
ATOM     20  O   UNL     1     -35.126  12.223 -33.996  1.00  0.00    -0.507 OA
ATOM     21  H   UNL     1     -35.241  11.727 -34.872  1.00  0.00     0.293 HD
ENDBRANCH  17  20
ENDBRANCH   1  12
BRANCH   2  22
ATOM     22  O   UNL     1     -31.240   9.783 -34.936  1.00  0.00    -0.502 OA
ATOM     23  H   UNL     1     -30.572  10.300 -34.376  1.00  0.00     0.293 HD
ENDBRANCH   2  22
BRANCH   6  24
ATOM     24  O   UNL     1     -32.793   8.875 -39.953  1.00  0.00    -0.507 OA
ATOM     25  H   UNL     1     -33.132   8.436 -40.795  1.00  0.00     0.293 HD
ENDBRANCH   6  24
BRANCH   8  26
ATOM     26  O   UNL     1     -35.297  12.861 -40.815  1.00  0.00    -0.508 OA
ATOM     27  H   UNL     1     -36.300  12.963 -40.723  1.00  0.00     0.293 HD
ENDBRANCH   8  26
TORSDOF 6
ENDMDL
