MODEL 1
REMARK VINA RESULT:    -3.946      0.000      0.000
REMARK INTER + INTRA:          -7.901
REMARK INTER:                  -6.714
REMARK INTRA:                  -1.188
REMARK UNBOUND:                -1.188
REMARK SMILES CCCCCCCCCCCCCC(=O)[O-]
REMARK SMILES IDX 8 1 9 2 10 3 11 4 12 5 13 6 14 7 15 8 16 9 7 10 6 11 5 12
REMARK SMILES IDX 4 13 3 14 2 15 1 16
REMARK H PARENT
REMARK Flexibility Score: inf
ROOT
ATOM      1  C   UNL     1      -4.767  24.216   0.102  1.00  0.00     0.000 C 
ENDROOT
BRANCH   1   2
ATOM      2  C   UNL     1      -3.348  24.786  -0.051  1.00  0.00     0.000 C 
BRANCH   2   3
ATOM      3  C   UNL     1      -3.241  26.252   0.405  1.00  0.00     0.000 C 
BRANCH   3   4
ATOM      4  C   UNL     1      -2.667  26.337   1.828  1.00  0.00     0.000 C 
BRANCH   4   5
ATOM      5  C   UNL     1      -3.421  27.338   2.722  1.00  0.00     0.006 C 
BRANCH   5   6
ATOM      6  C   UNL     1      -2.929  28.789   2.606  1.00  0.00     0.053 C 
BRANCH   6   7
ATOM      7  C   UNL     1      -2.025  29.170   3.739  1.00  0.00     0.041 C 
ATOM      8  O   UNL     1      -2.514  29.525   4.848  1.00  0.00    -0.550 OA
ATOM      9  O   UNL     1      -0.646  29.088   3.588  1.00  0.00    -0.550 OA
ENDBRANCH   6   7
ENDBRANCH   5   6
ENDBRANCH   4   5
ENDBRANCH   3   4
ENDBRANCH   2   3
ENDBRANCH   1   2
BRANCH   1  10
ATOM     10  C   UNL     1      -5.017  23.608   1.492  1.00  0.00     0.000 C 
BRANCH  10  11
ATOM     11  C   UNL     1      -6.340  24.093   2.117  1.00  0.00    -0.000 C 
BRANCH  11  12
ATOM     12  C   UNL     1      -6.663  25.584   1.874  1.00  0.00    -0.000 C 
BRANCH  12  13
ATOM     13  C   UNL     1      -7.590  26.230   2.921  1.00  0.00    -0.000 C 
BRANCH  13  14
ATOM     14  C   UNL     1      -6.954  26.306   4.319  1.00  0.00    -0.000 C 
BRANCH  14  15
ATOM     15  C   UNL     1      -7.836  25.668   5.403  1.00  0.00    -0.003 C 
ATOM     16  C   UNL     1      -7.272  25.866   6.813  1.00  0.00     0.004 C 
ENDBRANCH  14  15
ENDBRANCH  13  14
ENDBRANCH  12  13
ENDBRANCH  11  12
ENDBRANCH  10  11
ENDBRANCH   1  10
TORSDOF 12
ENDMDL
MODEL 2
REMARK VINA RESULT:    -3.919      3.674      5.950
REMARK INTER + INTRA:          -7.856
REMARK INTER:                  -6.202
REMARK INTRA:                  -1.653
REMARK UNBOUND:                -1.188
REMARK SMILES CCCCCCCCCCCCCC(=O)[O-]
REMARK SMILES IDX 8 1 9 2 10 3 11 4 12 5 13 6 14 7 15 8 16 9 7 10 6 11 5 12
REMARK SMILES IDX 4 13 3 14 2 15 1 16
REMARK H PARENT
REMARK Flexibility Score: inf
ROOT
ATOM      1  C   UNL     1      -2.225  26.170   1.153  1.00  0.00     0.000 C 
ENDROOT
BRANCH   1   2
ATOM      2  C   UNL     1      -2.357  24.754   0.571  1.00  0.00     0.000 C 
BRANCH   2   3
ATOM      3  C   UNL     1      -3.729  24.501  -0.079  1.00  0.00     0.000 C 
BRANCH   3   4
ATOM      4  C   UNL     1      -4.484  23.389   0.665  1.00  0.00     0.000 C 
BRANCH   4   5
ATOM      5  C   UNL     1      -5.389  23.924   1.790  1.00  0.00     0.006 C 
BRANCH   5   6
ATOM      6  C   UNL     1      -6.281  25.106   1.379  1.00  0.00     0.053 C 
BRANCH   6   7
ATOM      7  C   UNL     1      -7.731  24.729   1.335  1.00  0.00     0.041 C 
ATOM      8  O   UNL     1      -8.118  23.783   0.595  1.00  0.00    -0.550 OA
ATOM      9  O   UNL     1      -8.647  25.389   2.146  1.00  0.00    -0.550 OA
ENDBRANCH   6   7
ENDBRANCH   5   6
ENDBRANCH   4   5
ENDBRANCH   3   4
ENDBRANCH   2   3
ENDBRANCH   1   2
BRANCH   1  10
ATOM     10  C   UNL     1      -2.718  26.264   2.607  1.00  0.00     0.000 C 
BRANCH  10  11
ATOM     11  C   UNL     1      -3.583  27.515   2.855  1.00  0.00    -0.000 C 
BRANCH  11  12
ATOM     12  C   UNL     1      -4.045  28.248   1.576  1.00  0.00    -0.000 C 
BRANCH  12  13
ATOM     13  C   UNL     1      -3.689  29.746   1.518  1.00  0.00    -0.000 C 
BRANCH  13  14
ATOM     14  C   UNL     1      -2.698  30.169   2.615  1.00  0.00    -0.000 C 
BRANCH  14  15
ATOM     15  C   UNL     1      -1.315  30.530   2.053  1.00  0.00    -0.003 C 
ATOM     16  C   UNL     1      -0.432  29.300   1.824  1.00  0.00     0.004 C 
ENDBRANCH  14  15
ENDBRANCH  13  14
ENDBRANCH  12  13
ENDBRANCH  11  12
ENDBRANCH  10  11
ENDBRANCH   1  10
TORSDOF 12
ENDMDL
MODEL 3
REMARK VINA RESULT:    -3.822      3.010      5.978
REMARK INTER + INTRA:          -7.691
REMARK INTER:                  -5.831
REMARK INTRA:                  -1.860
REMARK UNBOUND:                -1.188
REMARK SMILES CCCCCCCCCCCCCC(=O)[O-]
REMARK SMILES IDX 8 1 9 2 10 3 11 4 12 5 13 6 14 7 15 8 16 9 7 10 6 11 5 12
REMARK SMILES IDX 4 13 3 14 2 15 1 16
REMARK H PARENT
REMARK Flexibility Score: inf
ROOT
ATOM      1  C   UNL     1      -2.997  26.824  -0.081  1.00  0.00     0.000 C 
ENDROOT
BRANCH   1   2
ATOM      2  C   UNL     1      -1.960  26.678   1.044  1.00  0.00     0.000 C 
BRANCH   2   3
ATOM      3  C   UNL     1      -2.536  27.009   2.433  1.00  0.00     0.000 C 
BRANCH   3   4
ATOM      4  C   UNL     1      -3.328  25.816   2.990  1.00  0.00     0.000 C 
BRANCH   4   5
ATOM      5  C   UNL     1      -4.771  26.183   3.382  1.00  0.00     0.006 C 
BRANCH   5   6
ATOM      6  C   UNL     1      -5.854  25.503   2.529  1.00  0.00     0.053 C 
BRANCH   6   7
ATOM      7  C   UNL     1      -6.399  26.419   1.476  1.00  0.00     0.041 C 
ATOM      8  O   UNL     1      -6.257  27.668   1.587  1.00  0.00    -0.550 OA
ATOM      9  O   UNL     1      -7.021  25.894   0.349  1.00  0.00    -0.550 OA
ENDBRANCH   6   7
ENDBRANCH   5   6
ENDBRANCH   4   5
ENDBRANCH   3   4
ENDBRANCH   2   3
ENDBRANCH   1   2
BRANCH   1  10
ATOM     10  C   UNL     1      -2.979  25.642  -1.065  1.00  0.00     0.000 C 
BRANCH  10  11
ATOM     11  C   UNL     1      -3.965  24.528  -0.664  1.00  0.00    -0.000 C 
BRANCH  11  12
ATOM     12  C   UNL     1      -3.353  23.397   0.193  1.00  0.00    -0.000 C 
BRANCH  12  13
ATOM     13  C   UNL     1      -2.121  22.707  -0.421  1.00  0.00    -0.000 C 
BRANCH  13  14
ATOM     14  C   UNL     1      -0.793  23.236   0.148  1.00  0.00    -0.000 C 
BRANCH  14  15
ATOM     15  C   UNL     1       0.282  23.417  -0.935  1.00  0.00    -0.003 C 
ATOM     16  C   UNL     1       0.665  24.885  -1.143  1.00  0.00     0.004 C 
ENDBRANCH  14  15
ENDBRANCH  13  14
ENDBRANCH  12  13
ENDBRANCH  11  12
ENDBRANCH  10  11
ENDBRANCH   1  10
TORSDOF 12
ENDMDL
MODEL 4
REMARK VINA RESULT:    -3.787      2.732      5.379
REMARK INTER + INTRA:          -7.632
REMARK INTER:                  -6.219
REMARK INTRA:                  -1.413
REMARK UNBOUND:                -1.188
REMARK SMILES CCCCCCCCCCCCCC(=O)[O-]
REMARK SMILES IDX 8 1 9 2 10 3 11 4 12 5 13 6 14 7 15 8 16 9 7 10 6 11 5 12
REMARK SMILES IDX 4 13 3 14 2 15 1 16
REMARK H PARENT
REMARK Flexibility Score: inf
ROOT
ATOM      1  C   UNL     1      -4.311  25.197   1.695  1.00  0.00     0.000 C 
ENDROOT
BRANCH   1   2
ATOM      2  C   UNL     1      -5.298  24.030   1.857  1.00  0.00     0.000 C 
BRANCH   2   3
ATOM      3  C   UNL     1      -6.769  24.480   1.795  1.00  0.00     0.000 C 
BRANCH   3   4
ATOM      4  C   UNL     1      -6.864  26.009   1.676  1.00  0.00     0.000 C 
BRANCH   4   5
ATOM      5  C   UNL     1      -7.350  26.684   2.971  1.00  0.00     0.006 C 
BRANCH   5   6
ATOM      6  C   UNL     1      -7.864  25.709   4.042  1.00  0.00     0.053 C 
BRANCH   6   7
ATOM      7  C   UNL     1      -7.232  25.954   5.378  1.00  0.00     0.041 C 
ATOM      8  O   UNL     1      -6.094  26.493   5.451  1.00  0.00    -0.550 OA
ATOM      9  O   UNL     1      -7.919  25.633   6.543  1.00  0.00    -0.550 OA
ENDBRANCH   6   7
ENDBRANCH   5   6
ENDBRANCH   4   5
ENDBRANCH   3   4
ENDBRANCH   2   3
ENDBRANCH   1   2
BRANCH   1  10
ATOM     10  C   UNL     1      -3.528  25.497   2.985  1.00  0.00     0.000 C 
BRANCH  10  11
ATOM     11  C   UNL     1      -2.959  26.929   3.007  1.00  0.00    -0.000 C 
BRANCH  11  12
ATOM     12  C   UNL     1      -3.747  27.953   2.161  1.00  0.00    -0.000 C 
BRANCH  12  13
ATOM     13  C   UNL     1      -2.971  28.553   0.973  1.00  0.00    -0.000 C 
BRANCH  13  14
ATOM     14  C   UNL     1      -3.894  29.123  -0.118  1.00  0.00    -0.000 C 
BRANCH  14  15
ATOM     15  C   UNL     1      -5.286  29.488   0.419  1.00  0.00    -0.003 C 
ATOM     16  C   UNL     1      -5.619  30.971   0.234  1.00  0.00     0.004 C 
ENDBRANCH  14  15
ENDBRANCH  13  14
ENDBRANCH  12  13
ENDBRANCH  11  12
ENDBRANCH  10  11
ENDBRANCH   1  10
TORSDOF 12
ENDMDL
MODEL 5
REMARK VINA RESULT:    -3.777      3.498      6.298
REMARK INTER + INTRA:          -7.615
REMARK INTER:                  -6.023
REMARK INTRA:                  -1.592
REMARK UNBOUND:                -1.188
REMARK SMILES CCCCCCCCCCCCCC(=O)[O-]
REMARK SMILES IDX 8 1 9 2 10 3 11 4 12 5 13 6 14 7 15 8 16 9 7 10 6 11 5 12
REMARK SMILES IDX 4 13 3 14 2 15 1 16
REMARK H PARENT
REMARK Flexibility Score: inf
ROOT
ATOM      1  C   UNL     1      -2.515  26.851  -0.117  1.00  0.00     0.000 C 
ENDROOT
BRANCH   1   2
ATOM      2  C   UNL     1      -3.410  27.297   1.051  1.00  0.00     0.000 C 
BRANCH   2   3
ATOM      3  C   UNL     1      -2.907  26.791   2.415  1.00  0.00     0.000 C 
BRANCH   3   4
ATOM      4  C   UNL     1      -3.693  25.547   2.855  1.00  0.00     0.000 C 
BRANCH   4   5
ATOM      5  C   UNL     1      -4.985  25.334   2.046  1.00  0.00     0.006 C 
BRANCH   5   6
ATOM      6  C   UNL     1      -6.279  25.535   2.850  1.00  0.00     0.053 C 
BRANCH   6   7
ATOM      7  C   UNL     1      -7.466  24.922   2.171  1.00  0.00     0.041 C 
ATOM      8  O   UNL     1      -8.602  25.463   2.270  1.00  0.00    -0.550 OA
ATOM      9  O   UNL     1      -7.311  23.782   1.391  1.00  0.00    -0.550 OA
ENDBRANCH   6   7
ENDBRANCH   5   6
ENDBRANCH   4   5
ENDBRANCH   3   4
ENDBRANCH   2   3
ENDBRANCH   1   2
BRANCH   1  10
ATOM     10  C   UNL     1      -1.121  26.391   0.344  1.00  0.00     0.000 C 
BRANCH  10  11
ATOM     11  C   UNL     1      -0.243  25.914  -0.829  1.00  0.00    -0.000 C 
BRANCH  11  12
ATOM     12  C   UNL     1       0.091  24.406  -0.817  1.00  0.00    -0.000 C 
BRANCH  12  13
ATOM     13  C   UNL     1      -0.637  23.584   0.263  1.00  0.00    -0.000 C 
BRANCH  13  14
ATOM     14  C   UNL     1      -1.684  22.621  -0.321  1.00  0.00    -0.000 C 
BRANCH  14  15
ATOM     15  C   UNL     1      -3.121  23.019   0.047  1.00  0.00    -0.003 C 
ATOM     16  C   UNL     1      -3.931  23.490  -1.164  1.00  0.00     0.004 C 
ENDBRANCH  14  15
ENDBRANCH  13  14
ENDBRANCH  12  13
ENDBRANCH  11  12
ENDBRANCH  10  11
ENDBRANCH   1  10
TORSDOF 12
ENDMDL
MODEL 6
REMARK VINA RESULT:    -3.736      1.526      2.354
REMARK INTER + INTRA:          -7.545
REMARK INTER:                  -6.050
REMARK INTRA:                  -1.495
REMARK UNBOUND:                -1.188
REMARK SMILES CCCCCCCCCCCCCC(=O)[O-]
REMARK SMILES IDX 8 1 9 2 10 3 11 4 12 5 13 6 14 7 15 8 16 9 7 10 6 11 5 12
REMARK SMILES IDX 4 13 3 14 2 15 1 16
REMARK H PARENT
REMARK Flexibility Score: inf
ROOT
ATOM      1  C   UNL     1      -3.407  26.414   2.065  1.00  0.00     0.000 C 
ENDROOT
BRANCH   1   2
ATOM      2  C   UNL     1      -4.156  27.042   0.879  1.00  0.00     0.000 C 
BRANCH   2   3
ATOM      3  C   UNL     1      -4.758  28.419   1.215  1.00  0.00     0.000 C 
BRANCH   3   4
ATOM      4  C   UNL     1      -3.898  29.546   0.623  1.00  0.00     0.000 C 
BRANCH   4   5
ATOM      5  C   UNL     1      -3.519  30.622   1.657  1.00  0.00     0.006 C 
BRANCH   5   6
ATOM      6  C   UNL     1      -2.688  30.100   2.840  1.00  0.00     0.053 C 
BRANCH   6   7
ATOM      7  C   UNL     1      -1.250  29.896   2.471  1.00  0.00     0.041 C 
ATOM      8  O   UNL     1      -0.692  28.786   2.690  1.00  0.00    -0.550 OA
ATOM      9  O   UNL     1      -0.540  30.913   1.845  1.00  0.00    -0.550 OA
ENDBRANCH   6   7
ENDBRANCH   5   6
ENDBRANCH   4   5
ENDBRANCH   3   4
ENDBRANCH   2   3
ENDBRANCH   1   2
BRANCH   1  10
ATOM     10  C   UNL     1      -4.108  25.158   2.612  1.00  0.00     0.000 C 
BRANCH  10  11
ATOM     11  C   UNL     1      -5.010  24.483   1.561  1.00  0.00    -0.000 C 
BRANCH  11  12
ATOM     12  C   UNL     1      -6.425  24.114   2.062  1.00  0.00    -0.000 C 
BRANCH  12  13
ATOM     13  C   UNL     1      -7.524  25.139   1.728  1.00  0.00    -0.000 C 
BRANCH  13  14
ATOM     14  C   UNL     1      -7.562  26.319   2.714  1.00  0.00    -0.000 C 
BRANCH  14  15
ATOM     15  C   UNL     1      -7.953  25.886   4.136  1.00  0.00    -0.003 C 
ATOM     16  C   UNL     1      -6.874  26.220   5.170  1.00  0.00     0.004 C 
ENDBRANCH  14  15
ENDBRANCH  13  14
ENDBRANCH  12  13
ENDBRANCH  11  12
ENDBRANCH  10  11
ENDBRANCH   1  10
TORSDOF 12
ENDMDL
MODEL 7
REMARK VINA RESULT:    -3.728      2.383      5.399
REMARK INTER + INTRA:          -7.530
REMARK INTER:                  -6.237
REMARK INTRA:                  -1.293
REMARK UNBOUND:                -1.188
REMARK SMILES CCCCCCCCCCCCCC(=O)[O-]
REMARK SMILES IDX 8 1 9 2 10 3 11 4 12 5 13 6 14 7 15 8 16 9 7 10 6 11 5 12
REMARK SMILES IDX 4 13 3 14 2 15 1 16
REMARK H PARENT
REMARK Flexibility Score: inf
ROOT
ATOM      1  C   UNL     1      -3.429  25.051   1.298  1.00  0.00     0.000 C 
ENDROOT
BRANCH   1   2
ATOM      2  C   UNL     1      -4.731  24.359   0.864  1.00  0.00     0.000 C 
BRANCH   2   3
ATOM      3  C   UNL     1      -5.633  23.985   2.054  1.00  0.00     0.000 C 
BRANCH   3   4
ATOM      4  C   UNL     1      -6.939  24.794   2.019  1.00  0.00     0.000 C 
BRANCH   4   5
ATOM      5  C   UNL     1      -7.485  25.117   3.422  1.00  0.00     0.006 C 
BRANCH   5   6
ATOM      6  C   UNL     1      -6.781  26.289   4.123  1.00  0.00     0.053 C 
BRANCH   6   7
ATOM      7  C   UNL     1      -6.908  26.212   5.614  1.00  0.00     0.041 C 
ATOM      8  O   UNL     1      -7.740  25.422   6.139  1.00  0.00    -0.550 OA
ATOM      9  O   UNL     1      -6.077  26.976   6.424  1.00  0.00    -0.550 OA
ENDBRANCH   6   7
ENDBRANCH   5   6
ENDBRANCH   4   5
ENDBRANCH   3   4
ENDBRANCH   2   3
ENDBRANCH   1   2
BRANCH   1  10
ATOM     10  C   UNL     1      -3.424  25.427   2.790  1.00  0.00     0.000 C 
BRANCH  10  11
ATOM     11  C   UNL     1      -3.160  26.928   3.018  1.00  0.00    -0.000 C 
BRANCH  11  12
ATOM     12  C   UNL     1      -4.029  27.876   2.162  1.00  0.00    -0.000 C 
BRANCH  12  13
ATOM     13  C   UNL     1      -3.246  28.805   1.216  1.00  0.00    -0.000 C 
BRANCH  13  14
ATOM     14  C   UNL     1      -2.901  30.160   1.859  1.00  0.00    -0.000 C 
BRANCH  14  15
ATOM     15  C   UNL     1      -1.394  30.457   1.833  1.00  0.00    -0.003 C 
ATOM     16  C   UNL     1      -0.601  29.568   2.795  1.00  0.00     0.004 C 
ENDBRANCH  14  15
ENDBRANCH  13  14
ENDBRANCH  12  13
ENDBRANCH  11  12
ENDBRANCH  10  11
ENDBRANCH   1  10
TORSDOF 12
ENDMDL
MODEL 8
REMARK VINA RESULT:    -3.691      2.685      5.614
REMARK INTER + INTRA:          -7.468
REMARK INTER:                  -5.812
REMARK INTRA:                  -1.656
REMARK UNBOUND:                -1.188
REMARK SMILES CCCCCCCCCCCCCC(=O)[O-]
REMARK SMILES IDX 8 1 9 2 10 3 11 4 12 5 13 6 14 7 15 8 16 9 7 10 6 11 5 12
REMARK SMILES IDX 4 13 3 14 2 15 1 16
REMARK H PARENT
REMARK Flexibility Score: inf
ROOT
ATOM      1  C   UNL     1      -3.277  25.853   2.999  1.00  0.00     0.000 C 
ENDROOT
BRANCH   1   2
ATOM      2  C   UNL     1      -2.798  25.736   1.544  1.00  0.00     0.000 C 
BRANCH   2   3
ATOM      3  C   UNL     1      -3.714  24.846   0.684  1.00  0.00     0.000 C 
BRANCH   3   4
ATOM      4  C   UNL     1      -4.772  24.154   1.557  1.00  0.00     0.000 C 
BRANCH   4   5
ATOM      5  C   UNL     1      -6.202  24.654   1.280  1.00  0.00     0.006 C 
BRANCH   5   6
ATOM      6  C   UNL     1      -7.140  24.600   2.496  1.00  0.00     0.053 C 
BRANCH   6   7
ATOM      7  C   UNL     1      -7.402  25.960   3.067  1.00  0.00     0.041 C 
ATOM      8  O   UNL     1      -7.757  26.084   4.271  1.00  0.00    -0.550 OA
ATOM      9  O   UNL     1      -7.208  27.093   2.285  1.00  0.00    -0.550 OA
ENDBRANCH   6   7
ENDBRANCH   5   6
ENDBRANCH   4   5
ENDBRANCH   3   4
ENDBRANCH   2   3
ENDBRANCH   1   2
BRANCH   1  10
ATOM     10  C   UNL     1      -3.590  27.303   3.408  1.00  0.00     0.000 C 
BRANCH  10  11
ATOM     11  C   UNL     1      -2.355  28.219   3.314  1.00  0.00    -0.000 C 
BRANCH  11  12
ATOM     12  C   UNL     1      -2.663  29.690   2.955  1.00  0.00    -0.000 C 
BRANCH  12  13
ATOM     13  C   UNL     1      -2.037  30.187   1.639  1.00  0.00    -0.000 C 
BRANCH  13  14
ATOM     14  C   UNL     1      -2.610  29.479   0.399  1.00  0.00    -0.000 C 
BRANCH  14  15
ATOM     15  C   UNL     1      -4.126  29.679   0.254  1.00  0.00    -0.003 C 
ATOM     16  C   UNL     1      -4.869  28.370  -0.027  1.00  0.00     0.004 C 
ENDBRANCH  14  15
ENDBRANCH  13  14
ENDBRANCH  12  13
ENDBRANCH  11  12
ENDBRANCH  10  11
ENDBRANCH   1  10
TORSDOF 12
ENDMDL
MODEL 9
REMARK VINA RESULT:    -3.664      3.629      6.051
REMARK INTER + INTRA:          -7.422
REMARK INTER:                  -5.557
REMARK INTRA:                  -1.865
REMARK UNBOUND:                -1.188
REMARK SMILES CCCCCCCCCCCCCC(=O)[O-]
REMARK SMILES IDX 8 1 9 2 10 3 11 4 12 5 13 6 14 7 15 8 16 9 7 10 6 11 5 12
REMARK SMILES IDX 4 13 3 14 2 15 1 16
REMARK H PARENT
REMARK Flexibility Score: inf
ROOT
ATOM      1  C   UNL     1      -3.699  25.582  -1.813  1.00  0.00     0.000 C 
ENDROOT
BRANCH   1   2
ATOM      2  C   UNL     1      -2.773  26.096  -0.699  1.00  0.00     0.000 C 
BRANCH   2   3
ATOM      3  C   UNL     1      -3.547  26.651   0.511  1.00  0.00     0.000 C 
BRANCH   3   4
ATOM      4  C   UNL     1      -3.188  25.874   1.787  1.00  0.00     0.000 C 
BRANCH   4   5
ATOM      5  C   UNL     1      -4.389  25.127   2.394  1.00  0.00     0.006 C 
BRANCH   5   6
ATOM      6  C   UNL     1      -5.746  25.812   2.164  1.00  0.00     0.053 C 
BRANCH   6   7
ATOM      7  C   UNL     1      -6.867  24.823   2.064  1.00  0.00     0.041 C 
ATOM      8  O   UNL     1      -6.624  23.616   1.788  1.00  0.00    -0.550 OA
ATOM      9  O   UNL     1      -8.173  25.221   2.322  1.00  0.00    -0.550 OA
ENDBRANCH   6   7
ENDBRANCH   5   6
ENDBRANCH   4   5
ENDBRANCH   3   4
ENDBRANCH   2   3
ENDBRANCH   1   2
BRANCH   1  10
ATOM     10  C   UNL     1      -4.821  24.673  -1.283  1.00  0.00     0.000 C 
BRANCH  10  11
ATOM     11  C   UNL     1      -4.454  23.179  -1.362  1.00  0.00    -0.000 C 
BRANCH  11  12
ATOM     12  C   UNL     1      -3.808  22.601  -0.084  1.00  0.00    -0.000 C 
BRANCH  12  13
ATOM     13  C   UNL     1      -2.983  21.316  -0.291  1.00  0.00    -0.000 C 
BRANCH  13  14
ATOM     14  C   UNL     1      -1.478  21.590  -0.447  1.00  0.00    -0.000 C 
BRANCH  14  15
ATOM     15  C   UNL     1      -1.070  22.969   0.095  1.00  0.00    -0.003 C 
ATOM     16  C   UNL     1       0.033  23.627  -0.738  1.00  0.00     0.004 C 
ENDBRANCH  14  15
ENDBRANCH  13  14
ENDBRANCH  12  13
ENDBRANCH  11  12
ENDBRANCH  10  11
ENDBRANCH   1  10
TORSDOF 12
ENDMDL
