MODEL 1
REMARK VINA RESULT:    -4.706      0.000      0.000
REMARK INTER + INTRA:          -5.982
REMARK INTER:                  -5.669
REMARK INTRA:                  -0.314
REMARK UNBOUND:                -0.314
REMARK SMILES O=c1c(O)c(-c2ccc(O)c(O)c2)oc2cc(O)cc(O)c12
REMARK SMILES IDX 5 1 3 2 2 3 1 4 22 5 20 6 19 7 17 8 16 9 15 10 14 11 6 12
REMARK SMILES IDX 7 13 8 14 9 15 13 16 11 17 10 18 12 20 4 22 21 24 18 26
REMARK H PARENT 10 19 12 21 4 23 21 25 18 27
REMARK Flexibility Score: inf
ROOT
ATOM      1  C   UNL     1       6.310   4.164   6.076  1.00  0.00     0.180 A 
ATOM      2  C   UNL     1       6.934   4.292   7.332  1.00  0.00     0.208 A 
ATOM      3  C   UNL     1       7.532   3.161   7.911  1.00  0.00     0.238 A 
ATOM      4  O   UNL     1       8.084   3.262   9.040  1.00  0.00    -0.285 OA
ATOM      5  C   UNL     1       7.517   1.934   7.218  1.00  0.00     0.111 A 
ATOM      6  C   UNL     1       8.101   0.750   7.730  1.00  0.00     0.134 A 
ATOM      7  C   UNL     1       8.052  -0.432   6.976  1.00  0.00     0.093 A 
ATOM      8  C   UNL     1       7.433  -0.453   5.724  1.00  0.00     0.123 A 
ATOM      9  C   UNL     1       6.854   0.713   5.214  1.00  0.00     0.094 A 
ATOM     10  C   UNL     1       6.891   1.900   5.951  1.00  0.00     0.146 A 
ATOM     11  O   UNL     1       6.328   2.993   5.445  1.00  0.00    -0.452 OA
ENDROOT
BRANCH   1  12
ATOM     12  C   UNL     1       5.641   5.304   5.409  1.00  0.00     0.025 A 
ATOM     13  C   UNL     1       6.318   6.102   4.470  1.00  0.00     0.016 A 
ATOM     14  C   UNL     1       5.675   7.188   3.871  1.00  0.00     0.051 A 
ATOM     15  C   UNL     1       4.352   7.501   4.210  1.00  0.00     0.157 A 
ATOM     16  C   UNL     1       4.323   5.634   5.761  1.00  0.00     0.062 A 
ATOM     17  C   UNL     1       3.675   6.721   5.163  1.00  0.00     0.158 A 
BRANCH  15  18
ATOM     18  O   UNL     1       3.711   8.584   3.610  1.00  0.00    -0.504 OA
ATOM     19  H   UNL     1       2.856   8.466   3.079  1.00  0.00     0.293 HD
ENDBRANCH  15  18
BRANCH  17  20
ATOM     20  O   UNL     1       2.360   7.010   5.528  1.00  0.00    -0.504 OA
ATOM     21  H   UNL     1       1.655   7.259   4.845  1.00  0.00     0.293 HD
ENDBRANCH  17  20
ENDBRANCH   1  12
BRANCH   2  22
ATOM     22  O   UNL     1       6.978   5.532   7.975  1.00  0.00    -0.502 OA
ATOM     23  H   UNL     1       7.508   6.313   7.610  1.00  0.00     0.293 HD
ENDBRANCH   2  22
BRANCH   6  24
ATOM     24  O   UNL     1       8.729   0.738   8.977  1.00  0.00    -0.507 OA
ATOM     25  H   UNL     1       8.912  -0.126   9.473  1.00  0.00     0.293 HD
ENDBRANCH   6  24
BRANCH   8  26
ATOM     26  O   UNL     1       7.399  -1.641   4.995  1.00  0.00    -0.508 OA
ATOM     27  H   UNL     1       6.805  -1.744   4.180  1.00  0.00     0.293 HD
ENDBRANCH   8  26
TORSDOF 6
ENDMDL
MODEL 2
REMARK VINA RESULT:    -4.554      1.614      7.094
REMARK INTER + INTRA:          -5.799
REMARK INTER:                  -5.475
REMARK INTRA:                  -0.324
REMARK UNBOUND:                -0.314
REMARK SMILES O=c1c(O)c(-c2ccc(O)c(O)c2)oc2cc(O)cc(O)c12
REMARK SMILES IDX 5 1 3 2 2 3 1 4 22 5 20 6 19 7 17 8 16 9 15 10 14 11 6 12
REMARK SMILES IDX 7 13 8 14 9 15 13 16 11 17 10 18 12 20 4 22 21 24 18 26
REMARK H PARENT 10 19 12 21 4 23 21 25 18 27
REMARK Flexibility Score: inf
ROOT
ATOM      1  C   UNL     1       6.866   3.877   5.314  1.00  0.00     0.180 A 
ATOM      2  C   UNL     1       7.687   4.492   4.349  1.00  0.00     0.208 A 
ATOM      3  C   UNL     1       7.248   5.679   3.742  1.00  0.00     0.238 A 
ATOM      4  O   UNL     1       7.970   6.232   2.869  1.00  0.00    -0.285 OA
ATOM      5  C   UNL     1       6.013   6.241   4.123  1.00  0.00     0.111 A 
ATOM      6  C   UNL     1       5.501   7.437   3.563  1.00  0.00     0.134 A 
ATOM      7  C   UNL     1       4.266   7.937   4.002  1.00  0.00     0.093 A 
ATOM      8  C   UNL     1       3.536   7.269   4.987  1.00  0.00     0.123 A 
ATOM      9  C   UNL     1       4.036   6.087   5.543  1.00  0.00     0.094 A 
ATOM     10  C   UNL     1       5.263   5.571   5.118  1.00  0.00     0.146 A 
ATOM     11  O   UNL     1       5.713   4.444   5.659  1.00  0.00    -0.452 OA
ENDROOT
BRANCH   1  12
ATOM     12  C   UNL     1       7.250   2.614   5.985  1.00  0.00     0.025 A 
ATOM     13  C   UNL     1       7.975   2.617   7.190  1.00  0.00     0.016 A 
ATOM     14  C   UNL     1       8.348   1.412   7.792  1.00  0.00     0.051 A 
ATOM     15  C   UNL     1       8.014   0.190   7.196  1.00  0.00     0.157 A 
ATOM     16  C   UNL     1       6.936   1.387   5.380  1.00  0.00     0.062 A 
ATOM     17  C   UNL     1       7.307   0.178   5.981  1.00  0.00     0.158 A 
BRANCH  15  18
ATOM     18  O   UNL     1       8.385  -1.010   7.800  1.00  0.00    -0.504 OA
ATOM     19  H   UNL     1       9.318  -1.151   8.170  1.00  0.00     0.293 HD
ENDBRANCH  15  18
BRANCH  17  20
ATOM     20  O   UNL     1       6.965  -1.021   5.357  1.00  0.00    -0.504 OA
ATOM     21  H   UNL     1       6.341  -1.693   5.789  1.00  0.00     0.293 HD
ENDBRANCH  17  20
ENDBRANCH   1  12
BRANCH   2  22
ATOM     22  O   UNL     1       8.929   3.941   4.025  1.00  0.00    -0.502 OA
ATOM     23  H   UNL     1       9.055   3.307   3.246  1.00  0.00     0.293 HD
ENDBRANCH   2  22
BRANCH   6  24
ATOM     24  O   UNL     1       6.207   8.130   2.579  1.00  0.00    -0.507 OA
ATOM     25  H   UNL     1       7.024   7.734   2.131  1.00  0.00     0.293 HD
ENDBRANCH   6  24
BRANCH   8  26
ATOM     26  O   UNL     1       2.312   7.788   5.406  1.00  0.00    -0.508 OA
ATOM     27  H   UNL     1       2.255   8.660   5.921  1.00  0.00     0.293 HD
ENDBRANCH   8  26
TORSDOF 6
ENDMDL
MODEL 3
REMARK VINA RESULT:    -4.543      1.698      6.320
REMARK INTER + INTRA:          -5.786
REMARK INTER:                  -5.555
REMARK INTRA:                  -0.230
REMARK UNBOUND:                -0.314
REMARK SMILES O=c1c(O)c(-c2ccc(O)c(O)c2)oc2cc(O)cc(O)c12
REMARK SMILES IDX 5 1 3 2 2 3 1 4 22 5 20 6 19 7 17 8 16 9 15 10 14 11 6 12
REMARK SMILES IDX 7 13 8 14 9 15 13 16 11 17 10 18 12 20 4 22 21 24 18 26
REMARK H PARENT 10 19 12 21 4 23 21 25 18 27
REMARK Flexibility Score: inf
ROOT
ATOM      1  C   UNL     1       6.508   3.375   6.292  1.00  0.00     0.180 A 
ATOM      2  C   UNL     1       6.765   3.560   7.664  1.00  0.00     0.208 A 
ATOM      3  C   UNL     1       6.084   4.578   8.350  1.00  0.00     0.238 A 
ATOM      4  O   UNL     1       6.315   4.760   9.577  1.00  0.00    -0.285 OA
ATOM      5  C   UNL     1       5.146   5.375   7.663  1.00  0.00     0.111 A 
ATOM      6  C   UNL     1       4.416   6.418   8.283  1.00  0.00     0.134 A 
ATOM      7  C   UNL     1       3.493   7.161   7.531  1.00  0.00     0.093 A 
ATOM      8  C   UNL     1       3.287   6.883   6.179  1.00  0.00     0.123 A 
ATOM      9  C   UNL     1       4.007   5.856   5.562  1.00  0.00     0.094 A 
ATOM     10  C   UNL     1       4.932   5.104   6.292  1.00  0.00     0.146 A 
ATOM     11  O   UNL     1       5.606   4.137   5.680  1.00  0.00    -0.452 OA
ENDROOT
BRANCH   1  12
ATOM     12  C   UNL     1       7.200   2.336   5.495  1.00  0.00     0.025 A 
ATOM     13  C   UNL     1       8.149   2.677   4.516  1.00  0.00     0.016 A 
ATOM     14  C   UNL     1       8.771   1.681   3.758  1.00  0.00     0.051 A 
ATOM     15  C   UNL     1       8.445   0.333   3.958  1.00  0.00     0.157 A 
ATOM     16  C   UNL     1       6.861   0.986   5.677  1.00  0.00     0.062 A 
ATOM     17  C   UNL     1       7.483  -0.015   4.921  1.00  0.00     0.158 A 
BRANCH  15  18
ATOM     18  O   UNL     1       9.068  -0.659   3.203  1.00  0.00    -0.504 OA
ATOM     19  H   UNL     1       9.692  -1.335   3.627  1.00  0.00     0.293 HD
ENDBRANCH  15  18
BRANCH  17  20
ATOM     20  O   UNL     1       7.130  -1.347   5.140  1.00  0.00    -0.504 OA
ATOM     21  H   UNL     1       7.661  -1.948   5.758  1.00  0.00     0.293 HD
ENDBRANCH  17  20
ENDBRANCH   1  12
BRANCH   2  22
ATOM     22  O   UNL     1       7.663   2.725   8.334  1.00  0.00    -0.502 OA
ATOM     23  H   UNL     1       7.947   1.826   7.964  1.00  0.00     0.293 HD
ENDBRANCH   2  22
BRANCH   6  24
ATOM     24  O   UNL     1       4.597   6.719   9.633  1.00  0.00    -0.507 OA
ATOM     25  H   UNL     1       4.267   6.103  10.365  1.00  0.00     0.293 HD
ENDBRANCH   6  24
BRANCH   8  26
ATOM     26  O   UNL     1       2.363   7.636   5.456  1.00  0.00    -0.508 OA
ATOM     27  H   UNL     1       2.623   8.113   4.600  1.00  0.00     0.293 HD
ENDBRANCH   8  26
TORSDOF 6
ENDMDL
MODEL 4
REMARK VINA RESULT:    -4.359      2.521      4.793
REMARK INTER + INTRA:          -5.564
REMARK INTER:                  -5.241
REMARK INTRA:                  -0.323
REMARK UNBOUND:                -0.314
REMARK SMILES O=c1c(O)c(-c2ccc(O)c(O)c2)oc2cc(O)cc(O)c12
REMARK SMILES IDX 5 1 3 2 2 3 1 4 22 5 20 6 19 7 17 8 16 9 15 10 14 11 6 12
REMARK SMILES IDX 7 13 8 14 9 15 13 16 11 17 10 18 12 20 4 22 21 24 18 26
REMARK H PARENT 10 19 12 21 4 23 21 25 18 27
REMARK Flexibility Score: inf
ROOT
ATOM      1  C   UNL     1       4.935   7.458   4.522  1.00  0.00     0.180 A 
ATOM      2  C   UNL     1       4.042   7.861   5.533  1.00  0.00     0.208 A 
ATOM      3  C   UNL     1       3.922   7.071   6.687  1.00  0.00     0.238 A 
ATOM      4  O   UNL     1       3.118   7.417   7.595  1.00  0.00    -0.285 OA
ATOM      5  C   UNL     1       4.708   5.908   6.820  1.00  0.00     0.111 A 
ATOM      6  C   UNL     1       4.650   5.060   7.953  1.00  0.00     0.134 A 
ATOM      7  C   UNL     1       5.471   3.925   8.013  1.00  0.00     0.093 A 
ATOM      8  C   UNL     1       6.347   3.621   6.969  1.00  0.00     0.123 A 
ATOM      9  C   UNL     1       6.408   4.455   5.848  1.00  0.00     0.094 A 
ATOM     10  C   UNL     1       5.597   5.590   5.767  1.00  0.00     0.146 A 
ATOM     11  O   UNL     1       5.671   6.362   4.688  1.00  0.00    -0.452 OA
ENDROOT
BRANCH   1  12
ATOM     12  C   UNL     1       5.104   8.227   3.268  1.00  0.00     0.025 A 
ATOM     13  C   UNL     1       6.079   9.233   3.153  1.00  0.00     0.016 A 
ATOM     14  C   UNL     1       6.204   9.964   1.968  1.00  0.00     0.051 A 
ATOM     15  C   UNL     1       5.350   9.709   0.887  1.00  0.00     0.157 A 
ATOM     16  C   UNL     1       4.237   7.990   2.189  1.00  0.00     0.062 A 
ATOM     17  C   UNL     1       4.360   8.719   1.000  1.00  0.00     0.158 A 
BRANCH  15  18
ATOM     18  O   UNL     1       5.478  10.437  -0.295  1.00  0.00    -0.504 OA
ATOM     19  H   UNL     1       4.869  11.220  -0.504  1.00  0.00     0.293 HD
ENDBRANCH  15  18
BRANCH  17  20
ATOM     20  O   UNL     1       3.489   8.445  -0.055  1.00  0.00    -0.504 OA
ATOM     21  H   UNL     1       3.715   8.682  -1.013  1.00  0.00     0.293 HD
ENDBRANCH  17  20
ENDBRANCH   1  12
BRANCH   2  22
ATOM     22  O   UNL     1       3.311   9.044   5.399  1.00  0.00    -0.502 OA
ATOM     23  H   UNL     1       3.736   9.915   5.105  1.00  0.00     0.293 HD
ENDBRANCH   2  22
BRANCH   6  24
ATOM     24  O   UNL     1       3.787   5.336   9.014  1.00  0.00    -0.507 OA
ATOM     25  H   UNL     1       3.212   6.170   9.031  1.00  0.00     0.293 HD
ENDBRANCH   6  24
BRANCH   8  26
ATOM     26  O   UNL     1       7.154   2.488   7.056  1.00  0.00    -0.508 OA
ATOM     27  H   UNL     1       6.835   1.646   7.520  1.00  0.00     0.293 HD
ENDBRANCH   8  26
TORSDOF 6
ENDMDL
MODEL 5
REMARK VINA RESULT:    -4.294      2.349      7.562
REMARK INTER + INTRA:          -5.486
REMARK INTER:                  -5.910
REMARK INTRA:                   0.424
REMARK UNBOUND:                -0.314
REMARK SMILES O=c1c(O)c(-c2ccc(O)c(O)c2)oc2cc(O)cc(O)c12
REMARK SMILES IDX 5 1 3 2 2 3 1 4 22 5 20 6 19 7 17 8 16 9 15 10 14 11 6 12
REMARK SMILES IDX 7 13 8 14 9 15 13 16 11 17 10 18 12 20 4 22 21 24 18 26
REMARK H PARENT 10 19 12 21 4 23 21 25 18 27
REMARK Flexibility Score: inf
ROOT
ATOM      1  C   UNL     1       4.727   6.483   5.416  1.00  0.00     0.180 A 
ATOM      2  C   UNL     1       3.743   7.420   5.784  1.00  0.00     0.208 A 
ATOM      3  C   UNL     1       3.396   8.432   4.875  1.00  0.00     0.238 A 
ATOM      4  O   UNL     1       2.524   9.284   5.199  1.00  0.00    -0.285 OA
ATOM      5  C   UNL     1       4.018   8.476   3.611  1.00  0.00     0.111 A 
ATOM      6  C   UNL     1       3.721   9.460   2.637  1.00  0.00     0.134 A 
ATOM      7  C   UNL     1       4.378   9.431   1.398  1.00  0.00     0.093 A 
ATOM      8  C   UNL     1       5.321   8.442   1.113  1.00  0.00     0.123 A 
ATOM      9  C   UNL     1       5.618   7.468   2.072  1.00  0.00     0.094 A 
ATOM     10  C   UNL     1       4.977   7.480   3.314  1.00  0.00     0.146 A 
ATOM     11  O   UNL     1       5.282   6.547   4.209  1.00  0.00    -0.452 OA
ENDROOT
BRANCH   1  12
ATOM     12  C   UNL     1       5.162   5.398   6.326  1.00  0.00     0.025 A 
ATOM     13  C   UNL     1       4.780   5.382   7.679  1.00  0.00     0.016 A 
ATOM     14  C   UNL     1       5.223   4.362   8.526  1.00  0.00     0.051 A 
ATOM     15  C   UNL     1       6.061   3.351   8.037  1.00  0.00     0.157 A 
ATOM     16  C   UNL     1       6.019   4.395   5.846  1.00  0.00     0.062 A 
ATOM     17  C   UNL     1       6.463   3.371   6.691  1.00  0.00     0.158 A 
BRANCH  15  18
ATOM     18  O   UNL     1       6.499   2.334   8.882  1.00  0.00    -0.504 OA
ATOM     19  H   UNL     1       5.848   1.699   9.330  1.00  0.00     0.293 HD
ENDBRANCH  15  18
BRANCH  17  20
ATOM     20  O   UNL     1       7.302   2.384   6.174  1.00  0.00    -0.504 OA
ATOM     21  H   UNL     1       8.154   2.610   5.675  1.00  0.00     0.293 HD
ENDBRANCH  17  20
ENDBRANCH   1  12
BRANCH   2  22
ATOM     22  O   UNL     1       3.107   7.325   7.025  1.00  0.00    -0.502 OA
ATOM     23  H   UNL     1       2.192   7.722   7.197  1.00  0.00     0.293 HD
ENDBRANCH   2  22
BRANCH   6  24
ATOM     24  O   UNL     1       2.782  10.461   2.889  1.00  0.00    -0.507 OA
ATOM     25  H   UNL     1       2.751  10.952   3.774  1.00  0.00     0.293 HD
ENDBRANCH   6  24
BRANCH   8  26
ATOM     26  O   UNL     1       5.958   8.435  -0.126  1.00  0.00    -0.508 OA
ATOM     27  H   UNL     1       6.707   7.785  -0.333  1.00  0.00     0.293 HD
ENDBRANCH   8  26
TORSDOF 6
ENDMDL
MODEL 6
REMARK VINA RESULT:    -4.277      3.103      5.358
REMARK INTER + INTRA:          -5.466
REMARK INTER:                  -5.378
REMARK INTRA:                  -0.088
REMARK UNBOUND:                -0.314
REMARK SMILES O=c1c(O)c(-c2ccc(O)c(O)c2)oc2cc(O)cc(O)c12
REMARK SMILES IDX 5 1 3 2 2 3 1 4 22 5 20 6 19 7 17 8 16 9 15 10 14 11 6 12
REMARK SMILES IDX 7 13 8 14 9 15 13 16 11 17 10 18 12 20 4 22 21 24 18 26
REMARK H PARENT 10 19 12 21 4 23 21 25 18 27
REMARK Flexibility Score: inf
ROOT
ATOM      1  C   UNL     1       6.132   6.409   4.126  1.00  0.00     0.180 A 
ATOM      2  C   UNL     1       6.675   5.163   4.496  1.00  0.00     0.208 A 
ATOM      3  C   UNL     1       6.322   4.611   5.737  1.00  0.00     0.238 A 
ATOM      4  O   UNL     1       6.811   3.501   6.082  1.00  0.00    -0.285 OA
ATOM      5  C   UNL     1       5.420   5.297   6.574  1.00  0.00     0.111 A 
ATOM      6  C   UNL     1       5.010   4.806   7.837  1.00  0.00     0.134 A 
ATOM      7  C   UNL     1       4.101   5.546   8.608  1.00  0.00     0.093 A 
ATOM      8  C   UNL     1       3.595   6.761   8.144  1.00  0.00     0.123 A 
ATOM      9  C   UNL     1       3.997   7.251   6.897  1.00  0.00     0.094 A 
ATOM     10  C   UNL     1       4.903   6.530   6.114  1.00  0.00     0.146 A 
ATOM     11  O   UNL     1       5.272   7.021   4.935  1.00  0.00    -0.452 OA
ENDROOT
BRANCH   1  12
ATOM     12  C   UNL     1       6.470   7.066   2.843  1.00  0.00     0.025 A 
ATOM     13  C   UNL     1       7.804   7.328   2.484  1.00  0.00     0.016 A 
ATOM     14  C   UNL     1       8.098   7.972   1.279  1.00  0.00     0.051 A 
ATOM     15  C   UNL     1       7.066   8.374   0.422  1.00  0.00     0.157 A 
ATOM     16  C   UNL     1       5.438   7.490   1.991  1.00  0.00     0.062 A 
ATOM     17  C   UNL     1       5.729   8.134   0.782  1.00  0.00     0.158 A 
BRANCH  15  18
ATOM     18  O   UNL     1       7.362   9.014  -0.780  1.00  0.00    -0.504 OA
ATOM     19  H   UNL     1       8.175   9.611  -0.877  1.00  0.00     0.293 HD
ENDBRANCH  15  18
BRANCH  17  20
ATOM     20  O   UNL     1       4.677   8.529  -0.045  1.00  0.00    -0.504 OA
ATOM     21  H   UNL     1       4.087   7.857  -0.521  1.00  0.00     0.293 HD
ENDBRANCH  17  20
ENDBRANCH   1  12
BRANCH   2  22
ATOM     22  O   UNL     1       7.529   4.480   3.626  1.00  0.00    -0.502 OA
ATOM     23  H   UNL     1       7.185   3.860   2.903  1.00  0.00     0.293 HD
ENDBRANCH   2  22
BRANCH   6  24
ATOM     24  O   UNL     1       5.496   3.595   8.330  1.00  0.00    -0.507 OA
ATOM     25  H   UNL     1       5.328   2.719   7.850  1.00  0.00     0.293 HD
ENDBRANCH   6  24
BRANCH   8  26
ATOM     26  O   UNL     1       2.692   7.475   8.929  1.00  0.00    -0.508 OA
ATOM     27  H   UNL     1       1.707   7.238   8.952  1.00  0.00     0.293 HD
ENDBRANCH   8  26
TORSDOF 6
ENDMDL
MODEL 7
REMARK VINA RESULT:    -4.266      2.563      4.417
REMARK INTER + INTRA:          -5.453
REMARK INTER:                  -5.291
REMARK INTRA:                  -0.162
REMARK UNBOUND:                -0.314
REMARK SMILES O=c1c(O)c(-c2ccc(O)c(O)c2)oc2cc(O)cc(O)c12
REMARK SMILES IDX 5 1 3 2 2 3 1 4 22 5 20 6 19 7 17 8 16 9 15 10 14 11 6 12
REMARK SMILES IDX 7 13 8 14 9 15 13 16 11 17 10 18 12 20 4 22 21 24 18 26
REMARK H PARENT 10 19 12 21 4 23 21 25 18 27
REMARK Flexibility Score: inf
ROOT
ATOM      1  C   UNL     1       6.415   6.160   3.506  1.00  0.00     0.180 A 
ATOM      2  C   UNL     1       7.373   5.158   3.258  1.00  0.00     0.208 A 
ATOM      3  C   UNL     1       7.627   4.202   4.253  1.00  0.00     0.238 A 
ATOM      4  O   UNL     1       8.491   3.307   4.046  1.00  0.00    -0.285 OA
ATOM      5  C   UNL     1       6.906   4.248   5.464  1.00  0.00     0.111 A 
ATOM      6  C   UNL     1       7.100   3.318   6.515  1.00  0.00     0.134 A 
ATOM      7  C   UNL     1       6.337   3.427   7.687  1.00  0.00     0.093 A 
ATOM      8  C   UNL     1       5.388   4.441   7.829  1.00  0.00     0.123 A 
ATOM      9  C   UNL     1       5.194   5.362   6.795  1.00  0.00     0.094 A 
ATOM     10  C   UNL     1       5.945   5.273   5.619  1.00  0.00     0.146 A 
ATOM     11  O   UNL     1       5.744   6.164   4.654  1.00  0.00    -0.452 OA
ENDROOT
BRANCH   1  12
ATOM     12  C   UNL     1       6.104   7.216   2.514  1.00  0.00     0.025 A 
ATOM     13  C   UNL     1       7.084   8.129   2.087  1.00  0.00     0.016 A 
ATOM     14  C   UNL     1       6.762   9.133   1.170  1.00  0.00     0.051 A 
ATOM     15  C   UNL     1       5.457   9.246   0.675  1.00  0.00     0.157 A 
ATOM     16  C   UNL     1       4.792   7.347   2.032  1.00  0.00     0.062 A 
ATOM     17  C   UNL     1       4.467   8.350   1.112  1.00  0.00     0.158 A 
BRANCH  15  18
ATOM     18  O   UNL     1       5.139  10.247  -0.242  1.00  0.00    -0.504 OA
ATOM     19  H   UNL     1       4.847  10.026  -1.188  1.00  0.00     0.293 HD
ENDBRANCH  15  18
BRANCH  17  20
ATOM     20  O   UNL     1       3.155   8.440   0.644  1.00  0.00    -0.504 OA
ATOM     21  H   UNL     1       2.448   8.979   1.129  1.00  0.00     0.293 HD
ENDBRANCH  17  20
ENDBRANCH   1  12
BRANCH   2  22
ATOM     22  O   UNL     1       8.038   5.106   2.030  1.00  0.00    -0.502 OA
ATOM     23  H   UNL     1       7.553   4.936   1.157  1.00  0.00     0.293 HD
ENDBRANCH   2  22
BRANCH   6  24
ATOM     24  O   UNL     1       8.038   2.292   6.404  1.00  0.00    -0.507 OA
ATOM     25  H   UNL     1       9.016   2.438   6.623  1.00  0.00     0.293 HD
ENDBRANCH   6  24
BRANCH   8  26
ATOM     26  O   UNL     1       4.642   4.525   9.003  1.00  0.00    -0.508 OA
ATOM     27  H   UNL     1       3.659   4.280   9.025  1.00  0.00     0.293 HD
ENDBRANCH   8  26
TORSDOF 6
ENDMDL
MODEL 8
REMARK VINA RESULT:    -4.162      2.575      3.835
REMARK INTER + INTRA:          -5.327
REMARK INTER:                  -5.210
REMARK INTRA:                  -0.118
REMARK UNBOUND:                -0.314
REMARK SMILES O=c1c(O)c(-c2ccc(O)c(O)c2)oc2cc(O)cc(O)c12
REMARK SMILES IDX 5 1 3 2 2 3 1 4 22 5 20 6 19 7 17 8 16 9 15 10 14 11 6 12
REMARK SMILES IDX 7 13 8 14 9 15 13 16 11 17 10 18 12 20 4 22 21 24 18 26
REMARK H PARENT 10 19 12 21 4 23 21 25 18 27
REMARK Flexibility Score: inf
ROOT
ATOM      1  C   UNL     1       6.715   5.992   3.739  1.00  0.00     0.180 A 
ATOM      2  C   UNL     1       5.971   6.406   4.861  1.00  0.00     0.208 A 
ATOM      3  C   UNL     1       5.829   5.523   5.943  1.00  0.00     0.238 A 
ATOM      4  O   UNL     1       5.156   5.878   6.949  1.00  0.00    -0.285 OA
ATOM      5  C   UNL     1       6.449   4.257   5.896  1.00  0.00     0.111 A 
ATOM      6  C   UNL     1       6.357   3.312   6.946  1.00  0.00     0.134 A 
ATOM      7  C   UNL     1       7.010   2.076   6.827  1.00  0.00     0.093 A 
ATOM      8  C   UNL     1       7.749   1.767   5.683  1.00  0.00     0.123 A 
ATOM      9  C   UNL     1       7.842   2.697   4.643  1.00  0.00     0.094 A 
ATOM     10  C   UNL     1       7.197   3.933   4.741  1.00  0.00     0.146 A 
ATOM     11  O   UNL     1       7.297   4.796   3.735  1.00  0.00    -0.452 OA
ENDROOT
BRANCH   1  12
ATOM     12  C   UNL     1       6.894   6.858   2.551  1.00  0.00     0.025 A 
ATOM     13  C   UNL     1       8.167   7.311   2.161  1.00  0.00     0.016 A 
ATOM     14  C   UNL     1       8.309   8.148   1.051  1.00  0.00     0.051 A 
ATOM     15  C   UNL     1       7.184   8.553   0.322  1.00  0.00     0.157 A 
ATOM     16  C   UNL     1       5.767   7.284   1.830  1.00  0.00     0.062 A 
ATOM     17  C   UNL     1       5.907   8.121   0.716  1.00  0.00     0.158 A 
BRANCH  15  18
ATOM     18  O   UNL     1       7.329   9.386  -0.786  1.00  0.00    -0.504 OA
ATOM     19  H   UNL     1       7.376  10.394  -0.690  1.00  0.00     0.293 HD
ENDBRANCH  15  18
BRANCH  17  20
ATOM     20  O   UNL     1       4.765   8.512   0.017  1.00  0.00    -0.504 OA
ATOM     21  H   UNL     1       4.817   9.065  -0.831  1.00  0.00     0.293 HD
ENDBRANCH  17  20
ENDBRANCH   1  12
BRANCH   2  22
ATOM     22  O   UNL     1       5.409   7.684   4.903  1.00  0.00    -0.502 OA
ATOM     23  H   UNL     1       5.552   8.364   4.168  1.00  0.00     0.293 HD
ENDBRANCH   2  22
BRANCH   6  24
ATOM     24  O   UNL     1       5.628   3.590   8.103  1.00  0.00    -0.507 OA
ATOM     25  H   UNL     1       5.994   3.387   9.025  1.00  0.00     0.293 HD
ENDBRANCH   6  24
BRANCH   8  26
ATOM     26  O   UNL     1       8.389   0.533   5.591  1.00  0.00    -0.508 OA
ATOM     27  H   UNL     1       7.865  -0.329   5.493  1.00  0.00     0.293 HD
ENDBRANCH   8  26
TORSDOF 6
ENDMDL
