MODEL 1
REMARK VINA RESULT:    -7.801      0.000      0.000
REMARK INTER + INTRA:          -8.612
REMARK INTER:                  -8.485
REMARK INTRA:                  -0.127
REMARK UNBOUND:                -0.127
REMARK SMILES C[C@@H]1[C@H](C)CC[C@]2(C(=O)[O-])CC[C@@]3(C)C(=CC[C@H]4[C@]5(C)CC[C@@H](O)C(C)(C)[C@@H]5CC[C@]43C)[C@H]12
REMARK SMILES IDX 7 1 6 2 11 3 33 4 5 5 12 6 15 7 2 8 3 9 13 10 16 11 1 12
REMARK SMILES IDX 4 13 14 14 31 15 17 16 18 17 30 18 32 19 19 20 29 21 28 22
REMARK SMILES IDX 21 23 20 24 25 25 22 26 23 27 26 28 27 29 8 30 9 31 10 32
REMARK SMILES IDX 24 33
REMARK H PARENT 24 34
REMARK Flexibility Score: inf
ROOT
ATOM      1  C   UNL     1      -2.563 -29.243 -31.176  1.00  0.00     0.017 C 
ATOM      2  C   UNL     1      -1.089 -29.189 -31.699  1.00  0.00     0.014 C 
ATOM      3  C   UNL     1      -2.539 -30.087 -29.859  1.00  0.00     0.014 C 
ATOM      4  C   UNL     1      -3.506 -29.869 -32.283  1.00  0.00     0.030 C 
ATOM      5  C   UNL     1      -0.928 -28.447 -33.037  1.00  0.00     0.004 C 
ATOM      6  C   UNL     1      -3.681 -31.095 -29.711  1.00  0.00     0.013 C 
ATOM      7  C   UNL     1      -3.498 -31.408 -32.226  1.00  0.00    -0.063 C 
ATOM      8  C   UNL     1      -3.283 -29.122 -33.654  1.00  0.00    -0.003 C 
ATOM      9  C   UNL     1      -1.812 -29.039 -34.141  1.00  0.00    -0.011 C 
ATOM     10  C   UNL     1      -3.925 -32.085 -30.918  1.00  0.00    -0.006 C 
ATOM     11  C   UNL     1      -3.456 -32.174 -33.317  1.00  0.00    -0.027 C 
ATOM     12  C   UNL     1      -4.312 -29.427 -34.771  1.00  0.00     0.008 C 
ATOM     13  C   UNL     1      -1.205 -30.346 -34.683  1.00  0.00     0.008 C 
ATOM     14  C   UNL     1      -5.477 -32.249 -31.028  1.00  0.00     0.017 C 
ATOM     15  C   UNL     1      -3.222 -33.536 -30.726  1.00  0.00    -0.020 C 
ATOM     16  C   UNL     1      -2.930 -33.564 -33.260  1.00  0.00     0.032 C 
ATOM     17  C   UNL     1      -3.359 -34.418 -32.022  1.00  0.00     0.006 C 
ATOM     18  C   UNL     1      -1.699 -33.366 -30.422  1.00  0.00     0.008 C 
ATOM     19  C   UNL     1      -3.959 -34.233 -29.528  1.00  0.00     0.012 C 
ATOM     20  C   UNL     1      -2.572 -35.824 -32.046  1.00  0.00    -0.025 C 
ATOM     21  C   UNL     1      -0.658 -34.433 -30.917  1.00  0.00     0.005 C 
ATOM     22  C   UNL     1      -1.018 -35.564 -31.951  1.00  0.00     0.003 C 
ATOM     23  C   UNL     1      -2.985 -36.872 -30.932  1.00  0.00     0.010 C 
ATOM     24  C   UNL     1      -2.966 -36.494 -33.414  1.00  0.00     0.012 C 
ATOM     25  C   UNL     1      -0.147 -36.878 -31.685  1.00  0.00    -0.006 C 
ATOM     26  C   UNL     1      -1.944 -37.129 -29.812  1.00  0.00     0.033 C 
ATOM     27  C   UNL     1      -0.544 -37.552 -30.314  1.00  0.00     0.120 C 
ATOM     28  C   UNL     1       1.364 -36.498 -31.664  1.00  0.00     0.014 C 
ATOM     29  C   UNL     1      -0.281 -37.900 -32.858  1.00  0.00     0.014 C 
ENDROOT
BRANCH   1  30
ATOM     30  C   UNL     1      -3.067 -27.837 -30.827  1.00  0.00     0.048 C 
ATOM     31  O   UNL     1      -4.288 -27.532 -30.926  1.00  0.00    -0.550 OA
ATOM     32  O   UNL     1      -2.193 -26.890 -30.318  1.00  0.00    -0.550 OA
ENDBRANCH   1  30
BRANCH  27  33
ATOM     33  O   UNL     1      -0.443 -38.958 -30.374  1.00  0.00    -0.393 OA
ATOM     34  H   UNL     1      -0.926 -39.326 -29.591  1.00  0.00     0.210 HD
ENDBRANCH  27  33
TORSDOF 2
ENDMDL
MODEL 2
REMARK VINA RESULT:    -7.503      2.217      7.607
REMARK INTER + INTRA:          -8.287
REMARK INTER:                  -8.168
REMARK INTRA:                  -0.119
REMARK UNBOUND:                -0.127
REMARK SMILES C[C@@H]1[C@H](C)CC[C@]2(C(=O)[O-])CC[C@@]3(C)C(=CC[C@H]4[C@]5(C)CC[C@@H](O)C(C)(C)[C@@H]5CC[C@]43C)[C@H]12
REMARK SMILES IDX 7 1 6 2 11 3 33 4 5 5 12 6 15 7 2 8 3 9 13 10 16 11 1 12
REMARK SMILES IDX 4 13 14 14 31 15 17 16 18 17 30 18 32 19 19 20 29 21 28 22
REMARK SMILES IDX 21 23 20 24 25 25 22 26 23 27 26 28 27 29 8 30 9 31 10 32
REMARK SMILES IDX 24 33
REMARK H PARENT 24 34
REMARK Flexibility Score: inf
ROOT
ATOM      1  C   UNL     1       0.587 -35.064 -28.980  1.00  0.00     0.017 C 
ATOM      2  C   UNL     1      -0.824 -34.983 -28.309  1.00  0.00     0.014 C 
ATOM      3  C   UNL     1       1.178 -33.616 -28.957  1.00  0.00     0.014 C 
ATOM      4  C   UNL     1       0.455 -35.644 -30.447  1.00  0.00     0.030 C 
ATOM      5  C   UNL     1      -1.590 -36.316 -28.302  1.00  0.00     0.004 C 
ATOM      6  C   UNL     1       1.877 -33.177 -30.246  1.00  0.00     0.013 C 
ATOM      7  C   UNL     1       0.108 -34.538 -31.461  1.00  0.00    -0.063 C 
ATOM      8  C   UNL     1      -0.377 -36.983 -30.415  1.00  0.00    -0.003 C 
ATOM      9  C   UNL     1      -1.758 -36.899 -29.710  1.00  0.00    -0.011 C 
ATOM     10  C   UNL     1       1.071 -33.352 -31.594  1.00  0.00    -0.006 C 
ATOM     11  C   UNL     1      -0.784 -34.703 -32.438  1.00  0.00    -0.027 C 
ATOM     12  C   UNL     1      -0.374 -37.819 -31.720  1.00  0.00     0.008 C 
ATOM     13  C   UNL     1      -2.865 -36.156 -30.480  1.00  0.00     0.008 C 
ATOM     14  C   UNL     1       2.122 -33.793 -32.664  1.00  0.00     0.017 C 
ATOM     15  C   UNL     1       0.310 -32.002 -32.081  1.00  0.00    -0.020 C 
ATOM     16  C   UNL     1      -1.481 -33.538 -33.047  1.00  0.00     0.032 C 
ATOM     17  C   UNL     1      -0.604 -32.276 -33.332  1.00  0.00     0.006 C 
ATOM     18  C   UNL     1      -0.598 -31.447 -30.937  1.00  0.00     0.008 C 
ATOM     19  C   UNL     1       1.432 -30.969 -32.457  1.00  0.00     0.012 C 
ATOM     20  C   UNL     1      -1.550 -31.071 -33.834  1.00  0.00    -0.025 C 
ATOM     21  C   UNL     1      -1.941 -30.705 -31.268  1.00  0.00     0.005 C 
ATOM     22  C   UNL     1      -2.588 -30.706 -32.703  1.00  0.00     0.003 C 
ATOM     23  C   UNL     1      -0.807 -29.750 -34.296  1.00  0.00     0.010 C 
ATOM     24  C   UNL     1      -2.265 -31.620 -35.124  1.00  0.00     0.012 C 
ATOM     25  C   UNL     1      -3.395 -29.350 -32.966  1.00  0.00    -0.006 C 
ATOM     26  C   UNL     1      -0.955 -28.519 -33.364  1.00  0.00     0.033 C 
ATOM     27  C   UNL     1      -2.415 -28.116 -33.051  1.00  0.00     0.120 C 
ATOM     28  C   UNL     1      -4.418 -29.130 -31.812  1.00  0.00     0.014 C 
ATOM     29  C   UNL     1      -4.269 -29.446 -34.256  1.00  0.00     0.014 C 
ENDROOT
BRANCH   1  30
ATOM     30  C   UNL     1       1.522 -35.970 -28.168  1.00  0.00     0.048 C 
ATOM     31  O   UNL     1       2.403 -36.678 -28.729  1.00  0.00    -0.550 OA
ATOM     32  O   UNL     1       1.467 -35.965 -26.784  1.00  0.00    -0.550 OA
ENDBRANCH   1  30
BRANCH  27  33
ATOM     33  O   UNL     1      -2.870 -27.149 -33.972  1.00  0.00    -0.393 OA
ATOM     34  H   UNL     1      -3.761 -27.437 -34.292  1.00  0.00     0.210 HD
ENDBRANCH  27  33
TORSDOF 2
ENDMDL
MODEL 3
REMARK VINA RESULT:    -7.477      8.776     12.101
REMARK INTER + INTRA:          -8.259
REMARK INTER:                  -8.145
REMARK INTRA:                  -0.114
REMARK UNBOUND:                -0.127
REMARK SMILES C[C@@H]1[C@H](C)CC[C@]2(C(=O)[O-])CC[C@@]3(C)C(=CC[C@H]4[C@]5(C)CC[C@@H](O)C(C)(C)[C@@H]5CC[C@]43C)[C@H]12
REMARK SMILES IDX 7 1 6 2 11 3 33 4 5 5 12 6 15 7 2 8 3 9 13 10 16 11 1 12
REMARK SMILES IDX 4 13 14 14 31 15 17 16 18 17 30 18 32 19 19 20 29 21 28 22
REMARK SMILES IDX 21 23 20 24 25 25 22 26 23 27 26 28 27 29 8 30 9 31 10 32
REMARK SMILES IDX 24 33
REMARK H PARENT 24 34
REMARK Flexibility Score: inf
ROOT
ATOM      1  C   UNL     1       4.471 -38.558 -29.576  1.00  0.00     0.017 C 
ATOM      2  C   UNL     1       5.704 -38.679 -28.620  1.00  0.00     0.014 C 
ATOM      3  C   UNL     1       3.901 -40.003 -29.756  1.00  0.00     0.014 C 
ATOM      4  C   UNL     1       4.913 -37.903 -30.947  1.00  0.00     0.030 C 
ATOM      5  C   UNL     1       6.440 -37.350 -28.378  1.00  0.00     0.004 C 
ATOM      6  C   UNL     1       3.502 -40.372 -31.186  1.00  0.00     0.013 C 
ATOM      7  C   UNL     1       5.481 -38.955 -31.918  1.00  0.00    -0.063 C 
ATOM      8  C   UNL     1       5.708 -36.569 -30.666  1.00  0.00    -0.003 C 
ATOM      9  C   UNL     1       6.903 -36.695 -29.684  1.00  0.00    -0.011 C 
ATOM     10  C   UNL     1       4.580 -40.130 -32.317  1.00  0.00    -0.006 C 
ATOM     11  C   UNL     1       6.562 -38.742 -32.668  1.00  0.00    -0.027 C 
ATOM     12  C   UNL     1       5.980 -35.667 -31.896  1.00  0.00     0.008 C 
ATOM     13  C   UNL     1       8.157 -37.400 -30.233  1.00  0.00     0.008 C 
ATOM     14  C   UNL     1       3.781 -39.630 -33.565  1.00  0.00     0.017 C 
ATOM     15  C   UNL     1       5.438 -41.455 -32.696  1.00  0.00    -0.020 C 
ATOM     16  C   UNL     1       7.384 -39.875 -33.171  1.00  0.00     0.032 C 
ATOM     17  C   UNL     1       6.600 -41.119 -33.703  1.00  0.00     0.006 C 
ATOM     18  C   UNL     1       6.082 -42.071 -31.413  1.00  0.00     0.008 C 
ATOM     19  C   UNL     1       4.434 -42.463 -33.359  1.00  0.00     0.012 C 
ATOM     20  C   UNL     1       7.642 -42.298 -34.051  1.00  0.00    -0.025 C 
ATOM     21  C   UNL     1       7.471 -42.799 -31.483  1.00  0.00     0.005 C 
ATOM     22  C   UNL     1       8.413 -42.725 -32.742  1.00  0.00     0.003 C 
ATOM     23  C   UNL     1       7.028 -43.592 -34.730  1.00  0.00     0.010 C 
ATOM     24  C   UNL     1       8.615 -41.686 -35.125  1.00  0.00     0.012 C 
ATOM     25  C   UNL     1       9.269 -44.068 -32.893  1.00  0.00    -0.006 C 
ATOM     26  C   UNL     1       6.981 -44.869 -33.853  1.00  0.00     0.033 C 
ATOM     27  C   UNL     1       8.342 -45.293 -33.252  1.00  0.00     0.120 C 
ATOM     28  C   UNL     1      10.020 -44.352 -31.558  1.00  0.00     0.014 C 
ATOM     29  C   UNL     1      10.402 -43.908 -33.956  1.00  0.00     0.014 C 
ENDROOT
BRANCH   1  30
ATOM     30  C   UNL     1       3.375 -37.693 -28.940  1.00  0.00     0.048 C 
ATOM     31  O   UNL     1       2.494 -37.126 -29.643  1.00  0.00    -0.550 OA
ATOM     32  O   UNL     1       3.286 -37.584 -27.562  1.00  0.00    -0.550 OA
ENDBRANCH   1  30
BRANCH  27  33
ATOM     33  O   UNL     1       8.993 -46.212 -34.101  1.00  0.00    -0.393 OA
ATOM     34  H   UNL     1       9.734 -46.621 -33.586  1.00  0.00     0.210 HD
ENDBRANCH  27  33
TORSDOF 2
ENDMDL
MODEL 4
REMARK VINA RESULT:    -7.248      2.913      5.162
REMARK INTER + INTRA:          -8.011
REMARK INTER:                  -7.888
REMARK INTRA:                  -0.123
REMARK UNBOUND:                -0.127
REMARK SMILES C[C@@H]1[C@H](C)CC[C@]2(C(=O)[O-])CC[C@@]3(C)C(=CC[C@H]4[C@]5(C)CC[C@@H](O)C(C)(C)[C@@H]5CC[C@]43C)[C@H]12
REMARK SMILES IDX 7 1 6 2 11 3 33 4 5 5 12 6 15 7 2 8 3 9 13 10 16 11 1 12
REMARK SMILES IDX 4 13 14 14 31 15 17 16 18 17 30 18 32 19 19 20 29 21 28 22
REMARK SMILES IDX 21 23 20 24 25 25 22 26 23 27 26 28 27 29 8 30 9 31 10 32
REMARK SMILES IDX 24 33
REMARK H PARENT 24 34
REMARK Flexibility Score: inf
ROOT
ATOM      1  C   UNL     1      -4.554 -29.518 -33.360  1.00  0.00     0.017 C 
ATOM      2  C   UNL     1      -5.166 -30.958 -33.365  1.00  0.00     0.014 C 
ATOM      3  C   UNL     1      -3.608 -29.429 -34.603  1.00  0.00     0.014 C 
ATOM      4  C   UNL     1      -3.793 -29.260 -31.996  1.00  0.00     0.030 C 
ATOM      5  C   UNL     1      -6.081 -31.253 -32.164  1.00  0.00     0.004 C 
ATOM      6  C   UNL     1      -2.265 -28.740 -34.351  1.00  0.00     0.013 C 
ATOM      7  C   UNL     1      -2.352 -29.801 -32.043  1.00  0.00    -0.063 C 
ATOM      8  C   UNL     1      -4.738 -29.617 -30.785  1.00  0.00    -0.003 C 
ATOM      9  C   UNL     1      -5.370 -31.034 -30.823  1.00  0.00    -0.011 C 
ATOM     10  C   UNL     1      -1.411 -29.259 -33.127  1.00  0.00    -0.006 C 
ATOM     11  C   UNL     1      -1.788 -30.454 -31.026  1.00  0.00    -0.027 C 
ATOM     12  C   UNL     1      -4.248 -29.171 -29.384  1.00  0.00     0.008 C 
ATOM     13  C   UNL     1      -4.422 -32.206 -30.510  1.00  0.00     0.008 C 
ATOM     14  C   UNL     1      -0.751 -27.987 -32.499  1.00  0.00     0.017 C 
ATOM     15  C   UNL     1      -0.268 -30.337 -33.536  1.00  0.00    -0.020 C 
ATOM     16  C   UNL     1      -0.660 -31.397 -31.250  1.00  0.00     0.032 C 
ATOM     17  C   UNL     1       0.437 -30.940 -32.265  1.00  0.00     0.006 C 
ATOM     18  C   UNL     1      -0.900 -31.520 -34.337  1.00  0.00     0.008 C 
ATOM     19  C   UNL     1       0.781 -29.565 -34.412  1.00  0.00     0.012 C 
ATOM     20  C   UNL     1       1.483 -32.143 -32.500  1.00  0.00    -0.025 C 
ATOM     21  C   UNL     1      -0.317 -32.973 -34.217  1.00  0.00     0.005 C 
ATOM     22  C   UNL     1       0.729 -33.386 -33.116  1.00  0.00     0.003 C 
ATOM     23  C   UNL     1       2.740 -31.806 -33.404  1.00  0.00     0.010 C 
ATOM     24  C   UNL     1       2.068 -32.465 -31.076  1.00  0.00     0.012 C 
ATOM     25  C   UNL     1       1.697 -34.540 -33.653  1.00  0.00    -0.006 C 
ATOM     26  C   UNL     1       2.771 -32.464 -34.808  1.00  0.00     0.033 C 
ATOM     27  C   UNL     1       2.632 -34.004 -34.805  1.00  0.00     0.120 C 
ATOM     28  C   UNL     1       0.838 -35.726 -34.184  1.00  0.00     0.014 C 
ATOM     29  C   UNL     1       2.549 -35.157 -32.498  1.00  0.00     0.014 C 
ENDROOT
BRANCH   1  30
ATOM     30  C   UNL     1      -5.654 -28.461 -33.525  1.00  0.00     0.048 C 
ATOM     31  O   UNL     1      -5.554 -27.319 -32.997  1.00  0.00    -0.550 OA
ATOM     32  O   UNL     1      -6.750 -28.718 -34.332  1.00  0.00    -0.550 OA
ENDBRANCH   1  30
BRANCH  27  33
ATOM     33  O   UNL     1       3.904 -34.615 -34.776  1.00  0.00    -0.393 OA
ATOM     34  H   UNL     1       3.859 -35.424 -35.345  1.00  0.00     0.210 HD
ENDBRANCH  27  33
TORSDOF 2
ENDMDL
MODEL 5
REMARK VINA RESULT:    -7.179      1.669      7.626
REMARK INTER + INTRA:          -7.935
REMARK INTER:                  -7.811
REMARK INTRA:                  -0.124
REMARK UNBOUND:                -0.127
REMARK SMILES C[C@@H]1[C@H](C)CC[C@]2(C(=O)[O-])CC[C@@]3(C)C(=CC[C@H]4[C@]5(C)CC[C@@H](O)C(C)(C)[C@@H]5CC[C@]43C)[C@H]12
REMARK SMILES IDX 7 1 6 2 11 3 33 4 5 5 12 6 15 7 2 8 3 9 13 10 16 11 1 12
REMARK SMILES IDX 4 13 14 14 31 15 17 16 18 17 30 18 32 19 19 20 29 21 28 22
REMARK SMILES IDX 21 23 20 24 25 25 22 26 23 27 26 28 27 29 8 30 9 31 10 32
REMARK SMILES IDX 24 33
REMARK H PARENT 24 34
REMARK Flexibility Score: inf
ROOT
ATOM      1  C   UNL     1       0.412 -36.218 -31.729  1.00  0.00     0.017 C 
ATOM      2  C   UNL     1       1.386 -35.369 -30.846  1.00  0.00     0.014 C 
ATOM      3  C   UNL     1       0.433 -35.581 -33.157  1.00  0.00     0.014 C 
ATOM      4  C   UNL     1      -1.034 -36.224 -31.086  1.00  0.00     0.030 C 
ATOM      5  C   UNL     1       1.444 -35.815 -29.375  1.00  0.00     0.004 C 
ATOM      6  C   UNL     1      -0.935 -35.449 -33.832  1.00  0.00     0.013 C 
ATOM      7  C   UNL     1      -1.842 -34.981 -31.504  1.00  0.00    -0.063 C 
ATOM      8  C   UNL     1      -0.937 -36.635 -29.566  1.00  0.00    -0.003 C 
ATOM      9  C   UNL     1       0.062 -35.812 -28.711  1.00  0.00    -0.011 C 
ATOM     10  C   UNL     1      -2.079 -34.743 -33.000  1.00  0.00    -0.006 C 
ATOM     11  C   UNL     1      -2.606 -34.292 -30.655  1.00  0.00    -0.027 C 
ATOM     12  C   UNL     1      -2.280 -36.949 -28.859  1.00  0.00     0.008 C 
ATOM     13  C   UNL     1      -0.371 -34.377 -28.359  1.00  0.00     0.008 C 
ATOM     14  C   UNL     1      -3.393 -35.523 -33.337  1.00  0.00     0.017 C 
ATOM     15  C   UNL     1      -2.261 -33.167 -33.345  1.00  0.00    -0.020 C 
ATOM     16  C   UNL     1      -2.936 -32.863 -30.905  1.00  0.00     0.032 C 
ATOM     17  C   UNL     1      -3.295 -32.481 -32.378  1.00  0.00     0.006 C 
ATOM     18  C   UNL     1      -0.898 -32.418 -33.197  1.00  0.00     0.008 C 
ATOM     19  C   UNL     1      -2.784 -33.091 -34.824  1.00  0.00     0.012 C 
ATOM     20  C   UNL     1      -3.464 -30.882 -32.488  1.00  0.00    -0.025 C 
ATOM     21  C   UNL     1      -0.852 -30.922 -32.720  1.00  0.00     0.005 C 
ATOM     22  C   UNL     1      -2.101 -30.179 -32.114  1.00  0.00     0.003 C 
ATOM     23  C   UNL     1      -3.959 -30.330 -33.889  1.00  0.00     0.010 C 
ATOM     24  C   UNL     1      -4.605 -30.517 -31.469  1.00  0.00     0.012 C 
ATOM     25  C   UNL     1      -2.054 -28.617 -32.453  1.00  0.00    -0.006 C 
ATOM     26  C   UNL     1      -2.911 -29.556 -34.729  1.00  0.00     0.033 C 
ATOM     27  C   UNL     1      -2.245 -28.367 -33.999  1.00  0.00     0.120 C 
ATOM     28  C   UNL     1      -0.686 -28.032 -31.991  1.00  0.00     0.014 C 
ATOM     29  C   UNL     1      -3.119 -27.822 -31.633  1.00  0.00     0.014 C 
ENDROOT
BRANCH   1  30
ATOM     30  C   UNL     1       0.910 -37.664 -31.849  1.00  0.00     0.048 C 
ATOM     31  O   UNL     1       0.113 -38.620 -32.057  1.00  0.00    -0.550 OA
ATOM     32  O   UNL     1       2.267 -37.939 -31.811  1.00  0.00    -0.550 OA
ENDBRANCH   1  30
BRANCH  27  33
ATOM     33  O   UNL     1      -2.950 -27.171 -34.253  1.00  0.00    -0.393 OA
ATOM     34  H   UNL     1      -3.121 -26.734 -33.381  1.00  0.00     0.210 HD
ENDBRANCH  27  33
TORSDOF 2
ENDMDL
MODEL 6
REMARK VINA RESULT:    -7.025      2.301      7.268
REMARK INTER + INTRA:          -7.768
REMARK INTER:                  -7.646
REMARK INTRA:                  -0.122
REMARK UNBOUND:                -0.127
REMARK SMILES C[C@@H]1[C@H](C)CC[C@]2(C(=O)[O-])CC[C@@]3(C)C(=CC[C@H]4[C@]5(C)CC[C@@H](O)C(C)(C)[C@@H]5CC[C@]43C)[C@H]12
REMARK SMILES IDX 7 1 6 2 11 3 33 4 5 5 12 6 15 7 2 8 3 9 13 10 16 11 1 12
REMARK SMILES IDX 4 13 14 14 31 15 17 16 18 17 30 18 32 19 19 20 29 21 28 22
REMARK SMILES IDX 21 23 20 24 25 25 22 26 23 27 26 28 27 29 8 30 9 31 10 32
REMARK SMILES IDX 24 33
REMARK H PARENT 24 34
REMARK Flexibility Score: inf
ROOT
ATOM      1  C   UNL     1      -2.143 -35.820 -31.969  1.00  0.00     0.017 C 
ATOM      2  C   UNL     1      -3.369 -35.592 -32.914  1.00  0.00     0.014 C 
ATOM      3  C   UNL     1      -2.702 -35.843 -30.509  1.00  0.00     0.014 C 
ATOM      4  C   UNL     1      -1.070 -34.678 -32.193  1.00  0.00     0.030 C 
ATOM      5  C   UNL     1      -2.998 -35.475 -34.402  1.00  0.00     0.004 C 
ATOM      6  C   UNL     1      -1.869 -35.072 -29.481  1.00  0.00     0.013 C 
ATOM      7  C   UNL     1      -1.397 -33.425 -31.359  1.00  0.00    -0.063 C 
ATOM      8  C   UNL     1      -0.747 -34.548 -33.731  1.00  0.00    -0.003 C 
ATOM      9  C   UNL     1      -1.975 -34.363 -34.661  1.00  0.00    -0.011 C 
ATOM     10  C   UNL     1      -1.497 -33.578 -29.836  1.00  0.00    -0.006 C 
ATOM     11  C   UNL     1      -1.280 -32.186 -31.835  1.00  0.00    -0.027 C 
ATOM     12  C   UNL     1       0.474 -33.667 -34.098  1.00  0.00     0.008 C 
ATOM     13  C   UNL     1      -2.650 -32.980 -34.622  1.00  0.00     0.008 C 
ATOM     14  C   UNL     1      -0.040 -33.365 -29.306  1.00  0.00     0.017 C 
ATOM     15  C   UNL     1      -2.497 -32.480 -29.179  1.00  0.00    -0.020 C 
ATOM     16  C   UNL     1      -2.065 -31.063 -31.255  1.00  0.00     0.032 C 
ATOM     17  C   UNL     1      -2.178 -31.028 -29.696  1.00  0.00     0.006 C 
ATOM     18  C   UNL     1      -3.979 -32.805 -29.550  1.00  0.00     0.008 C 
ATOM     19  C   UNL     1      -2.279 -32.552 -27.626  1.00  0.00     0.012 C 
ATOM     20  C   UNL     1      -3.188 -29.850 -29.260  1.00  0.00    -0.025 C 
ATOM     21  C   UNL     1      -5.028 -31.653 -29.746  1.00  0.00     0.005 C 
ATOM     22  C   UNL     1      -4.622 -30.136 -29.853  1.00  0.00     0.003 C 
ATOM     23  C   UNL     1      -3.319 -29.587 -27.703  1.00  0.00     0.010 C 
ATOM     24  C   UNL     1      -2.565 -28.533 -29.855  1.00  0.00     0.012 C 
ATOM     25  C   UNL     1      -5.775 -29.195 -29.265  1.00  0.00    -0.006 C 
ATOM     26  C   UNL     1      -4.662 -30.000 -27.049  1.00  0.00     0.033 C 
ATOM     27  C   UNL     1      -5.920 -29.385 -27.706  1.00  0.00     0.120 C 
ATOM     28  C   UNL     1      -7.125 -29.539 -29.964  1.00  0.00     0.014 C 
ATOM     29  C   UNL     1      -5.521 -27.695 -29.614  1.00  0.00     0.014 C 
ENDROOT
BRANCH   1  30
ATOM     30  C   UNL     1      -1.490 -37.180 -32.247  1.00  0.00     0.048 C 
ATOM     31  O   UNL     1      -0.278 -37.397 -31.971  1.00  0.00    -0.550 OA
ATOM     32  O   UNL     1      -2.249 -38.230 -32.738  1.00  0.00    -0.550 OA
ENDBRANCH   1  30
BRANCH  27  33
ATOM     33  O   UNL     1      -6.275 -28.180 -27.063  1.00  0.00    -0.393 OA
ATOM     34  H   UNL     1      -6.304 -28.358 -26.089  1.00  0.00     0.210 HD
ENDBRANCH  27  33
TORSDOF 2
ENDMDL
MODEL 7
REMARK VINA RESULT:    -6.849      2.101      7.650
REMARK INTER + INTRA:          -7.577
REMARK INTER:                  -7.453
REMARK INTRA:                  -0.123
REMARK UNBOUND:                -0.127
REMARK SMILES C[C@@H]1[C@H](C)CC[C@]2(C(=O)[O-])CC[C@@]3(C)C(=CC[C@H]4[C@]5(C)CC[C@@H](O)C(C)(C)[C@@H]5CC[C@]43C)[C@H]12
REMARK SMILES IDX 7 1 6 2 11 3 33 4 5 5 12 6 15 7 2 8 3 9 13 10 16 11 1 12
REMARK SMILES IDX 4 13 14 14 31 15 17 16 18 17 30 18 32 19 19 20 29 21 28 22
REMARK SMILES IDX 21 23 20 24 25 25 22 26 23 27 26 28 27 29 8 30 9 31 10 32
REMARK SMILES IDX 24 33
REMARK H PARENT 24 34
REMARK Flexibility Score: inf
ROOT
ATOM      1  C   UNL     1      -0.509 -36.356 -31.406  1.00  0.00     0.017 C 
ATOM      2  C   UNL     1       0.324 -35.334 -32.249  1.00  0.00     0.014 C 
ATOM      3  C   UNL     1      -2.013 -36.101 -31.751  1.00  0.00     0.014 C 
ATOM      4  C   UNL     1      -0.197 -36.167 -29.866  1.00  0.00     0.030 C 
ATOM      5  C   UNL     1       1.838 -35.394 -31.986  1.00  0.00     0.004 C 
ATOM      6  C   UNL     1      -2.967 -36.114 -30.554  1.00  0.00     0.013 C 
ATOM      7  C   UNL     1      -1.062 -35.052 -29.248  1.00  0.00    -0.063 C 
ATOM      8  C   UNL     1       1.363 -36.183 -29.634  1.00  0.00    -0.003 C 
ATOM      9  C   UNL     1       2.181 -35.193 -30.505  1.00  0.00    -0.011 C 
ATOM     10  C   UNL     1      -2.587 -35.195 -29.325  1.00  0.00    -0.006 C 
ATOM     11  C   UNL     1      -0.583 -34.154 -28.386  1.00  0.00    -0.027 C 
ATOM     12  C   UNL     1       1.832 -36.278 -28.160  1.00  0.00     0.008 C 
ATOM     13  C   UNL     1       2.076 -33.706 -30.118  1.00  0.00     0.008 C 
ATOM     14  C   UNL     1      -2.989 -36.005 -28.049  1.00  0.00     0.017 C 
ATOM     15  C   UNL     1      -3.335 -33.753 -29.330  1.00  0.00    -0.020 C 
ATOM     16  C   UNL     1      -1.235 -32.828 -28.216  1.00  0.00     0.032 C 
ATOM     17  C   UNL     1      -2.798 -32.823 -28.181  1.00  0.00     0.006 C 
ATOM     18  C   UNL     1      -3.093 -33.022 -30.689  1.00  0.00     0.008 C 
ATOM     19  C   UNL     1      -4.862 -34.042 -29.113  1.00  0.00     0.012 C 
ATOM     20  C   UNL     1      -3.326 -31.300 -28.155  1.00  0.00    -0.025 C 
ATOM     21  C   UNL     1      -2.995 -31.456 -30.751  1.00  0.00     0.005 C 
ATOM     22  C   UNL     1      -2.860 -30.556 -29.466  1.00  0.00     0.003 C 
ATOM     23  C   UNL     1      -4.890 -31.109 -27.984  1.00  0.00     0.010 C 
ATOM     24  C   UNL     1      -2.685 -30.664 -26.866  1.00  0.00     0.012 C 
ATOM     25  C   UNL     1      -3.551 -29.131 -29.693  1.00  0.00    -0.006 C 
ATOM     26  C   UNL     1      -5.658 -30.596 -29.229  1.00  0.00     0.033 C 
ATOM     27  C   UNL     1      -5.116 -29.276 -29.826  1.00  0.00     0.120 C 
ATOM     28  C   UNL     1      -2.972 -28.479 -30.984  1.00  0.00     0.014 C 
ATOM     29  C   UNL     1      -3.188 -28.131 -28.550  1.00  0.00     0.014 C 
ENDROOT
BRANCH   1  30
ATOM     30  C   UNL     1      -0.168 -37.797 -31.810  1.00  0.00     0.048 C 
ATOM     31  O   UNL     1      -0.309 -38.757 -31.004  1.00  0.00    -0.550 OA
ATOM     32  O   UNL     1       0.228 -38.080 -33.107  1.00  0.00    -0.550 OA
ENDBRANCH   1  30
BRANCH  27  33
ATOM     33  O   UNL     1      -5.793 -28.168 -29.273  1.00  0.00    -0.393 OA
ATOM     34  H   UNL     1      -6.734 -28.439 -29.121  1.00  0.00     0.210 HD
ENDBRANCH  27  33
TORSDOF 2
ENDMDL
MODEL 8
REMARK VINA RESULT:    -6.819      2.947      7.710
REMARK INTER + INTRA:          -7.544
REMARK INTER:                  -7.510
REMARK INTRA:                  -0.034
REMARK UNBOUND:                -0.127
REMARK SMILES C[C@@H]1[C@H](C)CC[C@]2(C(=O)[O-])CC[C@@]3(C)C(=CC[C@H]4[C@]5(C)CC[C@@H](O)C(C)(C)[C@@H]5CC[C@]43C)[C@H]12
REMARK SMILES IDX 7 1 6 2 11 3 33 4 5 5 12 6 15 7 2 8 3 9 13 10 16 11 1 12
REMARK SMILES IDX 4 13 14 14 31 15 17 16 18 17 30 18 32 19 19 20 29 21 28 22
REMARK SMILES IDX 21 23 20 24 25 25 22 26 23 27 26 28 27 29 8 30 9 31 10 32
REMARK SMILES IDX 24 33
REMARK H PARENT 24 34
REMARK Flexibility Score: inf
ROOT
ATOM      1  C   UNL     1       2.953 -33.196 -31.358  1.00  0.00     0.017 C 
ATOM      2  C   UNL     1       2.458 -32.963 -29.892  1.00  0.00     0.014 C 
ATOM      3  C   UNL     1       3.083 -31.783 -32.016  1.00  0.00     0.014 C 
ATOM      4  C   UNL     1       1.938 -34.135 -32.128  1.00  0.00     0.030 C 
ATOM      5  C   UNL     1       2.208 -34.260 -29.104  1.00  0.00     0.004 C 
ATOM      6  C   UNL     1       2.555 -31.680 -33.449  1.00  0.00     0.013 C 
ATOM      7  C   UNL     1       0.764 -33.331 -32.720  1.00  0.00    -0.063 C 
ATOM      8  C   UNL     1       1.662 -35.432 -31.274  1.00  0.00    -0.003 C 
ATOM      9  C   UNL     1       1.212 -35.188 -29.809  1.00  0.00    -0.011 C 
ATOM     10  C   UNL     1       1.087 -32.206 -33.711  1.00  0.00    -0.006 C 
ATOM     11  C   UNL     1      -0.499 -33.754 -32.677  1.00  0.00    -0.027 C 
ATOM     12  C   UNL     1       0.904 -36.575 -31.996  1.00  0.00     0.008 C 
ATOM     13  C   UNL     1      -0.231 -34.682 -29.621  1.00  0.00     0.008 C 
ATOM     14  C   UNL     1       1.126 -32.894 -35.115  1.00  0.00     0.017 C 
ATOM     15  C   UNL     1      -0.040 -31.037 -33.693  1.00  0.00    -0.020 C 
ATOM     16  C   UNL     1      -1.633 -32.794 -32.755  1.00  0.00     0.032 C 
ATOM     17  C   UNL     1      -1.492 -31.635 -33.795  1.00  0.00     0.006 C 
ATOM     18  C   UNL     1       0.048 -30.219 -32.364  1.00  0.00     0.008 C 
ATOM     19  C   UNL     1       0.248 -30.121 -34.935  1.00  0.00     0.012 C 
ATOM     20  C   UNL     1      -2.726 -30.613 -33.627  1.00  0.00    -0.025 C 
ATOM     21  C   UNL     1      -1.243 -29.605 -31.714  1.00  0.00     0.005 C 
ATOM     22  C   UNL     1      -2.698 -29.983 -32.180  1.00  0.00     0.003 C 
ATOM     23  C   UNL     1      -2.813 -29.444 -34.693  1.00  0.00     0.010 C 
ATOM     24  C   UNL     1      -4.016 -31.483 -33.857  1.00  0.00     0.012 C 
ATOM     25  C   UNL     1      -3.699 -28.751 -31.981  1.00  0.00    -0.006 C 
ATOM     26  C   UNL     1      -2.495 -28.018 -34.175  1.00  0.00     0.033 C 
ATOM     27  C   UNL     1      -3.340 -27.567 -32.961  1.00  0.00     0.120 C 
ATOM     28  C   UNL     1      -3.616 -28.255 -30.506  1.00  0.00     0.014 C 
ATOM     29  C   UNL     1      -5.186 -29.186 -32.168  1.00  0.00     0.014 C 
ENDROOT
BRANCH   1  30
ATOM     30  C   UNL     1       4.341 -33.850 -31.365  1.00  0.00     0.048 C 
ATOM     31  O   UNL     1       4.593 -34.850 -32.092  1.00  0.00    -0.550 OA
ATOM     32  O   UNL     1       5.374 -33.299 -30.624  1.00  0.00    -0.550 OA
ENDBRANCH   1  30
BRANCH  27  33
ATOM     33  O   UNL     1      -4.493 -26.875 -33.389  1.00  0.00    -0.393 OA
ATOM     34  H   UNL     1      -4.210 -25.967 -33.666  1.00  0.00     0.210 HD
ENDBRANCH  27  33
TORSDOF 2
ENDMDL
MODEL 9
REMARK VINA RESULT:    -6.465      8.575     12.784
REMARK INTER + INTRA:          -7.158
REMARK INTER:                  -7.032
REMARK INTRA:                  -0.127
REMARK UNBOUND:                -0.127
REMARK SMILES C[C@@H]1[C@H](C)CC[C@]2(C(=O)[O-])CC[C@@]3(C)C(=CC[C@H]4[C@]5(C)CC[C@@H](O)C(C)(C)[C@@H]5CC[C@]43C)[C@H]12
REMARK SMILES IDX 7 1 6 2 11 3 33 4 5 5 12 6 15 7 2 8 3 9 13 10 16 11 1 12
REMARK SMILES IDX 4 13 14 14 31 15 17 16 18 17 30 18 32 19 19 20 29 21 28 22
REMARK SMILES IDX 21 23 20 24 25 25 22 26 23 27 26 28 27 29 8 30 9 31 10 32
REMARK SMILES IDX 24 33
REMARK H PARENT 24 34
REMARK Flexibility Score: inf
ROOT
ATOM      1  C   UNL     1       3.625 -39.540 -31.551  1.00  0.00     0.017 C 
ATOM      2  C   UNL     1       4.522 -39.174 -30.322  1.00  0.00     0.014 C 
ATOM      3  C   UNL     1       3.344 -41.076 -31.458  1.00  0.00     0.014 C 
ATOM      4  C   UNL     1       4.356 -39.135 -32.894  1.00  0.00     0.030 C 
ATOM      5  C   UNL     1       4.958 -37.700 -30.284  1.00  0.00     0.004 C 
ATOM      6  C   UNL     1       3.443 -41.838 -32.782  1.00  0.00     0.013 C 
ATOM      7  C   UNL     1       5.329 -40.235 -33.360  1.00  0.00    -0.063 C 
ATOM      8  C   UNL     1       4.835 -37.635 -32.806  1.00  0.00    -0.003 C 
ATOM      9  C   UNL     1       5.691 -37.276 -31.563  1.00  0.00    -0.011 C 
ATOM     10  C   UNL     1       4.762 -41.635 -33.628  1.00  0.00    -0.006 C 
ATOM     11  C   UNL     1       6.543 -39.973 -33.845  1.00  0.00    -0.027 C 
ATOM     12  C   UNL     1       5.330 -37.000 -34.130  1.00  0.00     0.008 C 
ATOM     13  C   UNL     1       7.138 -37.803 -31.562  1.00  0.00     0.008 C 
ATOM     14  C   UNL     1       4.308 -41.614 -35.125  1.00  0.00     0.017 C 
ATOM     15  C   UNL     1       5.873 -42.796 -33.397  1.00  0.00    -0.020 C 
ATOM     16  C   UNL     1       7.628 -40.989 -33.791  1.00  0.00     0.032 C 
ATOM     17  C   UNL     1       7.221 -42.458 -34.135  1.00  0.00     0.006 C 
ATOM     18  C   UNL     1       6.187 -42.952 -31.875  1.00  0.00     0.008 C 
ATOM     19  C   UNL     1       5.263 -44.119 -33.982  1.00  0.00     0.012 C 
ATOM     20  C   UNL     1       8.475 -43.435 -33.868  1.00  0.00    -0.025 C 
ATOM     21  C   UNL     1       7.623 -43.363 -31.390  1.00  0.00     0.005 C 
ATOM     22  C   UNL     1       8.875 -43.379 -32.343  1.00  0.00     0.003 C 
ATOM     23  C   UNL     1       8.279 -44.950 -34.291  1.00  0.00     0.010 C 
ATOM     24  C   UNL     1       9.626 -42.890 -34.792  1.00  0.00     0.012 C 
ATOM     25  C   UNL     1       9.918 -44.506 -31.895  1.00  0.00    -0.006 C 
ATOM     26  C   UNL     1       8.155 -45.974 -33.134  1.00  0.00     0.033 C 
ATOM     27  C   UNL     1       9.321 -45.949 -32.119  1.00  0.00     0.120 C 
ATOM     28  C   UNL     1      10.271 -44.311 -30.390  1.00  0.00     0.014 C 
ATOM     29  C   UNL     1      11.280 -44.354 -32.643  1.00  0.00     0.014 C 
ENDROOT
BRANCH   1  30
ATOM     30  C   UNL     1       2.278 -38.808 -31.475  1.00  0.00     0.048 C 
ATOM     31  O   UNL     1       1.629 -38.515 -32.517  1.00  0.00    -0.550 OA
ATOM     32  O   UNL     1       1.708 -38.523 -30.245  1.00  0.00    -0.550 OA
ENDBRANCH   1  30
BRANCH  27  33
ATOM     33  O   UNL     1      10.318 -46.877 -32.488  1.00  0.00    -0.393 OA
ATOM     34  H   UNL     1      10.193 -47.085 -33.448  1.00  0.00     0.210 HD
ENDBRANCH  27  33
TORSDOF 2
ENDMDL
