MODEL 1
REMARK VINA RESULT:    -6.058      0.000      0.000
REMARK INTER + INTRA:         -10.406
REMARK INTER:                  -8.359
REMARK INTRA:                  -2.047
REMARK UNBOUND:                -2.047
REMARK SMILES CC[C@H](CC[C@@H](C)[C@H]1CC[C@H]2C3=CC[C@H]4C[C@@H](O)CC[C@]4(C)[C@@H]3CC[C@@]12C)C(C)C
REMARK SMILES IDX 5 1 4 2 3 3 2 4 1 5 28 6 29 7 30 8 6 9 7 10 8 11 9 12 26 13
REMARK SMILES IDX 10 14 11 15 25 16 27 17 12 18 24 19 23 20 13 21 21 22 14 23
REMARK SMILES IDX 15 24 20 25 22 26 16 27 19 28 17 29 18 30
REMARK H PARENT 18 31
REMARK Flexibility Score: inf
ROOT
ATOM      1  C   UNL     1     136.952 133.752 145.150  1.00  0.00     0.004 C 
ENDROOT
BRANCH   1   2
ATOM      2  C   UNL     1     135.664 133.820 145.994  1.00  0.00     0.004 C 
BRANCH   2   3
ATOM      3  C   UNL     1     135.916 134.477 147.391  1.00  0.00    -0.009 C 
BRANCH   3   4
ATOM      4  C   UNL     1     134.945 135.672 147.611  1.00  0.00     0.000 C 
ATOM      5  C   UNL     1     134.917 136.649 146.432  1.00  0.00     0.004 C 
ENDBRANCH   3   4
BRANCH   3   6
ATOM      6  C   UNL     1     135.827 133.403 148.530  1.00  0.00    -0.014 C 
ATOM      7  C   UNL     1     137.144 133.344 149.331  1.00  0.00     0.007 C 
ATOM      8  C   UNL     1     134.671 133.645 149.517  1.00  0.00     0.007 C 
ENDBRANCH   3   6
ENDBRANCH   2   3
ENDBRANCH   1   2
BRANCH   1   9
ATOM      9  C   UNL     1     138.172 134.412 145.859  1.00  0.00    -0.011 C 
ATOM     10  C   UNL     1     139.169 133.307 146.267  1.00  0.00     0.008 C 
BRANCH   9  11
ATOM     11  C   UNL     1     138.847 135.495 144.942  1.00  0.00    -0.002 C 
ATOM     12  C   UNL     1     137.875 136.056 143.879  1.00  0.00     0.005 C 
ATOM     13  C   UNL     1     139.451 136.768 145.625  1.00  0.00    -0.023 C 
ATOM     14  C   UNL     1     138.273 137.502 143.600  1.00  0.00     0.009 C 
ATOM     15  C   UNL     1     139.520 137.759 144.439  1.00  0.00     0.021 C 
ATOM     16  C   UNL     1     138.521 137.319 146.755  1.00  0.00     0.008 C 
ATOM     17  C   UNL     1     140.884 136.528 146.165  1.00  0.00     0.012 C 
ATOM     18  C   UNL     1     139.672 139.206 144.887  1.00  0.00    -0.067 C 
ATOM     19  C   UNL     1     138.829 138.771 147.167  1.00  0.00     0.009 C 
ATOM     20  C   UNL     1     138.714 139.724 145.958  1.00  0.00     0.021 C 
ATOM     21  C   UNL     1     140.779 139.888 144.513  1.00  0.00    -0.027 C 
ATOM     22  C   UNL     1     138.898 141.264 146.264  1.00  0.00    -0.023 C 
ATOM     23  C   UNL     1     141.121 141.264 145.008  1.00  0.00     0.031 C 
ATOM     24  C   UNL     1     140.422 141.594 146.335  1.00  0.00     0.002 C 
ATOM     25  C   UNL     1     138.238 141.673 147.619  1.00  0.00     0.010 C 
ATOM     26  C   UNL     1     138.192 142.046 145.114  1.00  0.00     0.012 C 
ATOM     27  C   UNL     1     140.710 143.057 146.744  1.00  0.00     0.036 C 
ATOM     28  C   UNL     1     138.497 143.140 147.993  1.00  0.00     0.032 C 
ATOM     29  C   UNL     1     140.007 143.423 148.062  1.00  0.00     0.114 C 
BRANCH  29  30
ATOM     30  O   UNL     1     140.244 144.769 148.393  1.00  0.00    -0.393 OA
ATOM     31  H   UNL     1     139.761 144.960 149.241  1.00  0.00     0.210 HD
ENDBRANCH  29  30
ENDBRANCH   9  11
ENDBRANCH   1   9
TORSDOF 7
ENDMDL
MODEL 2
REMARK VINA RESULT:    -6.027      5.108      8.063
REMARK INTER + INTRA:         -10.364
REMARK INTER:                  -9.106
REMARK INTRA:                  -1.258
REMARK UNBOUND:                -2.047
REMARK SMILES CC[C@H](CC[C@@H](C)[C@H]1CC[C@H]2C3=CC[C@H]4C[C@@H](O)CC[C@]4(C)[C@@H]3CC[C@@]12C)C(C)C
REMARK SMILES IDX 5 1 4 2 3 3 2 4 1 5 28 6 29 7 30 8 6 9 7 10 8 11 9 12 26 13
REMARK SMILES IDX 10 14 11 15 25 16 27 17 12 18 24 19 23 20 13 21 21 22 14 23
REMARK SMILES IDX 15 24 20 25 22 26 16 27 19 28 17 29 18 30
REMARK H PARENT 18 31
REMARK Flexibility Score: inf
ROOT
ATOM      1  C   UNL     1     140.335 139.214 145.393  1.00  0.00     0.004 C 
ENDROOT
BRANCH   1   2
ATOM      2  C   UNL     1     138.991 139.968 145.384  1.00  0.00     0.004 C 
BRANCH   2   3
ATOM      3  C   UNL     1     139.125 141.407 145.984  1.00  0.00    -0.009 C 
BRANCH   3   4
ATOM      4  C   UNL     1     138.470 142.453 145.038  1.00  0.00     0.000 C 
ATOM      5  C   UNL     1     138.027 141.858 143.698  1.00  0.00     0.004 C 
ENDBRANCH   3   4
BRANCH   3   6
ATOM      6  C   UNL     1     138.543 141.453 147.440  1.00  0.00    -0.014 C 
ATOM      7  C   UNL     1     139.668 141.307 148.485  1.00  0.00     0.007 C 
ATOM      8  C   UNL     1     137.759 142.742 147.750  1.00  0.00     0.007 C 
ENDBRANCH   3   6
ENDBRANCH   2   3
ENDBRANCH   1   2
BRANCH   1   9
ATOM      9  C   UNL     1     140.450 138.202 146.571  1.00  0.00    -0.011 C 
ATOM     10  C   UNL     1     139.036 137.709 146.944  1.00  0.00     0.008 C 
BRANCH   9  11
ATOM     11  C   UNL     1     141.404 137.007 146.207  1.00  0.00    -0.002 C 
ATOM     12  C   UNL     1     142.169 137.247 144.885  1.00  0.00     0.005 C 
ATOM     13  C   UNL     1     142.518 136.613 147.233  1.00  0.00    -0.023 C 
ATOM     14  C   UNL     1     143.518 136.541 144.992  1.00  0.00     0.009 C 
ATOM     15  C   UNL     1     143.507 135.827 146.338  1.00  0.00     0.021 C 
ATOM     16  C   UNL     1     143.211 137.870 147.853  1.00  0.00     0.008 C 
ATOM     17  C   UNL     1     141.992 135.673 148.348  1.00  0.00     0.012 C 
ATOM     18  C   UNL     1     144.885 135.682 146.969  1.00  0.00    -0.067 C 
ATOM     19  C   UNL     1     144.564 137.573 148.525  1.00  0.00     0.009 C 
ATOM     20  C   UNL     1     145.552 136.941 147.520  1.00  0.00     0.021 C 
ATOM     21  C   UNL     1     145.348 134.439 147.236  1.00  0.00    -0.027 C 
ATOM     22  C   UNL     1     147.019 136.685 148.050  1.00  0.00    -0.023 C 
ATOM     23  C   UNL     1     146.620 134.164 147.987  1.00  0.00     0.031 C 
ATOM     24  C   UNL     1     147.045 135.352 148.862  1.00  0.00     0.002 C 
ATOM     25  C   UNL     1     147.514 137.840 148.978  1.00  0.00     0.010 C 
ATOM     26  C   UNL     1     147.952 136.619 146.802  1.00  0.00     0.012 C 
ATOM     27  C   UNL     1     148.414 135.068 149.522  1.00  0.00     0.036 C 
ATOM     28  C   UNL     1     148.893 137.564 149.595  1.00  0.00     0.032 C 
ATOM     29  C   UNL     1     148.877 136.249 150.392  1.00  0.00     0.114 C 
BRANCH  29  30
ATOM     30  O   UNL     1     150.142 135.991 150.948  1.00  0.00    -0.393 OA
ATOM     31  H   UNL     1     150.433 135.095 150.632  1.00  0.00     0.210 HD
ENDBRANCH  29  30
ENDBRANCH   9  11
ENDBRANCH   1   9
TORSDOF 7
ENDMDL
MODEL 3
REMARK VINA RESULT:    -5.896      4.614      7.563
REMARK INTER + INTRA:         -10.183
REMARK INTER:                  -8.969
REMARK INTRA:                  -1.214
REMARK UNBOUND:                -2.047
REMARK SMILES CC[C@H](CC[C@@H](C)[C@H]1CC[C@H]2C3=CC[C@H]4C[C@@H](O)CC[C@]4(C)[C@@H]3CC[C@@]12C)C(C)C
REMARK SMILES IDX 5 1 4 2 3 3 2 4 1 5 28 6 29 7 30 8 6 9 7 10 8 11 9 12 26 13
REMARK SMILES IDX 10 14 11 15 25 16 27 17 12 18 24 19 23 20 13 21 21 22 14 23
REMARK SMILES IDX 15 24 20 25 22 26 16 27 19 28 17 29 18 30
REMARK H PARENT 18 31
REMARK Flexibility Score: inf
ROOT
ATOM      1  C   UNL     1     138.914 139.698 147.254  1.00  0.00     0.004 C 
ENDROOT
BRANCH   1   2
ATOM      2  C   UNL     1     139.755 140.636 148.142  1.00  0.00     0.004 C 
BRANCH   2   3
ATOM      3  C   UNL     1     139.226 142.107 148.101  1.00  0.00    -0.009 C 
BRANCH   3   4
ATOM      4  C   UNL     1     140.362 143.082 147.682  1.00  0.00     0.000 C 
ATOM      5  C   UNL     1     140.275 144.443 148.379  1.00  0.00     0.004 C 
ENDBRANCH   3   4
BRANCH   3   6
ATOM      6  C   UNL     1     137.962 142.212 147.179  1.00  0.00    -0.014 C 
ATOM      7  C   UNL     1     136.828 142.981 147.888  1.00  0.00     0.007 C 
ATOM      8  C   UNL     1     138.240 142.899 145.829  1.00  0.00     0.007 C 
ENDBRANCH   3   6
ENDBRANCH   2   3
ENDBRANCH   1   2
BRANCH   1   9
ATOM      9  C   UNL     1     139.695 138.424 146.816  1.00  0.00    -0.011 C 
ATOM     10  C   UNL     1     138.700 137.253 146.675  1.00  0.00     0.008 C 
BRANCH   9  11
ATOM     11  C   UNL     1     140.493 138.673 145.485  1.00  0.00    -0.002 C 
ATOM     12  C   UNL     1     140.662 140.178 145.173  1.00  0.00     0.005 C 
ATOM     13  C   UNL     1     141.940 138.088 145.370  1.00  0.00    -0.023 C 
ATOM     14  C   UNL     1     141.980 140.353 144.424  1.00  0.00     0.009 C 
ATOM     15  C   UNL     1     142.538 138.948 144.231  1.00  0.00     0.021 C 
ATOM     16  C   UNL     1     142.752 138.279 146.693  1.00  0.00     0.008 C 
ATOM     17  C   UNL     1     141.946 136.600 144.935  1.00  0.00     0.012 C 
ATOM     18  C   UNL     1     144.058 138.890 144.185  1.00  0.00    -0.067 C 
ATOM     19  C   UNL     1     144.274 138.122 146.522  1.00  0.00     0.009 C 
ATOM     20  C   UNL     1     144.820 139.130 145.488  1.00  0.00     0.021 C 
ATOM     21  C   UNL     1     144.656 138.396 143.076  1.00  0.00    -0.027 C 
ATOM     22  C   UNL     1     146.389 139.152 145.296  1.00  0.00    -0.023 C 
ATOM     23  C   UNL     1     146.133 138.149 142.961  1.00  0.00     0.031 C 
ATOM     24  C   UNL     1     146.804 137.994 144.334  1.00  0.00     0.002 C 
ATOM     25  C   UNL     1     147.145 138.969 146.649  1.00  0.00     0.010 C 
ATOM     26  C   UNL     1     146.758 140.549 144.708  1.00  0.00     0.012 C 
ATOM     27  C   UNL     1     148.335 137.858 144.171  1.00  0.00     0.036 C 
ATOM     28  C   UNL     1     148.669 138.876 146.477  1.00  0.00     0.032 C 
ATOM     29  C   UNL     1     149.038 137.720 145.532  1.00  0.00     0.114 C 
BRANCH  29  30
ATOM     30  O   UNL     1     150.432 137.643 145.366  1.00  0.00    -0.393 OA
ATOM     31  H   UNL     1     150.813 137.250 146.195  1.00  0.00     0.210 HD
ENDBRANCH  29  30
ENDBRANCH   9  11
ENDBRANCH   1   9
TORSDOF 7
ENDMDL
MODEL 4
REMARK VINA RESULT:    -5.846      8.254     11.064
REMARK INTER + INTRA:         -10.115
REMARK INTER:                  -8.752
REMARK INTRA:                  -1.362
REMARK UNBOUND:                -2.047
REMARK SMILES CC[C@H](CC[C@@H](C)[C@H]1CC[C@H]2C3=CC[C@H]4C[C@@H](O)CC[C@]4(C)[C@@H]3CC[C@@]12C)C(C)C
REMARK SMILES IDX 5 1 4 2 3 3 2 4 1 5 28 6 29 7 30 8 6 9 7 10 8 11 9 12 26 13
REMARK SMILES IDX 10 14 11 15 25 16 27 17 12 18 24 19 23 20 13 21 21 22 14 23
REMARK SMILES IDX 15 24 20 25 22 26 16 27 19 28 17 29 18 30
REMARK H PARENT 18 31
REMARK Flexibility Score: inf
ROOT
ATOM      1  C   UNL     1     147.875 135.380 151.354  1.00  0.00     0.004 C 
ENDROOT
BRANCH   1   2
ATOM      2  C   UNL     1     149.215 134.759 151.796  1.00  0.00     0.004 C 
BRANCH   2   3
ATOM      3  C   UNL     1     150.380 135.129 150.820  1.00  0.00    -0.009 C 
BRANCH   3   4
ATOM      4  C   UNL     1     150.664 136.658 150.867  1.00  0.00     0.000 C 
ATOM      5  C   UNL     1     150.954 137.259 149.488  1.00  0.00     0.004 C 
ENDBRANCH   3   4
BRANCH   3   6
ATOM      6  C   UNL     1     151.651 134.263 151.126  1.00  0.00    -0.014 C 
ATOM      7  C   UNL     1     151.318 133.136 152.125  1.00  0.00     0.007 C 
ATOM      8  C   UNL     1     152.281 133.629 149.873  1.00  0.00     0.007 C 
ENDBRANCH   3   6
ENDBRANCH   2   3
ENDBRANCH   1   2
BRANCH   1   9
ATOM      9  C   UNL     1     146.967 134.371 150.590  1.00  0.00    -0.011 C 
ATOM     10  C   UNL     1     146.277 133.447 151.616  1.00  0.00     0.008 C 
BRANCH   9  11
ATOM     11  C   UNL     1     145.923 135.116 149.683  1.00  0.00    -0.002 C 
ATOM     12  C   UNL     1     145.514 136.490 150.262  1.00  0.00     0.005 C 
ATOM     13  C   UNL     1     146.318 135.423 148.200  1.00  0.00    -0.023 C 
ATOM     14  C   UNL     1     145.186 137.411 149.090  1.00  0.00     0.009 C 
ATOM     15  C   UNL     1     145.328 136.555 147.837  1.00  0.00     0.021 C 
ATOM     16  C   UNL     1     147.796 135.921 148.083  1.00  0.00     0.008 C 
ATOM     17  C   UNL     1     146.072 134.217 147.258  1.00  0.00     0.012 C 
ATOM     18  C   UNL     1     145.753 137.337 146.603  1.00  0.00    -0.067 C 
ATOM     19  C   UNL     1     148.115 136.631 146.754  1.00  0.00     0.009 C 
ATOM     20  C   UNL     1     147.191 137.851 146.545  1.00  0.00     0.021 C 
ATOM     21  C   UNL     1     144.940 137.336 145.521  1.00  0.00    -0.027 C 
ATOM     22  C   UNL     1     147.484 138.738 145.270  1.00  0.00    -0.023 C 
ATOM     23  C   UNL     1     145.308 137.941 144.196  1.00  0.00     0.031 C 
ATOM     24  C   UNL     1     146.828 138.070 144.020  1.00  0.00     0.002 C 
ATOM     25  C   UNL     1     149.015 138.890 145.004  1.00  0.00     0.010 C 
ATOM     26  C   UNL     1     146.887 140.151 145.548  1.00  0.00     0.012 C 
ATOM     27  C   UNL     1     147.154 138.802 142.698  1.00  0.00     0.036 C 
ATOM     28  C   UNL     1     149.326 139.654 143.709  1.00  0.00     0.032 C 
ATOM     29  C   UNL     1     148.671 138.963 142.501  1.00  0.00     0.114 C 
BRANCH  29  30
ATOM     30  O   UNL     1     148.946 139.669 141.317  1.00  0.00    -0.393 OA
ATOM     31  H   UNL     1     148.627 140.602 141.441  1.00  0.00     0.210 HD
ENDBRANCH  29  30
ENDBRANCH   9  11
ENDBRANCH   1   9
TORSDOF 7
ENDMDL
MODEL 5
REMARK VINA RESULT:    -5.772      6.084      8.395
REMARK INTER + INTRA:         -10.013
REMARK INTER:                  -7.958
REMARK INTRA:                  -2.054
REMARK UNBOUND:                -2.047
REMARK SMILES CC[C@H](CC[C@@H](C)[C@H]1CC[C@H]2C3=CC[C@H]4C[C@@H](O)CC[C@]4(C)[C@@H]3CC[C@@]12C)C(C)C
REMARK SMILES IDX 5 1 4 2 3 3 2 4 1 5 28 6 29 7 30 8 6 9 7 10 8 11 9 12 26 13
REMARK SMILES IDX 10 14 11 15 25 16 27 17 12 18 24 19 23 20 13 21 21 22 14 23
REMARK SMILES IDX 15 24 20 25 22 26 16 27 19 28 17 29 18 30
REMARK H PARENT 18 31
REMARK Flexibility Score: inf
ROOT
ATOM      1  C   UNL     1     147.122 134.042 151.369  1.00  0.00     0.004 C 
ENDROOT
BRANCH   1   2
ATOM      2  C   UNL     1     145.638 134.222 151.747  1.00  0.00     0.004 C 
BRANCH   2   3
ATOM      3  C   UNL     1     144.732 133.131 151.087  1.00  0.00    -0.009 C 
BRANCH   3   4
ATOM      4  C   UNL     1     144.361 132.034 152.125  1.00  0.00     0.000 C 
ATOM      5  C   UNL     1     143.713 130.800 151.490  1.00  0.00     0.004 C 
ENDBRANCH   3   4
BRANCH   3   6
ATOM      6  C   UNL     1     143.474 133.790 150.421  1.00  0.00    -0.014 C 
ATOM      7  C   UNL     1     143.181 135.168 151.048  1.00  0.00     0.007 C 
ATOM      8  C   UNL     1     143.607 133.970 148.898  1.00  0.00     0.007 C 
ENDBRANCH   3   6
ENDBRANCH   2   3
ENDBRANCH   1   2
BRANCH   1   9
ATOM      9  C   UNL     1     147.842 135.396 151.094  1.00  0.00    -0.011 C 
ATOM     10  C   UNL     1     149.193 135.402 151.839  1.00  0.00     0.008 C 
BRANCH   9  11
ATOM     11  C   UNL     1     148.026 135.641 149.552  1.00  0.00    -0.002 C 
ATOM     12  C   UNL     1     147.712 134.381 148.714  1.00  0.00     0.005 C 
ATOM     13  C   UNL     1     147.183 136.774 148.879  1.00  0.00    -0.023 C 
ATOM     14  C   UNL     1     147.168 134.842 147.365  1.00  0.00     0.009 C 
ATOM     15  C   UNL     1     147.237 136.364 147.388  1.00  0.00     0.021 C 
ATOM     16  C   UNL     1     145.707 136.788 149.396  1.00  0.00     0.008 C 
ATOM     17  C   UNL     1     147.832 138.173 149.041  1.00  0.00     0.012 C 
ATOM     18  C   UNL     1     146.162 137.042 146.550  1.00  0.00    -0.067 C 
ATOM     19  C   UNL     1     144.734 137.571 148.494  1.00  0.00     0.009 C 
ATOM     20  C   UNL     1     144.724 136.993 147.063  1.00  0.00     0.021 C 
ATOM     21  C   UNL     1     146.544 137.855 145.539  1.00  0.00    -0.027 C 
ATOM     22  C   UNL     1     143.684 137.634 146.059  1.00  0.00    -0.023 C 
ATOM     23  C   UNL     1     145.593 138.695 144.735  1.00  0.00     0.031 C 
ATOM     24  C   UNL     1     144.278 138.958 145.483  1.00  0.00     0.002 C 
ATOM     25  C   UNL     1     142.326 137.961 146.756  1.00  0.00     0.010 C 
ATOM     26  C   UNL     1     143.424 136.584 144.936  1.00  0.00     0.012 C 
ATOM     27  C   UNL     1     143.289 139.725 144.576  1.00  0.00     0.036 C 
ATOM     28  C   UNL     1     141.337 138.686 145.831  1.00  0.00     0.032 C 
ATOM     29  C   UNL     1     141.953 139.988 145.292  1.00  0.00     0.114 C 
BRANCH  29  30
ATOM     30  O   UNL     1     141.052 140.645 144.436  1.00  0.00    -0.393 OA
ATOM     31  H   UNL     1     140.434 139.961 144.066  1.00  0.00     0.210 HD
ENDBRANCH  29  30
ENDBRANCH   9  11
ENDBRANCH   1   9
TORSDOF 7
ENDMDL
MODEL 6
REMARK VINA RESULT:    -5.609      6.457     10.589
REMARK INTER + INTRA:          -9.787
REMARK INTER:                  -7.688
REMARK INTRA:                  -2.099
REMARK UNBOUND:                -2.047
REMARK SMILES CC[C@H](CC[C@@H](C)[C@H]1CC[C@H]2C3=CC[C@H]4C[C@@H](O)CC[C@]4(C)[C@@H]3CC[C@@]12C)C(C)C
REMARK SMILES IDX 5 1 4 2 3 3 2 4 1 5 28 6 29 7 30 8 6 9 7 10 8 11 9 12 26 13
REMARK SMILES IDX 10 14 11 15 25 16 27 17 12 18 24 19 23 20 13 21 21 22 14 23
REMARK SMILES IDX 15 24 20 25 22 26 16 27 19 28 17 29 18 30
REMARK H PARENT 18 31
REMARK Flexibility Score: inf
ROOT
ATOM      1  C   UNL     1     148.612 139.527 145.997  1.00  0.00     0.004 C 
ENDROOT
BRANCH   1   2
ATOM      2  C   UNL     1     147.399 140.320 145.473  1.00  0.00     0.004 C 
BRANCH   2   3
ATOM      3  C   UNL     1     146.340 139.389 144.796  1.00  0.00    -0.009 C 
BRANCH   3   4
ATOM      4  C   UNL     1     144.942 139.594 145.445  1.00  0.00     0.000 C 
ATOM      5  C   UNL     1     143.858 138.701 144.833  1.00  0.00     0.004 C 
ENDBRANCH   3   4
BRANCH   3   6
ATOM      6  C   UNL     1     146.329 139.606 143.242  1.00  0.00    -0.014 C 
ATOM      7  C   UNL     1     147.171 140.840 142.856  1.00  0.00     0.007 C 
ATOM      8  C   UNL     1     146.852 138.395 142.447  1.00  0.00     0.007 C 
ENDBRANCH   3   6
ENDBRANCH   2   3
ENDBRANCH   1   2
BRANCH   1   9
ATOM      9  C   UNL     1     148.412 137.985 145.894  1.00  0.00    -0.011 C 
ATOM     10  C   UNL     1     149.551 137.392 145.038  1.00  0.00     0.008 C 
BRANCH   9  11
ATOM     11  C   UNL     1     148.349 137.322 147.318  1.00  0.00    -0.002 C 
ATOM     12  C   UNL     1     147.976 138.336 148.424  1.00  0.00     0.005 C 
ATOM     13  C   UNL     1     147.357 136.131 147.534  1.00  0.00    -0.023 C 
ATOM     14  C   UNL     1     147.211 137.583 149.508  1.00  0.00     0.009 C 
ATOM     15  C   UNL     1     147.206 136.122 149.073  1.00  0.00     0.021 C 
ATOM     16  C   UNL     1     145.978 136.389 146.843  1.00  0.00     0.008 C 
ATOM     17  C   UNL     1     147.951 134.774 147.077  1.00  0.00     0.012 C 
ATOM     18  C   UNL     1     145.983 135.345 149.541  1.00  0.00    -0.067 C 
ATOM     19  C   UNL     1     144.841 135.485 147.356  1.00  0.00     0.009 C 
ATOM     20  C   UNL     1     144.643 135.658 148.878  1.00  0.00     0.021 C 
ATOM     21  C   UNL     1     146.166 134.260 150.329  1.00  0.00    -0.027 C 
ATOM     22  C   UNL     1     143.432 134.869 149.518  1.00  0.00    -0.023 C 
ATOM     23  C   UNL     1     145.062 133.326 150.736  1.00  0.00     0.031 C 
ATOM     24  C   UNL     1     143.864 133.392 149.777  1.00  0.00     0.002 C 
ATOM     25  C   UNL     1     142.180 134.864 148.585  1.00  0.00     0.010 C 
ATOM     26  C   UNL     1     143.059 135.601 150.844  1.00  0.00     0.012 C 
ATOM     27  C   UNL     1     142.711 132.504 150.298  1.00  0.00     0.036 C 
ATOM     28  C   UNL     1     141.027 134.011 149.134  1.00  0.00     0.032 C 
ATOM     29  C   UNL     1     141.488 132.563 149.368  1.00  0.00     0.114 C 
BRANCH  29  30
ATOM     30  O   UNL     1     140.435 131.785 149.881  1.00  0.00    -0.393 OA
ATOM     31  H   UNL     1     140.728 131.423 150.759  1.00  0.00     0.210 HD
ENDBRANCH  29  30
ENDBRANCH   9  11
ENDBRANCH   1   9
TORSDOF 7
ENDMDL
MODEL 7
REMARK VINA RESULT:    -5.569      5.691      8.834
REMARK INTER + INTRA:          -9.732
REMARK INTER:                  -7.514
REMARK INTRA:                  -2.218
REMARK UNBOUND:                -2.047
REMARK SMILES CC[C@H](CC[C@@H](C)[C@H]1CC[C@H]2C3=CC[C@H]4C[C@@H](O)CC[C@]4(C)[C@@H]3CC[C@@]12C)C(C)C
REMARK SMILES IDX 5 1 4 2 3 3 2 4 1 5 28 6 29 7 30 8 6 9 7 10 8 11 9 12 26 13
REMARK SMILES IDX 10 14 11 15 25 16 27 17 12 18 24 19 23 20 13 21 21 22 14 23
REMARK SMILES IDX 15 24 20 25 22 26 16 27 19 28 17 29 18 30
REMARK H PARENT 18 31
REMARK Flexibility Score: inf
ROOT
ATOM      1  C   UNL     1     145.943 134.426 150.843  1.00  0.00     0.004 C 
ENDROOT
BRANCH   1   2
ATOM      2  C   UNL     1     147.097 134.369 149.823  1.00  0.00     0.004 C 
BRANCH   2   3
ATOM      3  C   UNL     1     147.859 135.732 149.727  1.00  0.00    -0.009 C 
BRANCH   3   4
ATOM      4  C   UNL     1     149.091 135.734 150.676  1.00  0.00     0.000 C 
ATOM      5  C   UNL     1     150.189 134.761 150.237  1.00  0.00     0.004 C 
ENDBRANCH   3   4
BRANCH   3   6
ATOM      6  C   UNL     1     148.236 136.048 148.238  1.00  0.00    -0.014 C 
ATOM      7  C   UNL     1     147.877 134.863 147.318  1.00  0.00     0.007 C 
ATOM      8  C   UNL     1     147.554 137.313 147.685  1.00  0.00     0.007 C 
ENDBRANCH   3   6
ENDBRANCH   2   3
ENDBRANCH   1   2
BRANCH   1   9
ATOM      9  C   UNL     1     144.555 134.141 150.197  1.00  0.00    -0.011 C 
ATOM     10  C   UNL     1     143.753 133.210 151.130  1.00  0.00     0.008 C 
BRANCH   9  11
ATOM     11  C   UNL     1     143.779 135.476 149.900  1.00  0.00    -0.002 C 
ATOM     12  C   UNL     1     144.597 136.730 150.282  1.00  0.00     0.005 C 
ATOM     13  C   UNL     1     143.315 135.748 148.431  1.00  0.00    -0.023 C 
ATOM     14  C   UNL     1     144.199 137.854 149.330  1.00  0.00     0.009 C 
ATOM     15  C   UNL     1     143.097 137.280 148.448  1.00  0.00     0.021 C 
ATOM     16  C   UNL     1     144.415 135.357 147.390  1.00  0.00     0.008 C 
ATOM     17  C   UNL     1     141.972 135.052 148.093  1.00  0.00     0.012 C 
ATOM     18  C   UNL     1     143.049 137.885 147.052  1.00  0.00    -0.067 C 
ATOM     19  C   UNL     1     144.208 135.977 145.996  1.00  0.00     0.009 C 
ATOM     20  C   UNL     1     144.167 137.518 146.078  1.00  0.00     0.021 C 
ATOM     21  C   UNL     1     141.916 138.509 146.654  1.00  0.00    -0.027 C 
ATOM     22  C   UNL     1     144.070 138.289 144.701  1.00  0.00    -0.023 C 
ATOM     23  C   UNL     1     141.686 139.016 145.258  1.00  0.00     0.031 C 
ATOM     24  C   UNL     1     142.581 138.309 144.230  1.00  0.00     0.002 C 
ATOM     25  C   UNL     1     144.932 137.610 143.590  1.00  0.00     0.010 C 
ATOM     26  C   UNL     1     144.617 139.729 144.942  1.00  0.00     0.012 C 
ATOM     27  C   UNL     1     142.394 138.941 142.832  1.00  0.00     0.036 C 
ATOM     28  C   UNL     1     144.768 138.273 142.215  1.00  0.00     0.032 C 
ATOM     29  C   UNL     1     143.293 138.267 141.782  1.00  0.00     0.114 C 
BRANCH  29  30
ATOM     30  O   UNL     1     143.142 138.884 140.528  1.00  0.00    -0.393 OA
ATOM     31  H   UNL     1     143.258 139.862 140.658  1.00  0.00     0.210 HD
ENDBRANCH  29  30
ENDBRANCH   9  11
ENDBRANCH   1   9
TORSDOF 7
ENDMDL
MODEL 8
REMARK VINA RESULT:    -5.494      7.516     10.589
REMARK INTER + INTRA:          -9.629
REMARK INTER:                  -7.571
REMARK INTRA:                  -2.058
REMARK UNBOUND:                -2.047
REMARK SMILES CC[C@H](CC[C@@H](C)[C@H]1CC[C@H]2C3=CC[C@H]4C[C@@H](O)CC[C@]4(C)[C@@H]3CC[C@@]12C)C(C)C
REMARK SMILES IDX 5 1 4 2 3 3 2 4 1 5 28 6 29 7 30 8 6 9 7 10 8 11 9 12 26 13
REMARK SMILES IDX 10 14 11 15 25 16 27 17 12 18 24 19 23 20 13 21 21 22 14 23
REMARK SMILES IDX 15 24 20 25 22 26 16 27 19 28 17 29 18 30
REMARK H PARENT 18 31
REMARK Flexibility Score: inf
ROOT
ATOM      1  C   UNL     1     145.817 139.251 141.856  1.00  0.00     0.004 C 
ENDROOT
BRANCH   1   2
ATOM      2  C   UNL     1     145.374 137.789 142.059  1.00  0.00     0.004 C 
BRANCH   2   3
ATOM      3  C   UNL     1     144.018 137.693 142.834  1.00  0.00    -0.009 C 
BRANCH   3   4
ATOM      4  C   UNL     1     143.444 136.250 142.746  1.00  0.00     0.000 C 
ATOM      5  C   UNL     1     142.000 136.208 142.237  1.00  0.00     0.004 C 
ENDBRANCH   3   4
BRANCH   3   6
ATOM      6  C   UNL     1     144.192 138.190 144.311  1.00  0.00    -0.014 C 
ATOM      7  C   UNL     1     142.981 139.040 144.748  1.00  0.00     0.007 C 
ATOM      8  C   UNL     1     144.374 137.049 145.328  1.00  0.00     0.007 C 
ENDBRANCH   3   6
ENDBRANCH   2   3
ENDBRANCH   1   2
BRANCH   1   9
ATOM      9  C   UNL     1     147.351 139.447 142.047  1.00  0.00    -0.011 C 
ATOM     10  C   UNL     1     147.897 140.284 140.871  1.00  0.00     0.008 C 
BRANCH   9  11
ATOM     11  C   UNL     1     147.672 140.114 143.434  1.00  0.00    -0.002 C 
ATOM     12  C   UNL     1     146.395 140.552 144.186  1.00  0.00     0.005 C 
ATOM     13  C   UNL     1     148.474 139.279 144.486  1.00  0.00    -0.023 C 
ATOM     14  C   UNL     1     146.675 140.443 145.682  1.00  0.00     0.009 C 
ATOM     15  C   UNL     1     148.134 140.018 145.802  1.00  0.00     0.021 C 
ATOM     16  C   UNL     1     147.989 137.793 144.544  1.00  0.00     0.008 C 
ATOM     17  C   UNL     1     150.006 139.344 144.254  1.00  0.00     0.012 C 
ATOM     18  C   UNL     1     148.432 139.186 147.041  1.00  0.00    -0.067 C 
ATOM     19  C   UNL     1     148.421 137.041 145.817  1.00  0.00     0.009 C 
ATOM     20  C   UNL     1     147.900 137.755 147.083  1.00  0.00     0.021 C 
ATOM     21  C   UNL     1     149.345 139.646 147.927  1.00  0.00    -0.027 C 
ATOM     22  C   UNL     1     148.179 137.028 148.458  1.00  0.00    -0.023 C 
ATOM     23  C   UNL     1     149.837 138.858 149.108  1.00  0.00     0.031 C 
ATOM     24  C   UNL     1     149.636 137.347 148.920  1.00  0.00     0.002 C 
ATOM     25  C   UNL     1     148.024 135.478 148.342  1.00  0.00     0.010 C 
ATOM     26  C   UNL     1     147.123 137.555 149.477  1.00  0.00     0.012 C 
ATOM     27  C   UNL     1     150.047 136.588 150.203  1.00  0.00     0.036 C 
ATOM     28  C   UNL     1     148.397 134.739 149.635  1.00  0.00     0.032 C 
ATOM     29  C   UNL     1     149.840 135.072 150.053  1.00  0.00     0.114 C 
BRANCH  29  30
ATOM     30  O   UNL     1     150.177 134.404 151.243  1.00  0.00    -0.393 OA
ATOM     31  H   UNL     1     150.354 135.094 151.936  1.00  0.00     0.210 HD
ENDBRANCH  29  30
ENDBRANCH   9  11
ENDBRANCH   1   9
TORSDOF 7
ENDMDL
MODEL 9
REMARK VINA RESULT:    -5.387      7.138     11.447
REMARK INTER + INTRA:          -9.481
REMARK INTER:                  -8.085
REMARK INTRA:                  -1.395
REMARK UNBOUND:                -2.047
REMARK SMILES CC[C@H](CC[C@@H](C)[C@H]1CC[C@H]2C3=CC[C@H]4C[C@@H](O)CC[C@]4(C)[C@@H]3CC[C@@]12C)C(C)C
REMARK SMILES IDX 5 1 4 2 3 3 2 4 1 5 28 6 29 7 30 8 6 9 7 10 8 11 9 12 26 13
REMARK SMILES IDX 10 14 11 15 25 16 27 17 12 18 24 19 23 20 13 21 21 22 14 23
REMARK SMILES IDX 15 24 20 25 22 26 16 27 19 28 17 29 18 30
REMARK H PARENT 18 31
REMARK Flexibility Score: inf
ROOT
ATOM      1  C   UNL     1     148.844 139.474 141.292  1.00  0.00     0.004 C 
ENDROOT
BRANCH   1   2
ATOM      2  C   UNL     1     149.444 140.734 140.638  1.00  0.00     0.004 C 
BRANCH   2   3
ATOM      3  C   UNL     1     148.429 141.431 139.673  1.00  0.00    -0.009 C 
BRANCH   3   4
ATOM      4  C   UNL     1     148.410 140.713 138.294  1.00  0.00     0.000 C 
ATOM      5  C   UNL     1     149.803 140.296 137.814  1.00  0.00     0.004 C 
ENDBRANCH   3   4
BRANCH   3   6
ATOM      6  C   UNL     1     147.010 141.517 140.336  1.00  0.00    -0.014 C 
ATOM      7  C   UNL     1     146.715 142.953 140.815  1.00  0.00     0.007 C 
ATOM      8  C   UNL     1     145.867 141.074 139.404  1.00  0.00     0.007 C 
ENDBRANCH   3   6
ENDBRANCH   2   3
ENDBRANCH   1   2
BRANCH   1   9
ATOM      9  C   UNL     1     148.757 139.584 142.843  1.00  0.00    -0.011 C 
ATOM     10  C   UNL     1     149.394 140.918 143.284  1.00  0.00     0.008 C 
BRANCH   9  11
ATOM     11  C   UNL     1     147.272 139.455 143.341  1.00  0.00    -0.002 C 
ATOM     12  C   UNL     1     146.492 138.352 142.589  1.00  0.00     0.005 C 
ATOM     13  C   UNL     1     147.025 139.141 144.854  1.00  0.00    -0.023 C 
ATOM     14  C   UNL     1     145.455 137.777 143.550  1.00  0.00     0.009 C 
ATOM     15  C   UNL     1     145.578 138.593 144.831  1.00  0.00     0.021 C 
ATOM     16  C   UNL     1     148.018 138.059 145.393  1.00  0.00     0.008 C 
ATOM     17  C   UNL     1     147.069 140.412 145.740  1.00  0.00     0.012 C 
ATOM     18  C   UNL     1     145.220 137.818 146.091  1.00  0.00    -0.067 C 
ATOM     19  C   UNL     1     147.574 137.404 146.715  1.00  0.00     0.009 C 
ATOM     20  C   UNL     1     146.190 136.736 146.561  1.00  0.00     0.021 C 
ATOM     21  C   UNL     1     144.210 138.273 146.867  1.00  0.00    -0.027 C 
ATOM     22  C   UNL     1     145.662 135.929 147.814  1.00  0.00    -0.023 C 
ATOM     23  C   UNL     1     143.854 137.690 148.206  1.00  0.00     0.031 C 
ATOM     24  C   UNL     1     145.028 136.925 148.835  1.00  0.00     0.002 C 
ATOM     25  C   UNL     1     146.808 135.146 148.530  1.00  0.00     0.010 C 
ATOM     26  C   UNL     1     144.615 134.900 147.287  1.00  0.00     0.012 C 
ATOM     27  C   UNL     1     144.583 136.247 150.151  1.00  0.00     0.036 C 
ATOM     28  C   UNL     1     146.343 134.443 149.813  1.00  0.00     0.032 C 
ATOM     29  C   UNL     1     145.734 135.457 150.796  1.00  0.00     0.114 C 
BRANCH  29  30
ATOM     30  O   UNL     1     145.298 134.811 151.967  1.00  0.00    -0.393 OA
ATOM     31  H   UNL     1     145.501 133.843 151.870  1.00  0.00     0.210 HD
ENDBRANCH  29  30
ENDBRANCH   9  11
ENDBRANCH   1   9
TORSDOF 7
ENDMDL
