MODEL 1
REMARK VINA RESULT:    -6.417      0.000      0.000
REMARK INTER + INTRA:          -7.302
REMARK INTER:                  -7.731
REMARK INTRA:                   0.428
REMARK UNBOUND:                 0.428
REMARK SMILES O=c1c(O)c(-c2ccc(O)c(O)c2)oc2cc(O)cc(O)c12
REMARK SMILES IDX 5 1 3 2 2 3 1 4 22 5 20 6 19 7 17 8 16 9 15 10 14 11 6 12
REMARK SMILES IDX 7 13 8 14 9 15 13 16 11 17 10 18 12 20 4 22 21 24 18 26
REMARK H PARENT 10 19 12 21 4 23 21 25 18 27
REMARK Flexibility Score: inf
ROOT
ATOM      1  C   UNL     1      24.846  14.392  31.921  1.00  0.00     0.180 A 
ATOM      2  C   UNL     1      26.200  14.160  31.613  1.00  0.00     0.208 A 
ATOM      3  C   UNL     1      27.154  14.252  32.639  1.00  0.00     0.238 A 
ATOM      4  O   UNL     1      28.368  14.035  32.376  1.00  0.00    -0.285 OA
ATOM      5  C   UNL     1      26.743  14.591  33.944  1.00  0.00     0.111 A 
ATOM      6  C   UNL     1      27.641  14.707  35.033  1.00  0.00     0.134 A 
ATOM      7  C   UNL     1      27.155  15.058  36.301  1.00  0.00     0.093 A 
ATOM      8  C   UNL     1      25.794  15.294  36.502  1.00  0.00     0.123 A 
ATOM      9  C   UNL     1      24.902  15.181  35.431  1.00  0.00     0.094 A 
ATOM     10  C   UNL     1      25.366  14.830  34.159  1.00  0.00     0.146 A 
ATOM     11  O   UNL     1      24.497  14.724  33.161  1.00  0.00    -0.452 OA
ENDROOT
BRANCH   1  12
ATOM     12  C   UNL     1      23.779  14.296  30.898  1.00  0.00     0.025 A 
ATOM     13  C   UNL     1      24.112  14.424  29.540  1.00  0.00     0.016 A 
ATOM     14  C   UNL     1      23.118  14.358  28.560  1.00  0.00     0.051 A 
ATOM     15  C   UNL     1      21.779  14.179  28.920  1.00  0.00     0.157 A 
ATOM     16  C   UNL     1      22.429  14.138  31.260  1.00  0.00     0.062 A 
ATOM     17  C   UNL     1      21.431  14.073  30.277  1.00  0.00     0.158 A 
BRANCH  15  18
ATOM     18  O   UNL     1      20.810  14.114  27.919  1.00  0.00    -0.504 OA
ATOM     19  H   UNL     1      19.898  14.539  28.024  1.00  0.00     0.293 HD
ENDBRANCH  15  18
BRANCH  17  20
ATOM     20  O   UNL     1      20.096  13.909  30.643  1.00  0.00    -0.504 OA
ATOM     21  H   UNL     1      19.690  14.426  31.414  1.00  0.00     0.293 HD
ENDBRANCH  17  20
ENDBRANCH   1  12
BRANCH   2  22
ATOM     22  O   UNL     1      26.586  13.875  30.301  1.00  0.00    -0.502 OA
ATOM     23  H   UNL     1      26.860  12.946  30.006  1.00  0.00     0.293 HD
ENDBRANCH   2  22
BRANCH   6  24
ATOM     24  O   UNL     1      29.007  14.478  34.864  1.00  0.00    -0.507 OA
ATOM     25  H   UNL     1      29.535  14.920  34.121  1.00  0.00     0.293 HD
ENDBRANCH   6  24
BRANCH   8  26
ATOM     26  O   UNL     1      25.338  15.643  37.771  1.00  0.00    -0.508 OA
ATOM     27  H   UNL     1      25.573  16.534  38.193  1.00  0.00     0.293 HD
ENDBRANCH   8  26
TORSDOF 6
ENDMDL
MODEL 2
REMARK VINA RESULT:    -6.354      2.006      6.591
REMARK INTER + INTRA:          -7.226
REMARK INTER:                  -6.964
REMARK INTRA:                  -0.262
REMARK UNBOUND:                 0.428
REMARK SMILES O=c1c(O)c(-c2ccc(O)c(O)c2)oc2cc(O)cc(O)c12
REMARK SMILES IDX 5 1 3 2 2 3 1 4 22 5 20 6 19 7 17 8 16 9 15 10 14 11 6 12
REMARK SMILES IDX 7 13 8 14 9 15 13 16 11 17 10 18 12 20 4 22 21 24 18 26
REMARK H PARENT 10 19 12 21 4 23 21 25 18 27
REMARK Flexibility Score: inf
ROOT
ATOM      1  C   UNL     1      25.179  14.651  31.881  1.00  0.00     0.180 A 
ATOM      2  C   UNL     1      25.201  14.517  30.480  1.00  0.00     0.208 A 
ATOM      3  C   UNL     1      23.991  14.306  29.800  1.00  0.00     0.238 A 
ATOM      4  O   UNL     1      23.998  14.196  28.543  1.00  0.00    -0.285 OA
ATOM      5  C   UNL     1      22.788  14.215  30.528  1.00  0.00     0.111 A 
ATOM      6  C   UNL     1      21.528  14.001  29.919  1.00  0.00     0.134 A 
ATOM      7  C   UNL     1      20.376  13.912  30.716  1.00  0.00     0.093 A 
ATOM      8  C   UNL     1      20.460  14.032  32.104  1.00  0.00     0.123 A 
ATOM      9  C   UNL     1      21.701  14.244  32.712  1.00  0.00     0.094 A 
ATOM     10  C   UNL     1      22.861  14.338  31.936  1.00  0.00     0.146 A 
ATOM     11  O   UNL     1      24.027  14.544  32.537  1.00  0.00    -0.452 OA
ENDROOT
BRANCH   1  12
ATOM     12  C   UNL     1      26.410  14.893  32.668  1.00  0.00     0.025 A 
ATOM     13  C   UNL     1      26.906  13.878  33.502  1.00  0.00     0.016 A 
ATOM     14  C   UNL     1      28.054  14.092  34.269  1.00  0.00     0.051 A 
ATOM     15  C   UNL     1      28.714  15.325  34.228  1.00  0.00     0.157 A 
ATOM     16  C   UNL     1      27.062  16.139  32.644  1.00  0.00     0.062 A 
ATOM     17  C   UNL     1      28.213  16.355  33.415  1.00  0.00     0.158 A 
BRANCH  15  18
ATOM     18  O   UNL     1      29.859  15.507  35.002  1.00  0.00    -0.504 OA
ATOM     19  H   UNL     1      29.959  15.094  35.921  1.00  0.00     0.293 HD
ENDBRANCH  15  18
BRANCH  17  20
ATOM     20  O   UNL     1      28.858  17.591  33.380  1.00  0.00    -0.504 OA
ATOM     21  H   UNL     1      29.570  17.799  32.690  1.00  0.00     0.293 HD
ENDBRANCH  17  20
ENDBRANCH   1  12
BRANCH   2  22
ATOM     22  O   UNL     1      26.412  14.561  29.786  1.00  0.00    -0.502 OA
ATOM     23  H   UNL     1      26.583  15.216  29.032  1.00  0.00     0.293 HD
ENDBRANCH   2  22
BRANCH   6  24
ATOM     24  O   UNL     1      21.412  13.876  28.535  1.00  0.00    -0.507 OA
ATOM     25  H   UNL     1      21.137  13.003  28.099  1.00  0.00     0.293 HD
ENDBRANCH   6  24
BRANCH   8  26
ATOM     26  O   UNL     1      19.302  13.939  32.872  1.00  0.00    -0.508 OA
ATOM     27  H   UNL     1      18.738  14.755  33.083  1.00  0.00     0.293 HD
ENDBRANCH   8  26
TORSDOF 6
ENDMDL
MODEL 3
REMARK VINA RESULT:    -6.341      3.183      5.109
REMARK INTER + INTRA:          -7.211
REMARK INTER:                  -6.968
REMARK INTRA:                  -0.242
REMARK UNBOUND:                 0.428
REMARK SMILES O=c1c(O)c(-c2ccc(O)c(O)c2)oc2cc(O)cc(O)c12
REMARK SMILES IDX 5 1 3 2 2 3 1 4 22 5 20 6 19 7 17 8 16 9 15 10 14 11 6 12
REMARK SMILES IDX 7 13 8 14 9 15 13 16 11 17 10 18 12 20 4 22 21 24 18 26
REMARK H PARENT 10 19 12 21 4 23 21 25 18 27
REMARK Flexibility Score: inf
ROOT
ATOM      1  C   UNL     1      26.995  16.049  31.970  1.00  0.00     0.180 A 
ATOM      2  C   UNL     1      25.752  15.423  31.755  1.00  0.00     0.208 A 
ATOM      3  C   UNL     1      25.056  14.902  32.858  1.00  0.00     0.238 A 
ATOM      4  O   UNL     1      23.937  14.348  32.678  1.00  0.00    -0.285 OA
ATOM      5  C   UNL     1      25.619  14.999  34.147  1.00  0.00     0.111 A 
ATOM      6  C   UNL     1      24.983  14.499  35.308  1.00  0.00     0.134 A 
ATOM      7  C   UNL     1      25.613  14.626  36.556  1.00  0.00     0.093 A 
ATOM      8  C   UNL     1      26.861  15.242  36.663  1.00  0.00     0.123 A 
ATOM      9  C   UNL     1      27.494  15.740  35.520  1.00  0.00     0.094 A 
ATOM     10  C   UNL     1      26.882  15.624  34.267  1.00  0.00     0.146 A 
ATOM     11  O   UNL     1      27.501  16.110  33.198  1.00  0.00    -0.452 OA
ENDROOT
BRANCH   1  12
ATOM     12  C   UNL     1      27.780  16.639  30.862  1.00  0.00     0.025 A 
ATOM     13  C   UNL     1      29.008  16.059  30.501  1.00  0.00     0.016 A 
ATOM     14  C   UNL     1      29.776  16.611  29.473  1.00  0.00     0.051 A 
ATOM     15  C   UNL     1      29.338  17.757  28.800  1.00  0.00     0.157 A 
ATOM     16  C   UNL     1      27.353  17.803  30.198  1.00  0.00     0.062 A 
ATOM     17  C   UNL     1      28.123  18.359  29.167  1.00  0.00     0.158 A 
BRANCH  15  18
ATOM     18  O   UNL     1      30.125  18.283  27.775  1.00  0.00    -0.504 OA
ATOM     19  H   UNL     1      30.612  17.692  27.114  1.00  0.00     0.293 HD
ENDBRANCH  15  18
BRANCH  17  20
ATOM     20  O   UNL     1      27.689  19.509  28.509  1.00  0.00    -0.504 OA
ATOM     21  H   UNL     1      28.213  20.374  28.552  1.00  0.00     0.293 HD
ENDBRANCH  17  20
ENDBRANCH   1  12
BRANCH   2  22
ATOM     22  O   UNL     1      25.240  15.295  30.462  1.00  0.00    -0.502 OA
ATOM     23  H   UNL     1      25.820  15.388  29.637  1.00  0.00     0.293 HD
ENDBRANCH   2  22
BRANCH   6  24
ATOM     24  O   UNL     1      23.737  13.877  35.234  1.00  0.00    -0.507 OA
ATOM     25  H   UNL     1      23.580  13.063  34.652  1.00  0.00     0.293 HD
ENDBRANCH   6  24
BRANCH   8  26
ATOM     26  O   UNL     1      27.466  15.354  37.914  1.00  0.00    -0.508 OA
ATOM     27  H   UNL     1      27.618  16.256  38.350  1.00  0.00     0.293 HD
ENDBRANCH   8  26
TORSDOF 6
ENDMDL
MODEL 4
REMARK VINA RESULT:    -5.857      2.533      3.904
REMARK INTER + INTRA:          -6.627
REMARK INTER:                  -6.668
REMARK INTRA:                   0.041
REMARK UNBOUND:                 0.428
REMARK SMILES O=c1c(O)c(-c2ccc(O)c(O)c2)oc2cc(O)cc(O)c12
REMARK SMILES IDX 5 1 3 2 2 3 1 4 22 5 20 6 19 7 17 8 16 9 15 10 14 11 6 12
REMARK SMILES IDX 7 13 8 14 9 15 13 16 11 17 10 18 12 20 4 22 21 24 18 26
REMARK H PARENT 10 19 12 21 4 23 21 25 18 27
REMARK Flexibility Score: inf
ROOT
ATOM      1  C   UNL     1      24.824  15.374  31.029  1.00  0.00     0.180 A 
ATOM      2  C   UNL     1      25.386  14.928  32.241  1.00  0.00     0.208 A 
ATOM      3  C   UNL     1      26.672  15.369  32.595  1.00  0.00     0.238 A 
ATOM      4  O   UNL     1      27.180  14.984  33.683  1.00  0.00    -0.285 OA
ATOM      5  C   UNL     1      27.378  16.227  31.728  1.00  0.00     0.111 A 
ATOM      6  C   UNL     1      28.677  16.714  32.009  1.00  0.00     0.134 A 
ATOM      7  C   UNL     1      29.317  17.559  31.090  1.00  0.00     0.093 A 
ATOM      8  C   UNL     1      28.686  17.924  29.900  1.00  0.00     0.123 A 
ATOM      9  C   UNL     1      27.403  17.448  29.616  1.00  0.00     0.094 A 
ATOM     10  C   UNL     1      26.746  16.606  30.520  1.00  0.00     0.146 A 
ATOM     11  O   UNL     1      25.526  16.172  30.230  1.00  0.00    -0.452 OA
ENDROOT
BRANCH   1  12
ATOM     12  C   UNL     1      23.468  14.969  30.596  1.00  0.00     0.025 A 
ATOM     13  C   UNL     1      23.249  14.615  29.254  1.00  0.00     0.016 A 
ATOM     14  C   UNL     1      21.973  14.250  28.818  1.00  0.00     0.051 A 
ATOM     15  C   UNL     1      20.894  14.247  29.709  1.00  0.00     0.157 A 
ATOM     16  C   UNL     1      22.378  14.986  31.485  1.00  0.00     0.062 A 
ATOM     17  C   UNL     1      21.096  14.621  31.048  1.00  0.00     0.158 A 
BRANCH  15  18
ATOM     18  O   UNL     1      19.633  13.875  29.245  1.00  0.00    -0.504 OA
ATOM     19  H   UNL     1      18.925  14.558  29.005  1.00  0.00     0.293 HD
ENDBRANCH  15  18
BRANCH  17  20
ATOM     20  O   UNL     1      20.023  14.634  31.938  1.00  0.00    -0.504 OA
ATOM     21  H   UNL     1      19.473  13.803  32.118  1.00  0.00     0.293 HD
ENDBRANCH  17  20
ENDBRANCH   1  12
BRANCH   2  22
ATOM     22  O   UNL     1      24.686  14.037  33.058  1.00  0.00    -0.502 OA
ATOM     23  H   UNL     1      23.828  13.588  32.762  1.00  0.00     0.293 HD
ENDBRANCH   2  22
BRANCH   6  24
ATOM     24  O   UNL     1      29.335  16.365  33.189  1.00  0.00    -0.507 OA
ATOM     25  H   UNL     1      29.347  15.412  33.532  1.00  0.00     0.293 HD
ENDBRANCH   6  24
BRANCH   8  26
ATOM     26  O   UNL     1      29.345  18.763  29.003  1.00  0.00    -0.508 OA
ATOM     27  H   UNL     1      29.438  18.523  28.023  1.00  0.00     0.293 HD
ENDBRANCH   8  26
TORSDOF 6
ENDMDL
MODEL 5
REMARK VINA RESULT:    -5.710     14.390     15.980
REMARK INTER + INTRA:          -6.450
REMARK INTER:                  -6.549
REMARK INTRA:                   0.099
REMARK UNBOUND:                 0.428
REMARK SMILES O=c1c(O)c(-c2ccc(O)c(O)c2)oc2cc(O)cc(O)c12
REMARK SMILES IDX 5 1 3 2 2 3 1 4 22 5 20 6 19 7 17 8 16 9 15 10 14 11 6 12
REMARK SMILES IDX 7 13 8 14 9 15 13 16 11 17 10 18 12 20 4 22 21 24 18 26
REMARK H PARENT 10 19 12 21 4 23 21 25 18 27
REMARK Flexibility Score: inf
ROOT
ATOM      1  C   UNL     1      12.407  19.832  39.175  1.00  0.00     0.180 A 
ATOM      2  C   UNL     1      13.754  20.164  39.419  1.00  0.00     0.208 A 
ATOM      3  C   UNL     1      14.089  21.508  39.651  1.00  0.00     0.238 A 
ATOM      4  O   UNL     1      15.291  21.815  39.881  1.00  0.00    -0.285 OA
ATOM      5  C   UNL     1      13.082  22.494  39.617  1.00  0.00     0.111 A 
ATOM      6  C   UNL     1      13.337  23.868  39.837  1.00  0.00     0.134 A 
ATOM      7  C   UNL     1      12.281  24.790  39.777  1.00  0.00     0.093 A 
ATOM      8  C   UNL     1      10.980  24.366  39.502  1.00  0.00     0.123 A 
ATOM      9  C   UNL     1      10.721  23.009  39.285  1.00  0.00     0.094 A 
ATOM     10  C   UNL     1      11.760  22.074  39.342  1.00  0.00     0.146 A 
ATOM     11  O   UNL     1      11.486  20.791  39.136  1.00  0.00    -0.452 OA
ENDROOT
BRANCH   1  12
ATOM     12  C   UNL     1      11.971  18.436  38.940  1.00  0.00     0.025 A 
ATOM     13  C   UNL     1      12.470  17.411  39.760  1.00  0.00     0.016 A 
ATOM     14  C   UNL     1      12.089  16.084  39.543  1.00  0.00     0.051 A 
ATOM     15  C   UNL     1      11.219  15.760  38.497  1.00  0.00     0.157 A 
ATOM     16  C   UNL     1      11.114  18.106  37.876  1.00  0.00     0.062 A 
ATOM     17  C   UNL     1      10.732  16.774  37.656  1.00  0.00     0.158 A 
BRANCH  15  18
ATOM     18  O   UNL     1      10.854  14.427  38.307  1.00  0.00    -0.504 OA
ATOM     19  H   UNL     1      10.449  14.099  37.439  1.00  0.00     0.293 HD
ENDBRANCH  15  18
BRANCH  17  20
ATOM     20  O   UNL     1       9.875  16.456  36.603  1.00  0.00    -0.504 OA
ATOM     21  H   UNL     1       9.267  15.647  36.640  1.00  0.00     0.293 HD
ENDBRANCH  17  20
ENDBRANCH   1  12
BRANCH   2  22
ATOM     22  O   UNL     1      14.739  19.175  39.397  1.00  0.00    -0.502 OA
ATOM     23  H   UNL     1      14.765  18.448  38.692  1.00  0.00     0.293 HD
ENDBRANCH   2  22
BRANCH   6  24
ATOM     24  O   UNL     1      14.627  24.325  40.113  1.00  0.00    -0.507 OA
ATOM     25  H   UNL     1      15.376  24.251  39.435  1.00  0.00     0.293 HD
ENDBRANCH   6  24
BRANCH   8  26
ATOM     26  O   UNL     1       9.950  25.302  39.447  1.00  0.00    -0.508 OA
ATOM     27  H   UNL     1       9.081  25.106  38.964  1.00  0.00     0.293 HD
ENDBRANCH   8  26
TORSDOF 6
ENDMDL
MODEL 6
REMARK VINA RESULT:    -5.306      1.608      3.381
REMARK INTER + INTRA:          -5.963
REMARK INTER:                  -6.330
REMARK INTRA:                   0.367
REMARK UNBOUND:                 0.428
REMARK SMILES O=c1c(O)c(-c2ccc(O)c(O)c2)oc2cc(O)cc(O)c12
REMARK SMILES IDX 5 1 3 2 2 3 1 4 22 5 20 6 19 7 17 8 16 9 15 10 14 11 6 12
REMARK SMILES IDX 7 13 8 14 9 15 13 16 11 17 10 18 12 20 4 22 21 24 18 26
REMARK H PARENT 10 19 12 21 4 23 21 25 18 27
REMARK Flexibility Score: inf
ROOT
ATOM      1  C   UNL     1      24.488  14.463  32.475  1.00  0.00     0.180 A 
ATOM      2  C   UNL     1      24.699  14.419  33.866  1.00  0.00     0.208 A 
ATOM      3  C   UNL     1      26.000  14.603  34.361  1.00  0.00     0.238 A 
ATOM      4  O   UNL     1      26.198  14.576  35.607  1.00  0.00    -0.285 OA
ATOM      5  C   UNL     1      27.065  14.809  33.462  1.00  0.00     0.111 A 
ATOM      6  C   UNL     1      28.404  15.000  33.879  1.00  0.00     0.134 A 
ATOM      7  C   UNL     1      29.411  15.190  32.920  1.00  0.00     0.093 A 
ATOM      8  C   UNL     1      29.106  15.192  31.558  1.00  0.00     0.123 A 
ATOM      9  C   UNL     1      27.785  15.005  31.139  1.00  0.00     0.094 A 
ATOM     10  C   UNL     1      26.767  14.816  32.079  1.00  0.00     0.146 A 
ATOM     11  O   UNL     1      25.520  14.645  31.655  1.00  0.00    -0.452 OA
ENDROOT
BRANCH   1  12
ATOM     12  C   UNL     1      23.144  14.296  31.877  1.00  0.00     0.025 A 
ATOM     13  C   UNL     1      23.028  14.016  30.506  1.00  0.00     0.016 A 
ATOM     14  C   UNL     1      21.769  13.875  29.916  1.00  0.00     0.051 A 
ATOM     15  C   UNL     1      20.609  14.027  30.682  1.00  0.00     0.157 A 
ATOM     16  C   UNL     1      21.976  14.470  32.640  1.00  0.00     0.062 A 
ATOM     17  C   UNL     1      20.711  14.330  32.050  1.00  0.00     0.158 A 
BRANCH  15  18
ATOM     18  O   UNL     1      19.366  13.878  30.066  1.00  0.00    -0.504 OA
ATOM     19  H   UNL     1      18.631  14.567  30.164  1.00  0.00     0.293 HD
ENDBRANCH  15  18
BRANCH  17  20
ATOM     20  O   UNL     1      19.558  14.497  32.815  1.00  0.00    -0.504 OA
ATOM     21  H   UNL     1      19.534  15.126  33.609  1.00  0.00     0.293 HD
ENDBRANCH  17  20
ENDBRANCH   1  12
BRANCH   2  22
ATOM     22  O   UNL     1      23.634  14.163  34.733  1.00  0.00    -0.502 OA
ATOM     23  H   UNL     1      22.984  13.401  34.585  1.00  0.00     0.293 HD
ENDBRANCH   2  22
BRANCH   6  24
ATOM     24  O   UNL     1      28.742  15.002  35.232  1.00  0.00    -0.507 OA
ATOM     25  H   UNL     1      29.691  15.167  35.546  1.00  0.00     0.293 HD
ENDBRANCH   6  24
BRANCH   8  26
ATOM     26  O   UNL     1      30.125  15.381  30.626  1.00  0.00    -0.508 OA
ATOM     27  H   UNL     1      29.924  15.555  29.648  1.00  0.00     0.293 HD
ENDBRANCH   8  26
TORSDOF 6
ENDMDL
MODEL 7
REMARK VINA RESULT:    -4.692     14.857     16.818
REMARK INTER + INTRA:          -5.223
REMARK INTER:                  -5.068
REMARK INTRA:                  -0.155
REMARK UNBOUND:                 0.428
REMARK SMILES O=c1c(O)c(-c2ccc(O)c(O)c2)oc2cc(O)cc(O)c12
REMARK SMILES IDX 5 1 3 2 2 3 1 4 22 5 20 6 19 7 17 8 16 9 15 10 14 11 6 12
REMARK SMILES IDX 7 13 8 14 9 15 13 16 11 17 10 18 12 20 4 22 21 24 18 26
REMARK H PARENT 10 19 12 21 4 23 21 25 18 27
REMARK Flexibility Score: inf
ROOT
ATOM      1  C   UNL     1      11.873  21.419  38.446  1.00  0.00     0.180 A 
ATOM      2  C   UNL     1      11.013  21.200  37.352  1.00  0.00     0.208 A 
ATOM      3  C   UNL     1      10.657  19.882  37.023  1.00  0.00     0.238 A 
ATOM      4  O   UNL     1       9.879  19.675  36.052  1.00  0.00    -0.285 OA
ATOM      5  C   UNL     1      11.177  18.810  37.776  1.00  0.00     0.111 A 
ATOM      6  C   UNL     1      10.870  17.455  37.508  1.00  0.00     0.134 A 
ATOM      7  C   UNL     1      11.436  16.444  38.300  1.00  0.00     0.093 A 
ATOM      8  C   UNL     1      12.301  16.761  39.349  1.00  0.00     0.123 A 
ATOM      9  C   UNL     1      12.608  18.098  39.619  1.00  0.00     0.094 A 
ATOM     10  C   UNL     1      12.052  19.121  38.844  1.00  0.00     0.146 A 
ATOM     11  O   UNL     1      12.356  20.382  39.125  1.00  0.00    -0.452 OA
ENDROOT
BRANCH   1  12
ATOM     12  C   UNL     1      12.280  22.779  38.866  1.00  0.00     0.025 A 
ATOM     13  C   UNL     1      13.643  23.113  38.896  1.00  0.00     0.016 A 
ATOM     14  C   UNL     1      14.051  24.384  39.309  1.00  0.00     0.051 A 
ATOM     15  C   UNL     1      13.107  25.333  39.714  1.00  0.00     0.157 A 
ATOM     16  C   UNL     1      11.334  23.728  39.293  1.00  0.00     0.062 A 
ATOM     17  C   UNL     1      11.742  25.003  39.710  1.00  0.00     0.158 A 
BRANCH  15  18
ATOM     18  O   UNL     1      13.545  26.594  40.118  1.00  0.00    -0.504 OA
ATOM     19  H   UNL     1      13.651  27.361  39.467  1.00  0.00     0.293 HD
ENDBRANCH  15  18
BRANCH  17  20
ATOM     20  O   UNL     1      10.797  25.941  40.125  1.00  0.00    -0.504 OA
ATOM     21  H   UNL     1       9.916  26.057  39.639  1.00  0.00     0.293 HD
ENDBRANCH  17  20
ENDBRANCH   1  12
BRANCH   2  22
ATOM     22  O   UNL     1      10.552  22.276  36.591  1.00  0.00    -0.502 OA
ATOM     23  H   UNL     1      11.179  22.915  36.117  1.00  0.00     0.293 HD
ENDBRANCH   2  22
BRANCH   6  24
ATOM     24  O   UNL     1      10.011  17.105  36.466  1.00  0.00    -0.507 OA
ATOM     25  H   UNL     1       9.637  16.168  36.374  1.00  0.00     0.293 HD
ENDBRANCH   6  24
BRANCH   8  26
ATOM     26  O   UNL     1      12.851  15.737  40.118  1.00  0.00    -0.508 OA
ATOM     27  H   UNL     1      12.391  14.839  40.212  1.00  0.00     0.293 HD
ENDBRANCH   8  26
TORSDOF 6
ENDMDL
