MODEL 1
REMARK VINA RESULT:    -5.844      0.000      0.000
REMARK INTER + INTRA:          -6.015
REMARK INTER:                  -6.015
REMARK INTRA:                   0.000
REMARK UNBOUND:                 0.000
REMARK SMILES O=c1ccc2ccc(O)cc2o1
REMARK SMILES IDX 6 1 7 2 8 3 10 4 11 5 5 6 4 7 3 8 2 9 1 10 12 11 9 12
REMARK H PARENT 9 13
REMARK Flexibility Score: inf
ROOT
ATOM      1  C   UNL     1     -14.847  44.281  23.826  1.00  0.00     0.016 A 
ATOM      2  C   UNL     1     -14.966  45.096  24.956  1.00  0.00     0.047 A 
ATOM      3  C   UNL     1     -13.973  46.040  25.256  1.00  0.00     0.119 A 
ATOM      4  C   UNL     1     -12.858  46.169  24.420  1.00  0.00     0.094 A 
ATOM      5  C   UNL     1     -12.731  45.358  23.286  1.00  0.00     0.142 A 
ATOM      6  C   UNL     1     -13.732  44.408  22.987  1.00  0.00     0.018 A 
ATOM      7  C   UNL     1     -13.577  43.613  21.848  1.00  0.00     0.019 A 
ATOM      8  C   UNL     1     -12.448  43.778  21.047  1.00  0.00     0.094 A 
ATOM      9  C   UNL     1     -11.496  44.739  21.405  1.00  0.00     0.336 A 
ATOM     10  O   UNL     1     -10.471  44.903  20.694  1.00  0.00    -0.246 OA
ATOM     11  O   UNL     1     -11.668  45.484  22.495  1.00  0.00    -0.423 OA
ENDROOT
BRANCH   3  12
ATOM     12  O   UNL     1     -14.086  46.855  26.380  1.00  0.00    -0.508 OA
ATOM     13  H   UNL     1     -14.552  47.754  26.339  1.00  0.00     0.293 HD
ENDBRANCH   3  12
TORSDOF 1
ENDMDL
MODEL 2
REMARK VINA RESULT:    -5.593     18.983     20.999
REMARK INTER + INTRA:          -5.756
REMARK INTER:                  -5.756
REMARK INTRA:                   0.000
REMARK UNBOUND:                 0.000
REMARK SMILES O=c1ccc2ccc(O)cc2o1
REMARK SMILES IDX 6 1 7 2 8 3 10 4 11 5 5 6 4 7 3 8 2 9 1 10 12 11 9 12
REMARK H PARENT 9 13
REMARK Flexibility Score: inf
ROOT
ATOM      1  C   UNL     1     -25.493  62.435  31.125  1.00  0.00     0.016 A 
ATOM      2  C   UNL     1     -26.410  61.768  31.945  1.00  0.00     0.047 A 
ATOM      3  C   UNL     1     -26.653  60.399  31.768  1.00  0.00     0.119 A 
ATOM      4  C   UNL     1     -25.975  59.694  30.766  1.00  0.00     0.094 A 
ATOM      5  C   UNL     1     -25.057  60.352  29.941  1.00  0.00     0.142 A 
ATOM      6  C   UNL     1     -24.814  61.731  30.121  1.00  0.00     0.018 A 
ATOM      7  C   UNL     1     -23.891  62.361  29.281  1.00  0.00     0.019 A 
ATOM      8  C   UNL     1     -23.242  61.617  28.298  1.00  0.00     0.094 A 
ATOM      9  C   UNL     1     -23.532  60.253  28.176  1.00  0.00     0.336 A 
ATOM     10  O   UNL     1     -22.957  59.564  27.295  1.00  0.00    -0.246 OA
ATOM     11  O   UNL     1     -24.416  59.677  28.989  1.00  0.00    -0.423 OA
ENDROOT
BRANCH   3  12
ATOM     12  O   UNL     1     -27.564  59.729  32.581  1.00  0.00    -0.508 OA
ATOM     13  H   UNL     1     -28.396  60.188  32.935  1.00  0.00     0.293 HD
ENDBRANCH   3  12
TORSDOF 1
ENDMDL
MODEL 3
REMARK VINA RESULT:    -5.538      1.745      2.384
REMARK INTER + INTRA:          -5.700
REMARK INTER:                  -5.700
REMARK INTRA:                   0.000
REMARK UNBOUND:                 0.000
REMARK SMILES O=c1ccc2ccc(O)cc2o1
REMARK SMILES IDX 6 1 7 2 8 3 10 4 11 5 5 6 4 7 3 8 2 9 1 10 12 11 9 12
REMARK H PARENT 9 13
REMARK Flexibility Score: inf
ROOT
ATOM      1  C   UNL     1     -12.685  45.934  24.081  1.00  0.00     0.016 A 
ATOM      2  C   UNL     1     -13.575  45.899  25.160  1.00  0.00     0.047 A 
ATOM      3  C   UNL     1     -14.737  45.116  25.094  1.00  0.00     0.119 A 
ATOM      4  C   UNL     1     -15.007  44.365  23.944  1.00  0.00     0.094 A 
ATOM      5  C   UNL     1     -14.123  44.393  22.860  1.00  0.00     0.142 A 
ATOM      6  C   UNL     1     -12.954  45.183  22.929  1.00  0.00     0.018 A 
ATOM      7  C   UNL     1     -12.090  45.192  21.830  1.00  0.00     0.019 A 
ATOM      8  C   UNL     1     -12.403  44.428  20.707  1.00  0.00     0.094 A 
ATOM      9  C   UNL     1     -13.579  43.669  20.709  1.00  0.00     0.336 A 
ATOM     10  O   UNL     1     -13.879  42.973  19.705  1.00  0.00    -0.246 OA
ATOM     11  O   UNL     1     -14.385  43.678  21.769  1.00  0.00    -0.423 OA
ENDROOT
BRANCH   3  12
ATOM     12  O   UNL     1     -15.627  45.076  26.164  1.00  0.00    -0.508 OA
ATOM     13  H   UNL     1     -16.169  45.889  26.434  1.00  0.00     0.293 HD
ENDBRANCH   3  12
TORSDOF 1
ENDMDL
MODEL 4
REMARK VINA RESULT:    -5.505      1.206      4.339
REMARK INTER + INTRA:          -5.666
REMARK INTER:                  -5.666
REMARK INTRA:                   0.000
REMARK UNBOUND:                 0.000
REMARK SMILES O=c1ccc2ccc(O)cc2o1
REMARK SMILES IDX 6 1 7 2 8 3 10 4 11 5 5 6 4 7 3 8 2 9 1 10 12 11 9 12
REMARK H PARENT 9 13
REMARK Flexibility Score: inf
ROOT
ATOM      1  C   UNL     1     -14.166  43.552  22.089  1.00  0.00     0.016 A 
ATOM      2  C   UNL     1     -13.022  44.079  21.480  1.00  0.00     0.047 A 
ATOM      3  C   UNL     1     -12.305  45.114  22.098  1.00  0.00     0.119 A 
ATOM      4  C   UNL     1     -12.734  45.622  23.329  1.00  0.00     0.094 A 
ATOM      5  C   UNL     1     -13.877  45.102  23.946  1.00  0.00     0.142 A 
ATOM      6  C   UNL     1     -14.598  44.060  23.322  1.00  0.00     0.018 A 
ATOM      7  C   UNL     1     -15.736  43.561  23.962  1.00  0.00     0.019 A 
ATOM      8  C   UNL     1     -16.124  44.100  25.187  1.00  0.00     0.094 A 
ATOM      9  C   UNL     1     -15.362  45.132  25.747  1.00  0.00     0.336 A 
ATOM     10  O   UNL     1     -15.696  45.632  26.852  1.00  0.00    -0.246 OA
ATOM     11  O   UNL     1     -14.282  45.590  25.116  1.00  0.00    -0.423 OA
ENDROOT
BRANCH   3  12
ATOM     12  O   UNL     1     -11.164  45.642  21.497  1.00  0.00    -0.508 OA
ATOM     13  H   UNL     1     -10.979  46.639  21.497  1.00  0.00     0.293 HD
ENDBRANCH   3  12
TORSDOF 1
ENDMDL
MODEL 5
REMARK VINA RESULT:    -5.470     18.991     20.693
REMARK INTER + INTRA:          -5.629
REMARK INTER:                  -5.629
REMARK INTRA:                   0.000
REMARK UNBOUND:                 0.000
REMARK SMILES O=c1ccc2ccc(O)cc2o1
REMARK SMILES IDX 6 1 7 2 8 3 10 4 11 5 5 6 4 7 3 8 2 9 1 10 12 11 9 12
REMARK H PARENT 9 13
REMARK Flexibility Score: inf
ROOT
ATOM      1  C   UNL     1     -21.632  61.632  28.106  1.00  0.00     0.016 A 
ATOM      2  C   UNL     1     -20.302  61.624  28.539  1.00  0.00     0.047 A 
ATOM      3  C   UNL     1     -20.003  61.689  29.908  1.00  0.00     0.119 A 
ATOM      4  C   UNL     1     -21.039  61.761  30.846  1.00  0.00     0.094 A 
ATOM      5  C   UNL     1     -22.373  61.770  30.422  1.00  0.00     0.142 A 
ATOM      6  C   UNL     1     -22.671  61.705  29.044  1.00  0.00     0.018 A 
ATOM      7  C   UNL     1     -24.013  61.715  28.651  1.00  0.00     0.019 A 
ATOM      8  C   UNL     1     -25.010  61.789  29.623  1.00  0.00     0.094 A 
ATOM      9  C   UNL     1     -24.640  61.851  30.971  1.00  0.00     0.336 A 
ATOM     10  O   UNL     1     -25.524  61.919  31.863  1.00  0.00    -0.246 OA
ATOM     11  O   UNL     1     -23.354  61.840  31.318  1.00  0.00    -0.423 OA
ENDROOT
BRANCH   3  12
ATOM     12  O   UNL     1     -18.680  61.681  30.345  1.00  0.00    -0.508 OA
ATOM     13  H   UNL     1     -17.906  61.628  29.693  1.00  0.00     0.293 HD
ENDBRANCH   3  12
TORSDOF 1
ENDMDL
MODEL 6
REMARK VINA RESULT:    -5.431      1.878      4.785
REMARK INTER + INTRA:          -5.589
REMARK INTER:                  -5.589
REMARK INTRA:                   0.000
REMARK UNBOUND:                 0.000
REMARK SMILES O=c1ccc2ccc(O)cc2o1
REMARK SMILES IDX 6 1 7 2 8 3 10 4 11 5 5 6 4 7 3 8 2 9 1 10 12 11 9 12
REMARK H PARENT 9 13
REMARK Flexibility Score: inf
ROOT
ATOM      1  C   UNL     1     -12.166  45.187  22.141  1.00  0.00     0.016 A 
ATOM      2  C   UNL     1     -12.429  44.421  21.000  1.00  0.00     0.047 A 
ATOM      3  C   UNL     1     -13.591  43.640  20.925  1.00  0.00     0.119 A 
ATOM      4  C   UNL     1     -14.493  43.625  21.995  1.00  0.00     0.094 A 
ATOM      5  C   UNL     1     -14.238  44.387  23.141  1.00  0.00     0.142 A 
ATOM      6  C   UNL     1     -13.067  45.173  23.215  1.00  0.00     0.018 A 
ATOM      7  C   UNL     1     -12.839  45.924  24.372  1.00  0.00     0.019 A 
ATOM      8  C   UNL     1     -13.767  45.876  25.412  1.00  0.00     0.094 A 
ATOM      9  C   UNL     1     -14.905  45.074  25.269  1.00  0.00     0.336 A 
ATOM     10  O   UNL     1     -15.753  45.017  26.197  1.00  0.00    -0.246 OA
ATOM     11  O   UNL     1     -15.098  44.369  24.157  1.00  0.00    -0.423 OA
ENDROOT
BRANCH   3  12
ATOM     12  O   UNL     1     -13.859  42.876  19.791  1.00  0.00    -0.508 OA
ATOM     13  H   UNL     1     -13.916  41.864  19.835  1.00  0.00     0.293 HD
ENDBRANCH   3  12
TORSDOF 1
ENDMDL
MODEL 7
REMARK VINA RESULT:    -5.277     18.698     20.618
REMARK INTER + INTRA:          -5.431
REMARK INTER:                  -5.431
REMARK INTRA:                   0.000
REMARK UNBOUND:                 0.000
REMARK SMILES O=c1ccc2ccc(O)cc2o1
REMARK SMILES IDX 6 1 7 2 8 3 10 4 11 5 5 6 4 7 3 8 2 9 1 10 12 11 9 12
REMARK H PARENT 9 13
REMARK Flexibility Score: inf
ROOT
ATOM      1  C   UNL     1     -25.511  59.623  30.283  1.00  0.00     0.016 A 
ATOM      2  C   UNL     1     -26.249  60.471  31.114  1.00  0.00     0.047 A 
ATOM      3  C   UNL     1     -26.010  61.853  31.107  1.00  0.00     0.119 A 
ATOM      4  C   UNL     1     -25.029  62.387  30.263  1.00  0.00     0.094 A 
ATOM      5  C   UNL     1     -24.286  61.546  29.427  1.00  0.00     0.142 A 
ATOM      6  C   UNL     1     -24.528  60.155  29.437  1.00  0.00     0.018 A 
ATOM      7  C   UNL     1     -23.769  59.340  28.592  1.00  0.00     0.019 A 
ATOM      8  C   UNL     1     -22.803  59.918  27.770  1.00  0.00     0.094 A 
ATOM      9  C   UNL     1     -22.617  61.304  27.813  1.00  0.00     0.336 A 
ATOM     10  O   UNL     1     -21.750  61.845  27.079  1.00  0.00    -0.246 OA
ATOM     11  O   UNL     1     -23.353  62.058  28.628  1.00  0.00    -0.423 OA
ENDROOT
BRANCH   3  12
ATOM     12  O   UNL     1     -26.742  62.704  31.932  1.00  0.00    -0.508 OA
ATOM     13  H   UNL     1     -27.006  62.433  32.872  1.00  0.00     0.293 HD
ENDBRANCH   3  12
TORSDOF 1
ENDMDL
MODEL 8
REMARK VINA RESULT:    -5.270     18.822     21.270
REMARK INTER + INTRA:          -5.424
REMARK INTER:                  -5.424
REMARK INTRA:                   0.000
REMARK UNBOUND:                 0.000
REMARK SMILES O=c1ccc2ccc(O)cc2o1
REMARK SMILES IDX 6 1 7 2 8 3 10 4 11 5 5 6 4 7 3 8 2 9 1 10 12 11 9 12
REMARK H PARENT 9 13
REMARK Flexibility Score: inf
ROOT
ATOM      1  C   UNL     1     -23.598  62.006  28.966  1.00  0.00     0.016 A 
ATOM      2  C   UNL     1     -23.087  61.058  28.073  1.00  0.00     0.047 A 
ATOM      3  C   UNL     1     -23.580  59.745  28.077  1.00  0.00     0.119 A 
ATOM      4  C   UNL     1     -24.588  59.381  28.976  1.00  0.00     0.094 A 
ATOM      5  C   UNL     1     -25.105  60.322  29.873  1.00  0.00     0.142 A 
ATOM      6  C   UNL     1     -24.607  61.644  29.868  1.00  0.00     0.018 A 
ATOM      7  C   UNL     1     -25.143  62.562  30.775  1.00  0.00     0.019 A 
ATOM      8  C   UNL     1     -26.146  62.151  31.653  1.00  0.00     0.094 A 
ATOM      9  C   UNL     1     -26.591  60.825  31.602  1.00  0.00     0.336 A 
ATOM     10  O   UNL     1     -27.495  60.435  32.385  1.00  0.00    -0.246 OA
ATOM     11  O   UNL     1     -26.063  59.970  30.728  1.00  0.00    -0.423 OA
ENDROOT
BRANCH   3  12
ATOM     12  O   UNL     1     -23.076  58.796  27.190  1.00  0.00    -0.508 OA
ATOM     13  H   UNL     1     -23.603  58.497  26.377  1.00  0.00     0.293 HD
ENDBRANCH   3  12
TORSDOF 1
ENDMDL
MODEL 9
REMARK VINA RESULT:    -5.245     20.599     21.472
REMARK INTER + INTRA:          -5.398
REMARK INTER:                  -5.398
REMARK INTRA:                   0.000
REMARK UNBOUND:                 0.000
REMARK SMILES O=c1ccc2ccc(O)cc2o1
REMARK SMILES IDX 6 1 7 2 8 3 10 4 11 5 5 6 4 7 3 8 2 9 1 10 12 11 9 12
REMARK H PARENT 9 13
REMARK Flexibility Score: inf
ROOT
ATOM      1  C   UNL     1     -24.558  60.860  33.187  1.00  0.00     0.016 A 
ATOM      2  C   UNL     1     -25.848  60.374  33.425  1.00  0.00     0.047 A 
ATOM      3  C   UNL     1     -26.740  60.184  32.359  1.00  0.00     0.119 A 
ATOM      4  C   UNL     1     -26.339  60.481  31.052  1.00  0.00     0.094 A 
ATOM      5  C   UNL     1     -25.050  60.967  30.805  1.00  0.00     0.142 A 
ATOM      6  C   UNL     1     -24.154  61.158  31.879  1.00  0.00     0.018 A 
ATOM      7  C   UNL     1     -22.874  61.645  31.601  1.00  0.00     0.019 A 
ATOM      8  C   UNL     1     -22.520  61.927  30.282  1.00  0.00     0.094 A 
ATOM      9  C   UNL     1     -23.460  61.714  29.268  1.00  0.00     0.336 A 
ATOM     10  O   UNL     1     -23.161  61.963  28.071  1.00  0.00    -0.246 OA
ATOM     11  O   UNL     1     -24.673  61.249  29.560  1.00  0.00    -0.423 OA
ENDROOT
BRANCH   3  12
ATOM     12  O   UNL     1     -28.026  59.700  32.589  1.00  0.00    -0.508 OA
ATOM     13  H   UNL     1     -28.614  59.376  31.829  1.00  0.00     0.293 HD
ENDBRANCH   3  12
TORSDOF 1
ENDMDL
