MODEL 1
REMARK VINA RESULT:    -3.180      0.000      0.000
REMARK INTER + INTRA:          -3.180
REMARK INTER:                  -3.180
REMARK INTRA:                   0.000
REMARK UNBOUND:                 0.000
REMARK SMILES CC1(C)O[C@]2(C)CC[C@H]1CC2
REMARK SMILES IDX 1 1 2 2 9 3 10 4 11 5 5 6 4 7 7 8 8 9 6 10 3 11
REMARK H PARENT
REMARK Flexibility Score: inf
ROOT
ATOM      1  C   UNL     1     139.437 146.354 136.875  1.00  0.00     0.042 C 
ATOM      2  C   UNL     1     139.092 147.334 138.017  1.00  0.00     0.066 C 
ATOM      3  C   UNL     1     139.494 146.726 139.415  1.00  0.00     0.021 C 
ATOM      4  C   UNL     1     139.080 147.725 140.522  1.00  0.00     0.009 C 
ATOM      5  C   UNL     1     137.593 148.110 140.328  1.00  0.00     0.035 C 
ATOM      6  C   UNL     1     136.988 147.298 139.147  1.00  0.00     0.066 C 
ATOM      7  O   UNL     1     137.688 147.624 137.946  1.00  0.00    -0.369 OA
ATOM      8  C   UNL     1     137.156 145.779 139.440  1.00  0.00     0.035 C 
ATOM      9  C   UNL     1     138.653 145.449 139.655  1.00  0.00     0.009 C 
ATOM     10  C   UNL     1     135.506 147.644 138.966  1.00  0.00     0.042 C 
ATOM     11  C   UNL     1     139.866 148.643 137.747  1.00  0.00     0.042 C 
ENDROOT
TORSDOF 0
ENDMDL
MODEL 2
REMARK VINA RESULT:    -3.173     12.437     14.127
REMARK INTER + INTRA:          -3.173
REMARK INTER:                  -3.173
REMARK INTRA:                   0.000
REMARK UNBOUND:                 0.000
REMARK SMILES CC1(C)O[C@]2(C)CC[C@H]1CC2
REMARK SMILES IDX 1 1 2 2 9 3 10 4 11 5 5 6 4 7 7 8 8 9 6 10 3 11
REMARK H PARENT
REMARK Flexibility Score: inf
ROOT
ATOM      1  C   UNL     1     142.146 135.170 136.875  1.00  0.00     0.042 C 
ATOM      2  C   UNL     1     142.502 134.197 138.020  1.00  0.00     0.066 C 
ATOM      3  C   UNL     1     142.111 134.812 139.418  1.00  0.00     0.021 C 
ATOM      4  C   UNL     1     142.535 133.820 140.527  1.00  0.00     0.009 C 
ATOM      5  C   UNL     1     144.021 133.436 140.323  1.00  0.00     0.035 C 
ATOM      6  C   UNL     1     144.615 134.242 139.132  1.00  0.00     0.066 C 
ATOM      7  O   UNL     1     143.906 133.908 137.939  1.00  0.00    -0.369 OA
ATOM      8  C   UNL     1     144.447 135.763 139.417  1.00  0.00     0.035 C 
ATOM      9  C   UNL     1     142.952 136.092 139.643  1.00  0.00     0.009 C 
ATOM     10  C   UNL     1     146.096 133.897 138.941  1.00  0.00     0.042 C 
ATOM     11  C   UNL     1     141.728 132.885 137.764  1.00  0.00     0.042 C 
ENDROOT
TORSDOF 0
ENDMDL
MODEL 3
REMARK VINA RESULT:    -3.141     12.261     13.961
REMARK INTER + INTRA:          -3.141
REMARK INTER:                  -3.141
REMARK INTRA:                   0.000
REMARK UNBOUND:                 0.000
REMARK SMILES CC1(C)O[C@]2(C)CC[C@H]1CC2
REMARK SMILES IDX 1 1 2 2 9 3 10 4 11 5 5 6 4 7 7 8 8 9 6 10 3 11
REMARK H PARENT
REMARK Flexibility Score: inf
ROOT
ATOM      1  C   UNL     1     141.300 136.027 139.102  1.00  0.00     0.042 C 
ATOM      2  C   UNL     1     142.325 135.116 138.392  1.00  0.00     0.066 C 
ATOM      3  C   UNL     1     142.187 133.626 138.891  1.00  0.00     0.021 C 
ATOM      4  C   UNL     1     143.267 132.771 138.187  1.00  0.00     0.009 C 
ATOM      5  C   UNL     1     144.649 133.445 138.371  1.00  0.00     0.035 C 
ATOM      6  C   UNL     1     144.504 134.702 139.277  1.00  0.00     0.066 C 
ATOM      7  O   UNL     1     143.637 135.641 138.641  1.00  0.00    -0.369 OA
ATOM      8  C   UNL     1     143.885 134.276 140.639  1.00  0.00     0.035 C 
ATOM      9  C   UNL     1     142.523 133.582 140.401  1.00  0.00     0.009 C 
ATOM     10  C   UNL     1     145.871 135.361 139.495  1.00  0.00     0.042 C 
ATOM     11  C   UNL     1     142.050 135.211 136.875  1.00  0.00     0.042 C 
ENDROOT
TORSDOF 0
ENDMDL
MODEL 4
REMARK VINA RESULT:    -3.137      8.896     10.209
REMARK INTER + INTRA:          -3.137
REMARK INTER:                  -3.137
REMARK INTRA:                   0.000
REMARK UNBOUND:                 0.000
REMARK SMILES CC1(C)O[C@]2(C)CC[C@H]1CC2
REMARK SMILES IDX 1 1 2 2 9 3 10 4 11 5 5 6 4 7 7 8 8 9 6 10 3 11
REMARK H PARENT
REMARK Flexibility Score: inf
ROOT
ATOM      1  C   UNL     1     135.125 139.481 136.875  1.00  0.00     0.042 C 
ATOM      2  C   UNL     1     134.065 139.032 137.904  1.00  0.00     0.066 C 
ATOM      3  C   UNL     1     134.594 139.234 139.375  1.00  0.00     0.021 C 
ATOM      4  C   UNL     1     133.516 138.721 140.360  1.00  0.00     0.009 C 
ATOM      5  C   UNL     1     133.102 137.285 139.956  1.00  0.00     0.035 C 
ATOM      6  C   UNL     1     133.969 136.803 138.758  1.00  0.00     0.066 C 
ATOM      7  O   UNL     1     133.740 137.659 137.638  1.00  0.00    -0.369 OA
ATOM      8  C   UNL     1     135.471 136.878 139.159  1.00  0.00     0.035 C 
ATOM      9  C   UNL     1     135.829 138.324 139.581  1.00  0.00     0.009 C 
ATOM     10  C   UNL     1     133.592 135.370 138.370  1.00  0.00     0.042 C 
ATOM     11  C   UNL     1     132.798 139.881 137.658  1.00  0.00     0.042 C 
ENDROOT
TORSDOF 0
ENDMDL
MODEL 5
REMARK VINA RESULT:    -3.089      1.207      3.017
REMARK INTER + INTRA:          -3.089
REMARK INTER:                  -3.089
REMARK INTRA:                   0.000
REMARK UNBOUND:                 0.000
REMARK SMILES CC1(C)O[C@]2(C)CC[C@H]1CC2
REMARK SMILES IDX 1 1 2 2 9 3 10 4 11 5 5 6 4 7 7 8 8 9 6 10 3 11
REMARK H PARENT
REMARK Flexibility Score: inf
ROOT
ATOM      1  C   UNL     1     139.972 146.121 141.018  1.00  0.00     0.042 C 
ATOM      2  C   UNL     1     138.891 146.983 140.332  1.00  0.00     0.066 C 
ATOM      3  C   UNL     1     137.799 146.072 139.650  1.00  0.00     0.021 C 
ATOM      4  C   UNL     1     136.773 146.985 138.937  1.00  0.00     0.009 C 
ATOM      5  C   UNL     1     137.528 147.977 138.019  1.00  0.00     0.035 C 
ATOM      6  C   UNL     1     139.053 147.666 138.049  1.00  0.00     0.066 C 
ATOM      7  O   UNL     1     139.541 147.838 139.379  1.00  0.00    -0.369 OA
ATOM      8  C   UNL     1     139.276 146.191 137.609  1.00  0.00     0.035 C 
ATOM      9  C   UNL     1     138.480 145.241 138.536  1.00  0.00     0.009 C 
ATOM     10  C   UNL     1     139.808 148.620 137.117  1.00  0.00     0.042 C 
ATOM     11  C   UNL     1     138.255 147.875 141.421  1.00  0.00     0.042 C 
ENDROOT
TORSDOF 0
ENDMDL
MODEL 6
REMARK VINA RESULT:    -3.075      1.260      3.378
REMARK INTER + INTRA:          -3.075
REMARK INTER:                  -3.075
REMARK INTRA:                   0.000
REMARK UNBOUND:                 0.000
REMARK SMILES CC1(C)O[C@]2(C)CC[C@H]1CC2
REMARK SMILES IDX 1 1 2 2 9 3 10 4 11 5 5 6 4 7 7 8 8 9 6 10 3 11
REMARK H PARENT
REMARK Flexibility Score: inf
ROOT
ATOM      1  C   UNL     1     136.565 150.201 139.003  1.00  0.00     0.042 C 
ATOM      2  C   UNL     1     136.477 148.686 138.716  1.00  0.00     0.066 C 
ATOM      3  C   UNL     1     136.268 147.876 140.052  1.00  0.00     0.021 C 
ATOM      4  C   UNL     1     136.238 146.367 139.712  1.00  0.00     0.009 C 
ATOM      5  C   UNL     1     137.486 146.012 138.867  1.00  0.00     0.035 C 
ATOM      6  C   UNL     1     138.397 147.266 138.720  1.00  0.00     0.066 C 
ATOM      7  O   UNL     1     137.677 148.291 138.035  1.00  0.00    -0.369 OA
ATOM      8  C   UNL     1     138.787 147.775 140.138  1.00  0.00     0.035 C 
ATOM      9  C   UNL     1     137.509 148.088 140.953  1.00  0.00     0.009 C 
ATOM     10  C   UNL     1     139.653 146.919 137.914  1.00  0.00     0.042 C 
ATOM     11  C   UNL     1     135.287 148.470 137.754  1.00  0.00     0.042 C 
ENDROOT
TORSDOF 0
ENDMDL
MODEL 7
REMARK VINA RESULT:    -3.069      9.110     10.276
REMARK INTER + INTRA:          -3.069
REMARK INTER:                  -3.069
REMARK INTRA:                   0.000
REMARK UNBOUND:                 0.000
REMARK SMILES CC1(C)O[C@]2(C)CC[C@H]1CC2
REMARK SMILES IDX 1 1 2 2 9 3 10 4 11 5 5 6 4 7 7 8 8 9 6 10 3 11
REMARK H PARENT
REMARK Flexibility Score: inf
ROOT
ATOM      1  C   UNL     1     150.240 144.877 138.960  1.00  0.00     0.042 C 
ATOM      2  C   UNL     1     148.728 144.993 138.670  1.00  0.00     0.066 C 
ATOM      3  C   UNL     1     147.913 145.152 140.010  1.00  0.00     0.021 C 
ATOM      4  C   UNL     1     146.406 145.212 139.663  1.00  0.00     0.009 C 
ATOM      5  C   UNL     1     146.043 144.005 138.763  1.00  0.00     0.035 C 
ATOM      6  C   UNL     1     147.288 143.089 138.584  1.00  0.00     0.066 C 
ATOM      7  O   UNL     1     148.324 143.827 137.935  1.00  0.00    -0.369 OA
ATOM      8  C   UNL     1     147.786 142.633 139.985  1.00  0.00     0.035 C 
ATOM      9  C   UNL     1     148.107 143.871 140.856  1.00  0.00     0.009 C 
ATOM     10  C   UNL     1     146.934 141.873 137.722  1.00  0.00     0.042 C 
ATOM     11  C   UNL     1     148.529 146.225 137.759  1.00  0.00     0.042 C 
ENDROOT
TORSDOF 0
ENDMDL
MODEL 8
REMARK VINA RESULT:    -3.045     13.238     14.675
REMARK INTER + INTRA:          -3.045
REMARK INTER:                  -3.045
REMARK INTRA:                   0.000
REMARK UNBOUND:                 0.000
REMARK SMILES CC1(C)O[C@]2(C)CC[C@H]1CC2
REMARK SMILES IDX 1 1 2 2 9 3 10 4 11 5 5 6 4 7 7 8 8 9 6 10 3 11
REMARK H PARENT
REMARK Flexibility Score: inf
ROOT
ATOM      1  C   UNL     1     144.852 131.425 139.131  1.00  0.00     0.042 C 
ATOM      2  C   UNL     1     144.959 132.927 138.789  1.00  0.00     0.066 C 
ATOM      3  C   UNL     1     145.057 133.794 140.102  1.00  0.00     0.021 C 
ATOM      4  C   UNL     1     145.111 135.287 139.702  1.00  0.00     0.009 C 
ATOM      5  C   UNL     1     143.936 135.600 138.744  1.00  0.00     0.035 C 
ATOM      6  C   UNL     1     143.043 134.336 138.577  1.00  0.00     0.066 C 
ATOM      7  O   UNL     1     143.818 133.287 137.997  1.00  0.00    -0.369 OA
ATOM      8  C   UNL     1     142.540 133.884 139.979  1.00  0.00     0.035 C 
ATOM      9  C   UNL     1     143.748 133.613 140.907  1.00  0.00     0.009 C 
ATOM     10  C   UNL     1     141.856 134.642 137.658  1.00  0.00     0.042 C 
ATOM     11  C   UNL     1     146.223 133.110 137.919  1.00  0.00     0.042 C 
ENDROOT
TORSDOF 0
ENDMDL
MODEL 9
REMARK VINA RESULT:    -1.103      8.795     10.028
REMARK INTER + INTRA:          -1.103
REMARK INTER:                  -1.103
REMARK INTRA:                   0.000
REMARK UNBOUND:                 0.000
REMARK SMILES CC1(C)O[C@]2(C)CC[C@H]1CC2
REMARK SMILES IDX 1 1 2 2 9 3 10 4 11 5 5 6 4 7 7 8 8 9 6 10 3 11
REMARK H PARENT
REMARK Flexibility Score: inf
ROOT
ATOM      1  C   UNL     1     146.632 142.112 136.875  1.00  0.00     0.042 C 
ATOM      2  C   UNL     1     147.516 142.500 138.080  1.00  0.00     0.066 C 
ATOM      3  C   UNL     1     146.815 142.110 139.437  1.00  0.00     0.021 C 
ATOM      4  C   UNL     1     147.719 142.566 140.606  1.00  0.00     0.009 C 
ATOM      5  C   UNL     1     148.086 144.057 140.412  1.00  0.00     0.035 C 
ATOM      6  C   UNL     1     147.351 144.623 139.163  1.00  0.00     0.066 C 
ATOM      7  O   UNL     1     147.781 143.909 138.003  1.00  0.00    -0.369 OA
ATOM      8  C   UNL     1     145.819 144.425 139.345  1.00  0.00     0.035 C 
ATOM      9  C   UNL     1     145.506 142.925 139.564  1.00  0.00     0.009 C 
ATOM     10  C   UNL     1     147.679 146.108 138.979  1.00  0.00     0.042 C 
ATOM     11  C   UNL     1     148.858 141.751 137.923  1.00  0.00     0.042 C 
ENDROOT
TORSDOF 0
ENDMDL
