MODEL 1
REMARK VINA RESULT:    -4.149      0.000      0.000
REMARK INTER + INTRA:         -13.010
REMARK INTER:                 -10.455
REMARK INTRA:                  -2.555
REMARK UNBOUND:                -2.555
REMARK SMILES CCCCCCCCCCCCCCCCCCCCCCCCCCCC(=O)[O-]
REMARK SMILES IDX 15 1 16 2 17 3 18 4 19 5 20 6 21 7 22 8 23 9 24 10 25 11
REMARK SMILES IDX 26 12 27 13 28 14 29 15 30 16 14 17 13 18 12 19 11 20 10 21
REMARK SMILES IDX 9 22 8 23 7 24 6 25 5 26 4 27 3 28 2 29 1 30
REMARK H PARENT
REMARK Flexibility Score: inf
ROOT
ATOM      1  C   UNL     1       1.323  10.580 -10.343  1.00  0.00     0.000 C 
ENDROOT
BRANCH   1   2
ATOM      2  C   UNL     1       2.183  11.858 -10.266  1.00  0.00     0.000 C 
BRANCH   2   3
ATOM      3  C   UNL     1       3.632  11.703 -10.761  1.00  0.00     0.000 C 
BRANCH   3   4
ATOM      4  C   UNL     1       4.560  12.802 -10.220  1.00  0.00     0.000 C 
BRANCH   4   5
ATOM      5  C   UNL     1       4.444  12.995  -8.697  1.00  0.00     0.000 C 
BRANCH   5   6
ATOM      6  C   UNL     1       5.575  13.821  -8.049  1.00  0.00     0.000 C 
BRANCH   6   7
ATOM      7  C   UNL     1       6.667  13.003  -7.331  1.00  0.00     0.000 C 
BRANCH   7   8
ATOM      8  C   UNL     1       6.658  13.116  -5.797  1.00  0.00     0.000 C 
BRANCH   8   9
ATOM      9  C   UNL     1       7.588  12.099  -5.118  1.00  0.00     0.000 C 
BRANCH   9  10
ATOM     10  C   UNL     1       9.077  12.424  -5.334  1.00  0.00     0.000 C 
BRANCH  10  11
ATOM     11  C   UNL     1       9.993  11.184  -5.245  1.00  0.00     0.000 C 
BRANCH  11  12
ATOM     12  C   UNL     1       9.553  10.064  -6.202  1.00  0.00     0.006 C 
BRANCH  12  13
ATOM     13  C   UNL     1      10.687   9.678  -7.156  1.00  0.00     0.053 C 
BRANCH  13  14
ATOM     14  C   UNL     1      11.368   8.433  -6.684  1.00  0.00     0.041 C 
ATOM     15  O   UNL     1      11.238   8.052  -5.491  1.00  0.00    -0.550 OA
ATOM     16  O   UNL     1      12.108   7.665  -7.574  1.00  0.00    -0.550 OA
ENDBRANCH  13  14
ENDBRANCH  12  13
ENDBRANCH  11  12
ENDBRANCH  10  11
ENDBRANCH   9  10
ENDBRANCH   8   9
ENDBRANCH   7   8
ENDBRANCH   6   7
ENDBRANCH   5   6
ENDBRANCH   4   5
ENDBRANCH   3   4
ENDBRANCH   2   3
ENDBRANCH   1   2
BRANCH   1  17
ATOM     17  C   UNL     1       1.723   9.587 -11.448  1.00  0.00     0.000 C 
BRANCH  17  18
ATOM     18  C   UNL     1       2.238   8.250 -10.887  1.00  0.00     0.000 C 
BRANCH  18  19
ATOM     19  C   UNL     1       2.622   8.327  -9.397  1.00  0.00     0.000 C 
BRANCH  19  20
ATOM     20  C   UNL     1       1.859   7.364  -8.469  1.00  0.00     0.000 C 
BRANCH  20  21
ATOM     21  C   UNL     1       0.755   8.055  -7.655  1.00  0.00     0.000 C 
BRANCH  21  22
ATOM     22  C   UNL     1      -0.596   7.988  -8.383  1.00  0.00    -0.000 C 
BRANCH  22  23
ATOM     23  C   UNL     1      -0.762   6.681  -9.186  1.00  0.00    -0.000 C 
BRANCH  23  24
ATOM     24  C   UNL     1      -1.064   6.905 -10.677  1.00  0.00    -0.000 C 
BRANCH  24  25
ATOM     25  C   UNL     1      -1.945   8.136 -10.931  1.00  0.00    -0.000 C 
BRANCH  25  26
ATOM     26  C   UNL     1      -3.415   7.736 -11.095  1.00  0.00    -0.000 C 
BRANCH  26  27
ATOM     27  C   UNL     1      -4.214   8.852 -11.787  1.00  0.00    -0.000 C 
BRANCH  27  28
ATOM     28  C   UNL     1      -3.724  10.257 -11.402  1.00  0.00    -0.000 C 
BRANCH  28  29
ATOM     29  C   UNL     1      -4.757  11.037 -10.575  1.00  0.00    -0.003 C 
ATOM     30  C   UNL     1      -6.102  11.096 -11.293  1.00  0.00     0.004 C 
ENDBRANCH  28  29
ENDBRANCH  27  28
ENDBRANCH  26  27
ENDBRANCH  25  26
ENDBRANCH  24  25
ENDBRANCH  23  24
ENDBRANCH  22  23
ENDBRANCH  21  22
ENDBRANCH  20  21
ENDBRANCH  19  20
ENDBRANCH  18  19
ENDBRANCH  17  18
ENDBRANCH   1  17
TORSDOF 26
ENDMDL
MODEL 2
REMARK VINA RESULT:    -4.020      4.421     11.529
REMARK INTER + INTRA:         -12.685
REMARK INTER:                  -9.444
REMARK INTRA:                  -3.241
REMARK UNBOUND:                -2.555
REMARK SMILES CCCCCCCCCCCCCCCCCCCCCCCCCCCC(=O)[O-]
REMARK SMILES IDX 15 1 16 2 17 3 18 4 19 5 20 6 21 7 22 8 23 9 24 10 25 11
REMARK SMILES IDX 26 12 27 13 28 14 29 15 30 16 14 17 13 18 12 19 11 20 10 21
REMARK SMILES IDX 9 22 8 23 7 24 6 25 5 26 4 27 3 28 2 29 1 30
REMARK H PARENT
REMARK Flexibility Score: inf
ROOT
ATOM      1  C   UNL     1       5.973  13.930  -7.705  1.00  0.00     0.000 C 
ENDROOT
BRANCH   1   2
ATOM      2  C   UNL     1       4.670  13.451  -8.376  1.00  0.00     0.000 C 
BRANCH   2   3
ATOM      3  C   UNL     1       4.812  13.016  -9.846  1.00  0.00     0.000 C 
BRANCH   3   4
ATOM      4  C   UNL     1       3.659  12.110 -10.307  1.00  0.00     0.000 C 
BRANCH   4   5
ATOM      5  C   UNL     1       2.670  11.770  -9.177  1.00  0.00     0.000 C 
BRANCH   5   6
ATOM      6  C   UNL     1       1.935  10.422  -9.330  1.00  0.00     0.000 C 
BRANCH   6   7
ATOM      7  C   UNL     1       2.595   9.411 -10.289  1.00  0.00     0.000 C 
BRANCH   7   8
ATOM      8  C   UNL     1       2.125   7.956 -10.120  1.00  0.00     0.000 C 
BRANCH   8   9
ATOM      9  C   UNL     1       1.584   7.663  -8.713  1.00  0.00     0.000 C 
BRANCH   9  10
ATOM     10  C   UNL     1       0.276   6.851  -8.739  1.00  0.00     0.000 C 
BRANCH  10  11
ATOM     11  C   UNL     1      -0.502   6.987 -10.066  1.00  0.00     0.000 C 
BRANCH  11  12
ATOM     12  C   UNL     1      -2.025   6.956  -9.854  1.00  0.00     0.006 C 
BRANCH  12  13
ATOM     13  C   UNL     1      -2.767   7.018 -11.192  1.00  0.00     0.053 C 
BRANCH  13  14
ATOM     14  C   UNL     1      -3.477   8.327 -11.337  1.00  0.00     0.041 C 
ATOM     15  O   UNL     1      -2.825   9.405 -11.341  1.00  0.00    -0.550 OA
ATOM     16  O   UNL     1      -4.854   8.356 -11.517  1.00  0.00    -0.550 OA
ENDBRANCH  13  14
ENDBRANCH  12  13
ENDBRANCH  11  12
ENDBRANCH  10  11
ENDBRANCH   9  10
ENDBRANCH   8   9
ENDBRANCH   7   8
ENDBRANCH   6   7
ENDBRANCH   5   6
ENDBRANCH   4   5
ENDBRANCH   3   4
ENDBRANCH   2   3
ENDBRANCH   1   2
BRANCH   1  17
ATOM     17  C   UNL     1       6.582  12.952  -6.685  1.00  0.00     0.000 C 
BRANCH  17  18
ATOM     18  C   UNL     1       6.885  13.617  -5.332  1.00  0.00     0.000 C 
BRANCH  18  19
ATOM     19  C   UNL     1       8.349  13.442  -4.886  1.00  0.00     0.000 C 
BRANCH  19  20
ATOM     20  C   UNL     1       9.409  13.831  -5.933  1.00  0.00     0.000 C 
BRANCH  20  21
ATOM     21  C   UNL     1      10.834  13.418  -5.535  1.00  0.00     0.000 C 
BRANCH  21  22
ATOM     22  C   UNL     1      10.828  12.570  -4.254  1.00  0.00    -0.000 C 
BRANCH  22  23
ATOM     23  C   UNL     1      11.799  11.374  -4.340  1.00  0.00    -0.000 C 
BRANCH  23  24
ATOM     24  C   UNL     1      11.427  10.352  -5.427  1.00  0.00    -0.000 C 
BRANCH  24  25
ATOM     25  C   UNL     1      10.120   9.606  -5.126  1.00  0.00    -0.000 C 
BRANCH  25  26
ATOM     26  C   UNL     1       9.027   9.983  -6.132  1.00  0.00    -0.000 C 
BRANCH  26  27
ATOM     27  C   UNL     1       9.581   9.998  -7.565  1.00  0.00    -0.000 C 
BRANCH  27  28
ATOM     28  C   UNL     1       9.046  11.177  -8.394  1.00  0.00    -0.000 C 
BRANCH  28  29
ATOM     29  C   UNL     1      10.136  11.843  -9.247  1.00  0.00    -0.003 C 
ATOM     30  C   UNL     1      11.514  11.283  -8.909  1.00  0.00     0.004 C 
ENDBRANCH  28  29
ENDBRANCH  27  28
ENDBRANCH  26  27
ENDBRANCH  25  26
ENDBRANCH  24  25
ENDBRANCH  23  24
ENDBRANCH  22  23
ENDBRANCH  21  22
ENDBRANCH  20  21
ENDBRANCH  19  20
ENDBRANCH  18  19
ENDBRANCH  17  18
ENDBRANCH   1  17
TORSDOF 26
ENDMDL
MODEL 3
REMARK VINA RESULT:    -4.002      4.101     11.219
REMARK INTER + INTRA:         -12.640
REMARK INTER:                  -9.585
REMARK INTRA:                  -3.055
REMARK UNBOUND:                -2.555
REMARK SMILES CCCCCCCCCCCCCCCCCCCCCCCCCCCC(=O)[O-]
REMARK SMILES IDX 15 1 16 2 17 3 18 4 19 5 20 6 21 7 22 8 23 9 24 10 25 11
REMARK SMILES IDX 26 12 27 13 28 14 29 15 30 16 14 17 13 18 12 19 11 20 10 21
REMARK SMILES IDX 9 22 8 23 7 24 6 25 5 26 4 27 3 28 2 29 1 30
REMARK H PARENT
REMARK Flexibility Score: inf
ROOT
ATOM      1  C   UNL     1       7.150  12.556  -4.984  1.00  0.00     0.000 C 
ENDROOT
BRANCH   1   2
ATOM      2  C   UNL     1       6.369  12.972  -6.247  1.00  0.00     0.000 C 
BRANCH   2   3
ATOM      3  C   UNL     1       7.181  12.961  -7.554  1.00  0.00     0.000 C 
BRANCH   3   4
ATOM      4  C   UNL     1       6.318  13.268  -8.788  1.00  0.00     0.000 C 
BRANCH   4   5
ATOM      5  C   UNL     1       4.899  13.746  -8.428  1.00  0.00     0.000 C 
BRANCH   5   6
ATOM      6  C   UNL     1       3.751  12.895  -9.010  1.00  0.00     0.000 C 
BRANCH   6   7
ATOM      7  C   UNL     1       4.096  12.101 -10.286  1.00  0.00     0.000 C 
BRANCH   7   8
ATOM      8  C   UNL     1       2.980  11.169 -10.791  1.00  0.00     0.000 C 
BRANCH   8   9
ATOM      9  C   UNL     1       3.517   9.841 -11.346  1.00  0.00     0.000 C 
BRANCH   9  10
ATOM     10  C   UNL     1       2.578   8.656 -11.058  1.00  0.00     0.000 C 
BRANCH  10  11
ATOM     11  C   UNL     1       2.436   8.339  -9.553  1.00  0.00     0.000 C 
BRANCH  11  12
ATOM     12  C   UNL     1       0.978   8.421  -9.075  1.00  0.00     0.006 C 
BRANCH  12  13
ATOM     13  C   UNL     1       0.110   7.370  -9.771  1.00  0.00     0.053 C 
BRANCH  13  14
ATOM     14  C   UNL     1      -1.215   7.247  -9.087  1.00  0.00     0.041 C 
ATOM     15  O   UNL     1      -1.429   7.857  -8.006  1.00  0.00    -0.550 OA
ATOM     16  O   UNL     1      -2.231   6.497  -9.665  1.00  0.00    -0.550 OA
ENDBRANCH  13  14
ENDBRANCH  12  13
ENDBRANCH  11  12
ENDBRANCH  10  11
ENDBRANCH   9  10
ENDBRANCH   8   9
ENDBRANCH   7   8
ENDBRANCH   6   7
ENDBRANCH   5   6
ENDBRANCH   4   5
ENDBRANCH   3   4
ENDBRANCH   2   3
ENDBRANCH   1   2
BRANCH   1  17
ATOM     17  C   UNL     1       8.017  13.661  -4.357  1.00  0.00     0.000 C 
BRANCH  17  18
ATOM     18  C   UNL     1       9.498  13.556  -4.761  1.00  0.00     0.000 C 
BRANCH  18  19
ATOM     19  C   UNL     1      10.450  13.461  -3.554  1.00  0.00     0.000 C 
BRANCH  19  20
ATOM     20  C   UNL     1      11.622  12.475  -3.714  1.00  0.00     0.000 C 
BRANCH  20  21
ATOM     21  C   UNL     1      12.034  12.257  -5.177  1.00  0.00     0.000 C 
BRANCH  21  22
ATOM     22  C   UNL     1      12.423  10.793  -5.431  1.00  0.00    -0.000 C 
BRANCH  22  23
ATOM     23  C   UNL     1      11.549   9.808  -4.625  1.00  0.00    -0.000 C 
BRANCH  23  24
ATOM     24  C   UNL     1      10.438   9.145  -5.456  1.00  0.00    -0.000 C 
BRANCH  24  25
ATOM     25  C   UNL     1       9.469  10.159  -6.079  1.00  0.00    -0.000 C 
BRANCH  25  26
ATOM     26  C   UNL     1       9.276   9.888  -7.575  1.00  0.00    -0.000 C 
BRANCH  26  27
ATOM     27  C   UNL     1      10.310  10.660  -8.411  1.00  0.00    -0.000 C 
BRANCH  27  28
ATOM     28  C   UNL     1      11.492   9.781  -8.848  1.00  0.00    -0.000 C 
BRANCH  28  29
ATOM     29  C   UNL     1      11.112   8.298  -8.975  1.00  0.00    -0.003 C 
ATOM     30  C   UNL     1      12.264   7.397  -8.542  1.00  0.00     0.004 C 
ENDBRANCH  28  29
ENDBRANCH  27  28
ENDBRANCH  26  27
ENDBRANCH  25  26
ENDBRANCH  24  25
ENDBRANCH  23  24
ENDBRANCH  22  23
ENDBRANCH  21  22
ENDBRANCH  20  21
ENDBRANCH  19  20
ENDBRANCH  18  19
ENDBRANCH  17  18
ENDBRANCH   1  17
TORSDOF 26
ENDMDL
MODEL 4
REMARK VINA RESULT:    -3.963      2.111      5.181
REMARK INTER + INTRA:         -12.541
REMARK INTER:                  -9.845
REMARK INTRA:                  -2.695
REMARK UNBOUND:                -2.555
REMARK SMILES CCCCCCCCCCCCCCCCCCCCCCCCCCCC(=O)[O-]
REMARK SMILES IDX 15 1 16 2 17 3 18 4 19 5 20 6 21 7 22 8 23 9 24 10 25 11
REMARK SMILES IDX 26 12 27 13 28 14 29 15 30 16 14 17 13 18 12 19 11 20 10 21
REMARK SMILES IDX 9 22 8 23 7 24 6 25 5 26 4 27 3 28 2 29 1 30
REMARK H PARENT
REMARK Flexibility Score: inf
ROOT
ATOM      1  C   UNL     1       6.941  13.146  -7.669  1.00  0.00     0.000 C 
ENDROOT
BRANCH   1   2
ATOM      2  C   UNL     1       6.569  13.413  -6.196  1.00  0.00     0.000 C 
BRANCH   2   3
ATOM      3  C   UNL     1       7.152  12.414  -5.182  1.00  0.00     0.000 C 
BRANCH   3   4
ATOM      4  C   UNL     1       8.307  11.586  -5.765  1.00  0.00     0.000 C 
BRANCH   4   5
ATOM      5  C   UNL     1       9.694  12.101  -5.339  1.00  0.00     0.000 C 
BRANCH   5   6
ATOM      6  C   UNL     1      10.778  11.014  -5.173  1.00  0.00     0.000 C 
BRANCH   6   7
ATOM      7  C   UNL     1      10.254   9.570  -5.048  1.00  0.00     0.000 C 
BRANCH   7   8
ATOM      8  C   UNL     1      11.240   8.481  -5.504  1.00  0.00     0.000 C 
BRANCH   8   9
ATOM      9  C   UNL     1      12.029   8.880  -6.761  1.00  0.00     0.000 C 
BRANCH   9  10
ATOM     10  C   UNL     1      11.760   7.942  -7.951  1.00  0.00     0.000 C 
BRANCH  10  11
ATOM     11  C   UNL     1      11.062   8.642  -9.137  1.00  0.00     0.000 C 
BRANCH  11  12
ATOM     12  C   UNL     1       9.795   9.397  -8.705  1.00  0.00     0.006 C 
BRANCH  12  13
ATOM     13  C   UNL     1       9.886  10.880  -9.074  1.00  0.00     0.053 C 
BRANCH  13  14
ATOM     14  C   UNL     1       9.028  11.179 -10.262  1.00  0.00     0.041 C 
ATOM     15  O   UNL     1       9.520  11.747 -11.273  1.00  0.00    -0.550 OA
ATOM     16  O   UNL     1       7.695  10.788 -10.275  1.00  0.00    -0.550 OA
ENDBRANCH  13  14
ENDBRANCH  12  13
ENDBRANCH  11  12
ENDBRANCH  10  11
ENDBRANCH   9  10
ENDBRANCH   8   9
ENDBRANCH   7   8
ENDBRANCH   6   7
ENDBRANCH   5   6
ENDBRANCH   4   5
ENDBRANCH   3   4
ENDBRANCH   2   3
ENDBRANCH   1   2
BRANCH   1  17
ATOM     17  C   UNL     1       5.866  13.538  -8.698  1.00  0.00     0.000 C 
BRANCH  17  18
ATOM     18  C   UNL     1       4.473  12.995  -8.336  1.00  0.00     0.000 C 
BRANCH  18  19
ATOM     19  C   UNL     1       3.498  12.989  -9.528  1.00  0.00     0.000 C 
BRANCH  19  20
ATOM     20  C   UNL     1       2.647  11.714  -9.678  1.00  0.00     0.000 C 
BRANCH  20  21
ATOM     21  C   UNL     1       3.026  10.875 -10.908  1.00  0.00     0.000 C 
BRANCH  21  22
ATOM     22  C   UNL     1       2.659   9.397 -10.705  1.00  0.00    -0.000 C 
BRANCH  22  23
ATOM     23  C   UNL     1       2.253   9.091  -9.248  1.00  0.00    -0.000 C 
BRANCH  23  24
ATOM     24  C   UNL     1       1.506   7.758  -9.081  1.00  0.00    -0.000 C 
BRANCH  24  25
ATOM     25  C   UNL     1       0.291   7.865  -8.149  1.00  0.00    -0.000 C 
BRANCH  25  26
ATOM     26  C   UNL     1      -0.977   7.343  -8.835  1.00  0.00    -0.000 C 
BRANCH  26  27
ATOM     27  C   UNL     1      -0.644   6.711 -10.196  1.00  0.00    -0.000 C 
BRANCH  27  28
ATOM     28  C   UNL     1      -1.772   6.892 -11.224  1.00  0.00    -0.000 C 
BRANCH  28  29
ATOM     29  C   UNL     1      -2.988   7.629 -10.644  1.00  0.00    -0.003 C 
ATOM     30  C   UNL     1      -3.967   8.024 -11.745  1.00  0.00     0.004 C 
ENDBRANCH  28  29
ENDBRANCH  27  28
ENDBRANCH  26  27
ENDBRANCH  25  26
ENDBRANCH  24  25
ENDBRANCH  23  24
ENDBRANCH  22  23
ENDBRANCH  21  22
ENDBRANCH  20  21
ENDBRANCH  19  20
ENDBRANCH  18  19
ENDBRANCH  17  18
ENDBRANCH   1  17
TORSDOF 26
ENDMDL
MODEL 5
REMARK VINA RESULT:    -3.928      2.884     11.158
REMARK INTER + INTRA:         -12.454
REMARK INTER:                 -10.225
REMARK INTRA:                  -2.229
REMARK UNBOUND:                -2.555
REMARK SMILES CCCCCCCCCCCCCCCCCCCCCCCCCCCC(=O)[O-]
REMARK SMILES IDX 15 1 16 2 17 3 18 4 19 5 20 6 21 7 22 8 23 9 24 10 25 11
REMARK SMILES IDX 26 12 27 13 28 14 29 15 30 16 14 17 13 18 12 19 11 20 10 21
REMARK SMILES IDX 9 22 8 23 7 24 6 25 5 26 4 27 3 28 2 29 1 30
REMARK H PARENT
REMARK Flexibility Score: inf
ROOT
ATOM      1  C   UNL     1       2.145  10.841  -9.567  1.00  0.00     0.000 C 
ENDROOT
BRANCH   1   2
ATOM      2  C   UNL     1       2.342  10.536 -11.066  1.00  0.00     0.000 C 
BRANCH   2   3
ATOM      3  C   UNL     1       1.082  10.056 -11.808  1.00  0.00     0.000 C 
BRANCH   3   4
ATOM      4  C   UNL     1      -0.100  11.025 -11.651  1.00  0.00     0.000 C 
BRANCH   4   5
ATOM      5  C   UNL     1      -1.465  10.313 -11.626  1.00  0.00     0.000 C 
BRANCH   5   6
ATOM      6  C   UNL     1      -2.680  11.227 -11.363  1.00  0.00     0.000 C 
BRANCH   6   7
ATOM      7  C   UNL     1      -4.044  10.512 -11.291  1.00  0.00     0.000 C 
BRANCH   7   8
ATOM      8  C   UNL     1      -4.021   9.142 -10.592  1.00  0.00     0.000 C 
BRANCH   8   9
ATOM      9  C   UNL     1      -4.075   7.967 -11.580  1.00  0.00     0.000 C 
BRANCH   9  10
ATOM     10  C   UNL     1      -2.878   7.011 -11.430  1.00  0.00     0.000 C 
BRANCH  10  11
ATOM     11  C   UNL     1      -2.301   6.973  -9.998  1.00  0.00     0.000 C 
BRANCH  11  12
ATOM     12  C   UNL     1      -0.792   7.264  -9.969  1.00  0.00     0.006 C 
BRANCH  12  13
ATOM     13  C   UNL     1      -0.393   7.968  -8.670  1.00  0.00     0.053 C 
BRANCH  13  14
ATOM     14  C   UNL     1       0.919   7.447  -8.173  1.00  0.00     0.041 C 
ATOM     15  O   UNL     1       1.147   7.380  -6.936  1.00  0.00    -0.550 OA
ATOM     16  O   UNL     1       1.873   6.990  -9.073  1.00  0.00    -0.550 OA
ENDBRANCH  13  14
ENDBRANCH  12  13
ENDBRANCH  11  12
ENDBRANCH  10  11
ENDBRANCH   9  10
ENDBRANCH   8   9
ENDBRANCH   7   8
ENDBRANCH   6   7
ENDBRANCH   5   6
ENDBRANCH   4   5
ENDBRANCH   3   4
ENDBRANCH   2   3
ENDBRANCH   1   2
BRANCH   1  17
ATOM     17  C   UNL     1       2.279  12.323  -9.178  1.00  0.00     0.000 C 
BRANCH  17  18
ATOM     18  C   UNL     1       3.566  12.615  -8.387  1.00  0.00     0.000 C 
BRANCH  18  19
ATOM     19  C   UNL     1       4.260  13.920  -8.821  1.00  0.00     0.000 C 
BRANCH  19  20
ATOM     20  C   UNL     1       5.788  13.949  -8.632  1.00  0.00     0.000 C 
BRANCH  20  21
ATOM     21  C   UNL     1       6.261  13.161  -7.401  1.00  0.00     0.000 C 
BRANCH  21  22
ATOM     22  C   UNL     1       6.982  14.076  -6.401  1.00  0.00    -0.000 C 
BRANCH  22  23
ATOM     23  C   UNL     1       7.298  13.356  -5.073  1.00  0.00    -0.000 C 
BRANCH  23  24
ATOM     24  C   UNL     1       7.635  11.866  -5.242  1.00  0.00    -0.000 C 
BRANCH  24  25
ATOM     25  C   UNL     1       9.143  11.601  -5.343  1.00  0.00    -0.000 C 
BRANCH  25  26
ATOM     26  C   UNL     1       9.426  10.112  -5.576  1.00  0.00    -0.000 C 
BRANCH  26  27
ATOM     27  C   UNL     1      10.871   9.760  -5.189  1.00  0.00    -0.000 C 
BRANCH  27  28
ATOM     28  C   UNL     1      11.405   8.535  -5.948  1.00  0.00    -0.000 C 
BRANCH  28  29
ATOM     29  C   UNL     1      11.354   8.715  -7.472  1.00  0.00    -0.003 C 
ATOM     30  C   UNL     1      12.715   8.438  -8.103  1.00  0.00     0.004 C 
ENDBRANCH  28  29
ENDBRANCH  27  28
ENDBRANCH  26  27
ENDBRANCH  25  26
ENDBRANCH  24  25
ENDBRANCH  23  24
ENDBRANCH  22  23
ENDBRANCH  21  22
ENDBRANCH  20  21
ENDBRANCH  19  20
ENDBRANCH  18  19
ENDBRANCH  17  18
ENDBRANCH   1  17
TORSDOF 26
ENDMDL
MODEL 6
REMARK VINA RESULT:    -3.897      1.346      3.405
REMARK INTER + INTRA:         -12.376
REMARK INTER:                 -10.104
REMARK INTRA:                  -2.272
REMARK UNBOUND:                -2.555
REMARK SMILES CCCCCCCCCCCCCCCCCCCCCCCCCCCC(=O)[O-]
REMARK SMILES IDX 15 1 16 2 17 3 18 4 19 5 20 6 21 7 22 8 23 9 24 10 25 11
REMARK SMILES IDX 26 12 27 13 28 14 29 15 30 16 14 17 13 18 12 19 11 20 10 21
REMARK SMILES IDX 9 22 8 23 7 24 6 25 5 26 4 27 3 28 2 29 1 30
REMARK H PARENT
REMARK Flexibility Score: inf
ROOT
ATOM      1  C   UNL     1       2.244  10.821  -9.082  1.00  0.00     0.000 C 
ENDROOT
BRANCH   1   2
ATOM      2  C   UNL     1       2.666  12.244  -8.665  1.00  0.00     0.000 C 
BRANCH   2   3
ATOM      3  C   UNL     1       3.729  12.902  -9.563  1.00  0.00     0.000 C 
BRANCH   3   4
ATOM      4  C   UNL     1       4.683  13.815  -8.777  1.00  0.00     0.000 C 
BRANCH   4   5
ATOM      5  C   UNL     1       6.146  13.340  -8.822  1.00  0.00     0.000 C 
BRANCH   5   6
ATOM      6  C   UNL     1       6.984  13.669  -7.569  1.00  0.00     0.000 C 
BRANCH   6   7
ATOM      7  C   UNL     1       6.397  13.176  -6.231  1.00  0.00     0.000 C 
BRANCH   7   8
ATOM      8  C   UNL     1       7.434  12.923  -5.123  1.00  0.00     0.000 C 
BRANCH   8   9
ATOM      9  C   UNL     1       7.786  11.436  -4.964  1.00  0.00     0.000 C 
BRANCH   9  10
ATOM     10  C   UNL     1       8.846  10.967  -5.976  1.00  0.00     0.000 C 
BRANCH  10  11
ATOM     11  C   UNL     1      10.227  10.700  -5.339  1.00  0.00     0.000 C 
BRANCH  11  12
ATOM     12  C   UNL     1      10.587   9.206  -5.331  1.00  0.00     0.006 C 
BRANCH  12  13
ATOM     13  C   UNL     1      11.898   8.952  -6.079  1.00  0.00     0.053 C 
BRANCH  13  14
ATOM     14  C   UNL     1      11.626   8.531  -7.488  1.00  0.00     0.041 C 
ATOM     15  O   UNL     1      11.078   9.330  -8.294  1.00  0.00    -0.550 OA
ATOM     16  O   UNL     1      12.019   7.274  -7.928  1.00  0.00    -0.550 OA
ENDBRANCH  13  14
ENDBRANCH  12  13
ENDBRANCH  11  12
ENDBRANCH  10  11
ENDBRANCH   9  10
ENDBRANCH   8   9
ENDBRANCH   7   8
ENDBRANCH   6   7
ENDBRANCH   5   6
ENDBRANCH   4   5
ENDBRANCH   3   4
ENDBRANCH   2   3
ENDBRANCH   1   2
BRANCH   1  17
ATOM     17  C   UNL     1       2.675  10.398 -10.498  1.00  0.00     0.000 C 
BRANCH  17  18
ATOM     18  C   UNL     1       1.479  10.106 -11.420  1.00  0.00     0.000 C 
BRANCH  18  19
ATOM     19  C   UNL     1       0.421  11.226 -11.413  1.00  0.00     0.000 C 
BRANCH  19  20
ATOM     20  C   UNL     1      -1.027  10.768 -11.668  1.00  0.00     0.000 C 
BRANCH  20  21
ATOM     21  C   UNL     1      -2.055  11.898 -11.514  1.00  0.00     0.000 C 
BRANCH  21  22
ATOM     22  C   UNL     1      -3.456  11.338 -11.227  1.00  0.00    -0.000 C 
BRANCH  22  23
ATOM     23  C   UNL     1      -3.748  10.054 -12.032  1.00  0.00    -0.000 C 
BRANCH  23  24
ATOM     24  C   UNL     1      -4.010   8.819 -11.155  1.00  0.00    -0.000 C 
BRANCH  24  25
ATOM     25  C   UNL     1      -3.869   7.498 -11.923  1.00  0.00    -0.000 C 
BRANCH  25  26
ATOM     26  C   UNL     1      -2.551   6.797 -11.575  1.00  0.00    -0.000 C 
BRANCH  26  27
ATOM     27  C   UNL     1      -2.169   7.044 -10.107  1.00  0.00    -0.000 C 
BRANCH  27  28
ATOM     28  C   UNL     1      -0.727   7.552  -9.948  1.00  0.00    -0.000 C 
BRANCH  28  29
ATOM     29  C   UNL     1       0.035   6.827  -8.829  1.00  0.00    -0.003 C 
ATOM     30  C   UNL     1       0.787   7.818  -7.947  1.00  0.00     0.004 C 
ENDBRANCH  28  29
ENDBRANCH  27  28
ENDBRANCH  26  27
ENDBRANCH  25  26
ENDBRANCH  24  25
ENDBRANCH  23  24
ENDBRANCH  22  23
ENDBRANCH  21  22
ENDBRANCH  20  21
ENDBRANCH  19  20
ENDBRANCH  18  19
ENDBRANCH  17  18
ENDBRANCH   1  17
TORSDOF 26
ENDMDL
MODEL 7
REMARK VINA RESULT:    -3.874      1.768      3.067
REMARK INTER + INTRA:         -12.318
REMARK INTER:                  -8.795
REMARK INTRA:                  -3.522
REMARK UNBOUND:                -2.555
REMARK SMILES CCCCCCCCCCCCCCCCCCCCCCCCCCCC(=O)[O-]
REMARK SMILES IDX 15 1 16 2 17 3 18 4 19 5 20 6 21 7 22 8 23 9 24 10 25 11
REMARK SMILES IDX 26 12 27 13 28 14 29 15 30 16 14 17 13 18 12 19 11 20 10 21
REMARK SMILES IDX 9 22 8 23 7 24 6 25 5 26 4 27 3 28 2 29 1 30
REMARK H PARENT
REMARK Flexibility Score: inf
ROOT
ATOM      1  C   UNL     1       3.541  12.255  -9.940  1.00  0.00     0.000 C 
ENDROOT
BRANCH   1   2
ATOM      2  C   UNL     1       4.773  12.995 -10.499  1.00  0.00     0.000 C 
BRANCH   2   3
ATOM      3  C   UNL     1       5.427  12.344 -11.731  1.00  0.00     0.000 C 
BRANCH   3   4
ATOM      4  C   UNL     1       5.236  10.819 -11.763  1.00  0.00     0.000 C 
BRANCH   4   5
ATOM      5  C   UNL     1       6.567  10.045 -11.768  1.00  0.00     0.000 C 
BRANCH   5   6
ATOM      6  C   UNL     1       7.834  10.913 -11.616  1.00  0.00     0.000 C 
BRANCH   6   7
ATOM      7  C   UNL     1       8.795  10.491 -10.486  1.00  0.00     0.000 C 
BRANCH   7   8
ATOM      8  C   UNL     1       9.281  11.640  -9.586  1.00  0.00     0.000 C 
BRANCH   8   9
ATOM      9  C   UNL     1       8.157  12.249  -8.735  1.00  0.00     0.000 C 
BRANCH   9  10
ATOM     10  C   UNL     1       8.642  12.692  -7.343  1.00  0.00     0.000 C 
BRANCH  10  11
ATOM     11  C   UNL     1       8.528  11.585  -6.274  1.00  0.00     0.000 C 
BRANCH  11  12
ATOM     12  C   UNL     1       9.899  11.022  -5.868  1.00  0.00     0.006 C 
BRANCH  12  13
ATOM     13  C   UNL     1       9.896   9.491  -5.899  1.00  0.00     0.053 C 
BRANCH  13  14
ATOM     14  C   UNL     1      11.165   8.953  -5.317  1.00  0.00     0.041 C 
ATOM     15  O   UNL     1      12.261   9.533  -5.539  1.00  0.00    -0.550 OA
ATOM     16  O   UNL     1      11.134   7.837  -4.490  1.00  0.00    -0.550 OA
ENDBRANCH  13  14
ENDBRANCH  12  13
ENDBRANCH  11  12
ENDBRANCH  10  11
ENDBRANCH   9  10
ENDBRANCH   8   9
ENDBRANCH   7   8
ENDBRANCH   6   7
ENDBRANCH   5   6
ENDBRANCH   4   5
ENDBRANCH   3   4
ENDBRANCH   2   3
ENDBRANCH   1   2
BRANCH   1  17
ATOM     17  C   UNL     1       2.189  12.703 -10.522  1.00  0.00     0.000 C 
BRANCH  17  18
ATOM     18  C   UNL     1       1.716  11.808 -11.680  1.00  0.00     0.000 C 
BRANCH  18  19
ATOM     19  C   UNL     1       1.005  10.527 -11.204  1.00  0.00     0.000 C 
BRANCH  19  20
ATOM     20  C   UNL     1       1.855   9.243 -11.257  1.00  0.00     0.000 C 
BRANCH  20  21
ATOM     21  C   UNL     1       2.321   8.768  -9.873  1.00  0.00     0.000 C 
BRANCH  21  22
ATOM     22  C   UNL     1       1.494   9.421  -8.755  1.00  0.00    -0.000 C 
BRANCH  22  23
ATOM     23  C   UNL     1       0.775   8.378  -7.874  1.00  0.00    -0.000 C 
BRANCH  23  24
ATOM     24  C   UNL     1      -0.553   7.878  -8.466  1.00  0.00    -0.000 C 
BRANCH  24  25
ATOM     25  C   UNL     1      -0.416   6.535  -9.196  1.00  0.00    -0.000 C 
BRANCH  25  26
ATOM     26  C   UNL     1      -0.886   6.648 -10.651  1.00  0.00    -0.000 C 
BRANCH  26  27
ATOM     27  C   UNL     1      -1.757   7.898 -10.851  1.00  0.00    -0.000 C 
BRANCH  27  28
ATOM     28  C   UNL     1      -3.147   7.566 -11.415  1.00  0.00    -0.000 C 
BRANCH  28  29
ATOM     29  C   UNL     1      -4.217   8.582 -10.988  1.00  0.00    -0.003 C 
ATOM     30  C   UNL     1      -3.650   9.587  -9.990  1.00  0.00     0.004 C 
ENDBRANCH  28  29
ENDBRANCH  27  28
ENDBRANCH  26  27
ENDBRANCH  25  26
ENDBRANCH  24  25
ENDBRANCH  23  24
ENDBRANCH  22  23
ENDBRANCH  21  22
ENDBRANCH  20  21
ENDBRANCH  19  20
ENDBRANCH  18  19
ENDBRANCH  17  18
ENDBRANCH   1  17
TORSDOF 26
ENDMDL
MODEL 8
REMARK VINA RESULT:    -3.821      4.100     10.925
REMARK INTER + INTRA:         -12.183
REMARK INTER:                  -8.436
REMARK INTRA:                  -3.747
REMARK UNBOUND:                -2.555
REMARK SMILES CCCCCCCCCCCCCCCCCCCCCCCCCCCC(=O)[O-]
REMARK SMILES IDX 15 1 16 2 17 3 18 4 19 5 20 6 21 7 22 8 23 9 24 10 25 11
REMARK SMILES IDX 26 12 27 13 28 14 29 15 30 16 14 17 13 18 12 19 11 20 10 21
REMARK SMILES IDX 9 22 8 23 7 24 6 25 5 26 4 27 3 28 2 29 1 30
REMARK H PARENT
REMARK Flexibility Score: inf
ROOT
ATOM      1  C   UNL     1       9.020  10.533  -6.166  1.00  0.00     0.000 C 
ENDROOT
BRANCH   1   2
ATOM      2  C   UNL     1       8.311  11.664  -5.395  1.00  0.00     0.000 C 
BRANCH   2   3
ATOM      3  C   UNL     1       8.075  12.956  -6.197  1.00  0.00     0.000 C 
BRANCH   3   4
ATOM      4  C   UNL     1       6.584  13.232  -6.446  1.00  0.00     0.000 C 
BRANCH   4   5
ATOM      5  C   UNL     1       6.250  13.449  -7.933  1.00  0.00     0.000 C 
BRANCH   5   6
ATOM      6  C   UNL     1       4.797  13.120  -8.337  1.00  0.00     0.000 C 
BRANCH   6   7
ATOM      7  C   UNL     1       4.541  13.001  -9.852  1.00  0.00     0.000 C 
BRANCH   7   8
ATOM      8  C   UNL     1       3.323  12.144 -10.238  1.00  0.00     0.000 C 
BRANCH   8   9
ATOM      9  C   UNL     1       2.639  11.497  -9.024  1.00  0.00     0.000 C 
BRANCH   9  10
ATOM     10  C   UNL     1       1.748  10.304  -9.412  1.00  0.00     0.000 C 
BRANCH  10  11
ATOM     11  C   UNL     1       2.548   9.043  -9.802  1.00  0.00     0.000 C 
BRANCH  11  12
ATOM     12  C   UNL     1       1.902   7.754  -9.270  1.00  0.00     0.006 C 
BRANCH  12  13
ATOM     13  C   UNL     1       0.759   8.071  -8.302  1.00  0.00     0.053 C 
BRANCH  13  14
ATOM     14  C   UNL     1      -0.518   7.454  -8.778  1.00  0.00     0.041 C 
ATOM     15  O   UNL     1      -1.478   8.184  -9.141  1.00  0.00    -0.550 OA
ATOM     16  O   UNL     1      -0.633   6.073  -8.868  1.00  0.00    -0.550 OA
ENDBRANCH  13  14
ENDBRANCH  12  13
ENDBRANCH  11  12
ENDBRANCH  10  11
ENDBRANCH   9  10
ENDBRANCH   8   9
ENDBRANCH   7   8
ENDBRANCH   6   7
ENDBRANCH   5   6
ENDBRANCH   4   5
ENDBRANCH   3   4
ENDBRANCH   2   3
ENDBRANCH   1   2
BRANCH   1  17
ATOM     17  C   UNL     1       9.893   9.602  -5.306  1.00  0.00     0.000 C 
BRANCH  17  18
ATOM     18  C   UNL     1      11.398   9.839  -5.516  1.00  0.00     0.000 C 
BRANCH  18  19
ATOM     19  C   UNL     1      11.849   9.619  -6.972  1.00  0.00     0.000 C 
BRANCH  19  20
ATOM     20  C   UNL     1      12.637  10.782  -7.602  1.00  0.00     0.000 C 
BRANCH  20  21
ATOM     21  C   UNL     1      12.446  12.114  -6.861  1.00  0.00     0.000 C 
BRANCH  21  22
ATOM     22  C   UNL     1      11.415  13.002  -7.573  1.00  0.00    -0.000 C 
BRANCH  22  23
ATOM     23  C   UNL     1      11.183  12.569  -9.036  1.00  0.00    -0.000 C 
BRANCH  23  24
ATOM     24  C   UNL     1       9.744  12.795  -9.528  1.00  0.00    -0.000 C 
BRANCH  24  25
ATOM     25  C   UNL     1       8.931  11.496  -9.619  1.00  0.00    -0.000 C 
BRANCH  25  26
ATOM     26  C   UNL     1       9.817  10.321 -10.048  1.00  0.00    -0.000 C 
BRANCH  26  27
ATOM     27  C   UNL     1       9.831  10.173 -11.577  1.00  0.00    -0.000 C 
BRANCH  27  28
ATOM     28  C   UNL     1      11.221   9.814 -12.125  1.00  0.00    -0.000 C 
BRANCH  28  29
ATOM     29  C   UNL     1      12.240   9.532 -11.011  1.00  0.00    -0.003 C 
ATOM     30  C   UNL     1      12.363   8.034 -10.746  1.00  0.00     0.004 C 
ENDBRANCH  28  29
ENDBRANCH  27  28
ENDBRANCH  26  27
ENDBRANCH  25  26
ENDBRANCH  24  25
ENDBRANCH  23  24
ENDBRANCH  22  23
ENDBRANCH  21  22
ENDBRANCH  20  21
ENDBRANCH  19  20
ENDBRANCH  18  19
ENDBRANCH  17  18
ENDBRANCH   1  17
TORSDOF 26
ENDMDL
MODEL 9
REMARK VINA RESULT:    -3.786      2.993      6.371
REMARK INTER + INTRA:         -12.095
REMARK INTER:                  -9.181
REMARK INTRA:                  -2.914
REMARK UNBOUND:                -2.555
REMARK SMILES CCCCCCCCCCCCCCCCCCCCCCCCCCCC(=O)[O-]
REMARK SMILES IDX 15 1 16 2 17 3 18 4 19 5 20 6 21 7 22 8 23 9 24 10 25 11
REMARK SMILES IDX 26 12 27 13 28 14 29 15 30 16 14 17 13 18 12 19 11 20 10 21
REMARK SMILES IDX 9 22 8 23 7 24 6 25 5 26 4 27 3 28 2 29 1 30
REMARK H PARENT
REMARK Flexibility Score: inf
ROOT
ATOM      1  C   UNL     1       7.213  12.475  -5.107  1.00  0.00     0.000 C 
ENDROOT
BRANCH   1   2
ATOM      2  C   UNL     1       7.942  13.511  -4.228  1.00  0.00     0.000 C 
BRANCH   2   3
ATOM      3  C   UNL     1       9.475  13.377  -4.192  1.00  0.00     0.000 C 
BRANCH   3   4
ATOM      4  C   UNL     1      10.112  13.511  -5.584  1.00  0.00     0.000 C 
BRANCH   4   5
ATOM      5  C   UNL     1      10.708  12.190  -6.104  1.00  0.00     0.000 C 
BRANCH   5   6
ATOM      6  C   UNL     1      10.872  11.080  -5.044  1.00  0.00     0.000 C 
BRANCH   6   7
ATOM      7  C   UNL     1      10.185   9.740  -5.376  1.00  0.00     0.000 C 
BRANCH   7   8
ATOM      8  C   UNL     1      11.145   8.564  -5.627  1.00  0.00     0.000 C 
BRANCH   8   9
ATOM      9  C   UNL     1      12.026   8.768  -6.869  1.00  0.00     0.000 C 
BRANCH   9  10
ATOM     10  C   UNL     1      11.660   7.812  -8.018  1.00  0.00     0.000 C 
BRANCH  10  11
ATOM     11  C   UNL     1      11.576   8.510  -9.392  1.00  0.00     0.000 C 
BRANCH  11  12
ATOM     12  C   UNL     1      10.944   9.908  -9.299  1.00  0.00     0.006 C 
BRANCH  12  13
ATOM     13  C   UNL     1       9.429   9.816  -9.108  1.00  0.00     0.053 C 
BRANCH  13  14
ATOM     14  C   UNL     1       8.728  10.798  -9.993  1.00  0.00     0.041 C 
ATOM     15  O   UNL     1       7.663  10.473 -10.583  1.00  0.00    -0.550 OA
ATOM     16  O   UNL     1       9.222  12.088 -10.130  1.00  0.00    -0.550 OA
ENDBRANCH  13  14
ENDBRANCH  12  13
ENDBRANCH  11  12
ENDBRANCH  10  11
ENDBRANCH   9  10
ENDBRANCH   8   9
ENDBRANCH   7   8
ENDBRANCH   6   7
ENDBRANCH   5   6
ENDBRANCH   4   5
ENDBRANCH   3   4
ENDBRANCH   2   3
ENDBRANCH   1   2
BRANCH   1  17
ATOM     17  C   UNL     1       6.312  13.065  -6.206  1.00  0.00     0.000 C 
BRANCH  17  18
ATOM     18  C   UNL     1       6.962  13.009  -7.599  1.00  0.00     0.000 C 
BRANCH  18  19
ATOM     19  C   UNL     1       5.991  13.381  -8.735  1.00  0.00     0.000 C 
BRANCH  19  20
ATOM     20  C   UNL     1       4.518  12.998  -8.496  1.00  0.00     0.000 C 
BRANCH  20  21
ATOM     21  C   UNL     1       3.663  13.056  -9.771  1.00  0.00     0.000 C 
BRANCH  21  22
ATOM     22  C   UNL     1       3.258  11.648 -10.231  1.00  0.00    -0.000 C 
BRANCH  22  23
ATOM     23  C   UNL     1       4.141  11.135 -11.389  1.00  0.00    -0.000 C 
BRANCH  23  24
ATOM     24  C   UNL     1       3.943   9.643 -11.703  1.00  0.00    -0.000 C 
BRANCH  24  25
ATOM     25  C   UNL     1       2.464   9.235 -11.760  1.00  0.00    -0.000 C 
BRANCH  25  26
ATOM     26  C   UNL     1       2.287   7.758 -11.389  1.00  0.00    -0.000 C 
BRANCH  26  27
ATOM     27  C   UNL     1       0.802   7.364 -11.396  1.00  0.00    -0.000 C 
BRANCH  27  28
ATOM     28  C   UNL     1       0.181   7.371  -9.990  1.00  0.00    -0.000 C 
BRANCH  28  29
ATOM     29  C   UNL     1       1.240   7.367  -8.877  1.00  0.00    -0.003 C 
ATOM     30  C   UNL     1       0.818   8.263  -7.716  1.00  0.00     0.004 C 
ENDBRANCH  28  29
ENDBRANCH  27  28
ENDBRANCH  26  27
ENDBRANCH  25  26
ENDBRANCH  24  25
ENDBRANCH  23  24
ENDBRANCH  22  23
ENDBRANCH  21  22
ENDBRANCH  20  21
ENDBRANCH  19  20
ENDBRANCH  18  19
ENDBRANCH  17  18
ENDBRANCH   1  17
TORSDOF 26
ENDMDL
