MODEL 1
REMARK VINA RESULT:    16.675      0.000      0.000
REMARK INTER + INTRA:          37.207
REMARK INTER:                  38.121
REMARK INTRA:                  -0.914
REMARK UNBOUND:                -0.914
REMARK SMILES CCCCCCCCCCCCCCCCCCCCCCCC(=O)[O-]
REMARK SMILES IDX 13 1 14 2 15 3 16 4 17 5 18 6 19 7 20 8 21 9 22 10 23 11
REMARK SMILES IDX 24 12 25 13 26 14 12 15 11 16 10 17 9 18 8 19 7 20 6 21 5 22
REMARK SMILES IDX 4 23 3 24 2 25 1 26
REMARK H PARENT
REMARK Flexibility Score: inf
ROOT
ATOM      1  C   UNL     1      98.494  98.932  10.843  1.00  0.00     0.000 C 
ENDROOT
BRANCH   1   2
ATOM      2  C   UNL     1      97.671  98.352  12.006  1.00  0.00     0.000 C 
BRANCH   2   3
ATOM      3  C   UNL     1      97.406  99.387  13.113  1.00  0.00     0.000 C 
BRANCH   3   4
ATOM      4  C   UNL     1      95.983  99.969  13.053  1.00  0.00     0.000 C 
BRANCH   4   5
ATOM      5  C   UNL     1      95.852 101.124  12.041  1.00  0.00     0.000 C 
BRANCH   5   6
ATOM      6  C   UNL     1      94.688 100.990  11.041  1.00  0.00     0.000 C 
BRANCH   6   7
ATOM      7  C   UNL     1      95.084 100.232   9.763  1.00  0.00     0.000 C 
BRANCH   7   8
ATOM      8  C   UNL     1      93.898 100.015   8.809  1.00  0.00     0.000 C 
BRANCH   8   9
ATOM      9  C   UNL     1      93.943  98.655   8.095  1.00  0.00     0.000 C 
BRANCH   9  10
ATOM     10  C   UNL     1      93.695  98.817   6.590  1.00  0.00     0.006 C 
BRANCH  10  11
ATOM     11  C   UNL     1      93.209 100.233   6.260  1.00  0.00     0.053 C 
BRANCH  11  12
ATOM     12  C   UNL     1      91.713 100.295   6.233  1.00  0.00     0.041 C 
ATOM     13  O   UNL     1      91.044  99.833   7.196  1.00  0.00    -0.550 OA
ATOM     14  O   UNL     1      91.054 100.895   5.165  1.00  0.00    -0.550 OA
ENDBRANCH  11  12
ENDBRANCH  10  11
ENDBRANCH   9  10
ENDBRANCH   8   9
ENDBRANCH   7   8
ENDBRANCH   6   7
ENDBRANCH   5   6
ENDBRANCH   4   5
ENDBRANCH   3   4
ENDBRANCH   2   3
ENDBRANCH   1   2
BRANCH   1  15
ATOM     15  C   UNL     1      99.665  99.812  11.320  1.00  0.00     0.000 C 
BRANCH  15  16
ATOM     16  C   UNL     1     100.307 100.692  10.231  1.00  0.00     0.000 C 
BRANCH  16  17
ATOM     17  C   UNL     1     101.756 100.291   9.910  1.00  0.00     0.000 C 
BRANCH  17  18
ATOM     18  C   UNL     1     102.159  99.021  10.671  1.00  0.00    -0.000 C 
BRANCH  18  19
ATOM     19  C   UNL     1     101.490  97.780  10.063  1.00  0.00    -0.000 C 
BRANCH  19  20
ATOM     20  C   UNL     1     101.895  96.474  10.772  1.00  0.00    -0.000 C 
BRANCH  20  21
ATOM     21  C   UNL     1     101.421  95.179  10.082  1.00  0.00    -0.000 C 
BRANCH  21  22
ATOM     22  C   UNL     1     100.266  94.449  10.789  1.00  0.00    -0.000 C 
BRANCH  22  23
ATOM     23  C   UNL     1      99.013  95.324  10.941  1.00  0.00    -0.000 C 
BRANCH  23  24
ATOM     24  C   UNL     1      98.465  95.253  12.372  1.00  0.00    -0.000 C 
BRANCH  24  25
ATOM     25  C   UNL     1      98.577  93.831  12.934  1.00  0.00    -0.003 C 
ATOM     26  C   UNL     1      98.491  93.832  14.458  1.00  0.00     0.004 C 
ENDBRANCH  24  25
ENDBRANCH  23  24
ENDBRANCH  22  23
ENDBRANCH  21  22
ENDBRANCH  20  21
ENDBRANCH  19  20
ENDBRANCH  18  19
ENDBRANCH  17  18
ENDBRANCH  16  17
ENDBRANCH  15  16
ENDBRANCH   1  15
TORSDOF 22
ENDMDL
MODEL 2
REMARK VINA RESULT:    16.825      4.262      8.809
REMARK INTER + INTRA:          37.551
REMARK INTER:                  38.590
REMARK INTRA:                  -1.039
REMARK UNBOUND:                -0.914
REMARK SMILES CCCCCCCCCCCCCCCCCCCCCCCC(=O)[O-]
REMARK SMILES IDX 13 1 14 2 15 3 16 4 17 5 18 6 19 7 20 8 21 9 22 10 23 11
REMARK SMILES IDX 24 12 25 13 26 14 12 15 11 16 10 17 9 18 8 19 7 20 6 21 5 22
REMARK SMILES IDX 4 23 3 24 2 25 1 26
REMARK H PARENT
REMARK Flexibility Score: inf
ROOT
ATOM      1  C   UNL     1     101.705  97.649  10.979  1.00  0.00     0.000 C 
ENDROOT
BRANCH   1   2
ATOM      2  C   UNL     1     102.039  96.239  10.462  1.00  0.00     0.000 C 
BRANCH   2   3
ATOM      3  C   UNL     1     100.787  95.468  10.010  1.00  0.00     0.000 C 
BRANCH   3   4
ATOM      4  C   UNL     1     100.547  94.191  10.836  1.00  0.00     0.000 C 
BRANCH   4   5
ATOM      5  C   UNL     1      99.065  93.989  11.207  1.00  0.00     0.000 C 
BRANCH   5   6
ATOM      6  C   UNL     1      98.342  95.246  11.724  1.00  0.00     0.000 C 
BRANCH   6   7
ATOM      7  C   UNL     1      98.426  95.395  13.253  1.00  0.00     0.000 C 
BRANCH   7   8
ATOM      8  C   UNL     1      98.397  94.043  13.984  1.00  0.00     0.000 C 
BRANCH   8   9
ATOM      9  C   UNL     1      99.061  94.094  15.369  1.00  0.00     0.000 C 
BRANCH   9  10
ATOM     10  C   UNL     1      99.400  95.537  15.762  1.00  0.00     0.006 C 
BRANCH  10  11
ATOM     11  C   UNL     1      99.414  95.705  17.286  1.00  0.00     0.053 C 
BRANCH  11  12
ATOM     12  C   UNL     1      99.787  97.104  17.669  1.00  0.00     0.041 C 
ATOM     13  O   UNL     1      98.893  97.928  17.999  1.00  0.00    -0.550 OA
ATOM     14  O   UNL     1     101.122  97.491  17.700  1.00  0.00    -0.550 OA
ENDBRANCH  11  12
ENDBRANCH  10  11
ENDBRANCH   9  10
ENDBRANCH   8   9
ENDBRANCH   7   8
ENDBRANCH   6   7
ENDBRANCH   5   6
ENDBRANCH   4   5
ENDBRANCH   3   4
ENDBRANCH   2   3
ENDBRANCH   1   2
BRANCH   1  15
ATOM     15  C   UNL     1     101.998  98.751   9.943  1.00  0.00     0.000 C 
BRANCH  15  16
ATOM     16  C   UNL     1     101.608 100.176  10.377  1.00  0.00     0.000 C 
BRANCH  16  17
ATOM     17  C   UNL     1     100.086 100.398  10.416  1.00  0.00     0.000 C 
BRANCH  17  18
ATOM     18  C   UNL     1      99.356  99.130  10.875  1.00  0.00    -0.000 C 
BRANCH  18  19
ATOM     19  C   UNL     1      97.872  99.176  10.482  1.00  0.00    -0.000 C 
BRANCH  19  20
ATOM     20  C   UNL     1      97.642  99.782   9.085  1.00  0.00    -0.000 C 
BRANCH  20  21
ATOM     21  C   UNL     1      96.593  99.055   8.220  1.00  0.00    -0.000 C 
BRANCH  21  22
ATOM     22  C   UNL     1      95.159  99.600   8.337  1.00  0.00    -0.000 C 
BRANCH  22  23
ATOM     23  C   UNL     1      94.128  98.720   7.614  1.00  0.00    -0.000 C 
BRANCH  23  24
ATOM     24  C   UNL     1      92.768  99.425   7.533  1.00  0.00    -0.000 C 
BRANCH  24  25
ATOM     25  C   UNL     1      92.407  99.758   6.079  1.00  0.00    -0.003 C 
ATOM     26  C   UNL     1      91.734 101.124   5.978  1.00  0.00     0.004 C 
ENDBRANCH  24  25
ENDBRANCH  23  24
ENDBRANCH  22  23
ENDBRANCH  21  22
ENDBRANCH  20  21
ENDBRANCH  19  20
ENDBRANCH  18  19
ENDBRANCH  17  18
ENDBRANCH  16  17
ENDBRANCH  15  16
ENDBRANCH   1  15
TORSDOF 22
ENDMDL
MODEL 3
REMARK VINA RESULT:    16.844      3.119      8.114
REMARK INTER + INTRA:          37.594
REMARK INTER:                  36.384
REMARK INTRA:                   1.210
REMARK UNBOUND:                -0.914
REMARK SMILES CCCCCCCCCCCCCCCCCCCCCCCC(=O)[O-]
REMARK SMILES IDX 13 1 14 2 15 3 16 4 17 5 18 6 19 7 20 8 21 9 22 10 23 11
REMARK SMILES IDX 24 12 25 13 26 14 12 15 11 16 10 17 9 18 8 19 7 20 6 21 5 22
REMARK SMILES IDX 4 23 3 24 2 25 1 26
REMARK H PARENT
REMARK Flexibility Score: inf
ROOT
ATOM      1  C   UNL     1      98.282  98.856  11.040  1.00  0.00     0.000 C 
ENDROOT
BRANCH   1   2
ATOM      2  C   UNL     1      99.789  99.156  11.120  1.00  0.00     0.000 C 
BRANCH   2   3
ATOM      3  C   UNL     1     100.106 100.642  10.880  1.00  0.00     0.000 C 
BRANCH   3   4
ATOM      4  C   UNL     1     101.397 100.848  10.068  1.00  0.00     0.000 C 
BRANCH   4   5
ATOM      5  C   UNL     1     101.858  99.569   9.341  1.00  0.00     0.000 C 
BRANCH   5   6
ATOM      6  C   UNL     1     102.296  98.415  10.262  1.00  0.00     0.000 C 
BRANCH   6   7
ATOM      7  C   UNL     1     101.247  97.292  10.351  1.00  0.00     0.000 C 
BRANCH   7   8
ATOM      8  C   UNL     1     101.880  95.896  10.463  1.00  0.00     0.000 C 
BRANCH   8   9
ATOM      9  C   UNL     1     100.848  94.760  10.382  1.00  0.00     0.000 C 
BRANCH   9  10
ATOM     10  C   UNL     1      99.443  95.270  10.723  1.00  0.00     0.006 C 
BRANCH  10  11
ATOM     11  C   UNL     1      98.639  94.208  11.482  1.00  0.00     0.053 C 
BRANCH  11  12
ATOM     12  C   UNL     1      98.415  94.618  12.905  1.00  0.00     0.041 C 
ATOM     13  O   UNL     1      98.591  93.788  13.836  1.00  0.00    -0.550 OA
ATOM     14  O   UNL     1      98.048  95.924  13.210  1.00  0.00    -0.550 OA
ENDBRANCH  11  12
ENDBRANCH  10  11
ENDBRANCH   9  10
ENDBRANCH   8   9
ENDBRANCH   7   8
ENDBRANCH   6   7
ENDBRANCH   5   6
ENDBRANCH   4   5
ENDBRANCH   3   4
ENDBRANCH   2   3
ENDBRANCH   1   2
BRANCH   1  15
ATOM     15  C   UNL     1      97.672  98.490  12.406  1.00  0.00     0.000 C 
BRANCH  15  16
ATOM     16  C   UNL     1      96.848  99.607  13.074  1.00  0.00     0.000 C 
BRANCH  16  17
ATOM     17  C   UNL     1      96.567 100.792  12.135  1.00  0.00     0.000 C 
BRANCH  17  18
ATOM     18  C   UNL     1      95.070 101.125  12.101  1.00  0.00    -0.000 C 
BRANCH  18  19
ATOM     19  C   UNL     1      94.488 100.900  10.698  1.00  0.00    -0.000 C 
BRANCH  19  20
ATOM     20  C   UNL     1      95.480 100.211   9.742  1.00  0.00    -0.000 C 
BRANCH  20  21
ATOM     21  C   UNL     1      94.943  99.948   8.320  1.00  0.00    -0.000 C 
BRANCH  21  22
ATOM     22  C   UNL     1      93.761  98.966   8.241  1.00  0.00    -0.000 C 
BRANCH  22  23
ATOM     23  C   UNL     1      93.618  98.318   6.855  1.00  0.00    -0.000 C 
BRANCH  23  24
ATOM     24  C   UNL     1      93.286  99.370   5.790  1.00  0.00    -0.000 C 
BRANCH  24  25
ATOM     25  C   UNL     1      92.399 100.479   6.370  1.00  0.00    -0.003 C 
ATOM     26  C   UNL     1      91.009  99.949   6.712  1.00  0.00     0.004 C 
ENDBRANCH  24  25
ENDBRANCH  23  24
ENDBRANCH  22  23
ENDBRANCH  21  22
ENDBRANCH  20  21
ENDBRANCH  19  20
ENDBRANCH  18  19
ENDBRANCH  17  18
ENDBRANCH  16  17
ENDBRANCH  15  16
ENDBRANCH   1  15
TORSDOF 22
ENDMDL
MODEL 4
REMARK VINA RESULT:    16.983      3.231      8.360
REMARK INTER + INTRA:          37.913
REMARK INTER:                  37.764
REMARK INTRA:                   0.148
REMARK UNBOUND:                -0.914
REMARK SMILES CCCCCCCCCCCCCCCCCCCCCCCC(=O)[O-]
REMARK SMILES IDX 13 1 14 2 15 3 16 4 17 5 18 6 19 7 20 8 21 9 22 10 23 11
REMARK SMILES IDX 24 12 25 13 26 14 12 15 11 16 10 17 9 18 8 19 7 20 6 21 5 22
REMARK SMILES IDX 4 23 3 24 2 25 1 26
REMARK H PARENT
REMARK Flexibility Score: inf
ROOT
ATOM      1  C   UNL     1      99.077  99.801  10.557  1.00  0.00     0.000 C 
ENDROOT
BRANCH   1   2
ATOM      2  C   UNL     1     100.312 100.382  11.266  1.00  0.00     0.000 C 
BRANCH   2   3
ATOM      3  C   UNL     1     101.470 100.662  10.293  1.00  0.00     0.000 C 
BRANCH   3   4
ATOM      4  C   UNL     1     102.174  99.377   9.823  1.00  0.00     0.000 C 
BRANCH   4   5
ATOM      5  C   UNL     1     101.857  98.161  10.716  1.00  0.00     0.000 C 
BRANCH   5   6
ATOM      6  C   UNL     1     102.168  96.789  10.089  1.00  0.00     0.000 C 
BRANCH   6   7
ATOM      7  C   UNL     1     101.091  95.735  10.397  1.00  0.00     0.000 C 
BRANCH   7   8
ATOM      8  C   UNL     1      99.686  96.342  10.533  1.00  0.00     0.000 C 
BRANCH   8   9
ATOM      9  C   UNL     1      98.635  95.326  11.007  1.00  0.00     0.000 C 
BRANCH   9  10
ATOM     10  C   UNL     1      99.226  93.912  11.065  1.00  0.00     0.006 C 
BRANCH  10  11
ATOM     11  C   UNL     1      98.863  93.216  12.382  1.00  0.00     0.053 C 
BRANCH  11  12
ATOM     12  C   UNL     1      98.521  94.217  13.443  1.00  0.00     0.041 C 
ATOM     13  O   UNL     1      98.097  95.359  13.120  1.00  0.00    -0.550 OA
ATOM     14  O   UNL     1      98.633  93.881  14.788  1.00  0.00    -0.550 OA
ENDBRANCH  11  12
ENDBRANCH  10  11
ENDBRANCH   9  10
ENDBRANCH   8   9
ENDBRANCH   7   8
ENDBRANCH   6   7
ENDBRANCH   5   6
ENDBRANCH   4   5
ENDBRANCH   3   4
ENDBRANCH   2   3
ENDBRANCH   1   2
BRANCH   1  15
ATOM     15  C   UNL     1      98.195  98.951  11.492  1.00  0.00     0.000 C 
BRANCH  15  16
ATOM     16  C   UNL     1      97.892  99.587  12.861  1.00  0.00     0.000 C 
BRANCH  16  17
ATOM     17  C   UNL     1      96.406  99.937  13.046  1.00  0.00     0.000 C 
BRANCH  17  18
ATOM     18  C   UNL     1      95.989 101.085  12.119  1.00  0.00    -0.000 C 
BRANCH  18  19
ATOM     19  C   UNL     1      94.729 100.720  11.322  1.00  0.00    -0.000 C 
BRANCH  19  20
ATOM     20  C   UNL     1      95.018 100.455   9.832  1.00  0.00    -0.000 C 
BRANCH  20  21
ATOM     21  C   UNL     1      94.041  99.485   9.138  1.00  0.00    -0.000 C 
BRANCH  21  22
ATOM     22  C   UNL     1      94.545  98.892   7.810  1.00  0.00    -0.000 C 
BRANCH  22  23
ATOM     23  C   UNL     1      93.730  99.368   6.598  1.00  0.00    -0.000 C 
BRANCH  23  24
ATOM     24  C   UNL     1      92.375  99.938   7.039  1.00  0.00    -0.000 C 
BRANCH  24  25
ATOM     25  C   UNL     1      91.582 100.462   5.835  1.00  0.00    -0.003 C 
ATOM     26  C   UNL     1      90.443  99.513   5.471  1.00  0.00     0.004 C 
ENDBRANCH  24  25
ENDBRANCH  23  24
ENDBRANCH  22  23
ENDBRANCH  21  22
ENDBRANCH  20  21
ENDBRANCH  19  20
ENDBRANCH  18  19
ENDBRANCH  17  18
ENDBRANCH  16  17
ENDBRANCH  15  16
ENDBRANCH   1  15
TORSDOF 22
ENDMDL
MODEL 5
REMARK VINA RESULT:    17.467      1.921      4.200
REMARK INTER + INTRA:          39.018
REMARK INTER:                  39.922
REMARK INTRA:                  -0.904
REMARK UNBOUND:                -0.914
REMARK SMILES CCCCCCCCCCCCCCCCCCCCCCCC(=O)[O-]
REMARK SMILES IDX 13 1 14 2 15 3 16 4 17 5 18 6 19 7 20 8 21 9 22 10 23 11
REMARK SMILES IDX 24 12 25 13 26 14 12 15 11 16 10 17 9 18 8 19 7 20 6 21 5 22
REMARK SMILES IDX 4 23 3 24 2 25 1 26
REMARK H PARENT
REMARK Flexibility Score: inf
ROOT
ATOM      1  C   UNL     1     101.843  97.930  10.864  1.00  0.00     0.000 C 
ENDROOT
BRANCH   1   2
ATOM      2  C   UNL     1     102.069  98.916   9.705  1.00  0.00     0.000 C 
BRANCH   2   3
ATOM      3  C   UNL     1     101.436 100.293   9.972  1.00  0.00     0.000 C 
BRANCH   3   4
ATOM      4  C   UNL     1     100.214 100.212  10.903  1.00  0.00     0.000 C 
BRANCH   4   5
ATOM      5  C   UNL     1      99.369  98.943  10.674  1.00  0.00     0.000 C 
BRANCH   5   6
ATOM      6  C   UNL     1      97.851  99.124  10.858  1.00  0.00     0.000 C 
BRANCH   6   7
ATOM      7  C   UNL     1      97.092  99.188   9.522  1.00  0.00     0.000 C 
BRANCH   7   8
ATOM      8  C   UNL     1      96.131 100.386   9.441  1.00  0.00     0.000 C 
BRANCH   8   9
ATOM      9  C   UNL     1      94.657  99.967   9.329  1.00  0.00     0.000 C 
BRANCH   9  10
ATOM     10  C   UNL     1      94.408  99.173   8.040  1.00  0.00     0.006 C 
BRANCH  10  11
ATOM     11  C   UNL     1      92.910  99.087   7.725  1.00  0.00     0.053 C 
BRANCH  11  12
ATOM     12  C   UNL     1      92.598  99.744   6.416  1.00  0.00     0.041 C 
ATOM     13  O   UNL     1      91.527 100.392   6.274  1.00  0.00    -0.550 OA
ATOM     14  O   UNL     1      93.504  99.676   5.363  1.00  0.00    -0.550 OA
ENDBRANCH  11  12
ENDBRANCH  10  11
ENDBRANCH   9  10
ENDBRANCH   8   9
ENDBRANCH   7   8
ENDBRANCH   6   7
ENDBRANCH   5   6
ENDBRANCH   4   5
ENDBRANCH   3   4
ENDBRANCH   2   3
ENDBRANCH   1   2
BRANCH   1  15
ATOM     15  C   UNL     1     102.109  96.467  10.465  1.00  0.00     0.000 C 
BRANCH  15  16
ATOM     16  C   UNL     1     100.855  95.648  10.108  1.00  0.00     0.000 C 
BRANCH  16  17
ATOM     17  C   UNL     1     100.835  94.259  10.768  1.00  0.00     0.000 C 
BRANCH  17  18
ATOM     18  C   UNL     1      99.415  93.876  11.203  1.00  0.00    -0.000 C 
BRANCH  18  19
ATOM     19  C   UNL     1      98.539  95.124  11.385  1.00  0.00    -0.000 C 
BRANCH  19  20
ATOM     20  C   UNL     1      98.347  95.510  12.863  1.00  0.00    -0.000 C 
BRANCH  20  21
ATOM     21  C   UNL     1      98.388  94.332  13.858  1.00  0.00    -0.000 C 
BRANCH  21  22
ATOM     22  C   UNL     1      99.415  94.475  14.995  1.00  0.00    -0.000 C 
BRANCH  22  23
ATOM     23  C   UNL     1      99.119  95.667  15.918  1.00  0.00    -0.000 C 
BRANCH  23  24
ATOM     24  C   UNL     1      99.874  95.533  17.247  1.00  0.00    -0.000 C 
BRANCH  24  25
ATOM     25  C   UNL     1     100.302  96.907  17.777  1.00  0.00    -0.003 C 
ATOM     26  C   UNL     1      99.110  97.856  17.873  1.00  0.00     0.004 C 
ENDBRANCH  24  25
ENDBRANCH  23  24
ENDBRANCH  22  23
ENDBRANCH  21  22
ENDBRANCH  20  21
ENDBRANCH  19  20
ENDBRANCH  18  19
ENDBRANCH  17  18
ENDBRANCH  16  17
ENDBRANCH  15  16
ENDBRANCH   1  15
TORSDOF 22
ENDMDL
MODEL 6
REMARK VINA RESULT:    17.486      3.793      8.277
REMARK INTER + INTRA:          39.061
REMARK INTER:                  40.086
REMARK INTRA:                  -1.025
REMARK UNBOUND:                -0.914
REMARK SMILES CCCCCCCCCCCCCCCCCCCCCCCC(=O)[O-]
REMARK SMILES IDX 13 1 14 2 15 3 16 4 17 5 18 6 19 7 20 8 21 9 22 10 23 11
REMARK SMILES IDX 24 12 25 13 26 14 12 15 11 16 10 17 9 18 8 19 7 20 6 21 5 22
REMARK SMILES IDX 4 23 3 24 2 25 1 26
REMARK H PARENT
REMARK Flexibility Score: inf
ROOT
ATOM      1  C   UNL     1     101.258 100.183  10.211  1.00  0.00     0.000 C 
ENDROOT
BRANCH   1   2
ATOM      2  C   UNL     1     101.149  98.660  10.022  1.00  0.00     0.000 C 
BRANCH   2   3
ATOM      3  C   UNL     1     102.416  97.919  10.482  1.00  0.00     0.000 C 
BRANCH   3   4
ATOM      4  C   UNL     1     102.408  96.431  10.088  1.00  0.00     0.000 C 
BRANCH   4   5
ATOM      5  C   UNL     1     101.062  95.741  10.387  1.00  0.00     0.000 C 
BRANCH   5   6
ATOM      6  C   UNL     1     101.108  94.202  10.414  1.00  0.00     0.000 C 
BRANCH   6   7
ATOM      7  C   UNL     1      99.923  93.583  11.176  1.00  0.00     0.000 C 
BRANCH   7   8
ATOM      8  C   UNL     1      98.580  94.241  10.821  1.00  0.00     0.000 C 
BRANCH   8   9
ATOM      9  C   UNL     1      98.521  95.729  11.200  1.00  0.00     0.000 C 
BRANCH   9  10
ATOM     10  C   UNL     1      98.664  95.915  12.715  1.00  0.00     0.006 C 
BRANCH  10  11
ATOM     11  C   UNL     1      97.704  94.995  13.478  1.00  0.00     0.053 C 
BRANCH  11  12
ATOM     12  C   UNL     1      98.449  94.112  14.430  1.00  0.00     0.041 C 
ATOM     13  O   UNL     1      98.249  92.868  14.426  1.00  0.00    -0.550 OA
ATOM     14  O   UNL     1      99.391  94.653  15.298  1.00  0.00    -0.550 OA
ENDBRANCH  11  12
ENDBRANCH  10  11
ENDBRANCH   9  10
ENDBRANCH   8   9
ENDBRANCH   7   8
ENDBRANCH   6   7
ENDBRANCH   5   6
ENDBRANCH   4   5
ENDBRANCH   3   4
ENDBRANCH   2   3
ENDBRANCH   1   2
BRANCH   1  15
ATOM     15  C   UNL     1     100.164 100.752  11.133  1.00  0.00     0.000 C 
BRANCH  15  16
ATOM     16  C   UNL     1      98.937  99.841  11.330  1.00  0.00     0.000 C 
BRANCH  16  17
ATOM     17  C   UNL     1      98.123 100.191  12.587  1.00  0.00     0.000 C 
BRANCH  17  18
ATOM     18  C   UNL     1      96.874  99.309  12.698  1.00  0.00    -0.000 C 
BRANCH  18  19
ATOM     19  C   UNL     1      95.600 100.164  12.767  1.00  0.00    -0.000 C 
BRANCH  19  20
ATOM     20  C   UNL     1      95.396 101.035  11.513  1.00  0.00    -0.000 C 
BRANCH  20  21
ATOM     21  C   UNL     1      94.652 100.346  10.351  1.00  0.00    -0.000 C 
BRANCH  21  22
ATOM     22  C   UNL     1      95.479 100.157   9.068  1.00  0.00    -0.000 C 
BRANCH  22  23
ATOM     23  C   UNL     1      94.880  99.103   8.124  1.00  0.00    -0.000 C 
BRANCH  23  24
ATOM     24  C   UNL     1      93.364  99.288   7.986  1.00  0.00    -0.000 C 
BRANCH  24  25
ATOM     25  C   UNL     1      92.964  99.463   6.515  1.00  0.00    -0.003 C 
ATOM     26  C   UNL     1      91.918 100.563   6.356  1.00  0.00     0.004 C 
ENDBRANCH  24  25
ENDBRANCH  23  24
ENDBRANCH  22  23
ENDBRANCH  21  22
ENDBRANCH  20  21
ENDBRANCH  19  20
ENDBRANCH  18  19
ENDBRANCH  17  18
ENDBRANCH  16  17
ENDBRANCH  15  16
ENDBRANCH   1  15
TORSDOF 22
ENDMDL
MODEL 7
REMARK VINA RESULT:    18.247      4.262      7.144
REMARK INTER + INTRA:          40.800
REMARK INTER:                  41.513
REMARK INTRA:                  -0.713
REMARK UNBOUND:                -0.914
REMARK SMILES CCCCCCCCCCCCCCCCCCCCCCCC(=O)[O-]
REMARK SMILES IDX 13 1 14 2 15 3 16 4 17 5 18 6 19 7 20 8 21 9 22 10 23 11
REMARK SMILES IDX 24 12 25 13 26 14 12 15 11 16 10 17 9 18 8 19 7 20 6 21 5 22
REMARK SMILES IDX 4 23 3 24 2 25 1 26
REMARK H PARENT
REMARK Flexibility Score: inf
ROOT
ATOM      1  C   UNL     1      99.716  95.895  10.604  1.00  0.00     0.000 C 
ENDROOT
BRANCH   1   2
ATOM      2  C   UNL     1     101.067  95.229  10.292  1.00  0.00     0.000 C 
BRANCH   2   3
ATOM      3  C   UNL     1     102.217  96.246  10.201  1.00  0.00     0.000 C 
BRANCH   3   4
ATOM      4  C   UNL     1     101.841  97.620  10.783  1.00  0.00     0.000 C 
BRANCH   4   5
ATOM      5  C   UNL     1     102.153  98.783   9.821  1.00  0.00     0.000 C 
BRANCH   5   6
ATOM      6  C   UNL     1     102.284 100.166  10.486  1.00  0.00     0.000 C 
BRANCH   6   7
ATOM      7  C   UNL     1     101.146 101.125  10.096  1.00  0.00     0.000 C 
BRANCH   7   8
ATOM      8  C   UNL     1      99.864 100.387   9.678  1.00  0.00     0.000 C 
BRANCH   8   9
ATOM      9  C   UNL     1      99.294  99.494  10.791  1.00  0.00     0.000 C 
BRANCH   9  10
ATOM     10  C   UNL     1      99.014 100.310  12.059  1.00  0.00     0.006 C 
BRANCH  10  11
ATOM     11  C   UNL     1      97.539 100.208  12.465  1.00  0.00     0.053 C 
BRANCH  11  12
ATOM     12  C   UNL     1      97.255  98.900  13.135  1.00  0.00     0.041 C 
ATOM     13  O   UNL     1      96.452  98.847  14.105  1.00  0.00    -0.550 OA
ATOM     14  O   UNL     1      97.846  97.730  12.670  1.00  0.00    -0.550 OA
ENDBRANCH  11  12
ENDBRANCH  10  11
ENDBRANCH   9  10
ENDBRANCH   8   9
ENDBRANCH   7   8
ENDBRANCH   6   7
ENDBRANCH   5   6
ENDBRANCH   4   5
ENDBRANCH   3   4
ENDBRANCH   2   3
ENDBRANCH   1   2
BRANCH   1  15
ATOM     15  C   UNL     1      98.592  94.875  10.867  1.00  0.00     0.000 C 
BRANCH  15  16
ATOM     16  C   UNL     1      99.062  93.505  11.391  1.00  0.00     0.000 C 
BRANCH  16  17
ATOM     17  C   UNL     1      98.800  93.314  12.894  1.00  0.00     0.000 C 
BRANCH  17  18
ATOM     18  C   UNL     1      98.200  94.581  13.515  1.00  0.00    -0.000 C 
BRANCH  18  19
ATOM     19  C   UNL     1      98.324  94.556  15.046  1.00  0.00    -0.000 C 
BRANCH  19  20
ATOM     20  C   UNL     1      99.677  95.094  15.546  1.00  0.00    -0.000 C 
BRANCH  20  21
ATOM     21  C   UNL     1      99.745  95.393  17.057  1.00  0.00    -0.000 C 
BRANCH  21  22
ATOM     22  C   UNL     1     100.361  96.755  17.426  1.00  0.00    -0.000 C 
BRANCH  22  23
ATOM     23  C   UNL     1      99.533  97.519  18.470  1.00  0.00    -0.000 C 
BRANCH  23  24
ATOM     24  C   UNL     1      98.563  98.495  17.793  1.00  0.00    -0.000 C 
BRANCH  24  25
ATOM     25  C   UNL     1      97.584  99.092  18.811  1.00  0.00    -0.003 C 
ATOM     26  C   UNL     1      98.295 100.057  19.757  1.00  0.00     0.004 C 
ENDBRANCH  24  25
ENDBRANCH  23  24
ENDBRANCH  22  23
ENDBRANCH  21  22
ENDBRANCH  20  21
ENDBRANCH  19  20
ENDBRANCH  18  19
ENDBRANCH  17  18
ENDBRANCH  16  17
ENDBRANCH  15  16
ENDBRANCH   1  15
TORSDOF 22
ENDMDL
MODEL 8
REMARK VINA RESULT:    18.416      3.263      8.521
REMARK INTER + INTRA:          41.187
REMARK INTER:                  42.265
REMARK INTRA:                  -1.078
REMARK UNBOUND:                -0.914
REMARK SMILES CCCCCCCCCCCCCCCCCCCCCCCC(=O)[O-]
REMARK SMILES IDX 13 1 14 2 15 3 16 4 17 5 18 6 19 7 20 8 21 9 22 10 23 11
REMARK SMILES IDX 24 12 25 13 26 14 12 15 11 16 10 17 9 18 8 19 7 20 6 21 5 22
REMARK SMILES IDX 4 23 3 24 2 25 1 26
REMARK H PARENT
REMARK Flexibility Score: inf
ROOT
ATOM      1  C   UNL     1      97.519  99.101  12.675  1.00  0.00     0.000 C 
ENDROOT
BRANCH   1   2
ATOM      2  C   UNL     1      98.506 100.109  12.062  1.00  0.00     0.000 C 
BRANCH   2   3
ATOM      3  C   UNL     1      99.283  99.521  10.871  1.00  0.00     0.000 C 
BRANCH   3   4
ATOM      4  C   UNL     1     100.244 100.538  10.230  1.00  0.00     0.000 C 
BRANCH   4   5
ATOM      5  C   UNL     1     101.640  99.947   9.951  1.00  0.00     0.000 C 
BRANCH   5   6
ATOM      6  C   UNL     1     101.964  98.647  10.709  1.00  0.00     0.000 C 
BRANCH   6   7
ATOM      7  C   UNL     1     101.036  97.483  10.322  1.00  0.00     0.000 C 
BRANCH   7   8
ATOM      8  C   UNL     1     101.618  96.110  10.693  1.00  0.00     0.000 C 
BRANCH   8   9
ATOM      9  C   UNL     1     100.761  94.938  10.189  1.00  0.00     0.000 C 
BRANCH   9  10
ATOM     10  C   UNL     1      99.291  95.122  10.585  1.00  0.00     0.006 C 
BRANCH  10  11
ATOM     11  C   UNL     1      98.858  94.063  11.606  1.00  0.00     0.053 C 
BRANCH  11  12
ATOM     12  C   UNL     1      98.496  94.694  12.915  1.00  0.00     0.041 C 
ATOM     13  O   UNL     1      98.193  95.916  12.964  1.00  0.00    -0.550 OA
ATOM     14  O   UNL     1      98.453  93.929  14.075  1.00  0.00    -0.550 OA
ENDBRANCH  11  12
ENDBRANCH  10  11
ENDBRANCH   9  10
ENDBRANCH   8   9
ENDBRANCH   7   8
ENDBRANCH   6   7
ENDBRANCH   5   6
ENDBRANCH   4   5
ENDBRANCH   3   4
ENDBRANCH   2   3
ENDBRANCH   1   2
BRANCH   1  15
ATOM     15  C   UNL     1      96.075  99.633  12.729  1.00  0.00     0.000 C 
BRANCH  15  16
ATOM     16  C   UNL     1      95.784 100.827  11.800  1.00  0.00     0.000 C 
BRANCH  16  17
ATOM     17  C   UNL     1      94.995 100.431  10.540  1.00  0.00     0.000 C 
BRANCH  17  18
ATOM     18  C   UNL     1      95.933 100.226   9.344  1.00  0.00    -0.000 C 
BRANCH  18  19
ATOM     19  C   UNL     1      95.313  99.269   8.316  1.00  0.00    -0.000 C 
BRANCH  19  20
ATOM     20  C   UNL     1      93.785  99.141   8.462  1.00  0.00    -0.000 C 
BRANCH  20  21
ATOM     21  C   UNL     1      93.017  98.922   7.143  1.00  0.00    -0.000 C 
BRANCH  21  22
ATOM     22  C   UNL     1      92.748 100.198   6.325  1.00  0.00    -0.000 C 
BRANCH  22  23
ATOM     23  C   UNL     1      91.357 100.204   5.674  1.00  0.00    -0.000 C 
BRANCH  23  24
ATOM     24  C   UNL     1      90.776  98.786   5.607  1.00  0.00    -0.000 C 
BRANCH  24  25
ATOM     25  C   UNL     1      90.859  98.224   4.183  1.00  0.00    -0.003 C 
ATOM     26  C   UNL     1      91.548  96.862   4.167  1.00  0.00     0.004 C 
ENDBRANCH  24  25
ENDBRANCH  23  24
ENDBRANCH  22  23
ENDBRANCH  21  22
ENDBRANCH  20  21
ENDBRANCH  19  20
ENDBRANCH  18  19
ENDBRANCH  17  18
ENDBRANCH  16  17
ENDBRANCH  15  16
ENDBRANCH   1  15
TORSDOF 22
ENDMDL
