MODEL 1
REMARK VINA RESULT:    -3.330      0.000      0.000
REMARK INTER + INTRA:         -13.529
REMARK INTER:                  -8.391
REMARK INTRA:                  -5.138
REMARK UNBOUND:                -5.138
REMARK SMILES CCCCCCCCCCCCCCCCCCCCCCCCCCCC(=O)[O-]
REMARK SMILES IDX 15 1 16 2 17 3 18 4 19 5 20 6 21 7 22 8 23 9 24 10 25 11
REMARK SMILES IDX 26 12 27 13 28 14 29 15 30 16 14 17 13 18 12 19 11 20 10 21
REMARK SMILES IDX 9 22 8 23 7 24 6 25 5 26 4 27 3 28 2 29 1 30
REMARK H PARENT
REMARK Flexibility Score: inf
ROOT
ATOM      1  C   UNL     1     -94.671 149.133 237.214  1.00  0.00     0.000 C 
ENDROOT
BRANCH   1   2
ATOM      2  C   UNL     1     -94.420 148.836 238.703  1.00  0.00     0.000 C 
BRANCH   2   3
ATOM      3  C   UNL     1     -95.406 147.800 239.268  1.00  0.00     0.000 C 
BRANCH   3   4
ATOM      4  C   UNL     1     -95.749 148.055 240.744  1.00  0.00     0.000 C 
BRANCH   4   5
ATOM      5  C   UNL     1     -97.154 148.652 240.889  1.00  0.00     0.000 C 
BRANCH   5   6
ATOM      6  C   UNL     1     -97.147 150.153 240.563  1.00  0.00     0.000 C 
BRANCH   6   7
ATOM      7  C   UNL     1     -98.145 150.530 239.458  1.00  0.00     0.000 C 
BRANCH   7   8
ATOM      8  C   UNL     1     -99.024 149.343 239.024  1.00  0.00     0.000 C 
BRANCH   8   9
ATOM      9  C   UNL     1     -98.633 148.793 237.643  1.00  0.00     0.000 C 
BRANCH   9  10
ATOM     10  C   UNL     1     -98.159 149.895 236.683  1.00  0.00     0.000 C 
BRANCH  10  11
ATOM     11  C   UNL     1     -99.060 149.966 235.442  1.00  0.00     0.000 C 
BRANCH  11  12
ATOM     12  C   UNL     1     -99.676 151.360 235.221  1.00  0.00     0.006 C 
BRANCH  12  13
ATOM     13  C   UNL     1     -99.409 152.349 236.368  1.00  0.00     0.053 C 
BRANCH  13  14
ATOM     14  C   UNL     1    -100.660 152.735 237.099  1.00  0.00     0.041 C 
ATOM     15  O   UNL     1    -101.166 151.951 237.946  1.00  0.00    -0.550 OA
ATOM     16  O   UNL     1    -101.287 153.944 236.823  1.00  0.00    -0.550 OA
ENDBRANCH  13  14
ENDBRANCH  12  13
ENDBRANCH  11  12
ENDBRANCH  10  11
ENDBRANCH   9  10
ENDBRANCH   8   9
ENDBRANCH   7   8
ENDBRANCH   6   7
ENDBRANCH   5   6
ENDBRANCH   4   5
ENDBRANCH   3   4
ENDBRANCH   2   3
ENDBRANCH   1   2
BRANCH   1  17
ATOM     17  C   UNL     1     -94.413 147.916 236.309  1.00  0.00     0.000 C 
BRANCH  17  18
ATOM     18  C   UNL     1     -95.672 147.293 235.670  1.00  0.00     0.000 C 
BRANCH  18  19
ATOM     19  C   UNL     1     -95.877 147.609 234.177  1.00  0.00     0.000 C 
BRANCH  19  20
ATOM     20  C   UNL     1     -94.649 148.200 233.458  1.00  0.00     0.000 C 
BRANCH  20  21
ATOM     21  C   UNL     1     -94.928 149.539 232.740  1.00  0.00     0.000 C 
BRANCH  21  22
ATOM     22  C   UNL     1     -96.135 150.286 233.326  1.00  0.00    -0.000 C 
BRANCH  22  23
ATOM     23  C   UNL     1     -95.700 151.291 234.398  1.00  0.00    -0.000 C 
BRANCH  23  24
ATOM     24  C   UNL     1     -96.227 152.697 234.075  1.00  0.00    -0.000 C 
BRANCH  24  25
ATOM     25  C   UNL     1     -97.179 152.705 232.868  1.00  0.00    -0.000 C 
BRANCH  25  26
ATOM     26  C   UNL     1     -98.014 153.996 232.788  1.00  0.00    -0.000 C 
BRANCH  26  27
ATOM     27  C   UNL     1     -97.927 154.830 234.085  1.00  0.00    -0.000 C 
BRANCH  27  28
ATOM     28  C   UNL     1     -99.241 155.546 234.450  1.00  0.00    -0.000 C 
BRANCH  28  29
ATOM     29  C   UNL     1     -99.509 156.839 233.663  1.00  0.00    -0.003 C 
ATOM     30  C   UNL     1     -98.229 157.600 233.319  1.00  0.00     0.004 C 
ENDBRANCH  28  29
ENDBRANCH  27  28
ENDBRANCH  26  27
ENDBRANCH  25  26
ENDBRANCH  24  25
ENDBRANCH  23  24
ENDBRANCH  22  23
ENDBRANCH  21  22
ENDBRANCH  20  21
ENDBRANCH  19  20
ENDBRANCH  18  19
ENDBRANCH  17  18
ENDBRANCH   1  17
TORSDOF 26
ENDMDL
MODEL 2
REMARK VINA RESULT:    -3.293      1.659      6.180
REMARK INTER + INTRA:         -13.438
REMARK INTER:                  -7.878
REMARK INTRA:                  -5.560
REMARK UNBOUND:                -5.138
REMARK SMILES CCCCCCCCCCCCCCCCCCCCCCCCCCCC(=O)[O-]
REMARK SMILES IDX 15 1 16 2 17 3 18 4 19 5 20 6 21 7 22 8 23 9 24 10 25 11
REMARK SMILES IDX 26 12 27 13 28 14 29 15 30 16 14 17 13 18 12 19 11 20 10 21
REMARK SMILES IDX 9 22 8 23 7 24 6 25 5 26 4 27 3 28 2 29 1 30
REMARK H PARENT
REMARK Flexibility Score: inf
ROOT
ATOM      1  C   UNL     1     -96.022 148.322 233.948  1.00  0.00     0.000 C 
ENDROOT
BRANCH   1   2
ATOM      2  C   UNL     1     -97.253 148.875 234.688  1.00  0.00     0.000 C 
BRANCH   2   3
ATOM      3  C   UNL     1     -96.980 150.241 235.340  1.00  0.00     0.000 C 
BRANCH   3   4
ATOM      4  C   UNL     1     -95.706 150.908 234.801  1.00  0.00     0.000 C 
BRANCH   4   5
ATOM      5  C   UNL     1     -96.026 152.253 234.135  1.00  0.00     0.000 C 
BRANCH   5   6
ATOM      6  C   UNL     1     -96.025 152.119 232.605  1.00  0.00     0.000 C 
BRANCH   6   7
ATOM      7  C   UNL     1     -97.244 152.784 231.946  1.00  0.00     0.000 C 
BRANCH   7   8
ATOM      8  C   UNL     1     -98.221 151.761 231.341  1.00  0.00     0.000 C 
BRANCH   8   9
ATOM      9  C   UNL     1     -99.155 151.143 232.395  1.00  0.00     0.000 C 
BRANCH   9  10
ATOM     10  C   UNL     1     -99.962 152.204 233.159  1.00  0.00     0.000 C 
BRANCH  10  11
ATOM     11  C   UNL     1     -99.999 151.888 234.661  1.00  0.00     0.000 C 
BRANCH  11  12
ATOM     12  C   UNL     1     -99.463 153.038 235.534  1.00  0.00     0.006 C 
BRANCH  12  13
ATOM     13  C   UNL     1     -99.202 154.341 234.759  1.00  0.00     0.053 C 
BRANCH  13  14
ATOM     14  C   UNL     1    -100.374 155.275 234.793  1.00  0.00     0.041 C 
ATOM     15  O   UNL     1    -100.921 155.644 233.719  1.00  0.00    -0.550 OA
ATOM     16  O   UNL     1    -100.842 155.767 236.005  1.00  0.00    -0.550 OA
ENDBRANCH  13  14
ENDBRANCH  12  13
ENDBRANCH  11  12
ENDBRANCH  10  11
ENDBRANCH   9  10
ENDBRANCH   8   9
ENDBRANCH   7   8
ENDBRANCH   6   7
ENDBRANCH   5   6
ENDBRANCH   4   5
ENDBRANCH   3   4
ENDBRANCH   2   3
ENDBRANCH   1   2
BRANCH   1  17
ATOM     17  C   UNL     1     -95.316 147.194 234.720  1.00  0.00     0.000 C 
BRANCH  17  18
ATOM     18  C   UNL     1     -93.993 147.593 235.406  1.00  0.00     0.000 C 
BRANCH  18  19
ATOM     19  C   UNL     1     -94.008 147.542 236.944  1.00  0.00     0.000 C 
BRANCH  19  20
ATOM     20  C   UNL     1     -94.231 148.897 237.643  1.00  0.00     0.000 C 
BRANCH  20  21
ATOM     21  C   UNL     1     -95.578 149.002 238.392  1.00  0.00     0.000 C 
BRANCH  21  22
ATOM     22  C   UNL     1     -96.443 147.743 238.236  1.00  0.00    -0.000 C 
BRANCH  22  23
ATOM     23  C   UNL     1     -96.841 147.169 239.601  1.00  0.00    -0.000 C 
BRANCH  23  24
ATOM     24  C   UNL     1     -96.476 148.145 240.730  1.00  0.00    -0.000 C 
BRANCH  24  25
ATOM     25  C   UNL     1     -97.637 148.370 241.711  1.00  0.00    -0.000 C 
BRANCH  25  26
ATOM     26  C   UNL     1     -97.969 149.861 241.896  1.00  0.00    -0.000 C 
BRANCH  26  27
ATOM     27  C   UNL     1     -97.882 150.648 240.570  1.00  0.00    -0.000 C 
BRANCH  27  28
ATOM     28  C   UNL     1     -99.233 150.786 239.843  1.00  0.00    -0.000 C 
BRANCH  28  29
ATOM     29  C   UNL     1     -99.152 150.688 238.310  1.00  0.00    -0.003 C 
ATOM     30  C   UNL     1     -99.630 149.338 237.776  1.00  0.00     0.004 C 
ENDBRANCH  28  29
ENDBRANCH  27  28
ENDBRANCH  26  27
ENDBRANCH  25  26
ENDBRANCH  24  25
ENDBRANCH  23  24
ENDBRANCH  22  23
ENDBRANCH  21  22
ENDBRANCH  20  21
ENDBRANCH  19  20
ENDBRANCH  18  19
ENDBRANCH  17  18
ENDBRANCH   1  17
TORSDOF 26
ENDMDL
MODEL 3
REMARK VINA RESULT:    -3.276      1.769      6.078
REMARK INTER + INTRA:         -13.395
REMARK INTER:                  -7.997
REMARK INTRA:                  -5.398
REMARK UNBOUND:                -5.138
REMARK SMILES CCCCCCCCCCCCCCCCCCCCCCCCCCCC(=O)[O-]
REMARK SMILES IDX 15 1 16 2 17 3 18 4 19 5 20 6 21 7 22 8 23 9 24 10 25 11
REMARK SMILES IDX 26 12 27 13 28 14 29 15 30 16 14 17 13 18 12 19 11 20 10 21
REMARK SMILES IDX 9 22 8 23 7 24 6 25 5 26 4 27 3 28 2 29 1 30
REMARK H PARENT
REMARK Flexibility Score: inf
ROOT
ATOM      1  C   UNL     1     -94.914 148.346 236.587  1.00  0.00     0.000 C 
ENDROOT
BRANCH   1   2
ATOM      2  C   UNL     1     -95.853 147.127 236.536  1.00  0.00     0.000 C 
BRANCH   2   3
ATOM      3  C   UNL     1     -97.332 147.519 236.692  1.00  0.00     0.000 C 
BRANCH   3   4
ATOM      4  C   UNL     1     -97.555 149.035 236.586  1.00  0.00     0.000 C 
BRANCH   4   5
ATOM      5  C   UNL     1     -98.582 149.367 235.497  1.00  0.00     0.000 C 
BRANCH   5   6
ATOM      6  C   UNL     1     -98.388 148.464 234.269  1.00  0.00     0.000 C 
BRANCH   6   7
ATOM      7  C   UNL     1     -97.688 149.180 233.105  1.00  0.00     0.000 C 
BRANCH   7   8
ATOM      8  C   UNL     1     -96.164 148.965 233.109  1.00  0.00     0.000 C 
BRANCH   8   9
ATOM      9  C   UNL     1     -95.381 150.287 233.041  1.00  0.00     0.000 C 
BRANCH   9  10
ATOM     10  C   UNL     1     -95.633 151.184 234.263  1.00  0.00     0.000 C 
BRANCH  10  11
ATOM     11  C   UNL     1     -96.218 152.538 233.838  1.00  0.00     0.000 C 
BRANCH  11  12
ATOM     12  C   UNL     1     -97.646 152.772 234.365  1.00  0.00     0.006 C 
BRANCH  12  13
ATOM     13  C   UNL     1     -98.455 153.792 233.545  1.00  0.00     0.053 C 
BRANCH  13  14
ATOM     14  C   UNL     1     -98.645 155.091 234.269  1.00  0.00     0.041 C 
ATOM     15  O   UNL     1     -97.650 155.707 234.736  1.00  0.00    -0.550 OA
ATOM     16  O   UNL     1     -99.921 155.605 234.460  1.00  0.00    -0.550 OA
ENDBRANCH  13  14
ENDBRANCH  12  13
ENDBRANCH  11  12
ENDBRANCH  10  11
ENDBRANCH   9  10
ENDBRANCH   8   9
ENDBRANCH   7   8
ENDBRANCH   6   7
ENDBRANCH   5   6
ENDBRANCH   4   5
ENDBRANCH   3   4
ENDBRANCH   2   3
ENDBRANCH   1   2
BRANCH   1  17
ATOM     17  C   UNL     1     -93.880 148.257 237.723  1.00  0.00     0.000 C 
BRANCH  17  18
ATOM     18  C   UNL     1     -94.257 149.010 239.015  1.00  0.00     0.000 C 
BRANCH  18  19
ATOM     19  C   UNL     1     -95.078 148.199 240.034  1.00  0.00     0.000 C 
BRANCH  19  20
ATOM     20  C   UNL     1     -96.545 148.642 240.196  1.00  0.00     0.000 C 
BRANCH  20  21
ATOM     21  C   UNL     1     -96.763 150.162 240.033  1.00  0.00     0.000 C 
BRANCH  21  22
ATOM     22  C   UNL     1     -97.663 150.753 241.129  1.00  0.00    -0.000 C 
BRANCH  22  23
ATOM     23  C   UNL     1     -98.324 149.647 241.960  1.00  0.00    -0.000 C 
BRANCH  23  24
ATOM     24  C   UNL     1     -99.711 150.088 242.452  1.00  0.00    -0.000 C 
BRANCH  24  25
ATOM     25  C   UNL     1    -100.796 149.923 241.377  1.00  0.00    -0.000 C 
BRANCH  25  26
ATOM     26  C   UNL     1    -100.471 148.792 240.384  1.00  0.00    -0.000 C 
BRANCH  26  27
ATOM     27  C   UNL     1    -100.385 149.299 238.928  1.00  0.00    -0.000 C 
BRANCH  27  28
ATOM     28  C   UNL     1    -100.748 150.788 238.769  1.00  0.00    -0.000 C 
BRANCH  28  29
ATOM     29  C   UNL     1     -99.647 151.654 238.136  1.00  0.00    -0.003 C 
ATOM     30  C   UNL     1    -100.177 152.576 237.037  1.00  0.00     0.004 C 
ENDBRANCH  28  29
ENDBRANCH  27  28
ENDBRANCH  26  27
ENDBRANCH  25  26
ENDBRANCH  24  25
ENDBRANCH  23  24
ENDBRANCH  22  23
ENDBRANCH  21  22
ENDBRANCH  20  21
ENDBRANCH  19  20
ENDBRANCH  18  19
ENDBRANCH  17  18
ENDBRANCH   1  17
TORSDOF 26
ENDMDL
MODEL 4
REMARK VINA RESULT:    -3.276      3.485      5.800
REMARK INTER + INTRA:         -13.394
REMARK INTER:                  -9.225
REMARK INTRA:                  -4.169
REMARK UNBOUND:                -5.138
REMARK SMILES CCCCCCCCCCCCCCCCCCCCCCCCCCCC(=O)[O-]
REMARK SMILES IDX 15 1 16 2 17 3 18 4 19 5 20 6 21 7 22 8 23 9 24 10 25 11
REMARK SMILES IDX 26 12 27 13 28 14 29 15 30 16 14 17 13 18 12 19 11 20 10 21
REMARK SMILES IDX 9 22 8 23 7 24 6 25 5 26 4 27 3 28 2 29 1 30
REMARK H PARENT
REMARK Flexibility Score: inf
ROOT
ATOM      1  C   UNL     1     -96.288 149.606 236.083  1.00  0.00     0.000 C 
ENDROOT
BRANCH   1   2
ATOM      2  C   UNL     1     -95.006 148.801 236.361  1.00  0.00     0.000 C 
BRANCH   2   3
ATOM      3  C   UNL     1     -94.383 149.144 237.725  1.00  0.00     0.000 C 
BRANCH   3   4
ATOM      4  C   UNL     1     -94.461 147.975 238.719  1.00  0.00     0.000 C 
BRANCH   4   5
ATOM      5  C   UNL     1     -95.143 148.405 240.024  1.00  0.00     0.000 C 
BRANCH   5   6
ATOM      6  C   UNL     1     -95.693 149.834 239.908  1.00  0.00     0.000 C 
BRANCH   6   7
ATOM      7  C   UNL     1     -96.947 150.064 240.765  1.00  0.00     0.000 C 
BRANCH   7   8
ATOM      8  C   UNL     1     -97.508 148.758 241.355  1.00  0.00     0.000 C 
BRANCH   8   9
ATOM      9  C   UNL     1     -98.490 149.008 242.511  1.00  0.00     0.000 C 
BRANCH   9  10
ATOM     10  C   UNL     1     -98.643 150.501 242.842  1.00  0.00     0.000 C 
BRANCH  10  11
ATOM     11  C   UNL     1     -99.326 150.695 244.203  1.00  0.00     0.000 C 
BRANCH  11  12
ATOM     12  C   UNL     1     -99.217 152.136 244.734  1.00  0.00     0.006 C 
BRANCH  12  13
ATOM     13  C   UNL     1     -99.240 152.239 246.269  1.00  0.00     0.053 C 
BRANCH  13  14
ATOM     14  C   UNL     1     -99.672 153.592 246.749  1.00  0.00     0.041 C 
ATOM     15  O   UNL     1     -99.332 153.995 247.894  1.00  0.00    -0.550 OA
ATOM     16  O   UNL     1    -100.475 154.394 245.949  1.00  0.00    -0.550 OA
ENDBRANCH  13  14
ENDBRANCH  12  13
ENDBRANCH  11  12
ENDBRANCH  10  11
ENDBRANCH   9  10
ENDBRANCH   8   9
ENDBRANCH   7   8
ENDBRANCH   6   7
ENDBRANCH   5   6
ENDBRANCH   4   5
ENDBRANCH   3   4
ENDBRANCH   2   3
ENDBRANCH   1   2
BRANCH   1  17
ATOM     17  C   UNL     1     -97.446 148.730 235.576  1.00  0.00     0.000 C 
BRANCH  17  18
ATOM     18  C   UNL     1     -97.866 147.584 236.521  1.00  0.00     0.000 C 
BRANCH  18  19
ATOM     19  C   UNL     1     -98.364 148.026 237.909  1.00  0.00     0.000 C 
BRANCH  19  20
ATOM     20  C   UNL     1     -99.817 148.538 237.952  1.00  0.00     0.000 C 
BRANCH  20  21
ATOM     21  C   UNL     1     -99.988 149.878 238.700  1.00  0.00     0.000 C 
BRANCH  21  22
ATOM     22  C   UNL     1     -99.167 151.016 238.074  1.00  0.00    -0.000 C 
BRANCH  22  23
ATOM     23  C   UNL     1    -100.076 152.145 237.574  1.00  0.00    -0.000 C 
BRANCH  23  24
ATOM     24  C   UNL     1    -100.387 151.975 236.079  1.00  0.00    -0.000 C 
BRANCH  24  25
ATOM     25  C   UNL     1     -99.135 152.117 235.199  1.00  0.00    -0.000 C 
BRANCH  25  26
ATOM     26  C   UNL     1     -98.721 153.586 235.000  1.00  0.00    -0.000 C 
BRANCH  26  27
ATOM     27  C   UNL     1     -97.368 153.717 234.265  1.00  0.00    -0.000 C 
BRANCH  27  28
ATOM     28  C   UNL     1     -97.085 152.566 233.280  1.00  0.00    -0.000 C 
BRANCH  28  29
ATOM     29  C   UNL     1     -95.704 151.910 233.438  1.00  0.00    -0.003 C 
ATOM     30  C   UNL     1     -95.523 150.687 232.540  1.00  0.00     0.004 C 
ENDBRANCH  28  29
ENDBRANCH  27  28
ENDBRANCH  26  27
ENDBRANCH  25  26
ENDBRANCH  24  25
ENDBRANCH  23  24
ENDBRANCH  22  23
ENDBRANCH  21  22
ENDBRANCH  20  21
ENDBRANCH  19  20
ENDBRANCH  18  19
ENDBRANCH  17  18
ENDBRANCH   1  17
TORSDOF 26
ENDMDL
MODEL 5
REMARK VINA RESULT:    -3.257      2.064      6.107
REMARK INTER + INTRA:         -13.346
REMARK INTER:                  -8.187
REMARK INTRA:                  -5.159
REMARK UNBOUND:                -5.138
REMARK SMILES CCCCCCCCCCCCCCCCCCCCCCCCCCCC(=O)[O-]
REMARK SMILES IDX 15 1 16 2 17 3 18 4 19 5 20 6 21 7 22 8 23 9 24 10 25 11
REMARK SMILES IDX 26 12 27 13 28 14 29 15 30 16 14 17 13 18 12 19 11 20 10 21
REMARK SMILES IDX 9 22 8 23 7 24 6 25 5 26 4 27 3 28 2 29 1 30
REMARK H PARENT
REMARK Flexibility Score: inf
ROOT
ATOM      1  C   UNL     1     -98.119 150.799 240.708  1.00  0.00     0.000 C 
ENDROOT
BRANCH   1   2
ATOM      2  C   UNL     1     -96.754 150.254 240.248  1.00  0.00     0.000 C 
BRANCH   2   3
ATOM      3  C   UNL     1     -96.522 148.802 240.695  1.00  0.00     0.000 C 
BRANCH   3   4
ATOM      4  C   UNL     1     -95.311 148.157 240.003  1.00  0.00     0.000 C 
BRANCH   4   5
ATOM      5  C   UNL     1     -94.453 149.214 239.295  1.00  0.00     0.000 C 
BRANCH   5   6
ATOM      6  C   UNL     1     -94.194 148.819 237.834  1.00  0.00     0.000 C 
BRANCH   6   7
ATOM      7  C   UNL     1     -95.039 149.627 236.837  1.00  0.00     0.000 C 
BRANCH   7   8
ATOM      8  C   UNL     1     -95.533 148.775 235.654  1.00  0.00     0.000 C 
BRANCH   8   9
ATOM      9  C   UNL     1     -95.926 149.629 234.437  1.00  0.00     0.000 C 
BRANCH   9  10
ATOM     10  C   UNL     1     -95.774 151.135 234.701  1.00  0.00     0.000 C 
BRANCH  10  11
ATOM     11  C   UNL     1     -95.814 151.929 233.387  1.00  0.00     0.000 C 
BRANCH  11  12
ATOM     12  C   UNL     1     -96.949 152.969 233.344  1.00  0.00     0.006 C 
BRANCH  12  13
ATOM     13  C   UNL     1     -97.069 153.816 234.622  1.00  0.00     0.053 C 
BRANCH  13  14
ATOM     14  C   UNL     1     -98.307 154.662 234.638  1.00  0.00     0.041 C 
ATOM     15  O   UNL     1     -99.408 154.166 234.999  1.00  0.00    -0.550 OA
ATOM     16  O   UNL     1     -98.254 155.987 234.223  1.00  0.00    -0.550 OA
ENDBRANCH  13  14
ENDBRANCH  12  13
ENDBRANCH  11  12
ENDBRANCH  10  11
ENDBRANCH   9  10
ENDBRANCH   8   9
ENDBRANCH   7   8
ENDBRANCH   6   7
ENDBRANCH   5   6
ENDBRANCH   4   5
ENDBRANCH   3   4
ENDBRANCH   2   3
ENDBRANCH   1   2
BRANCH   1  17
ATOM     17  C   UNL     1     -98.445 150.438 242.167  1.00  0.00     0.000 C 
BRANCH  17  18
ATOM     18  C   UNL     1     -99.936 150.163 242.459  1.00  0.00     0.000 C 
BRANCH  18  19
ATOM     19  C   UNL     1    -100.261 148.733 242.926  1.00  0.00     0.000 C 
BRANCH  19  20
ATOM     20  C   UNL     1     -99.688 147.608 242.042  1.00  0.00     0.000 C 
BRANCH  20  21
ATOM     21  C   UNL     1    -100.607 147.201 240.870  1.00  0.00     0.000 C 
BRANCH  21  22
ATOM     22  C   UNL     1    -100.250 147.918 239.559  1.00  0.00    -0.000 C 
BRANCH  22  23
ATOM     23  C   UNL     1     -99.210 147.126 238.759  1.00  0.00    -0.000 C 
BRANCH  23  24
ATOM     24  C   UNL     1     -98.431 148.050 237.810  1.00  0.00    -0.000 C 
BRANCH  24  25
ATOM     25  C   UNL     1     -99.351 149.014 237.043  1.00  0.00    -0.000 C 
BRANCH  25  26
ATOM     26  C   UNL     1     -98.735 150.417 236.892  1.00  0.00    -0.000 C 
BRANCH  26  27
ATOM     27  C   UNL     1     -99.663 151.524 237.441  1.00  0.00    -0.000 C 
BRANCH  27  28
ATOM     28  C   UNL     1    -101.076 151.026 237.800  1.00  0.00    -0.000 C 
BRANCH  28  29
ATOM     29  C   UNL     1    -101.472 151.225 239.272  1.00  0.00    -0.003 C 
ATOM     30  C   UNL     1    -102.797 150.549 239.626  1.00  0.00     0.004 C 
ENDBRANCH  28  29
ENDBRANCH  27  28
ENDBRANCH  26  27
ENDBRANCH  25  26
ENDBRANCH  24  25
ENDBRANCH  23  24
ENDBRANCH  22  23
ENDBRANCH  21  22
ENDBRANCH  20  21
ENDBRANCH  19  20
ENDBRANCH  18  19
ENDBRANCH  17  18
ENDBRANCH   1  17
TORSDOF 26
ENDMDL
MODEL 6
REMARK VINA RESULT:    -3.237      2.189      5.873
REMARK INTER + INTRA:         -13.296
REMARK INTER:                  -8.001
REMARK INTRA:                  -5.294
REMARK UNBOUND:                -5.138
REMARK SMILES CCCCCCCCCCCCCCCCCCCCCCCCCCCC(=O)[O-]
REMARK SMILES IDX 15 1 16 2 17 3 18 4 19 5 20 6 21 7 22 8 23 9 24 10 25 11
REMARK SMILES IDX 26 12 27 13 28 14 29 15 30 16 14 17 13 18 12 19 11 20 10 21
REMARK SMILES IDX 9 22 8 23 7 24 6 25 5 26 4 27 3 28 2 29 1 30
REMARK H PARENT
REMARK Flexibility Score: inf
ROOT
ATOM      1  C   UNL     1     -99.404 151.856 237.276  1.00  0.00     0.000 C 
ENDROOT
BRANCH   1   2
ATOM      2  C   UNL     1     -99.254 150.431 236.716  1.00  0.00     0.000 C 
BRANCH   2   3
ATOM      3  C   UNL     1     -97.819 149.895 236.854  1.00  0.00     0.000 C 
BRANCH   3   4
ATOM      4  C   UNL     1     -97.689 148.433 236.400  1.00  0.00     0.000 C 
BRANCH   4   5
ATOM      5  C   UNL     1     -96.241 148.100 236.020  1.00  0.00     0.000 C 
BRANCH   5   6
ATOM      6  C   UNL     1     -95.284 149.204 236.492  1.00  0.00     0.000 C 
BRANCH   6   7
ATOM      7  C   UNL     1     -94.224 148.695 237.482  1.00  0.00     0.000 C 
BRANCH   7   8
ATOM      8  C   UNL     1     -94.541 149.080 238.938  1.00  0.00     0.000 C 
BRANCH   8   9
ATOM      9  C   UNL     1     -95.433 148.044 239.641  1.00  0.00     0.000 C 
BRANCH   9  10
ATOM     10  C   UNL     1     -96.691 148.673 240.259  1.00  0.00     0.000 C 
BRANCH  10  11
ATOM     11  C   UNL     1     -96.534 150.194 240.397  1.00  0.00     0.000 C 
BRANCH  11  12
ATOM     12  C   UNL     1     -97.880 150.936 240.481  1.00  0.00     0.006 C 
BRANCH  12  13
ATOM     13  C   UNL     1     -98.982 150.149 241.212  1.00  0.00     0.053 C 
BRANCH  13  14
ATOM     14  C   UNL     1     -98.787 150.131 242.698  1.00  0.00     0.041 C 
ATOM     15  O   UNL     1     -99.055 151.152 243.384  1.00  0.00    -0.550 OA
ATOM     16  O   UNL     1     -98.277 148.999 243.322  1.00  0.00    -0.550 OA
ENDBRANCH  13  14
ENDBRANCH  12  13
ENDBRANCH  11  12
ENDBRANCH  10  11
ENDBRANCH   9  10
ENDBRANCH   8   9
ENDBRANCH   7   8
ENDBRANCH   6   7
ENDBRANCH   5   6
ENDBRANCH   4   5
ENDBRANCH   3   4
ENDBRANCH   2   3
ENDBRANCH   1   2
BRANCH   1  17
ATOM     17  C   UNL     1    -100.583 152.622 236.652  1.00  0.00     0.000 C 
BRANCH  17  18
ATOM     18  C   UNL     1    -101.322 151.882 235.518  1.00  0.00     0.000 C 
BRANCH  18  19
ATOM     19  C   UNL     1    -100.950 152.325 234.092  1.00  0.00     0.000 C 
BRANCH  19  20
ATOM     20  C   UNL     1    -101.667 153.594 233.591  1.00  0.00     0.000 C 
BRANCH  20  21
ATOM     21  C   UNL     1    -100.824 154.882 233.718  1.00  0.00     0.000 C 
BRANCH  21  22
ATOM     22  C   UNL     1     -99.369 154.685 233.264  1.00  0.00    -0.000 C 
BRANCH  22  23
ATOM     23  C   UNL     1     -98.394 155.416 234.195  1.00  0.00    -0.000 C 
BRANCH  23  24
ATOM     24  C   UNL     1     -97.306 154.459 234.706  1.00  0.00    -0.000 C 
BRANCH  24  25
ATOM     25  C   UNL     1     -97.577 152.998 234.314  1.00  0.00    -0.000 C 
BRANCH  25  26
ATOM     26  C   UNL     1     -96.288 152.158 234.253  1.00  0.00    -0.000 C 
BRANCH  26  27
ATOM     27  C   UNL     1     -96.407 150.978 233.263  1.00  0.00    -0.000 C 
BRANCH  27  28
ATOM     28  C   UNL     1     -97.859 150.541 232.992  1.00  0.00    -0.000 C 
BRANCH  28  29
ATOM     29  C   UNL     1     -98.058 149.023 232.851  1.00  0.00    -0.003 C 
ATOM     30  C   UNL     1     -96.795 148.300 232.385  1.00  0.00     0.004 C 
ENDBRANCH  28  29
ENDBRANCH  27  28
ENDBRANCH  26  27
ENDBRANCH  25  26
ENDBRANCH  24  25
ENDBRANCH  23  24
ENDBRANCH  22  23
ENDBRANCH  21  22
ENDBRANCH  20  21
ENDBRANCH  19  20
ENDBRANCH  18  19
ENDBRANCH  17  18
ENDBRANCH   1  17
TORSDOF 26
ENDMDL
MODEL 7
REMARK VINA RESULT:    -3.184      1.823      5.899
REMARK INTER + INTRA:         -13.162
REMARK INTER:                  -8.492
REMARK INTRA:                  -4.671
REMARK UNBOUND:                -5.138
REMARK SMILES CCCCCCCCCCCCCCCCCCCCCCCCCCCC(=O)[O-]
REMARK SMILES IDX 15 1 16 2 17 3 18 4 19 5 20 6 21 7 22 8 23 9 24 10 25 11
REMARK SMILES IDX 26 12 27 13 28 14 29 15 30 16 14 17 13 18 12 19 11 20 10 21
REMARK SMILES IDX 9 22 8 23 7 24 6 25 5 26 4 27 3 28 2 29 1 30
REMARK H PARENT
REMARK Flexibility Score: inf
ROOT
ATOM      1  C   UNL     1     -95.855 148.408 237.038  1.00  0.00     0.000 C 
ENDROOT
BRANCH   1   2
ATOM      2  C   UNL     1     -95.373 147.191 236.227  1.00  0.00     0.000 C 
BRANCH   2   3
ATOM      3  C   UNL     1     -93.845 147.028 236.267  1.00  0.00     0.000 C 
BRANCH   3   4
ATOM      4  C   UNL     1     -93.218 146.993 234.864  1.00  0.00     0.000 C 
BRANCH   4   5
ATOM      5  C   UNL     1     -94.245 147.378 233.791  1.00  0.00     0.000 C 
BRANCH   5   6
ATOM      6  C   UNL     1     -93.713 148.516 232.908  1.00  0.00     0.000 C 
BRANCH   6   7
ATOM      7  C   UNL     1     -94.808 149.509 232.488  1.00  0.00     0.000 C 
BRANCH   7   8
ATOM      8  C   UNL     1     -96.174 149.185 233.118  1.00  0.00     0.000 C 
BRANCH   8   9
ATOM      9  C   UNL     1     -96.658 150.287 234.075  1.00  0.00     0.000 C 
BRANCH   9  10
ATOM     10  C   UNL     1     -95.670 151.459 234.170  1.00  0.00     0.000 C 
BRANCH  10  11
ATOM     11  C   UNL     1     -96.401 152.804 234.056  1.00  0.00     0.000 C 
BRANCH  11  12
ATOM     12  C   UNL     1     -97.915 152.651 233.819  1.00  0.00     0.006 C 
BRANCH  12  13
ATOM     13  C   UNL     1     -98.762 153.773 234.443  1.00  0.00     0.053 C 
BRANCH  13  14
ATOM     14  C   UNL     1     -98.391 155.130 233.925  1.00  0.00     0.041 C 
ATOM     15  O   UNL     1     -98.486 155.386 232.695  1.00  0.00    -0.550 OA
ATOM     16  O   UNL     1     -97.909 156.103 234.793  1.00  0.00    -0.550 OA
ENDBRANCH  13  14
ENDBRANCH  12  13
ENDBRANCH  11  12
ENDBRANCH  10  11
ENDBRANCH   9  10
ENDBRANCH   8   9
ENDBRANCH   7   8
ENDBRANCH   6   7
ENDBRANCH   5   6
ENDBRANCH   4   5
ENDBRANCH   3   4
ENDBRANCH   2   3
ENDBRANCH   1   2
BRANCH   1  17
ATOM     17  C   UNL     1     -94.697 149.210 237.657  1.00  0.00     0.000 C 
BRANCH  17  18
ATOM     18  C   UNL     1     -94.615 149.165 239.197  1.00  0.00     0.000 C 
BRANCH  18  19
ATOM     19  C   UNL     1     -94.849 147.780 239.828  1.00  0.00     0.000 C 
BRANCH  19  20
ATOM     20  C   UNL     1     -96.019 147.705 240.828  1.00  0.00     0.000 C 
BRANCH  20  21
ATOM     21  C   UNL     1     -97.259 148.522 240.406  1.00  0.00     0.000 C 
BRANCH  21  22
ATOM     22  C   UNL     1     -97.401 149.835 241.191  1.00  0.00    -0.000 C 
BRANCH  22  23
ATOM     23  C   UNL     1     -98.067 150.922 240.340  1.00  0.00    -0.000 C 
BRANCH  23  24
ATOM     24  C   UNL     1     -99.016 150.300 239.304  1.00  0.00    -0.000 C 
BRANCH  24  25
ATOM     25  C   UNL     1     -99.561 151.336 238.309  1.00  0.00    -0.000 C 
BRANCH  25  26
ATOM     26  C   UNL     1     -99.078 151.079 236.870  1.00  0.00    -0.000 C 
BRANCH  26  27
ATOM     27  C   UNL     1     -99.278 149.609 236.441  1.00  0.00    -0.000 C 
BRANCH  27  28
ATOM     28  C   UNL     1    -100.450 149.404 235.462  1.00  0.00    -0.000 C 
BRANCH  28  29
ATOM     29  C   UNL     1    -100.057 148.795 234.106  1.00  0.00    -0.003 C 
ATOM     30  C   UNL     1    -100.183 149.789 232.951  1.00  0.00     0.004 C 
ENDBRANCH  28  29
ENDBRANCH  27  28
ENDBRANCH  26  27
ENDBRANCH  25  26
ENDBRANCH  24  25
ENDBRANCH  23  24
ENDBRANCH  22  23
ENDBRANCH  21  22
ENDBRANCH  20  21
ENDBRANCH  19  20
ENDBRANCH  18  19
ENDBRANCH  17  18
ENDBRANCH   1  17
TORSDOF 26
ENDMDL
MODEL 8
REMARK VINA RESULT:    -3.178      1.427      3.361
REMARK INTER + INTRA:         -13.146
REMARK INTER:                  -8.348
REMARK INTRA:                  -4.798
REMARK UNBOUND:                -5.138
REMARK SMILES CCCCCCCCCCCCCCCCCCCCCCCCCCCC(=O)[O-]
REMARK SMILES IDX 15 1 16 2 17 3 18 4 19 5 20 6 21 7 22 8 23 9 24 10 25 11
REMARK SMILES IDX 26 12 27 13 28 14 29 15 30 16 14 17 13 18 12 19 11 20 10 21
REMARK SMILES IDX 9 22 8 23 7 24 6 25 5 26 4 27 3 28 2 29 1 30
REMARK H PARENT
REMARK Flexibility Score: inf
ROOT
ATOM      1  C   UNL     1     -96.497 150.606 240.386  1.00  0.00     0.000 C 
ENDROOT
BRANCH   1   2
ATOM      2  C   UNL     1     -97.996 150.933 240.260  1.00  0.00     0.000 C 
BRANCH   2   3
ATOM      3  C   UNL     1     -98.889 149.726 240.593  1.00  0.00     0.000 C 
BRANCH   3   4
ATOM      4  C   UNL     1    -100.375 149.996 240.311  1.00  0.00     0.000 C 
BRANCH   4   5
ATOM      5  C   UNL     1    -100.992 148.869 239.474  1.00  0.00     0.000 C 
BRANCH   5   6
ATOM      6  C   UNL     1     -99.898 147.984 238.859  1.00  0.00     0.000 C 
BRANCH   6   7
ATOM      7  C   UNL     1     -99.719 148.216 237.351  1.00  0.00     0.000 C 
BRANCH   7   8
ATOM      8  C   UNL     1     -98.313 148.729 236.994  1.00  0.00     0.000 C 
BRANCH   8   9
ATOM      9  C   UNL     1     -98.317 150.201 236.551  1.00  0.00     0.000 C 
BRANCH   9  10
ATOM     10  C   UNL     1     -99.734 150.794 236.493  1.00  0.00     0.000 C 
BRANCH  10  11
ATOM     11  C   UNL     1     -99.814 152.103 237.292  1.00  0.00     0.000 C 
BRANCH  11  12
ATOM     12  C   UNL     1    -101.204 152.763 237.232  1.00  0.00     0.006 C 
BRANCH  12  13
ATOM     13  C   UNL     1    -101.639 153.175 235.815  1.00  0.00     0.053 C 
BRANCH  13  14
ATOM     14  C   UNL     1    -101.920 154.643 235.702  1.00  0.00     0.041 C 
ATOM     15  O   UNL     1    -102.957 155.045 235.109  1.00  0.00    -0.550 OA
ATOM     16  O   UNL     1    -101.023 155.569 236.220  1.00  0.00    -0.550 OA
ENDBRANCH  13  14
ENDBRANCH  12  13
ENDBRANCH  11  12
ENDBRANCH  10  11
ENDBRANCH   9  10
ENDBRANCH   8   9
ENDBRANCH   7   8
ENDBRANCH   6   7
ENDBRANCH   5   6
ENDBRANCH   4   5
ENDBRANCH   3   4
ENDBRANCH   2   3
ENDBRANCH   1   2
BRANCH   1  17
ATOM     17  C   UNL     1     -96.127 149.247 239.767  1.00  0.00     0.000 C 
BRANCH  17  18
ATOM     18  C   UNL     1     -94.645 149.088 239.369  1.00  0.00     0.000 C 
BRANCH  18  19
ATOM     19  C   UNL     1     -94.372 149.040 237.854  1.00  0.00     0.000 C 
BRANCH  19  20
ATOM     20  C   UNL     1     -93.962 147.660 237.305  1.00  0.00     0.000 C 
BRANCH  20  21
ATOM     21  C   UNL     1     -94.252 147.472 235.800  1.00  0.00     0.000 C 
BRANCH  21  22
ATOM     22  C   UNL     1     -95.090 148.617 235.210  1.00  0.00    -0.000 C 
BRANCH  22  23
ATOM     23  C   UNL     1     -94.875 148.739 233.697  1.00  0.00    -0.000 C 
BRANCH  23  24
ATOM     24  C   UNL     1     -95.519 150.025 233.156  1.00  0.00    -0.000 C 
BRANCH  24  25
ATOM     25  C   UNL     1     -95.764 151.068 234.258  1.00  0.00    -0.000 C 
BRANCH  25  26
ATOM     26  C   UNL     1     -96.015 152.476 233.689  1.00  0.00    -0.000 C 
BRANCH  26  27
ATOM     27  C   UNL     1     -97.334 152.556 232.888  1.00  0.00    -0.000 C 
BRANCH  27  28
ATOM     28  C   UNL     1     -98.521 153.100 233.705  1.00  0.00    -0.000 C 
BRANCH  28  29
ATOM     29  C   UNL     1     -98.130 154.009 234.882  1.00  0.00    -0.003 C 
ATOM     30  C   UNL     1     -97.766 155.427 234.441  1.00  0.00     0.004 C 
ENDBRANCH  28  29
ENDBRANCH  27  28
ENDBRANCH  26  27
ENDBRANCH  25  26
ENDBRANCH  24  25
ENDBRANCH  23  24
ENDBRANCH  22  23
ENDBRANCH  21  22
ENDBRANCH  20  21
ENDBRANCH  19  20
ENDBRANCH  18  19
ENDBRANCH  17  18
ENDBRANCH   1  17
TORSDOF 26
ENDMDL
MODEL 9
REMARK VINA RESULT:    -3.163      2.114      6.889
REMARK INTER + INTRA:         -13.109
REMARK INTER:                  -8.882
REMARK INTRA:                  -4.227
REMARK UNBOUND:                -5.138
REMARK SMILES CCCCCCCCCCCCCCCCCCCCCCCCCCCC(=O)[O-]
REMARK SMILES IDX 15 1 16 2 17 3 18 4 19 5 20 6 21 7 22 8 23 9 24 10 25 11
REMARK SMILES IDX 26 12 27 13 28 14 29 15 30 16 14 17 13 18 12 19 11 20 10 21
REMARK SMILES IDX 9 22 8 23 7 24 6 25 5 26 4 27 3 28 2 29 1 30
REMARK H PARENT
REMARK Flexibility Score: inf
ROOT
ATOM      1  C   UNL     1     -98.790 150.260 235.775  1.00  0.00     0.000 C 
ENDROOT
BRANCH   1   2
ATOM      2  C   UNL     1     -98.786 149.335 234.545  1.00  0.00     0.000 C 
BRANCH   2   3
ATOM      3  C   UNL     1     -99.226 150.063 233.264  1.00  0.00     0.000 C 
BRANCH   3   4
ATOM      4  C   UNL     1     -98.076 150.242 232.261  1.00  0.00     0.000 C 
BRANCH   4   5
ATOM      5  C   UNL     1     -96.849 149.421 232.676  1.00  0.00     0.000 C 
BRANCH   5   6
ATOM      6  C   UNL     1     -95.639 150.334 232.925  1.00  0.00     0.000 C 
BRANCH   6   7
ATOM      7  C   UNL     1     -96.000 151.827 232.892  1.00  0.00     0.000 C 
BRANCH   7   8
ATOM      8  C   UNL     1     -96.116 152.439 234.300  1.00  0.00     0.000 C 
BRANCH   8   9
ATOM      9  C   UNL     1     -96.978 153.712 234.320  1.00  0.00     0.000 C 
BRANCH   9  10
ATOM     10  C   UNL     1     -98.012 153.741 233.184  1.00  0.00     0.000 C 
BRANCH  10  11
ATOM     11  C   UNL     1     -99.410 154.077 233.723  1.00  0.00     0.000 C 
BRANCH  11  12
ATOM     12  C   UNL     1     -99.594 153.698 235.204  1.00  0.00     0.006 C 
BRANCH  12  13
ATOM     13  C   UNL     1    -100.852 154.303 235.851  1.00  0.00     0.053 C 
BRANCH  13  14
ATOM     14  C   UNL     1    -101.914 153.278 236.112  1.00  0.00     0.041 C 
ATOM     15  O   UNL     1    -102.851 153.528 236.916  1.00  0.00    -0.550 OA
ATOM     16  O   UNL     1    -101.854 152.035 235.495  1.00  0.00    -0.550 OA
ENDBRANCH  13  14
ENDBRANCH  12  13
ENDBRANCH  11  12
ENDBRANCH  10  11
ENDBRANCH   9  10
ENDBRANCH   8   9
ENDBRANCH   7   8
ENDBRANCH   6   7
ENDBRANCH   5   6
ENDBRANCH   4   5
ENDBRANCH   3   4
ENDBRANCH   2   3
ENDBRANCH   1   2
BRANCH   1  17
ATOM     17  C   UNL     1     -97.850 149.773 236.892  1.00  0.00     0.000 C 
BRANCH  17  18
ATOM     18  C   UNL     1     -96.728 148.815 236.436  1.00  0.00     0.000 C 
BRANCH  18  19
ATOM     19  C   UNL     1     -95.305 149.401 236.481  1.00  0.00     0.000 C 
BRANCH  19  20
ATOM     20  C   UNL     1     -94.336 148.694 237.448  1.00  0.00     0.000 C 
BRANCH  20  21
ATOM     21  C   UNL     1     -94.455 149.169 238.913  1.00  0.00     0.000 C 
BRANCH  21  22
ATOM     22  C   UNL     1     -95.164 148.145 239.813  1.00  0.00    -0.000 C 
BRANCH  22  23
ATOM     23  C   UNL     1     -96.502 148.690 240.325  1.00  0.00    -0.000 C 
BRANCH  23  24
ATOM     24  C   UNL     1     -96.478 150.224 240.391  1.00  0.00    -0.000 C 
BRANCH  24  25
ATOM     25  C   UNL     1     -97.886 150.830 240.502  1.00  0.00    -0.000 C 
BRANCH  25  26
ATOM     26  C   UNL     1     -98.812 150.002 241.411  1.00  0.00    -0.000 C 
BRANCH  26  27
ATOM     27  C   UNL     1     -98.442 150.141 242.904  1.00  0.00    -0.000 C 
BRANCH  27  28
ATOM     28  C   UNL     1     -99.450 150.977 243.716  1.00  0.00    -0.000 C 
BRANCH  28  29
ATOM     29  C   UNL     1     -98.831 151.798 244.859  1.00  0.00    -0.003 C 
ATOM     30  C   UNL     1     -99.730 152.945 245.320  1.00  0.00     0.004 C 
ENDBRANCH  28  29
ENDBRANCH  27  28
ENDBRANCH  26  27
ENDBRANCH  25  26
ENDBRANCH  24  25
ENDBRANCH  23  24
ENDBRANCH  22  23
ENDBRANCH  21  22
ENDBRANCH  20  21
ENDBRANCH  19  20
ENDBRANCH  18  19
ENDBRANCH  17  18
ENDBRANCH   1  17
TORSDOF 26
ENDMDL
