MODEL 1
REMARK VINA RESULT:    -4.760      0.000      0.000
REMARK INTER + INTRA:          -9.926
REMARK INTER:                  -9.213
REMARK INTRA:                  -0.713
REMARK UNBOUND:                -0.713
REMARK SMILES CCCCCCCCCCCCCCCCCC(=O)[O-]
REMARK SMILES IDX 10 1 11 2 12 3 13 4 14 5 15 6 16 7 17 8 18 9 19 10 20 11
REMARK SMILES IDX 9 12 8 13 7 14 6 15 5 16 4 17 3 18 2 19 1 20
REMARK H PARENT
REMARK Flexibility Score: inf
ROOT
ATOM      1  C   UNL     1       4.173   9.379  16.058  1.00  0.00     0.000 C 
ENDROOT
BRANCH   1   2
ATOM      2  C   UNL     1       2.748   9.685  15.575  1.00  0.00     0.000 C 
BRANCH   2   3
ATOM      3  C   UNL     1       1.976   8.388  15.286  1.00  0.00     0.000 C 
BRANCH   3   4
ATOM      4  C   UNL     1       0.611   8.340  15.990  1.00  0.00     0.000 C 
BRANCH   4   5
ATOM      5  C   UNL     1       0.488   9.375  17.117  1.00  0.00     0.000 C 
BRANCH   5   6
ATOM      6  C   UNL     1      -0.907   9.333  17.752  1.00  0.00     0.000 C 
BRANCH   6   7
ATOM      7  C   UNL     1      -1.223  10.650  18.476  1.00  0.00     0.006 C 
BRANCH   7   8
ATOM      8  C   UNL     1      -1.020  10.542  19.993  1.00  0.00     0.053 C 
BRANCH   8   9
ATOM      9  C   UNL     1      -2.000   9.598  20.621  1.00  0.00     0.041 C 
ATOM     10  O   UNL     1      -1.647   8.865  21.581  1.00  0.00    -0.550 OA
ATOM     11  O   UNL     1      -3.293   9.505  20.122  1.00  0.00    -0.550 OA
ENDBRANCH   8   9
ENDBRANCH   7   8
ENDBRANCH   6   7
ENDBRANCH   5   6
ENDBRANCH   4   5
ENDBRANCH   3   4
ENDBRANCH   2   3
ENDBRANCH   1   2
BRANCH   1  12
ATOM     12  C   UNL     1       5.253  10.121  15.250  1.00  0.00     0.000 C 
BRANCH  12  13
ATOM     13  C   UNL     1       6.222  10.973  16.089  1.00  0.00    -0.000 C 
BRANCH  13  14
ATOM     14  C   UNL     1       7.330  11.626  15.249  1.00  0.00    -0.000 C 
BRANCH  14  15
ATOM     15  C   UNL     1       8.719  11.202  15.751  1.00  0.00    -0.000 C 
BRANCH  15  16
ATOM     16  C   UNL     1       8.667  10.489  17.112  1.00  0.00    -0.000 C 
BRANCH  16  17
ATOM     17  C   UNL     1       9.247  11.345  18.252  1.00  0.00    -0.000 C 
BRANCH  17  18
ATOM     18  C   UNL     1       8.846  12.825  18.139  1.00  0.00    -0.000 C 
BRANCH  18  19
ATOM     19  C   UNL     1       9.431  13.684  19.271  1.00  0.00    -0.003 C 
ATOM     20  C   UNL     1       8.473  14.808  19.657  1.00  0.00     0.004 C 
ENDBRANCH  18  19
ENDBRANCH  17  18
ENDBRANCH  16  17
ENDBRANCH  15  16
ENDBRANCH  14  15
ENDBRANCH  13  14
ENDBRANCH  12  13
ENDBRANCH   1  12
TORSDOF 16
ENDMDL
MODEL 2
REMARK VINA RESULT:    -4.740     14.843     18.627
REMARK INTER + INTRA:          -9.886
REMARK INTER:                  -9.160
REMARK INTRA:                  -0.726
REMARK UNBOUND:                -0.713
REMARK SMILES CCCCCCCCCCCCCCCCCC(=O)[O-]
REMARK SMILES IDX 10 1 11 2 12 3 13 4 14 5 15 6 16 7 17 8 18 9 19 10 20 11
REMARK SMILES IDX 9 12 8 13 7 14 6 15 5 16 4 17 3 18 2 19 1 20
REMARK H PARENT
REMARK Flexibility Score: inf
ROOT
ATOM      1  C   UNL     1       2.589  20.244  32.467  1.00  0.00     0.000 C 
ENDROOT
BRANCH   1   2
ATOM      2  C   UNL     1       3.677  19.692  33.400  1.00  0.00     0.000 C 
BRANCH   2   3
ATOM      3  C   UNL     1       3.175  18.451  34.154  1.00  0.00     0.000 C 
BRANCH   3   4
ATOM      4  C   UNL     1       4.313  17.665  34.826  1.00  0.00     0.000 C 
BRANCH   4   5
ATOM      5  C   UNL     1       5.588  18.502  35.004  1.00  0.00     0.000 C 
BRANCH   5   6
ATOM      6  C   UNL     1       6.696  18.021  34.059  1.00  0.00     0.000 C 
BRANCH   6   7
ATOM      7  C   UNL     1       6.603  16.505  33.828  1.00  0.00     0.006 C 
BRANCH   7   8
ATOM      8  C   UNL     1       6.212  16.162  32.385  1.00  0.00     0.053 C 
BRANCH   8   9
ATOM      9  C   UNL     1       7.389  15.698  31.583  1.00  0.00     0.041 C 
ATOM     10  O   UNL     1       7.392  14.548  31.068  1.00  0.00    -0.550 OA
ATOM     11  O   UNL     1       8.497  16.522  31.433  1.00  0.00    -0.550 OA
ENDBRANCH   8   9
ENDBRANCH   7   8
ENDBRANCH   6   7
ENDBRANCH   5   6
ENDBRANCH   4   5
ENDBRANCH   3   4
ENDBRANCH   2   3
ENDBRANCH   1   2
BRANCH   1  12
ATOM     12  C   UNL     1       1.163  19.948  32.967  1.00  0.00     0.000 C 
BRANCH  12  13
ATOM     13  C   UNL     1       0.256  21.183  33.112  1.00  0.00    -0.000 C 
BRANCH  13  14
ATOM     14  C   UNL     1      -0.501  21.526  31.820  1.00  0.00    -0.000 C 
BRANCH  14  15
ATOM     15  C   UNL     1      -0.809  20.256  31.013  1.00  0.00    -0.000 C 
BRANCH  15  16
ATOM     16  C   UNL     1      -1.421  20.560  29.636  1.00  0.00    -0.000 C 
BRANCH  16  17
ATOM     17  C   UNL     1      -1.652  19.290  28.798  1.00  0.00    -0.000 C 
BRANCH  17  18
ATOM     18  C   UNL     1      -2.848  19.424  27.841  1.00  0.00    -0.000 C 
BRANCH  18  19
ATOM     19  C   UNL     1      -2.734  20.647  26.919  1.00  0.00    -0.003 C 
ATOM     20  C   UNL     1      -1.370  20.695  26.236  1.00  0.00     0.004 C 
ENDBRANCH  18  19
ENDBRANCH  17  18
ENDBRANCH  16  17
ENDBRANCH  15  16
ENDBRANCH  14  15
ENDBRANCH  13  14
ENDBRANCH  12  13
ENDBRANCH   1  12
TORSDOF 16
ENDMDL
MODEL 3
REMARK VINA RESULT:    -4.692     14.243     17.197
REMARK INTER + INTRA:          -9.794
REMARK INTER:                  -8.630
REMARK INTRA:                  -1.164
REMARK UNBOUND:                -0.713
REMARK SMILES CCCCCCCCCCCCCCCCCC(=O)[O-]
REMARK SMILES IDX 10 1 11 2 12 3 13 4 14 5 15 6 16 7 17 8 18 9 19 10 20 11
REMARK SMILES IDX 9 12 8 13 7 14 6 15 5 16 4 17 3 18 2 19 1 20
REMARK H PARENT
REMARK Flexibility Score: inf
ROOT
ATOM      1  C   UNL     1       3.299  19.319  32.717  1.00  0.00     0.000 C 
ENDROOT
BRANCH   1   2
ATOM      2  C   UNL     1       1.965  19.817  32.143  1.00  0.00     0.000 C 
BRANCH   2   3
ATOM      3  C   UNL     1       1.234  20.715  33.153  1.00  0.00     0.000 C 
BRANCH   3   4
ATOM      4  C   UNL     1      -0.208  21.033  32.730  1.00  0.00     0.000 C 
BRANCH   4   5
ATOM      5  C   UNL     1      -0.360  21.190  31.210  1.00  0.00     0.000 C 
BRANCH   5   6
ATOM      6  C   UNL     1      -1.252  20.086  30.630  1.00  0.00     0.000 C 
BRANCH   6   7
ATOM      7  C   UNL     1      -1.254  20.129  29.095  1.00  0.00     0.006 C 
BRANCH   7   8
ATOM      8  C   UNL     1      -2.275  19.157  28.488  1.00  0.00     0.053 C 
BRANCH   8   9
ATOM      9  C   UNL     1      -2.711  19.587  27.121  1.00  0.00     0.041 C 
ATOM     10  O   UNL     1      -2.315  20.684  26.646  1.00  0.00    -0.550 OA
ATOM     11  O   UNL     1      -3.582  18.793  26.387  1.00  0.00    -0.550 OA
ENDBRANCH   8   9
ENDBRANCH   7   8
ENDBRANCH   6   7
ENDBRANCH   5   6
ENDBRANCH   4   5
ENDBRANCH   3   4
ENDBRANCH   2   3
ENDBRANCH   1   2
BRANCH   1  12
ATOM     12  C   UNL     1       3.720  20.068  33.995  1.00  0.00     0.000 C 
BRANCH  12  13
ATOM     13  C   UNL     1       4.281  19.175  35.116  1.00  0.00    -0.000 C 
BRANCH  13  14
ATOM     14  C   UNL     1       4.196  17.676  34.789  1.00  0.00    -0.000 C 
BRANCH  14  15
ATOM     15  C   UNL     1       5.581  17.017  34.880  1.00  0.00    -0.000 C 
BRANCH  15  16
ATOM     16  C   UNL     1       6.706  17.923  34.356  1.00  0.00    -0.000 C 
BRANCH  16  17
ATOM     17  C   UNL     1       6.968  17.731  32.851  1.00  0.00    -0.000 C 
BRANCH  17  18
ATOM     18  C   UNL     1       6.708  16.288  32.387  1.00  0.00    -0.000 C 
BRANCH  18  19
ATOM     19  C   UNL     1       7.783  15.776  31.417  1.00  0.00    -0.003 C 
ATOM     20  C   UNL     1       7.441  14.378  30.908  1.00  0.00     0.004 C 
ENDBRANCH  18  19
ENDBRANCH  17  18
ENDBRANCH  16  17
ENDBRANCH  15  16
ENDBRANCH  14  15
ENDBRANCH  13  14
ENDBRANCH  12  13
ENDBRANCH   1  12
TORSDOF 16
ENDMDL
MODEL 4
REMARK VINA RESULT:    -4.644     15.181     18.685
REMARK INTER + INTRA:          -9.701
REMARK INTER:                  -8.841
REMARK INTRA:                  -0.860
REMARK UNBOUND:                -0.713
REMARK SMILES CCCCCCCCCCCCCCCCCC(=O)[O-]
REMARK SMILES IDX 10 1 11 2 12 3 13 4 14 5 15 6 16 7 17 8 18 9 19 10 20 11
REMARK SMILES IDX 9 12 8 13 7 14 6 15 5 16 4 17 3 18 2 19 1 20
REMARK H PARENT
REMARK Flexibility Score: inf
ROOT
ATOM      1  C   UNL     1       0.300  21.100  34.033  1.00  0.00     0.000 C 
ENDROOT
BRANCH   1   2
ATOM      2  C   UNL     1       1.717  20.943  34.605  1.00  0.00     0.000 C 
BRANCH   2   3
ATOM      3  C   UNL     1       2.652  20.283  33.581  1.00  0.00     0.000 C 
BRANCH   3   4
ATOM      4  C   UNL     1       2.362  18.786  33.391  1.00  0.00     0.000 C 
BRANCH   4   5
ATOM      5  C   UNL     1       2.415  17.999  34.708  1.00  0.00     0.000 C 
BRANCH   5   6
ATOM      6  C   UNL     1       3.825  17.454  34.966  1.00  0.00     0.000 C 
BRANCH   6   7
ATOM      7  C   UNL     1       4.660  17.453  33.676  1.00  0.00     0.006 C 
BRANCH   7   8
ATOM      8  C   UNL     1       5.922  16.590  33.802  1.00  0.00     0.053 C 
BRANCH   8   9
ATOM      9  C   UNL     1       6.888  16.849  32.687  1.00  0.00     0.041 C 
ATOM     10  O   UNL     1       7.234  15.914  31.919  1.00  0.00    -0.550 OA
ATOM     11  O   UNL     1       7.433  18.116  32.519  1.00  0.00    -0.550 OA
ENDBRANCH   8   9
ENDBRANCH   7   8
ENDBRANCH   6   7
ENDBRANCH   5   6
ENDBRANCH   4   5
ENDBRANCH   3   4
ENDBRANCH   2   3
ENDBRANCH   1   2
BRANCH   1  12
ATOM     12  C   UNL     1       0.282  21.785  32.654  1.00  0.00     0.000 C 
BRANCH  12  13
ATOM     13  C   UNL     1      -0.879  21.365  31.735  1.00  0.00    -0.000 C 
BRANCH  13  14
ATOM     14  C   UNL     1      -0.486  20.266  30.735  1.00  0.00    -0.000 C 
BRANCH  14  15
ATOM     15  C   UNL     1      -1.276  20.411  29.426  1.00  0.00    -0.000 C 
BRANCH  15  16
ATOM     16  C   UNL     1      -1.606  19.057  28.777  1.00  0.00    -0.000 C 
BRANCH  16  17
ATOM     17  C   UNL     1      -2.949  19.072  28.026  1.00  0.00    -0.000 C 
BRANCH  17  18
ATOM     18  C   UNL     1      -2.799  19.506  26.559  1.00  0.00    -0.000 C 
BRANCH  18  19
ATOM     19  C   UNL     1      -2.641  21.026  26.405  1.00  0.00    -0.003 C 
ATOM     20  C   UNL     1      -1.296  21.377  25.774  1.00  0.00     0.004 C 
ENDBRANCH  18  19
ENDBRANCH  17  18
ENDBRANCH  16  17
ENDBRANCH  15  16
ENDBRANCH  14  15
ENDBRANCH  13  14
ENDBRANCH  12  13
ENDBRANCH   1  12
TORSDOF 16
ENDMDL
MODEL 5
REMARK VINA RESULT:    -4.495      4.010      9.191
REMARK INTER + INTRA:          -9.413
REMARK INTER:                  -8.500
REMARK INTRA:                  -0.913
REMARK UNBOUND:                -0.713
REMARK SMILES CCCCCCCCCCCCCCCCCC(=O)[O-]
REMARK SMILES IDX 10 1 11 2 12 3 13 4 14 5 15 6 16 7 17 8 18 9 19 10 20 11
REMARK SMILES IDX 9 12 8 13 7 14 6 15 5 16 4 17 3 18 2 19 1 20
REMARK H PARENT
REMARK Flexibility Score: inf
ROOT
ATOM      1  C   UNL     1       4.291   9.720  16.424  1.00  0.00     0.000 C 
ENDROOT
BRANCH   1   2
ATOM      2  C   UNL     1       4.734   9.891  14.963  1.00  0.00     0.000 C 
BRANCH   2   3
ATOM      3  C   UNL     1       6.030  10.713  14.876  1.00  0.00     0.000 C 
BRANCH   3   4
ATOM      4  C   UNL     1       7.292   9.847  15.018  1.00  0.00     0.000 C 
BRANCH   4   5
ATOM      5  C   UNL     1       8.587  10.667  14.928  1.00  0.00     0.000 C 
BRANCH   5   6
ATOM      6  C   UNL     1       8.509  11.916  15.815  1.00  0.00     0.000 C 
BRANCH   6   7
ATOM      7  C   UNL     1       8.770  11.562  17.287  1.00  0.00     0.006 C 
BRANCH   7   8
ATOM      8  C   UNL     1       8.042  12.511  18.249  1.00  0.00     0.053 C 
BRANCH   8   9
ATOM      9  C   UNL     1       8.991  13.443  18.937  1.00  0.00     0.041 C 
ATOM     10  O   UNL     1      10.226  13.201  18.942  1.00  0.00    -0.550 OA
ATOM     11  O   UNL     1       8.506  14.563  19.602  1.00  0.00    -0.550 OA
ENDBRANCH   8   9
ENDBRANCH   7   8
ENDBRANCH   6   7
ENDBRANCH   5   6
ENDBRANCH   4   5
ENDBRANCH   3   4
ENDBRANCH   2   3
ENDBRANCH   1   2
BRANCH   1  12
ATOM     12  C   UNL     1       2.794   9.384  16.562  1.00  0.00     0.000 C 
BRANCH  12  13
ATOM     13  C   UNL     1       2.077   9.058  15.239  1.00  0.00    -0.000 C 
BRANCH  13  14
ATOM     14  C   UNL     1       0.724   8.360  15.447  1.00  0.00    -0.000 C 
BRANCH  14  15
ATOM     15  C   UNL     1       0.266   8.479  16.909  1.00  0.00    -0.000 C 
BRANCH  15  16
ATOM     16  C   UNL     1      -0.639   9.697  17.151  1.00  0.00    -0.000 C 
BRANCH  16  17
ATOM     17  C   UNL     1      -0.774  10.045  18.644  1.00  0.00    -0.000 C 
BRANCH  17  18
ATOM     18  C   UNL     1      -2.173  10.575  19.002  1.00  0.00    -0.000 C 
BRANCH  18  19
ATOM     19  C   UNL     1      -2.801   9.831  20.191  1.00  0.00    -0.003 C 
ATOM     20  C   UNL     1      -1.730   9.364  21.173  1.00  0.00     0.004 C 
ENDBRANCH  18  19
ENDBRANCH  17  18
ENDBRANCH  16  17
ENDBRANCH  15  16
ENDBRANCH  14  15
ENDBRANCH  13  14
ENDBRANCH  12  13
ENDBRANCH   1  12
TORSDOF 16
ENDMDL
MODEL 6
REMARK VINA RESULT:    -4.409     14.824     17.696
REMARK INTER + INTRA:          -9.247
REMARK INTER:                  -8.412
REMARK INTRA:                  -0.835
REMARK UNBOUND:                -0.713
REMARK SMILES CCCCCCCCCCCCCCCCCC(=O)[O-]
REMARK SMILES IDX 10 1 11 2 12 3 13 4 14 5 15 6 16 7 17 8 18 9 19 10 20 11
REMARK SMILES IDX 9 12 8 13 7 14 6 15 5 16 4 17 3 18 2 19 1 20
REMARK H PARENT
REMARK Flexibility Score: inf
ROOT
ATOM      1  C   UNL     1       1.304  21.048  33.657  1.00  0.00     0.000 C 
ENDROOT
BRANCH   1   2
ATOM      2  C   UNL     1       0.291  22.202  33.623  1.00  0.00     0.000 C 
BRANCH   2   3
ATOM      3  C   UNL     1      -0.615  22.101  32.386  1.00  0.00     0.000 C 
BRANCH   3   4
ATOM      4  C   UNL     1      -0.398  20.800  31.596  1.00  0.00     0.000 C 
BRANCH   4   5
ATOM      5  C   UNL     1      -1.225  20.745  30.304  1.00  0.00     0.000 C 
BRANCH   5   6
ATOM      6  C   UNL     1      -1.335  19.307  29.783  1.00  0.00     0.000 C 
BRANCH   6   7
ATOM      7  C   UNL     1      -1.296  19.273  28.248  1.00  0.00     0.006 C 
BRANCH   7   8
ATOM      8  C   UNL     1      -2.698  19.346  27.630  1.00  0.00     0.053 C 
BRANCH   8   9
ATOM      9  C   UNL     1      -2.952  20.671  26.979  1.00  0.00     0.041 C 
ATOM     10  O   UNL     1      -4.000  21.317  27.243  1.00  0.00    -0.550 OA
ATOM     11  O   UNL     1      -2.047  21.177  26.054  1.00  0.00    -0.550 OA
ENDBRANCH   8   9
ENDBRANCH   7   8
ENDBRANCH   6   7
ENDBRANCH   5   6
ENDBRANCH   4   5
ENDBRANCH   3   4
ENDBRANCH   2   3
ENDBRANCH   1   2
BRANCH   1  12
ATOM     12  C   UNL     1       1.415  20.388  35.043  1.00  0.00     0.000 C 
BRANCH  12  13
ATOM     13  C   UNL     1       1.766  18.889  35.022  1.00  0.00    -0.000 C 
BRANCH  13  14
ATOM     14  C   UNL     1       2.324  18.422  33.668  1.00  0.00    -0.000 C 
BRANCH  14  15
ATOM     15  C   UNL     1       3.785  18.864  33.498  1.00  0.00    -0.000 C 
BRANCH  15  16
ATOM     16  C   UNL     1       4.704  18.322  34.605  1.00  0.00    -0.000 C 
BRANCH  16  17
ATOM     17  C   UNL     1       6.190  18.342  34.204  1.00  0.00    -0.000 C 
BRANCH  17  18
ATOM     18  C   UNL     1       6.425  17.794  32.786  1.00  0.00    -0.000 C 
BRANCH  18  19
ATOM     19  C   UNL     1       6.427  16.259  32.738  1.00  0.00    -0.003 C 
ATOM     20  C   UNL     1       7.357  15.745  31.643  1.00  0.00     0.004 C 
ENDBRANCH  18  19
ENDBRANCH  17  18
ENDBRANCH  16  17
ENDBRANCH  15  16
ENDBRANCH  14  15
ENDBRANCH  13  14
ENDBRANCH  12  13
ENDBRANCH   1  12
TORSDOF 16
ENDMDL
MODEL 7
REMARK VINA RESULT:    -4.121      3.934      8.965
REMARK INTER + INTRA:          -8.688
REMARK INTER:                  -7.886
REMARK INTRA:                  -0.803
REMARK UNBOUND:                -0.713
REMARK SMILES CCCCCCCCCCCCCCCCCC(=O)[O-]
REMARK SMILES IDX 10 1 11 2 12 3 13 4 14 5 15 6 16 7 17 8 18 9 19 10 20 11
REMARK SMILES IDX 9 12 8 13 7 14 6 15 5 16 4 17 3 18 2 19 1 20
REMARK H PARENT
REMARK Flexibility Score: inf
ROOT
ATOM      1  C   UNL     1       8.080  12.783  18.138  1.00  0.00     0.000 C 
ENDROOT
BRANCH   1   2
ATOM      2  C   UNL     1       9.163  13.463  18.989  1.00  0.00     0.000 C 
BRANCH   2   3
ATOM      3  C   UNL     1       8.663  14.805  19.544  1.00  0.00     0.000 C 
BRANCH   3   4
ATOM      4  C   UNL     1       8.708  14.866  21.079  1.00  0.00     0.000 C 
BRANCH   4   5
ATOM      5  C   UNL     1       9.845  14.023  21.673  1.00  0.00     0.000 C 
BRANCH   5   6
ATOM      6  C   UNL     1      10.221  14.518  23.075  1.00  0.00     0.000 C 
BRANCH   6   7
ATOM      7  C   UNL     1       9.031  15.217  23.750  1.00  0.00     0.006 C 
BRANCH   7   8
ATOM      8  C   UNL     1       8.248  14.271  24.670  1.00  0.00     0.053 C 
BRANCH   8   9
ATOM      9  C   UNL     1       6.771  14.510  24.590  1.00  0.00     0.041 C 
ATOM     10  O   UNL     1       6.025  13.677  24.012  1.00  0.00    -0.550 OA
ATOM     11  O   UNL     1       6.225  15.670  25.125  1.00  0.00    -0.550 OA
ENDBRANCH   8   9
ENDBRANCH   7   8
ENDBRANCH   6   7
ENDBRANCH   5   6
ENDBRANCH   4   5
ENDBRANCH   3   4
ENDBRANCH   2   3
ENDBRANCH   1   2
BRANCH   1  12
ATOM     12  C   UNL     1       8.649  11.729  17.172  1.00  0.00     0.000 C 
BRANCH  12  13
ATOM     13  C   UNL     1       8.418  12.025  15.679  1.00  0.00    -0.000 C 
BRANCH  13  14
ATOM     14  C   UNL     1       6.992  11.691  15.214  1.00  0.00    -0.000 C 
BRANCH  14  15
ATOM     15  C   UNL     1       6.716  10.185  15.336  1.00  0.00    -0.000 C 
BRANCH  15  16
ATOM     16  C   UNL     1       5.502   9.873  16.226  1.00  0.00    -0.000 C 
BRANCH  16  17
ATOM     17  C   UNL     1       4.183   9.832  15.434  1.00  0.00    -0.000 C 
BRANCH  17  18
ATOM     18  C   UNL     1       2.961   9.587  16.335  1.00  0.00    -0.000 C 
BRANCH  18  19
ATOM     19  C   UNL     1       1.869   8.760  15.640  1.00  0.00    -0.003 C 
ATOM     20  C   UNL     1       0.535   8.888  16.371  1.00  0.00     0.004 C 
ENDBRANCH  18  19
ENDBRANCH  17  18
ENDBRANCH  16  17
ENDBRANCH  15  16
ENDBRANCH  14  15
ENDBRANCH  13  14
ENDBRANCH  12  13
ENDBRANCH   1  12
TORSDOF 16
ENDMDL
MODEL 8
REMARK VINA RESULT:    -4.092      2.200      3.352
REMARK INTER + INTRA:          -8.633
REMARK INTER:                  -7.682
REMARK INTRA:                  -0.951
REMARK UNBOUND:                -0.713
REMARK SMILES CCCCCCCCCCCCCCCCCC(=O)[O-]
REMARK SMILES IDX 10 1 11 2 12 3 13 4 14 5 15 6 16 7 17 8 18 9 19 10 20 11
REMARK SMILES IDX 9 12 8 13 7 14 6 15 5 16 4 17 3 18 2 19 1 20
REMARK H PARENT
REMARK Flexibility Score: inf
ROOT
ATOM      1  C   UNL     1       5.972  10.346  16.412  1.00  0.00     0.000 C 
ENDROOT
BRANCH   1   2
ATOM      2  C   UNL     1       5.059   9.564  15.457  1.00  0.00     0.000 C 
BRANCH   2   3
ATOM      3  C   UNL     1       3.651  10.178  15.417  1.00  0.00     0.000 C 
BRANCH   3   4
ATOM      4  C   UNL     1       2.644   9.409  16.286  1.00  0.00     0.000 C 
BRANCH   4   5
ATOM      5  C   UNL     1       1.630   8.611  15.454  1.00  0.00     0.000 C 
BRANCH   5   6
ATOM      6  C   UNL     1       0.329   8.390  16.235  1.00  0.00     0.000 C 
BRANCH   6   7
ATOM      7  C   UNL     1       0.138   9.477  17.304  1.00  0.00     0.006 C 
BRANCH   7   8
ATOM      8  C   UNL     1      -1.241   9.398  17.972  1.00  0.00     0.053 C 
BRANCH   8   9
ATOM      9  C   UNL     1      -1.453  10.514  18.948  1.00  0.00     0.041 C 
ATOM     10  O   UNL     1      -0.497  11.272  19.261  1.00  0.00    -0.550 OA
ATOM     11  O   UNL     1      -2.697  10.695  19.538  1.00  0.00    -0.550 OA
ENDBRANCH   8   9
ENDBRANCH   7   8
ENDBRANCH   6   7
ENDBRANCH   5   6
ENDBRANCH   4   5
ENDBRANCH   3   4
ENDBRANCH   2   3
ENDBRANCH   1   2
BRANCH   1  12
ATOM     12  C   UNL     1       6.682  11.530  15.730  1.00  0.00     0.000 C 
BRANCH  12  13
ATOM     13  C   UNL     1       8.218  11.445  15.714  1.00  0.00    -0.000 C 
BRANCH  13  14
ATOM     14  C   UNL     1       8.741  10.147  15.080  1.00  0.00    -0.000 C 
BRANCH  14  15
ATOM     15  C   UNL     1       9.711   9.426  16.029  1.00  0.00    -0.000 C 
BRANCH  15  16
ATOM     16  C   UNL     1       9.649   9.967  17.466  1.00  0.00    -0.000 C 
BRANCH  16  17
ATOM     17  C   UNL     1      10.730   9.356  18.375  1.00  0.00    -0.000 C 
BRANCH  17  18
ATOM     18  C   UNL     1      11.718   8.468  17.601  1.00  0.00    -0.000 C 
BRANCH  18  19
ATOM     19  C   UNL     1      13.007   8.190  18.390  1.00  0.00    -0.003 C 
ATOM     20  C   UNL     1      12.694   7.595  19.760  1.00  0.00     0.004 C 
ENDBRANCH  18  19
ENDBRANCH  17  18
ENDBRANCH  16  17
ENDBRANCH  15  16
ENDBRANCH  14  15
ENDBRANCH  13  14
ENDBRANCH  12  13
ENDBRANCH   1  12
TORSDOF 16
ENDMDL
MODEL 9
REMARK VINA RESULT:    -3.933      4.853     10.162
REMARK INTER + INTRA:          -8.326
REMARK INTER:                  -7.940
REMARK INTRA:                  -0.386
REMARK UNBOUND:                -0.713
REMARK SMILES CCCCCCCCCCCCCCCCCC(=O)[O-]
REMARK SMILES IDX 10 1 11 2 12 3 13 4 14 5 15 6 16 7 17 8 18 9 19 10 20 11
REMARK SMILES IDX 9 12 8 13 7 14 6 15 5 16 4 17 3 18 2 19 1 20
REMARK H PARENT
REMARK Flexibility Score: inf
ROOT
ATOM      1  C   UNL     1       4.472   9.400  15.947  1.00  0.00     0.000 C 
ENDROOT
BRANCH   1   2
ATOM      2  C   UNL     1       5.337  10.668  15.959  1.00  0.00     0.000 C 
BRANCH   2   3
ATOM      3  C   UNL     1       6.570  10.484  16.857  1.00  0.00     0.000 C 
BRANCH   3   4
ATOM      4  C   UNL     1       7.884  10.450  16.062  1.00  0.00     0.000 C 
BRANCH   4   5
ATOM      5  C   UNL     1       9.121  10.640  16.951  1.00  0.00     0.000 C 
BRANCH   5   6
ATOM      6  C   UNL     1       9.967   9.362  16.997  1.00  0.00     0.000 C 
BRANCH   6   7
ATOM      7  C   UNL     1      10.728   9.252  18.327  1.00  0.00     0.006 C 
BRANCH   7   8
ATOM      8  C   UNL     1      12.081   8.547  18.165  1.00  0.00     0.053 C 
BRANCH   8   9
ATOM      9  C   UNL     1      12.427   7.722  19.366  1.00  0.00     0.041 C 
ATOM     10  O   UNL     1      13.580   7.230  19.485  1.00  0.00    -0.550 OA
ATOM     11  O   UNL     1      11.466   7.469  20.337  1.00  0.00    -0.550 OA
ENDBRANCH   8   9
ENDBRANCH   7   8
ENDBRANCH   6   7
ENDBRANCH   5   6
ENDBRANCH   4   5
ENDBRANCH   3   4
ENDBRANCH   2   3
ENDBRANCH   1   2
BRANCH   1  12
ATOM     12  C   UNL     1       2.969   9.699  15.800  1.00  0.00     0.000 C 
BRANCH  12  13
ATOM     13  C   UNL     1       2.140   8.565  15.170  1.00  0.00    -0.000 C 
BRANCH  13  14
ATOM     14  C   UNL     1       0.786   8.355  15.864  1.00  0.00    -0.000 C 
BRANCH  14  15
ATOM     15  C   UNL     1       0.588   9.374  16.997  1.00  0.00    -0.000 C 
BRANCH  15  16
ATOM     16  C   UNL     1      -0.814   9.303  17.623  1.00  0.00    -0.000 C 
BRANCH  16  17
ATOM     17  C   UNL     1      -1.146  10.543  18.472  1.00  0.00    -0.000 C 
BRANCH  17  18
ATOM     18  C   UNL     1      -0.948  10.297  19.977  1.00  0.00    -0.000 C 
BRANCH  18  19
ATOM     19  C   UNL     1      -2.206   9.731  20.654  1.00  0.00    -0.003 C 
ATOM     20  C   UNL     1      -3.397   9.747  19.700  1.00  0.00     0.004 C 
ENDBRANCH  18  19
ENDBRANCH  17  18
ENDBRANCH  16  17
ENDBRANCH  15  16
ENDBRANCH  14  15
ENDBRANCH  13  14
ENDBRANCH  12  13
ENDBRANCH   1  12
TORSDOF 16
ENDMDL
