MODEL 1
REMARK VINA RESULT:    -3.791      0.000      0.000
REMARK INTER + INTRA:         -13.664
REMARK INTER:                  -9.553
REMARK INTRA:                  -4.111
REMARK UNBOUND:                -4.111
REMARK SMILES CCCCCCCCCCCCCCCCCCCCCCCCCCCC(=O)[O-]
REMARK SMILES IDX 15 1 16 2 17 3 18 4 19 5 20 6 21 7 22 8 23 9 24 10 25 11
REMARK SMILES IDX 26 12 27 13 28 14 29 15 30 16 14 17 13 18 12 19 11 20 10 21
REMARK SMILES IDX 9 22 8 23 7 24 6 25 5 26 4 27 3 28 2 29 1 30
REMARK H PARENT
REMARK Flexibility Score: inf
ROOT
ATOM      1  C   UNL     1      -8.037  -3.085   1.511  1.00  0.00     0.000 C 
ENDROOT
BRANCH   1   2
ATOM      2  C   UNL     1      -8.159  -4.590   1.812  1.00  0.00     0.000 C 
BRANCH   2   3
ATOM      3  C   UNL     1      -8.684  -4.876   3.229  1.00  0.00     0.000 C 
BRANCH   3   4
ATOM      4  C   UNL     1      -7.822  -5.906   3.977  1.00  0.00     0.000 C 
BRANCH   4   5
ATOM      5  C   UNL     1      -6.420  -6.064   3.367  1.00  0.00     0.000 C 
BRANCH   5   6
ATOM      6  C   UNL     1      -5.535  -6.950   4.256  1.00  0.00     0.000 C 
BRANCH   6   7
ATOM      7  C   UNL     1      -6.272  -7.470   5.500  1.00  0.00     0.000 C 
BRANCH   7   8
ATOM      8  C   UNL     1      -6.394  -9.005   5.523  1.00  0.00     0.000 C 
BRANCH   8   9
ATOM      9  C   UNL     1      -6.638  -9.603   4.120  1.00  0.00     0.000 C 
BRANCH   9  10
ATOM     10  C   UNL     1      -8.095  -9.488   3.632  1.00  0.00     0.000 C 
BRANCH  10  11
ATOM     11  C   UNL     1      -8.271  -9.422   2.105  1.00  0.00     0.000 C 
BRANCH  11  12
ATOM     12  C   UNL     1      -7.012  -8.912   1.382  1.00  0.00     0.006 C 
BRANCH  12  13
ATOM     13  C   UNL     1      -7.092  -9.121  -0.136  1.00  0.00     0.053 C 
BRANCH  13  14
ATOM     14  C   UNL     1      -7.517  -7.876  -0.854  1.00  0.00     0.041 C 
ATOM     15  O   UNL     1      -6.746  -6.880  -0.911  1.00  0.00    -0.550 OA
ATOM     16  O   UNL     1      -8.770  -7.812  -1.455  1.00  0.00    -0.550 OA
ENDBRANCH  13  14
ENDBRANCH  12  13
ENDBRANCH  11  12
ENDBRANCH  10  11
ENDBRANCH   9  10
ENDBRANCH   8   9
ENDBRANCH   7   8
ENDBRANCH   6   7
ENDBRANCH   5   6
ENDBRANCH   4   5
ENDBRANCH   3   4
ENDBRANCH   2   3
ENDBRANCH   1   2
BRANCH   1  17
ATOM     17  C   UNL     1      -6.627  -2.609   1.106  1.00  0.00     0.000 C 
BRANCH  17  18
ATOM     18  C   UNL     1      -5.878  -1.790   2.176  1.00  0.00     0.000 C 
BRANCH  18  19
ATOM     19  C   UNL     1      -6.383  -1.980   3.620  1.00  0.00     0.000 C 
BRANCH  19  20
ATOM     20  C   UNL     1      -5.452  -2.803   4.530  1.00  0.00     0.000 C 
BRANCH  20  21
ATOM     21  C   UNL     1      -6.141  -3.280   5.818  1.00  0.00     0.000 C 
BRANCH  21  22
ATOM     22  C   UNL     1      -7.301  -2.344   6.193  1.00  0.00    -0.000 C 
BRANCH  22  23
ATOM     23  C   UNL     1      -7.137  -1.726   7.590  1.00  0.00    -0.000 C 
BRANCH  23  24
ATOM     24  C   UNL     1      -7.080  -0.191   7.560  1.00  0.00    -0.000 C 
BRANCH  24  25
ATOM     25  C   UNL     1      -5.996   0.292   6.584  1.00  0.00    -0.000 C 
BRANCH  25  26
ATOM     26  C   UNL     1      -6.541   1.242   5.502  1.00  0.00    -0.000 C 
BRANCH  26  27
ATOM     27  C   UNL     1      -6.069   2.701   5.626  1.00  0.00    -0.000 C 
BRANCH  27  28
ATOM     28  C   UNL     1      -4.644   2.825   6.189  1.00  0.00    -0.000 C 
BRANCH  28  29
ATOM     29  C   UNL     1      -3.925   4.045   5.600  1.00  0.00    -0.003 C 
ATOM     30  C   UNL     1      -3.787   3.926   4.084  1.00  0.00     0.004 C 
ENDBRANCH  28  29
ENDBRANCH  27  28
ENDBRANCH  26  27
ENDBRANCH  25  26
ENDBRANCH  24  25
ENDBRANCH  23  24
ENDBRANCH  22  23
ENDBRANCH  21  22
ENDBRANCH  20  21
ENDBRANCH  19  20
ENDBRANCH  18  19
ENDBRANCH  17  18
ENDBRANCH   1  17
TORSDOF 26
ENDMDL
MODEL 2
REMARK VINA RESULT:    -3.750      3.393      9.145
REMARK INTER + INTRA:         -13.561
REMARK INTER:                  -9.229
REMARK INTRA:                  -4.333
REMARK UNBOUND:                -4.111
REMARK SMILES CCCCCCCCCCCCCCCCCCCCCCCCCCCC(=O)[O-]
REMARK SMILES IDX 15 1 16 2 17 3 18 4 19 5 20 6 21 7 22 8 23 9 24 10 25 11
REMARK SMILES IDX 26 12 27 13 28 14 29 15 30 16 14 17 13 18 12 19 11 20 10 21
REMARK SMILES IDX 9 22 8 23 7 24 6 25 5 26 4 27 3 28 2 29 1 30
REMARK H PARENT
REMARK Flexibility Score: inf
ROOT
ATOM      1  C   UNL     1      -5.998  -1.920   2.055  1.00  0.00     0.000 C 
ENDROOT
BRANCH   1   2
ATOM      2  C   UNL     1      -6.274  -1.757   3.561  1.00  0.00     0.000 C 
BRANCH   2   3
ATOM      3  C   UNL     1      -5.309  -2.573   4.437  1.00  0.00     0.000 C 
BRANCH   3   4
ATOM      4  C   UNL     1      -6.043  -3.588   5.329  1.00  0.00     0.000 C 
BRANCH   4   5
ATOM      5  C   UNL     1      -7.505  -3.198   5.595  1.00  0.00     0.000 C 
BRANCH   5   6
ATOM      6  C   UNL     1      -7.953  -3.677   6.984  1.00  0.00     0.000 C 
BRANCH   6   7
ATOM      7  C   UNL     1      -7.537  -2.715   8.108  1.00  0.00     0.000 C 
BRANCH   7   8
ATOM      8  C   UNL     1      -7.699  -1.235   7.716  1.00  0.00     0.000 C 
BRANCH   8   9
ATOM      9  C   UNL     1      -6.411  -0.414   7.942  1.00  0.00     0.000 C 
BRANCH   9  10
ATOM     10  C   UNL     1      -5.859   0.254   6.668  1.00  0.00     0.000 C 
BRANCH  10  11
ATOM     11  C   UNL     1      -6.903   0.982   5.805  1.00  0.00     0.000 C 
BRANCH  11  12
ATOM     12  C   UNL     1      -6.630   2.492   5.687  1.00  0.00     0.006 C 
BRANCH  12  13
ATOM     13  C   UNL     1      -5.358   2.911   6.438  1.00  0.00     0.053 C 
BRANCH  13  14
ATOM     14  C   UNL     1      -4.329   3.495   5.519  1.00  0.00     0.041 C 
ATOM     15  O   UNL     1      -3.259   3.973   5.984  1.00  0.00    -0.550 OA
ATOM     16  O   UNL     1      -4.553   3.518   4.146  1.00  0.00    -0.550 OA
ENDBRANCH  13  14
ENDBRANCH  12  13
ENDBRANCH  11  12
ENDBRANCH  10  11
ENDBRANCH   9  10
ENDBRANCH   8   9
ENDBRANCH   7   8
ENDBRANCH   6   7
ENDBRANCH   5   6
ENDBRANCH   4   5
ENDBRANCH   3   4
ENDBRANCH   2   3
ENDBRANCH   1   2
BRANCH   1  17
ATOM     17  C   UNL     1      -7.215  -2.343   1.206  1.00  0.00     0.000 C 
BRANCH  17  18
ATOM     18  C   UNL     1      -8.245  -3.231   1.932  1.00  0.00     0.000 C 
BRANCH  18  19
ATOM     19  C   UNL     1      -7.801  -4.687   2.175  1.00  0.00     0.000 C 
BRANCH  19  20
ATOM     20  C   UNL     1      -7.128  -5.370   0.970  1.00  0.00     0.000 C 
BRANCH  20  21
ATOM     21  C   UNL     1      -8.054  -6.361   0.248  1.00  0.00     0.000 C 
BRANCH  21  22
ATOM     22  C   UNL     1      -7.244  -7.304  -0.655  1.00  0.00    -0.000 C 
BRANCH  22  23
ATOM     23  C   UNL     1      -6.956  -8.660   0.007  1.00  0.00    -0.000 C 
BRANCH  23  24
ATOM     24  C   UNL     1      -7.964  -9.013   1.110  1.00  0.00    -0.000 C 
BRANCH  24  25
ATOM     25  C   UNL     1      -7.240  -9.308   2.433  1.00  0.00    -0.000 C 
BRANCH  25  26
ATOM     26  C   UNL     1      -5.775  -8.838   2.434  1.00  0.00    -0.000 C 
BRANCH  26  27
ATOM     27  C   UNL     1      -5.208  -8.493   3.823  1.00  0.00    -0.000 C 
BRANCH  27  28
ATOM     28  C   UNL     1      -5.637  -7.102   4.317  1.00  0.00    -0.000 C 
BRANCH  28  29
ATOM     29  C   UNL     1      -6.171  -7.171   5.753  1.00  0.00    -0.003 C 
ATOM     30  C   UNL     1      -7.664  -7.490   5.771  1.00  0.00     0.004 C 
ENDBRANCH  28  29
ENDBRANCH  27  28
ENDBRANCH  26  27
ENDBRANCH  25  26
ENDBRANCH  24  25
ENDBRANCH  23  24
ENDBRANCH  22  23
ENDBRANCH  21  22
ENDBRANCH  20  21
ENDBRANCH  19  20
ENDBRANCH  18  19
ENDBRANCH  17  18
ENDBRANCH   1  17
TORSDOF 26
ENDMDL
MODEL 3
REMARK VINA RESULT:    -3.733      3.407      9.273
REMARK INTER + INTRA:         -13.518
REMARK INTER:                  -9.256
REMARK INTRA:                  -4.262
REMARK UNBOUND:                -4.111
REMARK SMILES CCCCCCCCCCCCCCCCCCCCCCCCCCCC(=O)[O-]
REMARK SMILES IDX 15 1 16 2 17 3 18 4 19 5 20 6 21 7 22 8 23 9 24 10 25 11
REMARK SMILES IDX 26 12 27 13 28 14 29 15 30 16 14 17 13 18 12 19 11 20 10 21
REMARK SMILES IDX 9 22 8 23 7 24 6 25 5 26 4 27 3 28 2 29 1 30
REMARK H PARENT
REMARK Flexibility Score: inf
ROOT
ATOM      1  C   UNL     1      -7.125  -4.862   1.222  1.00  0.00     0.000 C 
ENDROOT
BRANCH   1   2
ATOM      2  C   UNL     1      -7.459  -3.366   1.374  1.00  0.00     0.000 C 
BRANCH   2   3
ATOM      3  C   UNL     1      -6.330  -2.448   0.875  1.00  0.00     0.000 C 
BRANCH   3   4
ATOM      4  C   UNL     1      -5.699  -1.625   2.011  1.00  0.00     0.000 C 
BRANCH   4   5
ATOM      5  C   UNL     1      -6.340  -1.909   3.378  1.00  0.00     0.000 C 
BRANCH   5   6
ATOM      6  C   UNL     1      -5.357  -2.648   4.298  1.00  0.00     0.000 C 
BRANCH   6   7
ATOM      7  C   UNL     1      -5.993  -3.074   5.631  1.00  0.00     0.000 C 
BRANCH   7   8
ATOM      8  C   UNL     1      -7.392  -2.465   5.844  1.00  0.00     0.000 C 
BRANCH   8   9
ATOM      9  C   UNL     1      -7.538  -1.777   7.218  1.00  0.00     0.000 C 
BRANCH   9  10
ATOM     10  C   UNL     1      -6.481  -0.691   7.494  1.00  0.00     0.000 C 
BRANCH  10  11
ATOM     11  C   UNL     1      -6.403   0.429   6.443  1.00  0.00     0.000 C 
BRANCH  11  12
ATOM     12  C   UNL     1      -5.197   1.361   6.653  1.00  0.00     0.006 C 
BRANCH  12  13
ATOM     13  C   UNL     1      -5.539   2.828   6.357  1.00  0.00     0.053 C 
BRANCH  13  14
ATOM     14  C   UNL     1      -4.528   3.471   5.457  1.00  0.00     0.041 C 
ATOM     15  O   UNL     1      -4.671   3.424   4.205  1.00  0.00    -0.550 OA
ATOM     16  O   UNL     1      -3.423   4.117   6.000  1.00  0.00    -0.550 OA
ENDBRANCH  13  14
ENDBRANCH  12  13
ENDBRANCH  11  12
ENDBRANCH  10  11
ENDBRANCH   9  10
ENDBRANCH   8   9
ENDBRANCH   7   8
ENDBRANCH   6   7
ENDBRANCH   5   6
ENDBRANCH   4   5
ENDBRANCH   3   4
ENDBRANCH   2   3
ENDBRANCH   1   2
BRANCH   1  17
ATOM     17  C   UNL     1      -7.956  -5.813   2.108  1.00  0.00     0.000 C 
BRANCH  17  18
ATOM     18  C   UNL     1      -8.226  -5.309   3.540  1.00  0.00     0.000 C 
BRANCH  18  19
ATOM     19  C   UNL     1      -8.352  -6.411   4.611  1.00  0.00     0.000 C 
BRANCH  19  20
ATOM     20  C   UNL     1      -7.323  -6.327   5.753  1.00  0.00     0.000 C 
BRANCH  20  21
ATOM     21  C   UNL     1      -5.927  -6.817   5.339  1.00  0.00     0.000 C 
BRANCH  21  22
ATOM     22  C   UNL     1      -5.981  -8.279   4.869  1.00  0.00    -0.000 C 
BRANCH  22  23
ATOM     23  C   UNL     1      -4.993  -8.574   3.730  1.00  0.00    -0.000 C 
BRANCH  23  24
ATOM     24  C   UNL     1      -5.689  -8.804   2.380  1.00  0.00    -0.000 C 
BRANCH  24  25
ATOM     25  C   UNL     1      -7.125  -9.311   2.590  1.00  0.00    -0.000 C 
BRANCH  25  26
ATOM     26  C   UNL     1      -7.926  -9.409   1.279  1.00  0.00    -0.000 C 
BRANCH  26  27
ATOM     27  C   UNL     1      -7.219  -8.824   0.044  1.00  0.00    -0.000 C 
BRANCH  27  28
ATOM     28  C   UNL     1      -8.133  -8.743  -1.188  1.00  0.00    -0.000 C 
BRANCH  28  29
ATOM     29  C   UNL     1      -8.464  -7.286  -1.533  1.00  0.00    -0.003 C 
ATOM     30  C   UNL     1      -9.767  -6.845  -0.871  1.00  0.00     0.004 C 
ENDBRANCH  28  29
ENDBRANCH  27  28
ENDBRANCH  26  27
ENDBRANCH  25  26
ENDBRANCH  24  25
ENDBRANCH  23  24
ENDBRANCH  22  23
ENDBRANCH  21  22
ENDBRANCH  20  21
ENDBRANCH  19  20
ENDBRANCH  18  19
ENDBRANCH  17  18
ENDBRANCH   1  17
TORSDOF 26
ENDMDL
MODEL 4
REMARK VINA RESULT:    -3.697      1.270      1.893
REMARK INTER + INTRA:         -13.427
REMARK INTER:                  -9.584
REMARK INTRA:                  -3.843
REMARK UNBOUND:                -4.111
REMARK SMILES CCCCCCCCCCCCCCCCCCCCCCCCCCCC(=O)[O-]
REMARK SMILES IDX 15 1 16 2 17 3 18 4 19 5 20 6 21 7 22 8 23 9 24 10 25 11
REMARK SMILES IDX 26 12 27 13 28 14 29 15 30 16 14 17 13 18 12 19 11 20 10 21
REMARK SMILES IDX 9 22 8 23 7 24 6 25 5 26 4 27 3 28 2 29 1 30
REMARK H PARENT
REMARK Flexibility Score: inf
ROOT
ATOM      1  C   UNL     1      -6.758  -2.164   0.973  1.00  0.00     0.000 C 
ENDROOT
BRANCH   1   2
ATOM      2  C   UNL     1      -6.990  -3.681   1.084  1.00  0.00     0.000 C 
BRANCH   2   3
ATOM      3  C   UNL     1      -8.436  -4.039   1.466  1.00  0.00     0.000 C 
BRANCH   3   4
ATOM      4  C   UNL     1      -8.511  -4.916   2.727  1.00  0.00     0.000 C 
BRANCH   4   5
ATOM      5  C   UNL     1      -7.139  -5.458   3.156  1.00  0.00     0.000 C 
BRANCH   5   6
ATOM      6  C   UNL     1      -6.924  -5.265   4.664  1.00  0.00     0.000 C 
BRANCH   6   7
ATOM      7  C   UNL     1      -5.822  -6.175   5.230  1.00  0.00     0.000 C 
BRANCH   7   8
ATOM      8  C   UNL     1      -6.095  -7.669   4.976  1.00  0.00     0.000 C 
BRANCH   8   9
ATOM      9  C   UNL     1      -5.065  -8.307   4.018  1.00  0.00     0.000 C 
BRANCH   9  10
ATOM     10  C   UNL     1      -5.693  -9.147   2.889  1.00  0.00     0.000 C 
BRANCH  10  11
ATOM     11  C   UNL     1      -7.231  -9.156   2.857  1.00  0.00     0.000 C 
BRANCH  11  12
ATOM     12  C   UNL     1      -7.798  -8.939   1.442  1.00  0.00     0.006 C 
BRANCH  12  13
ATOM     13  C   UNL     1      -6.825  -8.168   0.541  1.00  0.00     0.053 C 
BRANCH  13  14
ATOM     14  C   UNL     1      -7.535  -7.194  -0.350  1.00  0.00     0.041 C 
ATOM     15  O   UNL     1      -8.786  -7.057  -0.272  1.00  0.00    -0.550 OA
ATOM     16  O   UNL     1      -6.816  -6.439  -1.271  1.00  0.00    -0.550 OA
ENDBRANCH  13  14
ENDBRANCH  12  13
ENDBRANCH  11  12
ENDBRANCH  10  11
ENDBRANCH   9  10
ENDBRANCH   8   9
ENDBRANCH   7   8
ENDBRANCH   6   7
ENDBRANCH   5   6
ENDBRANCH   4   5
ENDBRANCH   3   4
ENDBRANCH   2   3
ENDBRANCH   1   2
BRANCH   1  17
ATOM     17  C   UNL     1      -5.779  -1.571   2.008  1.00  0.00     0.000 C 
BRANCH  17  18
ATOM     18  C   UNL     1      -6.077  -1.936   3.476  1.00  0.00     0.000 C 
BRANCH  18  19
ATOM     19  C   UNL     1      -7.436  -1.444   4.012  1.00  0.00     0.000 C 
BRANCH  19  20
ATOM     20  C   UNL     1      -7.483  -1.191   5.531  1.00  0.00     0.000 C 
BRANCH  20  21
ATOM     21  C   UNL     1      -6.108  -1.328   6.203  1.00  0.00     0.000 C 
BRANCH  21  22
ATOM     22  C   UNL     1      -5.672   0.007   6.827  1.00  0.00    -0.000 C 
BRANCH  22  23
ATOM     23  C   UNL     1      -5.826   0.027   8.356  1.00  0.00    -0.000 C 
BRANCH  23  24
ATOM     24  C   UNL     1      -6.816   1.096   8.842  1.00  0.00    -0.000 C 
BRANCH  24  25
ATOM     25  C   UNL     1      -7.141   2.087   7.714  1.00  0.00    -0.000 C 
BRANCH  25  26
ATOM     26  C   UNL     1      -6.828   3.548   8.088  1.00  0.00    -0.000 C 
BRANCH  26  27
ATOM     27  C   UNL     1      -5.881   4.275   7.118  1.00  0.00    -0.000 C 
BRANCH  27  28
ATOM     28  C   UNL     1      -5.634   3.491   5.820  1.00  0.00    -0.000 C 
BRANCH  28  29
ATOM     29  C   UNL     1      -4.133   3.374   5.526  1.00  0.00    -0.003 C 
ATOM     30  C   UNL     1      -3.772   4.073   4.217  1.00  0.00     0.004 C 
ENDBRANCH  28  29
ENDBRANCH  27  28
ENDBRANCH  26  27
ENDBRANCH  25  26
ENDBRANCH  24  25
ENDBRANCH  23  24
ENDBRANCH  22  23
ENDBRANCH  21  22
ENDBRANCH  20  21
ENDBRANCH  19  20
ENDBRANCH  18  19
ENDBRANCH  17  18
ENDBRANCH   1  17
TORSDOF 26
ENDMDL
MODEL 5
REMARK VINA RESULT:    -3.687      3.344      9.893
REMARK INTER + INTRA:         -13.401
REMARK INTER:                  -9.456
REMARK INTRA:                  -3.944
REMARK UNBOUND:                -4.111
REMARK SMILES CCCCCCCCCCCCCCCCCCCCCCCCCCCC(=O)[O-]
REMARK SMILES IDX 15 1 16 2 17 3 18 4 19 5 20 6 21 7 22 8 23 9 24 10 25 11
REMARK SMILES IDX 26 12 27 13 28 14 29 15 30 16 14 17 13 18 12 19 11 20 10 21
REMARK SMILES IDX 9 22 8 23 7 24 6 25 5 26 4 27 3 28 2 29 1 30
REMARK H PARENT
REMARK Flexibility Score: inf
ROOT
ATOM      1  C   UNL     1      -6.308  -1.962   3.557  1.00  0.00     0.000 C 
ENDROOT
BRANCH   1   2
ATOM      2  C   UNL     1      -5.490  -2.894   4.469  1.00  0.00     0.000 C 
BRANCH   2   3
ATOM      3  C   UNL     1      -6.086  -3.025   5.880  1.00  0.00     0.000 C 
BRANCH   3   4
ATOM      4  C   UNL     1      -7.035  -1.866   6.226  1.00  0.00     0.000 C 
BRANCH   4   5
ATOM      5  C   UNL     1      -6.426  -0.879   7.234  1.00  0.00     0.000 C 
BRANCH   5   6
ATOM      6  C   UNL     1      -6.137   0.473   6.566  1.00  0.00     0.000 C 
BRANCH   6   7
ATOM      7  C   UNL     1      -7.283   0.947   5.658  1.00  0.00     0.000 C 
BRANCH   7   8
ATOM      8  C   UNL     1      -8.128   2.064   6.299  1.00  0.00     0.000 C 
BRANCH   8   9
ATOM      9  C   UNL     1      -7.431   2.715   7.513  1.00  0.00     0.000 C 
BRANCH   9  10
ATOM     10  C   UNL     1      -6.913   4.142   7.249  1.00  0.00     0.000 C 
BRANCH  10  11
ATOM     11  C   UNL     1      -5.642   4.531   8.024  1.00  0.00     0.000 C 
BRANCH  11  12
ATOM     12  C   UNL     1      -4.469   4.898   7.098  1.00  0.00     0.006 C 
BRANCH  12  13
ATOM     13  C   UNL     1      -3.906   3.674   6.363  1.00  0.00     0.053 C 
BRANCH  13  14
ATOM     14  C   UNL     1      -4.142   3.748   4.885  1.00  0.00     0.041 C 
ATOM     15  O   UNL     1      -3.390   4.448   4.155  1.00  0.00    -0.550 OA
ATOM     16  O   UNL     1      -5.199   3.048   4.313  1.00  0.00    -0.550 OA
ENDBRANCH  13  14
ENDBRANCH  12  13
ENDBRANCH  11  12
ENDBRANCH  10  11
ENDBRANCH   9  10
ENDBRANCH   8   9
ENDBRANCH   7   8
ENDBRANCH   6   7
ENDBRANCH   5   6
ENDBRANCH   4   5
ENDBRANCH   3   4
ENDBRANCH   2   3
ENDBRANCH   1   2
BRANCH   1  17
ATOM     17  C   UNL     1      -5.967  -2.047   2.055  1.00  0.00     0.000 C 
BRANCH  17  18
ATOM     18  C   UNL     1      -6.937  -2.894   1.208  1.00  0.00     0.000 C 
BRANCH  18  19
ATOM     19  C   UNL     1      -8.279  -3.231   1.888  1.00  0.00     0.000 C 
BRANCH  19  20
ATOM     20  C   UNL     1      -8.461  -4.713   2.265  1.00  0.00     0.000 C 
BRANCH  20  21
ATOM     21  C   UNL     1      -8.557  -4.938   3.782  1.00  0.00     0.000 C 
BRANCH  21  22
ATOM     22  C   UNL     1      -7.852  -6.244   4.184  1.00  0.00    -0.000 C 
BRANCH  22  23
ATOM     23  C   UNL     1      -6.417  -6.336   3.644  1.00  0.00    -0.000 C 
BRANCH  23  24
ATOM     24  C   UNL     1      -5.661  -7.567   4.164  1.00  0.00    -0.000 C 
BRANCH  24  25
ATOM     25  C   UNL     1      -5.368  -8.548   3.018  1.00  0.00    -0.000 C 
BRANCH  25  26
ATOM     26  C   UNL     1      -6.643  -9.127   2.381  1.00  0.00    -0.000 C 
BRANCH  26  27
ATOM     27  C   UNL     1      -6.764  -8.908   0.862  1.00  0.00    -0.000 C 
BRANCH  27  28
ATOM     28  C   UNL     1      -8.011  -8.101   0.470  1.00  0.00    -0.000 C 
BRANCH  28  29
ATOM     29  C   UNL     1      -7.763  -7.295  -0.812  1.00  0.00    -0.003 C 
ATOM     30  C   UNL     1      -6.739  -6.188  -0.578  1.00  0.00     0.004 C 
ENDBRANCH  28  29
ENDBRANCH  27  28
ENDBRANCH  26  27
ENDBRANCH  25  26
ENDBRANCH  24  25
ENDBRANCH  23  24
ENDBRANCH  22  23
ENDBRANCH  21  22
ENDBRANCH  20  21
ENDBRANCH  19  20
ENDBRANCH  18  19
ENDBRANCH  17  18
ENDBRANCH   1  17
TORSDOF 26
ENDMDL
MODEL 6
REMARK VINA RESULT:    -3.632      1.336      2.259
REMARK INTER + INTRA:         -13.263
REMARK INTER:                  -8.523
REMARK INTRA:                  -4.739
REMARK UNBOUND:                -4.111
REMARK SMILES CCCCCCCCCCCCCCCCCCCCCCCCCCCC(=O)[O-]
REMARK SMILES IDX 15 1 16 2 17 3 18 4 19 5 20 6 21 7 22 8 23 9 24 10 25 11
REMARK SMILES IDX 26 12 27 13 28 14 29 15 30 16 14 17 13 18 12 19 11 20 10 21
REMARK SMILES IDX 9 22 8 23 7 24 6 25 5 26 4 27 3 28 2 29 1 30
REMARK H PARENT
REMARK Flexibility Score: inf
ROOT
ATOM      1  C   UNL     1      -5.991  -1.839   2.053  1.00  0.00     0.000 C 
ENDROOT
BRANCH   1   2
ATOM      2  C   UNL     1      -6.642  -2.897   1.144  1.00  0.00     0.000 C 
BRANCH   2   3
ATOM      3  C   UNL     1      -7.783  -3.661   1.838  1.00  0.00     0.000 C 
BRANCH   3   4
ATOM      4  C   UNL     1      -7.357  -5.067   2.290  1.00  0.00     0.000 C 
BRANCH   4   5
ATOM      5  C   UNL     1      -8.357  -5.706   3.266  1.00  0.00     0.000 C 
BRANCH   5   6
ATOM      6  C   UNL     1      -7.635  -6.635   4.254  1.00  0.00     0.000 C 
BRANCH   6   7
ATOM      7  C   UNL     1      -6.127  -6.742   3.979  1.00  0.00     0.000 C 
BRANCH   7   8
ATOM      8  C   UNL     1      -5.515  -8.050   4.516  1.00  0.00     0.000 C 
BRANCH   8   9
ATOM      9  C   UNL     1      -5.348  -9.123   3.419  1.00  0.00     0.000 C 
BRANCH   9  10
ATOM     10  C   UNL     1      -5.708  -8.635   2.002  1.00  0.00     0.000 C 
BRANCH  10  11
ATOM     11  C   UNL     1      -7.031  -9.179   1.438  1.00  0.00     0.000 C 
BRANCH  11  12
ATOM     12  C   UNL     1      -7.194  -8.906  -0.068  1.00  0.00     0.006 C 
BRANCH  12  13
ATOM     13  C   UNL     1      -7.039  -7.418  -0.407  1.00  0.00     0.053 C 
BRANCH  13  14
ATOM     14  C   UNL     1      -8.302  -6.833  -0.962  1.00  0.00     0.041 C 
ATOM     15  O   UNL     1      -9.305  -6.664  -0.218  1.00  0.00    -0.550 OA
ATOM     16  O   UNL     1      -8.375  -6.481  -2.306  1.00  0.00    -0.550 OA
ENDBRANCH  13  14
ENDBRANCH  12  13
ENDBRANCH  11  12
ENDBRANCH  10  11
ENDBRANCH   9  10
ENDBRANCH   8   9
ENDBRANCH   7   8
ENDBRANCH   6   7
ENDBRANCH   5   6
ENDBRANCH   4   5
ENDBRANCH   3   4
ENDBRANCH   2   3
ENDBRANCH   1   2
BRANCH   1  17
ATOM     17  C   UNL     1      -6.378  -1.925   3.544  1.00  0.00     0.000 C 
BRANCH  17  18
ATOM     18  C   UNL     1      -5.333  -2.596   4.457  1.00  0.00     0.000 C 
BRANCH  18  19
ATOM     19  C   UNL     1      -5.908  -3.561   5.514  1.00  0.00     0.000 C 
BRANCH  19  20
ATOM     20  C   UNL     1      -6.967  -2.945   6.447  1.00  0.00     0.000 C 
BRANCH  20  21
ATOM     21  C   UNL     1      -8.328  -3.653   6.357  1.00  0.00     0.000 C 
BRANCH  21  22
ATOM     22  C   UNL     1      -9.297  -2.857   5.468  1.00  0.00    -0.000 C 
BRANCH  22  23
ATOM     23  C   UNL     1      -9.388  -1.376   5.864  1.00  0.00    -0.000 C 
BRANCH  23  24
ATOM     24  C   UNL     1      -9.591  -0.447   4.658  1.00  0.00    -0.000 C 
BRANCH  24  25
ATOM     25  C   UNL     1      -8.884   0.899   4.886  1.00  0.00    -0.000 C 
BRANCH  25  26
ATOM     26  C   UNL     1      -7.871   0.859   6.044  1.00  0.00    -0.000 C 
BRANCH  26  27
ATOM     27  C   UNL     1      -6.395   0.916   5.614  1.00  0.00    -0.000 C 
BRANCH  27  28
ATOM     28  C   UNL     1      -5.428   1.037   6.802  1.00  0.00    -0.000 C 
BRANCH  28  29
ATOM     29  C   UNL     1      -5.038   2.501   7.046  1.00  0.00    -0.003 C 
ATOM     30  C   UNL     1      -4.984   3.283   5.737  1.00  0.00     0.004 C 
ENDBRANCH  28  29
ENDBRANCH  27  28
ENDBRANCH  26  27
ENDBRANCH  25  26
ENDBRANCH  24  25
ENDBRANCH  23  24
ENDBRANCH  22  23
ENDBRANCH  21  22
ENDBRANCH  20  21
ENDBRANCH  19  20
ENDBRANCH  18  19
ENDBRANCH  17  18
ENDBRANCH   1  17
TORSDOF 26
ENDMDL
MODEL 7
REMARK VINA RESULT:    -3.617      3.424      8.816
REMARK INTER + INTRA:         -13.226
REMARK INTER:                  -9.503
REMARK INTRA:                  -3.723
REMARK UNBOUND:                -4.111
REMARK SMILES CCCCCCCCCCCCCCCCCCCCCCCCCCCC(=O)[O-]
REMARK SMILES IDX 15 1 16 2 17 3 18 4 19 5 20 6 21 7 22 8 23 9 24 10 25 11
REMARK SMILES IDX 26 12 27 13 28 14 29 15 30 16 14 17 13 18 12 19 11 20 10 21
REMARK SMILES IDX 9 22 8 23 7 24 6 25 5 26 4 27 3 28 2 29 1 30
REMARK H PARENT
REMARK Flexibility Score: inf
ROOT
ATOM      1  C   UNL     1      -5.977  -8.479   5.659  1.00  0.00     0.000 C 
ENDROOT
BRANCH   1   2
ATOM      2  C   UNL     1      -7.383  -7.857   5.589  1.00  0.00     0.000 C 
BRANCH   2   3
ATOM      3  C   UNL     1      -7.448  -6.627   4.668  1.00  0.00     0.000 C 
BRANCH   3   4
ATOM      4  C   UNL     1      -6.110  -5.873   4.602  1.00  0.00     0.000 C 
BRANCH   4   5
ATOM      5  C   UNL     1      -6.147  -4.530   5.349  1.00  0.00     0.000 C 
BRANCH   5   6
ATOM      6  C   UNL     1      -7.591  -4.026   5.493  1.00  0.00     0.000 C 
BRANCH   6   7
ATOM      7  C   UNL     1      -7.667  -2.569   5.975  1.00  0.00     0.000 C 
BRANCH   7   8
ATOM      8  C   UNL     1      -6.281  -1.964   6.266  1.00  0.00     0.000 C 
BRANCH   8   9
ATOM      9  C   UNL     1      -6.342  -0.789   7.265  1.00  0.00     0.000 C 
BRANCH   9  10
ATOM     10  C   UNL     1      -5.464   0.416   6.873  1.00  0.00     0.000 C 
BRANCH  10  11
ATOM     11  C   UNL     1      -5.520   1.609   7.841  1.00  0.00     0.000 C 
BRANCH  11  12
ATOM     12  C   UNL     1      -5.189   2.948   7.157  1.00  0.00     0.006 C 
BRANCH  12  13
ATOM     13  C   UNL     1      -5.387   2.884   5.636  1.00  0.00     0.053 C 
BRANCH  13  14
ATOM     14  C   UNL     1      -4.321   3.636   4.899  1.00  0.00     0.041 C 
ATOM     15  O   UNL     1      -3.350   4.142   5.525  1.00  0.00    -0.550 OA
ATOM     16  O   UNL     1      -4.401   3.784   3.518  1.00  0.00    -0.550 OA
ENDBRANCH  13  14
ENDBRANCH  12  13
ENDBRANCH  11  12
ENDBRANCH  10  11
ENDBRANCH   9  10
ENDBRANCH   8   9
ENDBRANCH   7   8
ENDBRANCH   6   7
ENDBRANCH   5   6
ENDBRANCH   4   5
ENDBRANCH   3   4
ENDBRANCH   2   3
ENDBRANCH   1   2
BRANCH   1  17
ATOM     17  C   UNL     1      -5.715  -9.624   4.659  1.00  0.00     0.000 C 
BRANCH  17  18
ATOM     18  C   UNL     1      -4.931  -9.224   3.393  1.00  0.00     0.000 C 
BRANCH  18  19
ATOM     19  C   UNL     1      -5.791  -8.687   2.231  1.00  0.00     0.000 C 
BRANCH  19  20
ATOM     20  C   UNL     1      -7.183  -9.334   2.100  1.00  0.00     0.000 C 
BRANCH  20  21
ATOM     21  C   UNL     1      -7.743  -9.266   0.672  1.00  0.00     0.000 C 
BRANCH  21  22
ATOM     22  C   UNL     1      -6.979  -8.226  -0.163  1.00  0.00    -0.000 C 
BRANCH  22  23
ATOM     23  C   UNL     1      -7.910  -7.313  -0.974  1.00  0.00    -0.000 C 
BRANCH  23  24
ATOM     24  C   UNL     1      -8.691  -6.325  -0.095  1.00  0.00    -0.000 C 
BRANCH  24  25
ATOM     25  C   UNL     1      -7.770  -5.693   0.961  1.00  0.00    -0.000 C 
BRANCH  25  26
ATOM     26  C   UNL     1      -8.476  -4.620   1.810  1.00  0.00    -0.000 C 
BRANCH  26  27
ATOM     27  C   UNL     1      -7.676  -3.320   2.004  1.00  0.00    -0.000 C 
BRANCH  27  28
ATOM     28  C   UNL     1      -6.662  -3.066   0.878  1.00  0.00    -0.000 C 
BRANCH  28  29
ATOM     29  C   UNL     1      -5.629  -2.011   1.295  1.00  0.00    -0.003 C 
ATOM     30  C   UNL     1      -6.048  -1.309   2.584  1.00  0.00     0.004 C 
ENDBRANCH  28  29
ENDBRANCH  27  28
ENDBRANCH  26  27
ENDBRANCH  25  26
ENDBRANCH  24  25
ENDBRANCH  23  24
ENDBRANCH  22  23
ENDBRANCH  21  22
ENDBRANCH  20  21
ENDBRANCH  19  20
ENDBRANCH  18  19
ENDBRANCH  17  18
ENDBRANCH   1  17
TORSDOF 26
ENDMDL
MODEL 8
REMARK VINA RESULT:    -3.566      2.376      3.879
REMARK INTER + INTRA:         -13.098
REMARK INTER:                  -9.070
REMARK INTRA:                  -4.028
REMARK UNBOUND:                -4.111
REMARK SMILES CCCCCCCCCCCCCCCCCCCCCCCCCCCC(=O)[O-]
REMARK SMILES IDX 15 1 16 2 17 3 18 4 19 5 20 6 21 7 22 8 23 9 24 10 25 11
REMARK SMILES IDX 26 12 27 13 28 14 29 15 30 16 14 17 13 18 12 19 11 20 10 21
REMARK SMILES IDX 9 22 8 23 7 24 6 25 5 26 4 27 3 28 2 29 1 30
REMARK H PARENT
REMARK Flexibility Score: inf
ROOT
ATOM      1  C   UNL     1      -5.630  -1.424   1.841  1.00  0.00     0.000 C 
ENDROOT
BRANCH   1   2
ATOM      2  C   UNL     1      -6.062  -2.426   0.755  1.00  0.00     0.000 C 
BRANCH   2   3
ATOM      3  C   UNL     1      -7.326  -3.214   1.137  1.00  0.00     0.000 C 
BRANCH   3   4
ATOM      4  C   UNL     1      -7.073  -4.729   1.209  1.00  0.00     0.000 C 
BRANCH   4   5
ATOM      5  C   UNL     1      -8.362  -5.538   1.419  1.00  0.00     0.000 C 
BRANCH   5   6
ATOM      6  C   UNL     1      -8.537  -6.583   0.307  1.00  0.00     0.000 C 
BRANCH   6   7
ATOM      7  C   UNL     1      -7.199  -7.132  -0.211  1.00  0.00     0.000 C 
BRANCH   7   8
ATOM      8  C   UNL     1      -7.056  -8.651   0.002  1.00  0.00     0.000 C 
BRANCH   8   9
ATOM      9  C   UNL     1      -6.918  -9.033   1.492  1.00  0.00     0.000 C 
BRANCH   9  10
ATOM     10  C   UNL     1      -5.562  -8.651   2.116  1.00  0.00     0.000 C 
BRANCH  10  11
ATOM     11  C   UNL     1      -5.583  -8.419   3.637  1.00  0.00     0.000 C 
BRANCH  11  12
ATOM     12  C   UNL     1      -6.046  -7.002   4.017  1.00  0.00     0.006 C 
BRANCH  12  13
ATOM     13  C   UNL     1      -7.329  -7.018   4.859  1.00  0.00     0.053 C 
BRANCH  13  14
ATOM     14  C   UNL     1      -7.066  -7.428   6.276  1.00  0.00     0.041 C 
ATOM     15  O   UNL     1      -7.708  -8.384   6.791  1.00  0.00    -0.550 OA
ATOM     16  O   UNL     1      -6.115  -6.751   7.033  1.00  0.00    -0.550 OA
ENDBRANCH  13  14
ENDBRANCH  12  13
ENDBRANCH  11  12
ENDBRANCH  10  11
ENDBRANCH   9  10
ENDBRANCH   8   9
ENDBRANCH   7   8
ENDBRANCH   6   7
ENDBRANCH   5   6
ENDBRANCH   4   5
ENDBRANCH   3   4
ENDBRANCH   2   3
ENDBRANCH   1   2
BRANCH   1  17
ATOM     17  C   UNL     1      -6.297  -1.620   3.218  1.00  0.00     0.000 C 
BRANCH  17  18
ATOM     18  C   UNL     1      -5.506  -2.491   4.214  1.00  0.00     0.000 C 
BRANCH  18  19
ATOM     19  C   UNL     1      -6.351  -3.497   5.021  1.00  0.00     0.000 C 
BRANCH  19  20
ATOM     20  C   UNL     1      -7.842  -3.135   5.153  1.00  0.00     0.000 C 
BRANCH  20  21
ATOM     21  C   UNL     1      -8.274  -2.897   6.608  1.00  0.00     0.000 C 
BRANCH  21  22
ATOM     22  C   UNL     1      -8.116  -1.416   6.987  1.00  0.00    -0.000 C 
BRANCH  22  23
ATOM     23  C   UNL     1      -6.816  -1.134   7.756  1.00  0.00    -0.000 C 
BRANCH  23  24
ATOM     24  C   UNL     1      -6.131   0.167   7.312  1.00  0.00    -0.000 C 
BRANCH  24  25
ATOM     25  C   UNL     1      -6.784   0.716   6.034  1.00  0.00    -0.000 C 
BRANCH  25  26
ATOM     26  C   UNL     1      -6.044   1.936   5.456  1.00  0.00    -0.000 C 
BRANCH  26  27
ATOM     27  C   UNL     1      -4.928   2.499   6.352  1.00  0.00    -0.000 C 
BRANCH  27  28
ATOM     28  C   UNL     1      -4.309   3.792   5.800  1.00  0.00    -0.000 C 
BRANCH  28  29
ATOM     29  C   UNL     1      -4.206   4.863   6.893  1.00  0.00    -0.003 C 
ATOM     30  C   UNL     1      -5.417   4.822   7.821  1.00  0.00     0.004 C 
ENDBRANCH  28  29
ENDBRANCH  27  28
ENDBRANCH  26  27
ENDBRANCH  25  26
ENDBRANCH  24  25
ENDBRANCH  23  24
ENDBRANCH  22  23
ENDBRANCH  21  22
ENDBRANCH  20  21
ENDBRANCH  19  20
ENDBRANCH  18  19
ENDBRANCH  17  18
ENDBRANCH   1  17
TORSDOF 26
ENDMDL
MODEL 9
REMARK VINA RESULT:    -3.541      3.397      9.196
REMARK INTER + INTRA:         -13.033
REMARK INTER:                  -8.856
REMARK INTRA:                  -4.177
REMARK UNBOUND:                -4.111
REMARK SMILES CCCCCCCCCCCCCCCCCCCCCCCCCCCC(=O)[O-]
REMARK SMILES IDX 15 1 16 2 17 3 18 4 19 5 20 6 21 7 22 8 23 9 24 10 25 11
REMARK SMILES IDX 26 12 27 13 28 14 29 15 30 16 14 17 13 18 12 19 11 20 10 21
REMARK SMILES IDX 9 22 8 23 7 24 6 25 5 26 4 27 3 28 2 29 1 30
REMARK H PARENT
REMARK Flexibility Score: inf
ROOT
ATOM      1  C   UNL     1      -5.991  -1.634   2.017  1.00  0.00     0.000 C 
ENDROOT
BRANCH   1   2
ATOM      2  C   UNL     1      -6.587  -1.659   3.436  1.00  0.00     0.000 C 
BRANCH   2   3
ATOM      3  C   UNL     1      -5.626  -2.255   4.478  1.00  0.00     0.000 C 
BRANCH   3   4
ATOM      4  C   UNL     1      -6.084  -3.635   4.977  1.00  0.00     0.000 C 
BRANCH   4   5
ATOM      5  C   UNL     1      -6.775  -3.574   6.348  1.00  0.00     0.000 C 
BRANCH   5   6
ATOM      6  C   UNL     1      -8.287  -3.358   6.187  1.00  0.00     0.000 C 
BRANCH   6   7
ATOM      7  C   UNL     1      -8.767  -2.027   6.788  1.00  0.00     0.000 C 
BRANCH   7   8
ATOM      8  C   UNL     1      -7.753  -1.421   7.776  1.00  0.00     0.000 C 
BRANCH   8   9
ATOM      9  C   UNL     1      -7.397   0.044   7.441  1.00  0.00     0.000 C 
BRANCH   9  10
ATOM     10  C   UNL     1      -8.204   0.633   6.268  1.00  0.00     0.000 C 
BRANCH  10  11
ATOM     11  C   UNL     1      -7.369   1.353   5.195  1.00  0.00     0.000 C 
BRANCH  11  12
ATOM     12  C   UNL     1      -5.976   1.766   5.702  1.00  0.00     0.006 C 
BRANCH  12  13
ATOM     13  C   UNL     1      -5.760   3.284   5.630  1.00  0.00     0.053 C 
BRANCH  13  14
ATOM     14  C   UNL     1      -4.489   3.638   4.920  1.00  0.00     0.041 C 
ATOM     15  O   UNL     1      -4.436   3.609   3.660  1.00  0.00    -0.550 OA
ATOM     16  O   UNL     1      -3.359   3.994   5.649  1.00  0.00    -0.550 OA
ENDBRANCH  13  14
ENDBRANCH  12  13
ENDBRANCH  11  12
ENDBRANCH  10  11
ENDBRANCH   9  10
ENDBRANCH   8   9
ENDBRANCH   7   8
ENDBRANCH   6   7
ENDBRANCH   5   6
ENDBRANCH   4   5
ENDBRANCH   3   4
ENDBRANCH   2   3
ENDBRANCH   1   2
BRANCH   1  17
ATOM     17  C   UNL     1      -6.380  -2.826   1.120  1.00  0.00     0.000 C 
BRANCH  17  18
ATOM     18  C   UNL     1      -7.726  -3.494   1.462  1.00  0.00     0.000 C 
BRANCH  18  19
ATOM     19  C   UNL     1      -7.629  -4.952   1.955  1.00  0.00     0.000 C 
BRANCH  19  20
ATOM     20  C   UNL     1      -8.703  -5.364   2.979  1.00  0.00     0.000 C 
BRANCH  20  21
ATOM     21  C   UNL     1      -8.491  -6.783   3.531  1.00  0.00     0.000 C 
BRANCH  21  22
ATOM     22  C   UNL     1      -8.229  -6.744   5.045  1.00  0.00    -0.000 C 
BRANCH  22  23
ATOM     23  C   UNL     1      -6.895  -7.398   5.435  1.00  0.00    -0.000 C 
BRANCH  23  24
ATOM     24  C   UNL     1      -5.816  -7.244   4.353  1.00  0.00    -0.000 C 
BRANCH  24  25
ATOM     25  C   UNL     1      -5.213  -8.610   3.989  1.00  0.00    -0.000 C 
BRANCH  25  26
ATOM     26  C   UNL     1      -5.271  -8.910   2.480  1.00  0.00    -0.000 C 
BRANCH  26  27
ATOM     27  C   UNL     1      -6.690  -9.021   1.896  1.00  0.00    -0.000 C 
BRANCH  27  28
ATOM     28  C   UNL     1      -6.798  -8.464   0.468  1.00  0.00    -0.000 C 
BRANCH  28  29
ATOM     29  C   UNL     1      -7.339  -9.527  -0.497  1.00  0.00    -0.003 C 
ATOM     30  C   UNL     1      -8.753  -9.184  -0.957  1.00  0.00     0.004 C 
ENDBRANCH  28  29
ENDBRANCH  27  28
ENDBRANCH  26  27
ENDBRANCH  25  26
ENDBRANCH  24  25
ENDBRANCH  23  24
ENDBRANCH  22  23
ENDBRANCH  21  22
ENDBRANCH  20  21
ENDBRANCH  19  20
ENDBRANCH  18  19
ENDBRANCH  17  18
ENDBRANCH   1  17
TORSDOF 26
ENDMDL
