MODEL 1
REMARK VINA RESULT:    -5.957      0.000      0.000
REMARK INTER + INTRA:          -6.787
REMARK INTER:                  -6.479
REMARK INTRA:                  -0.308
REMARK UNBOUND:                -0.308
REMARK SMILES C[C@H]1[C@H](C)CC[C@]2(C(=O)[O-])CC[C@@]3(C)C(=CC[C@H]4[C@@]5(C)CC[C@@H](O)C(C)(C)[C@H]5CC[C@]43C)[C@H]12
REMARK SMILES IDX 7 1 6 2 11 3 33 4 5 5 12 6 15 7 2 8 3 9 13 10 16 11 1 12
REMARK SMILES IDX 4 13 14 14 31 15 17 16 18 17 30 18 32 19 19 20 29 21 28 22
REMARK SMILES IDX 21 23 20 24 25 25 22 26 23 27 26 28 27 29 8 30 9 31 10 32
REMARK SMILES IDX 24 33
REMARK H PARENT 24 34
REMARK Flexibility Score: inf
ROOT
ATOM      1  C   UNL     1      72.097  55.751  18.399  1.00  0.00     0.017 C 
ATOM      2  C   UNL     1      72.786  56.911  17.616  1.00  0.00     0.014 C 
ATOM      3  C   UNL     1      71.077  56.443  19.388  1.00  0.00     0.014 C 
ATOM      4  C   UNL     1      73.116  54.803  19.191  1.00  0.00     0.030 C 
ATOM      5  C   UNL     1      74.128  56.542  16.996  1.00  0.00     0.004 C 
ATOM      6  C   UNL     1      70.438  55.559  20.503  1.00  0.00     0.013 C 
ATOM      7  C   UNL     1      72.797  54.830  20.693  1.00  0.00    -0.063 C 
ATOM      8  C   UNL     1      74.656  54.837  18.817  1.00  0.00    -0.003 C 
ATOM      9  C   UNL     1      75.136  56.108  18.062  1.00  0.00    -0.011 C 
ATOM     10  C   UNL     1      71.364  54.425  21.088  1.00  0.00    -0.006 C 
ATOM     11  C   UNL     1      73.450  55.700  21.491  1.00  0.00    -0.027 C 
ATOM     12  C   UNL     1      75.062  53.581  18.010  1.00  0.00     0.008 C 
ATOM     13  C   UNL     1      75.526  57.260  19.006  1.00  0.00     0.008 C 
ATOM     14  C   UNL     1      70.941  53.101  20.359  1.00  0.00     0.017 C 
ATOM     15  C   UNL     1      71.256  54.201  22.703  1.00  0.00    -0.020 C 
ATOM     16  C   UNL     1      72.766  56.312  22.673  1.00  0.00     0.032 C 
ATOM     17  C   UNL     1      72.141  55.213  23.554  1.00  0.00     0.006 C 
ATOM     18  C   UNL     1      69.781  54.286  23.161  1.00  0.00     0.008 C 
ATOM     19  C   UNL     1      71.772  52.761  23.055  1.00  0.00     0.012 C 
ATOM     20  C   UNL     1      71.548  55.770  24.938  1.00  0.00    -0.025 C 
ATOM     21  C   UNL     1      69.573  54.037  24.649  1.00  0.00     0.005 C 
ATOM     22  C   UNL     1      70.587  54.712  25.635  1.00  0.00     0.003 C 
ATOM     23  C   UNL     1      70.770  57.112  24.744  1.00  0.00     0.010 C 
ATOM     24  C   UNL     1      72.800  56.048  25.850  1.00  0.00     0.012 C 
ATOM     25  C   UNL     1      69.848  55.239  26.951  1.00  0.00    -0.006 C 
ATOM     26  C   UNL     1      70.068  57.637  26.013  1.00  0.00     0.033 C 
ATOM     27  C   UNL     1      69.139  56.607  26.675  1.00  0.00     0.120 C 
ATOM     28  C   UNL     1      70.838  55.401  28.144  1.00  0.00     0.014 C 
ATOM     29  C   UNL     1      68.809  54.196  27.474  1.00  0.00     0.014 C 
ENDROOT
BRANCH   1  30
ATOM     30  C   UNL     1      71.323  54.927  17.371  1.00  0.00     0.048 C 
ATOM     31  O   UNL     1      70.250  55.371  16.881  1.00  0.00    -0.550 OA
ATOM     32  O   UNL     1      71.754  53.660  16.990  1.00  0.00    -0.550 OA
ENDBRANCH   1  30
BRANCH  27  33
ATOM     33  O   UNL     1      68.005  56.448  25.857  1.00  0.00    -0.393 OA
ATOM     34  H   UNL     1      68.289  55.954  25.044  1.00  0.00     0.210 HD
ENDBRANCH  27  33
TORSDOF 2
ENDMDL
MODEL 2
REMARK VINA RESULT:    -5.803      3.235      6.577
REMARK INTER + INTRA:          -6.621
REMARK INTER:                  -6.358
REMARK INTRA:                  -0.263
REMARK UNBOUND:                -0.308
REMARK SMILES C[C@H]1[C@H](C)CC[C@]2(C(=O)[O-])CC[C@@]3(C)C(=CC[C@H]4[C@@]5(C)CC[C@@H](O)C(C)(C)[C@H]5CC[C@]43C)[C@H]12
REMARK SMILES IDX 7 1 6 2 11 3 33 4 5 5 12 6 15 7 2 8 3 9 13 10 16 11 1 12
REMARK SMILES IDX 4 13 14 14 31 15 17 16 18 17 30 18 32 19 19 20 29 21 28 22
REMARK SMILES IDX 21 23 20 24 25 25 22 26 23 27 26 28 27 29 8 30 9 31 10 32
REMARK SMILES IDX 24 33
REMARK H PARENT 24 34
REMARK Flexibility Score: inf
ROOT
ATOM      1  C   UNL     1      74.227  55.045  23.292  1.00  0.00     0.017 C 
ATOM      2  C   UNL     1      74.912  56.442  23.190  1.00  0.00     0.014 C 
ATOM      3  C   UNL     1      73.775  54.678  21.822  1.00  0.00     0.014 C 
ATOM      4  C   UNL     1      72.988  54.998  24.305  1.00  0.00     0.030 C 
ATOM      5  C   UNL     1      74.968  57.213  24.503  1.00  0.00     0.004 C 
ATOM      6  C   UNL     1      72.811  53.464  21.643  1.00  0.00     0.013 C 
ATOM      7  C   UNL     1      71.711  54.593  23.554  1.00  0.00    -0.063 C 
ATOM      8  C   UNL     1      72.817  56.157  25.373  1.00  0.00    -0.003 C 
ATOM      9  C   UNL     1      73.566  57.481  25.054  1.00  0.00    -0.011 C 
ATOM     10  C   UNL     1      71.764  53.249  22.803  1.00  0.00    -0.006 C 
ATOM     11  C   UNL     1      70.897  55.555  23.070  1.00  0.00    -0.027 C 
ATOM     12  C   UNL     1      73.214  55.674  26.789  1.00  0.00     0.008 C 
ATOM     13  C   UNL     1      72.753  58.434  24.159  1.00  0.00     0.008 C 
ATOM     14  C   UNL     1      72.360  52.125  23.722  1.00  0.00     0.017 C 
ATOM     15  C   UNL     1      70.269  52.803  22.318  1.00  0.00    -0.020 C 
ATOM     16  C   UNL     1      70.139  55.343  21.797  1.00  0.00     0.032 C 
ATOM     17  C   UNL     1      69.351  54.020  21.861  1.00  0.00     0.006 C 
ATOM     18  C   UNL     1      70.361  51.763  21.178  1.00  0.00     0.008 C 
ATOM     19  C   UNL     1      69.525  52.117  23.518  1.00  0.00     0.012 C 
ATOM     20  C   UNL     1      68.366  53.808  20.612  1.00  0.00    -0.025 C 
ATOM     21  C   UNL     1      69.012  51.245  20.693  1.00  0.00     0.005 C 
ATOM     22  C   UNL     1      67.869  52.301  20.503  1.00  0.00     0.003 C 
ATOM     23  C   UNL     1      69.035  54.220  19.261  1.00  0.00     0.010 C 
ATOM     24  C   UNL     1      67.143  54.763  20.874  1.00  0.00     0.012 C 
ATOM     25  C   UNL     1      66.992  51.974  19.208  1.00  0.00    -0.006 C 
ATOM     26  C   UNL     1      68.188  53.924  18.007  1.00  0.00     0.033 C 
ATOM     27  C   UNL     1      67.717  52.464  17.911  1.00  0.00     0.120 C 
ATOM     28  C   UNL     1      65.578  52.627  19.287  1.00  0.00     0.014 C 
ATOM     29  C   UNL     1      66.685  50.445  19.102  1.00  0.00     0.014 C 
ENDROOT
BRANCH   1  30
ATOM     30  C   UNL     1      75.303  54.061  23.749  1.00  0.00     0.048 C 
ATOM     31  O   UNL     1      75.490  53.853  24.978  1.00  0.00    -0.550 OA
ATOM     32  O   UNL     1      76.125  53.414  22.832  1.00  0.00    -0.550 OA
ENDBRANCH   1  30
BRANCH  27  33
ATOM     33  O   UNL     1      68.833  51.662  17.606  1.00  0.00    -0.393 OA
ATOM     34  H   UNL     1      69.504  52.241  17.158  1.00  0.00     0.210 HD
ENDBRANCH  27  33
TORSDOF 2
ENDMDL
MODEL 3
REMARK VINA RESULT:    -5.754      2.288      3.175
REMARK INTER + INTRA:          -6.566
REMARK INTER:                  -6.291
REMARK INTRA:                  -0.275
REMARK UNBOUND:                -0.308
REMARK SMILES C[C@H]1[C@H](C)CC[C@]2(C(=O)[O-])CC[C@@]3(C)C(=CC[C@H]4[C@@]5(C)CC[C@@H](O)C(C)(C)[C@H]5CC[C@]43C)[C@H]12
REMARK SMILES IDX 7 1 6 2 11 3 33 4 5 5 12 6 15 7 2 8 3 9 13 10 16 11 1 12
REMARK SMILES IDX 4 13 14 14 31 15 17 16 18 17 30 18 32 19 19 20 29 21 28 22
REMARK SMILES IDX 21 23 20 24 25 25 22 26 23 27 26 28 27 29 8 30 9 31 10 32
REMARK SMILES IDX 24 33
REMARK H PARENT 24 34
REMARK Flexibility Score: inf
ROOT
ATOM      1  C   UNL     1      70.024  54.120  18.238  1.00  0.00     0.017 C 
ATOM      2  C   UNL     1      70.121  54.731  16.807  1.00  0.00     0.014 C 
ATOM      3  C   UNL     1      68.677  54.674  18.854  1.00  0.00     0.014 C 
ATOM      4  C   UNL     1      71.273  54.461  19.181  1.00  0.00     0.030 C 
ATOM      5  C   UNL     1      71.530  54.759  16.229  1.00  0.00     0.004 C 
ATOM      6  C   UNL     1      68.439  54.463  20.381  1.00  0.00     0.013 C 
ATOM      7  C   UNL     1      70.796  55.223  20.426  1.00  0.00    -0.063 C 
ATOM      8  C   UNL     1      72.615  54.991  18.525  1.00  0.00    -0.003 C 
ATOM      9  C   UNL     1      72.474  55.592  17.098  1.00  0.00    -0.011 C 
ATOM     10  C   UNL     1      69.730  54.516  21.285  1.00  0.00    -0.006 C 
ATOM     11  C   UNL     1      70.810  56.572  20.420  1.00  0.00    -0.027 C 
ATOM     12  C   UNL     1      73.701  53.889  18.509  1.00  0.00     0.008 C 
ATOM     13  C   UNL     1      72.103  57.086  17.106  1.00  0.00     0.008 C 
ATOM     14  C   UNL     1      70.135  53.024  21.552  1.00  0.00     0.017 C 
ATOM     15  C   UNL     1      69.547  55.282  22.717  1.00  0.00    -0.020 C 
ATOM     16  C   UNL     1      69.767  57.349  21.161  1.00  0.00     0.032 C 
ATOM     17  C   UNL     1      69.680  56.866  22.621  1.00  0.00     0.006 C 
ATOM     18  C   UNL     1      68.189  54.911  23.356  1.00  0.00     0.008 C 
ATOM     19  C   UNL     1      70.674  54.805  23.700  1.00  0.00     0.012 C 
ATOM     20  C   UNL     1      68.717  57.770  23.533  1.00  0.00    -0.025 C 
ATOM     21  C   UNL     1      67.949  55.538  24.724  1.00  0.00     0.005 C 
ATOM     22  C   UNL     1      68.346  57.045  24.899  1.00  0.00     0.003 C 
ATOM     23  C   UNL     1      67.397  58.155  22.788  1.00  0.00     0.010 C 
ATOM     24  C   UNL     1      69.527  59.087  23.822  1.00  0.00     0.012 C 
ATOM     25  C   UNL     1      67.283  57.819  25.805  1.00  0.00    -0.006 C 
ATOM     26  C   UNL     1      66.372  58.918  23.651  1.00  0.00     0.033 C 
ATOM     27  C   UNL     1      66.019  58.205  24.966  1.00  0.00     0.120 C 
ATOM     28  C   UNL     1      67.893  59.105  26.441  1.00  0.00     0.014 C 
ATOM     29  C   UNL     1      66.860  56.962  27.041  1.00  0.00     0.014 C 
ENDROOT
BRANCH   1  30
ATOM     30  C   UNL     1      69.912  52.606  18.062  1.00  0.00     0.048 C 
ATOM     31  O   UNL     1      70.819  51.848  18.500  1.00  0.00    -0.550 OA
ATOM     32  O   UNL     1      68.842  52.037  17.379  1.00  0.00    -0.550 OA
ENDBRANCH   1  30
BRANCH  27  33
ATOM     33  O   UNL     1      65.237  57.077  24.657  1.00  0.00    -0.393 OA
ATOM     34  H   UNL     1      65.844  56.383  24.287  1.00  0.00     0.210 HD
ENDBRANCH  27  33
TORSDOF 2
ENDMDL
MODEL 4
REMARK VINA RESULT:    -5.590      2.065      7.665
REMARK INTER + INTRA:          -6.389
REMARK INTER:                  -6.081
REMARK INTRA:                  -0.308
REMARK UNBOUND:                -0.308
REMARK SMILES C[C@H]1[C@H](C)CC[C@]2(C(=O)[O-])CC[C@@]3(C)C(=CC[C@H]4[C@@]5(C)CC[C@@H](O)C(C)(C)[C@H]5CC[C@]43C)[C@H]12
REMARK SMILES IDX 7 1 6 2 11 3 33 4 5 5 12 6 15 7 2 8 3 9 13 10 16 11 1 12
REMARK SMILES IDX 4 13 14 14 31 15 17 16 18 17 30 18 32 19 19 20 29 21 28 22
REMARK SMILES IDX 21 23 20 24 25 25 22 26 23 27 26 28 27 29 8 30 9 31 10 32
REMARK SMILES IDX 24 33
REMARK H PARENT 24 34
REMARK Flexibility Score: inf
ROOT
ATOM      1  C   UNL     1      71.149  55.747  25.964  1.00  0.00     0.017 C 
ATOM      2  C   UNL     1      72.463  56.179  26.684  1.00  0.00     0.014 C 
ATOM      3  C   UNL     1      71.569  54.620  24.939  1.00  0.00     0.014 C 
ATOM      4  C   UNL     1      70.385  56.944  25.224  1.00  0.00     0.030 C 
ATOM      5  C   UNL     1      72.404  57.561  27.324  1.00  0.00     0.004 C 
ATOM      6  C   UNL     1      70.518  54.184  23.871  1.00  0.00     0.013 C 
ATOM      7  C   UNL     1      70.269  56.644  23.723  1.00  0.00    -0.063 C 
ATOM      8  C   UNL     1      70.747  58.442  25.598  1.00  0.00    -0.003 C 
ATOM      9  C   UNL     1      72.127  58.648  26.284  1.00  0.00    -0.011 C 
ATOM     10  C   UNL     1      69.564  55.326  23.348  1.00  0.00    -0.006 C 
ATOM     11  C   UNL     1      71.209  57.118  22.880  1.00  0.00    -0.027 C 
ATOM     12  C   UNL     1      69.642  59.082  26.471  1.00  0.00     0.008 C 
ATOM     13  C   UNL     1      73.282  58.810  25.280  1.00  0.00     0.008 C 
ATOM     14  C   UNL     1      68.222  55.169  24.147  1.00  0.00     0.017 C 
ATOM     15  C   UNL     1      69.239  55.283  21.748  1.00  0.00    -0.020 C 
ATOM     16  C   UNL     1      71.609  56.339  21.666  1.00  0.00     0.032 C 
ATOM     17  C   UNL     1      70.363  55.958  20.844  1.00  0.00     0.006 C 
ATOM     18  C   UNL     1      69.003  53.827  21.285  1.00  0.00     0.008 C 
ATOM     19  C   UNL     1      67.916  56.082  21.474  1.00  0.00     0.012 C 
ATOM     20  C   UNL     1      70.716  55.282  19.432  1.00  0.00    -0.025 C 
ATOM     21  C   UNL     1      68.639  53.690  19.811  1.00  0.00     0.005 C 
ATOM     22  C   UNL     1      69.452  54.560  18.792  1.00  0.00     0.003 C 
ATOM     23  C   UNL     1      71.883  54.248  19.553  1.00  0.00     0.010 C 
ATOM     24  C   UNL     1      71.191  56.463  18.508  1.00  0.00     0.012 C 
ATOM     25  C   UNL     1      69.750  53.747  17.449  1.00  0.00    -0.006 C 
ATOM     26  C   UNL     1      72.189  53.470  18.258  1.00  0.00     0.033 C 
ATOM     27  C   UNL     1      70.960  52.774  17.650  1.00  0.00     0.120 C 
ATOM     28  C   UNL     1      70.045  54.698  16.250  1.00  0.00     0.014 C 
ATOM     29  C   UNL     1      68.494  52.943  16.982  1.00  0.00     0.014 C 
ENDROOT
BRANCH   1  30
ATOM     30  C   UNL     1      70.241  55.141  27.034  1.00  0.00     0.048 C 
ATOM     31  O   UNL     1      70.495  54.002  27.510  1.00  0.00    -0.550 OA
ATOM     32  O   UNL     1      69.097  55.804  27.469  1.00  0.00    -0.550 OA
ENDBRANCH   1  30
BRANCH  27  33
ATOM     33  O   UNL     1      70.620  51.686  18.475  1.00  0.00    -0.393 OA
ATOM     34  H   UNL     1      70.470  52.039  19.391  1.00  0.00     0.210 HD
ENDBRANCH  27  33
TORSDOF 2
ENDMDL
MODEL 5
REMARK VINA RESULT:    -5.450      2.306      4.243
REMARK INTER + INTRA:          -6.237
REMARK INTER:                  -5.925
REMARK INTRA:                  -0.312
REMARK UNBOUND:                -0.308
REMARK SMILES C[C@H]1[C@H](C)CC[C@]2(C(=O)[O-])CC[C@@]3(C)C(=CC[C@H]4[C@@]5(C)CC[C@@H](O)C(C)(C)[C@H]5CC[C@]43C)[C@H]12
REMARK SMILES IDX 7 1 6 2 11 3 33 4 5 5 12 6 15 7 2 8 3 9 13 10 16 11 1 12
REMARK SMILES IDX 4 13 14 14 31 15 17 16 18 17 30 18 32 19 19 20 29 21 28 22
REMARK SMILES IDX 21 23 20 24 25 25 22 26 23 27 26 28 27 29 8 30 9 31 10 32
REMARK SMILES IDX 24 33
REMARK H PARENT 24 34
REMARK Flexibility Score: inf
ROOT
ATOM      1  C   UNL     1      72.366  55.204  18.927  1.00  0.00     0.017 C 
ATOM      2  C   UNL     1      72.406  53.827  18.197  1.00  0.00     0.014 C 
ATOM      3  C   UNL     1      72.257  54.873  20.469  1.00  0.00     0.014 C 
ATOM      4  C   UNL     1      71.169  56.158  18.456  1.00  0.00     0.030 C 
ATOM      5  C   UNL     1      72.003  53.880  16.729  1.00  0.00     0.004 C 
ATOM      6  C   UNL     1      71.917  56.046  21.439  1.00  0.00     0.013 C 
ATOM      7  C   UNL     1      70.262  56.489  19.650  1.00  0.00    -0.063 C 
ATOM      8  C   UNL     1      70.422  55.848  17.093  1.00  0.00    -0.003 C 
ATOM      9  C   UNL     1      70.571  54.395  16.561  1.00  0.00    -0.011 C 
ATOM     10  C   UNL     1      70.949  57.150  20.861  1.00  0.00    -0.006 C 
ATOM     11  C   UNL     1      69.171  55.730  19.881  1.00  0.00    -0.027 C 
ATOM     12  C   UNL     1      70.844  56.843  15.986  1.00  0.00     0.008 C 
ATOM     13  C   UNL     1      69.526  53.427  17.144  1.00  0.00     0.008 C 
ATOM     14  C   UNL     1      71.869  58.333  20.397  1.00  0.00     0.017 C 
ATOM     15  C   UNL     1      69.836  57.720  21.912  1.00  0.00    -0.020 C 
ATOM     16  C   UNL     1      68.701  55.474  21.279  1.00  0.00     0.032 C 
ATOM     17  C   UNL     1      68.541  56.804  22.038  1.00  0.00     0.006 C 
ATOM     18  C   UNL     1      70.469  57.924  23.308  1.00  0.00     0.008 C 
ATOM     19  C   UNL     1      69.336  59.123  21.415  1.00  0.00     0.012 C 
ATOM     20  C   UNL     1      67.864  56.632  23.484  1.00  0.00    -0.025 C 
ATOM     21  C   UNL     1      69.518  58.506  24.347  1.00  0.00     0.005 C 
ATOM     22  C   UNL     1      68.062  57.928  24.385  1.00  0.00     0.003 C 
ATOM     23  C   UNL     1      68.427  55.391  24.250  1.00  0.00     0.010 C 
ATOM     24  C   UNL     1      66.334  56.394  23.206  1.00  0.00     0.012 C 
ATOM     25  C   UNL     1      67.535  57.790  25.887  1.00  0.00    -0.006 C 
ATOM     26  C   UNL     1      67.912  55.240  25.695  1.00  0.00     0.033 C 
ATOM     27  C   UNL     1      68.111  56.498  26.557  1.00  0.00     0.120 C 
ATOM     28  C   UNL     1      65.978  57.756  25.954  1.00  0.00     0.014 C 
ATOM     29  C   UNL     1      67.913  59.044  26.738  1.00  0.00     0.014 C 
ENDROOT
BRANCH   1  30
ATOM     30  C   UNL     1      73.705  55.886  18.651  1.00  0.00     0.048 C 
ATOM     31  O   UNL     1      73.775  56.832  17.821  1.00  0.00    -0.550 OA
ATOM     32  O   UNL     1      74.875  55.452  19.266  1.00  0.00    -0.550 OA
ENDBRANCH   1  30
BRANCH  27  33
ATOM     33  O   UNL     1      69.485  56.625  26.836  1.00  0.00    -0.393 OA
ATOM     34  H   UNL     1      69.755  55.838  27.377  1.00  0.00     0.210 HD
ENDBRANCH  27  33
TORSDOF 2
ENDMDL
MODEL 6
REMARK VINA RESULT:    -5.414      1.867      7.902
REMARK INTER + INTRA:          -6.197
REMARK INTER:                  -5.885
REMARK INTRA:                  -0.312
REMARK UNBOUND:                -0.308
REMARK SMILES C[C@H]1[C@H](C)CC[C@]2(C(=O)[O-])CC[C@@]3(C)C(=CC[C@H]4[C@@]5(C)CC[C@@H](O)C(C)(C)[C@H]5CC[C@]43C)[C@H]12
REMARK SMILES IDX 7 1 6 2 11 3 33 4 5 5 12 6 15 7 2 8 3 9 13 10 16 11 1 12
REMARK SMILES IDX 4 13 14 14 31 15 17 16 18 17 30 18 32 19 19 20 29 21 28 22
REMARK SMILES IDX 21 23 20 24 25 25 22 26 23 27 26 28 27 29 8 30 9 31 10 32
REMARK SMILES IDX 24 33
REMARK H PARENT 24 34
REMARK Flexibility Score: inf
ROOT
ATOM      1  C   UNL     1      68.711  55.835  25.540  1.00  0.00     0.017 C 
ATOM      2  C   UNL     1      68.925  54.921  26.786  1.00  0.00     0.014 C 
ATOM      3  C   UNL     1      68.308  54.866  24.358  1.00  0.00     0.014 C 
ATOM      4  C   UNL     1      69.988  56.720  25.151  1.00  0.00     0.030 C 
ATOM      5  C   UNL     1      69.790  55.538  27.878  1.00  0.00     0.004 C 
ATOM      6  C   UNL     1      68.299  55.453  22.913  1.00  0.00     0.013 C 
ATOM      7  C   UNL     1      70.447  56.378  23.727  1.00  0.00    -0.063 C 
ATOM      8  C   UNL     1      71.145  56.918  26.217  1.00  0.00    -0.003 C 
ATOM      9  C   UNL     1      71.192  55.868  27.362  1.00  0.00    -0.011 C 
ATOM     10  C   UNL     1      69.394  56.549  22.616  1.00  0.00    -0.006 C 
ATOM     11  C   UNL     1      71.408  55.448  23.548  1.00  0.00    -0.027 C 
ATOM     12  C   UNL     1      71.103  58.339  26.828  1.00  0.00     0.008 C 
ATOM     13  C   UNL     1      71.995  54.608  26.993  1.00  0.00     0.008 C 
ATOM     14  C   UNL     1      68.668  57.934  22.749  1.00  0.00     0.017 C 
ATOM     15  C   UNL     1      70.093  56.454  21.142  1.00  0.00    -0.020 C 
ATOM     16  C   UNL     1      71.393  54.557  22.346  1.00  0.00     0.032 C 
ATOM     17  C   UNL     1      71.282  55.399  21.060  1.00  0.00     0.006 C 
ATOM     18  C   UNL     1      69.034  56.129  20.064  1.00  0.00     0.008 C 
ATOM     19  C   UNL     1      70.716  57.849  20.781  1.00  0.00     0.012 C 
ATOM     20  C   UNL     1      71.445  54.534  19.718  1.00  0.00    -0.025 C 
ATOM     21  C   UNL     1      69.583  56.073  18.643  1.00  0.00     0.005 C 
ATOM     22  C   UNL     1      70.951  55.335  18.437  1.00  0.00     0.003 C 
ATOM     23  C   UNL     1      70.672  53.177  19.798  1.00  0.00     0.010 C 
ATOM     24  C   UNL     1      72.983  54.224  19.603  1.00  0.00     0.012 C 
ATOM     25  C   UNL     1      70.954  54.497  17.077  1.00  0.00    -0.006 C 
ATOM     26  C   UNL     1      70.684  52.354  18.495  1.00  0.00     0.033 C 
ATOM     27  C   UNL     1      70.201  53.138  17.264  1.00  0.00     0.120 C 
ATOM     28  C   UNL     1      72.402  54.219  16.571  1.00  0.00     0.014 C 
ATOM     29  C   UNL     1      70.306  55.308  15.909  1.00  0.00     0.014 C 
ENDROOT
BRANCH   1  30
ATOM     30  C   UNL     1      67.531  56.750  25.866  1.00  0.00     0.048 C 
ATOM     31  O   UNL     1      67.732  57.953  26.183  1.00  0.00    -0.550 OA
ATOM     32  O   UNL     1      66.225  56.270  25.868  1.00  0.00    -0.550 OA
ENDBRANCH   1  30
BRANCH  27  33
ATOM     33  O   UNL     1      68.811  53.326  17.382  1.00  0.00    -0.393 OA
ATOM     34  H   UNL     1      68.649  54.299  17.495  1.00  0.00     0.210 HD
ENDBRANCH  27  33
TORSDOF 2
ENDMDL
MODEL 7
REMARK VINA RESULT:    -5.365      2.570      8.192
REMARK INTER + INTRA:          -6.144
REMARK INTER:                  -6.404
REMARK INTRA:                   0.260
REMARK UNBOUND:                -0.308
REMARK SMILES C[C@H]1[C@H](C)CC[C@]2(C(=O)[O-])CC[C@@]3(C)C(=CC[C@H]4[C@@]5(C)CC[C@@H](O)C(C)(C)[C@H]5CC[C@]43C)[C@H]12
REMARK SMILES IDX 7 1 6 2 11 3 33 4 5 5 12 6 15 7 2 8 3 9 13 10 16 11 1 12
REMARK SMILES IDX 4 13 14 14 31 15 17 16 18 17 30 18 32 19 19 20 29 21 28 22
REMARK SMILES IDX 21 23 20 24 25 25 22 26 23 27 26 28 27 29 8 30 9 31 10 32
REMARK SMILES IDX 24 33
REMARK H PARENT 24 34
REMARK Flexibility Score: inf
ROOT
ATOM      1  C   UNL     1      66.435  57.165  24.041  1.00  0.00     0.017 C 
ATOM      2  C   UNL     1      65.822  56.385  25.244  1.00  0.00     0.014 C 
ATOM      3  C   UNL     1      66.334  56.192  22.799  1.00  0.00     0.014 C 
ATOM      4  C   UNL     1      67.944  57.646  24.276  1.00  0.00     0.030 C 
ATOM      5  C   UNL     1      66.259  56.893  26.612  1.00  0.00     0.004 C 
ATOM      6  C   UNL     1      67.120  56.582  21.509  1.00  0.00     0.013 C 
ATOM      7  C   UNL     1      68.863  57.029  23.211  1.00  0.00    -0.063 C 
ATOM      8  C   UNL     1      68.527  57.676  25.750  1.00  0.00    -0.003 C 
ATOM      9  C   UNL     1      67.775  56.795  26.787  1.00  0.00    -0.011 C 
ATOM     10  C   UNL     1      68.492  57.323  21.744  1.00  0.00    -0.006 C 
ATOM     11  C   UNL     1      69.503  55.873  23.481  1.00  0.00    -0.027 C 
ATOM     12  C   UNL     1      68.621  59.125  26.283  1.00  0.00     0.008 C 
ATOM     13  C   UNL     1      68.272  55.338  26.815  1.00  0.00     0.008 C 
ATOM     14  C   UNL     1      68.199  58.851  21.543  1.00  0.00     0.017 C 
ATOM     15  C   UNL     1      69.705  56.877  20.745  1.00  0.00    -0.020 C 
ATOM     16  C   UNL     1      69.765  54.875  22.397  1.00  0.00     0.032 C 
ATOM     17  C   UNL     1      70.464  55.555  21.204  1.00  0.00     0.006 C 
ATOM     18  C   UNL     1      69.178  56.700  19.303  1.00  0.00     0.008 C 
ATOM     19  C   UNL     1      70.786  58.015  20.712  1.00  0.00     0.012 C 
ATOM     20  C   UNL     1      70.947  54.519  20.076  1.00  0.00    -0.025 C 
ATOM     21  C   UNL     1      70.250  56.335  18.284  1.00  0.00     0.005 C 
ATOM     22  C   UNL     1      71.305  55.257  18.714  1.00  0.00     0.003 C 
ATOM     23  C   UNL     1      69.871  53.421  19.791  1.00  0.00     0.010 C 
ATOM     24  C   UNL     1      72.227  53.821  20.667  1.00  0.00     0.012 C 
ATOM     25  C   UNL     1      71.666  54.286  17.498  1.00  0.00    -0.006 C 
ATOM     26  C   UNL     1      70.219  52.469  18.630  1.00  0.00     0.033 C 
ATOM     27  C   UNL     1      70.560  53.193  17.317  1.00  0.00     0.120 C 
ATOM     28  C   UNL     1      73.048  53.594  17.700  1.00  0.00     0.014 C 
ATOM     29  C   UNL     1      71.845  55.086  16.167  1.00  0.00     0.014 C 
ENDROOT
BRANCH   1  30
ATOM     30  C   UNL     1      65.539  58.380  23.803  1.00  0.00     0.048 C 
ATOM     31  O   UNL     1      65.163  59.089  24.775  1.00  0.00    -0.550 OA
ATOM     32  O   UNL     1      65.083  58.701  22.529  1.00  0.00    -0.550 OA
ENDBRANCH   1  30
BRANCH  27  33
ATOM     33  O   UNL     1      69.372  53.738  16.795  1.00  0.00    -0.393 OA
ATOM     34  H   UNL     1      69.596  54.619  16.395  1.00  0.00     0.210 HD
ENDBRANCH  27  33
TORSDOF 2
ENDMDL
MODEL 8
REMARK VINA RESULT:    -5.294      1.791      3.420
REMARK INTER + INTRA:          -6.067
REMARK INTER:                  -5.775
REMARK INTRA:                  -0.292
REMARK UNBOUND:                -0.308
REMARK SMILES C[C@H]1[C@H](C)CC[C@]2(C(=O)[O-])CC[C@@]3(C)C(=CC[C@H]4[C@@]5(C)CC[C@@H](O)C(C)(C)[C@H]5CC[C@]43C)[C@H]12
REMARK SMILES IDX 7 1 6 2 11 3 33 4 5 5 12 6 15 7 2 8 3 9 13 10 16 11 1 12
REMARK SMILES IDX 4 13 14 14 31 15 17 16 18 17 30 18 32 19 19 20 29 21 28 22
REMARK SMILES IDX 21 23 20 24 25 25 22 26 23 27 26 28 27 29 8 30 9 31 10 32
REMARK SMILES IDX 24 33
REMARK H PARENT 24 34
REMARK Flexibility Score: inf
ROOT
ATOM      1  C   UNL     1      73.079  55.018  17.959  1.00  0.00     0.017 C 
ATOM      2  C   UNL     1      72.327  54.631  16.649  1.00  0.00     0.014 C 
ATOM      3  C   UNL     1      72.476  54.096  19.092  1.00  0.00     0.014 C 
ATOM      4  C   UNL     1      72.957  56.567  18.350  1.00  0.00     0.030 C 
ATOM      5  C   UNL     1      72.365  55.700  15.563  1.00  0.00     0.004 C 
ATOM      6  C   UNL     1      72.828  54.442  20.572  1.00  0.00     0.013 C 
ATOM      7  C   UNL     1      72.295  56.709  19.728  1.00  0.00    -0.063 C 
ATOM      8  C   UNL     1      72.483  57.607  17.251  1.00  0.00    -0.003 C 
ATOM      9  C   UNL     1      71.720  57.003  16.039  1.00  0.00    -0.011 C 
ATOM     10  C   UNL     1      72.991  55.977  20.892  1.00  0.00    -0.006 C 
ATOM     11  C   UNL     1      70.960  56.889  19.804  1.00  0.00    -0.027 C 
ATOM     12  C   UNL     1      73.671  58.454  16.736  1.00  0.00     0.008 C 
ATOM     13  C   UNL     1      70.208  56.855  16.289  1.00  0.00     0.008 C 
ATOM     14  C   UNL     1      74.534  56.261  20.881  1.00  0.00     0.017 C 
ATOM     15  C   UNL     1      72.371  56.459  22.325  1.00  0.00    -0.020 C 
ATOM     16  C   UNL     1      70.177  56.320  20.945  1.00  0.00     0.032 C 
ATOM     17  C   UNL     1      70.805  56.744  22.286  1.00  0.00     0.006 C 
ATOM     18  C   UNL     1      72.684  55.419  23.424  1.00  0.00     0.008 C 
ATOM     19  C   UNL     1      73.053  57.808  22.749  1.00  0.00     0.012 C 
ATOM     20  C   UNL     1      69.921  56.329  23.561  1.00  0.00    -0.025 C 
ATOM     21  C   UNL     1      72.191  55.807  24.813  1.00  0.00     0.005 C 
ATOM     22  C   UNL     1      70.754  56.427  24.912  1.00  0.00     0.003 C 
ATOM     23  C   UNL     1      69.340  54.884  23.426  1.00  0.00     0.010 C 
ATOM     24  C   UNL     1      68.723  57.348  23.589  1.00  0.00     0.012 C 
ATOM     25  C   UNL     1      69.989  55.903  26.213  1.00  0.00    -0.006 C 
ATOM     26  C   UNL     1      68.586  54.377  24.671  1.00  0.00     0.033 C 
ATOM     27  C   UNL     1      69.402  54.473  25.970  1.00  0.00     0.120 C 
ATOM     28  C   UNL     1      68.840  56.868  26.636  1.00  0.00     0.014 C 
ATOM     29  C   UNL     1      70.933  55.886  27.458  1.00  0.00     0.014 C 
ENDROOT
BRANCH   1  30
ATOM     30  C   UNL     1      74.549  54.657  17.745  1.00  0.00     0.048 C 
ATOM     31  O   UNL     1      74.947  53.478  17.943  1.00  0.00    -0.550 OA
ATOM     32  O   UNL     1      75.481  55.621  17.376  1.00  0.00    -0.550 OA
ENDBRANCH   1  30
BRANCH  27  33
ATOM     33  O   UNL     1      70.414  53.496  25.924  1.00  0.00    -0.393 OA
ATOM     34  H   UNL     1      70.749  53.455  24.990  1.00  0.00     0.210 HD
ENDBRANCH  27  33
TORSDOF 2
ENDMDL
MODEL 9
REMARK VINA RESULT:    -5.268      1.707      2.637
REMARK INTER + INTRA:          -6.039
REMARK INTER:                  -5.729
REMARK INTRA:                  -0.310
REMARK UNBOUND:                -0.308
REMARK SMILES C[C@H]1[C@H](C)CC[C@]2(C(=O)[O-])CC[C@@]3(C)C(=CC[C@H]4[C@@]5(C)CC[C@@H](O)C(C)(C)[C@H]5CC[C@]43C)[C@H]12
REMARK SMILES IDX 7 1 6 2 11 3 33 4 5 5 12 6 15 7 2 8 3 9 13 10 16 11 1 12
REMARK SMILES IDX 4 13 14 14 31 15 17 16 18 17 30 18 32 19 19 20 29 21 28 22
REMARK SMILES IDX 21 23 20 24 25 25 22 26 23 27 26 28 27 29 8 30 9 31 10 32
REMARK SMILES IDX 24 33
REMARK H PARENT 24 34
REMARK Flexibility Score: inf
ROOT
ATOM      1  C   UNL     1      71.945  57.059  18.333  1.00  0.00     0.017 C 
ATOM      2  C   UNL     1      73.449  57.081  17.919  1.00  0.00     0.014 C 
ATOM      3  C   UNL     1      71.864  57.830  19.710  1.00  0.00     0.014 C 
ATOM      4  C   UNL     1      71.322  55.589  18.456  1.00  0.00     0.030 C 
ATOM      5  C   UNL     1      73.844  55.997  16.925  1.00  0.00     0.004 C 
ATOM      6  C   UNL     1      70.532  57.734  20.516  1.00  0.00     0.013 C 
ATOM      7  C   UNL     1      70.812  55.355  19.885  1.00  0.00    -0.063 C 
ATOM      8  C   UNL     1      72.084  54.368  17.792  1.00  0.00    -0.003 C 
ATOM      9  C   UNL     1      73.592  54.598  17.493  1.00  0.00    -0.011 C 
ATOM     10  C   UNL     1      69.765  56.361  20.404  1.00  0.00    -0.006 C 
ATOM     11  C   UNL     1      71.623  54.766  20.788  1.00  0.00    -0.027 C 
ATOM     12  C   UNL     1      71.372  53.903  16.499  1.00  0.00     0.008 C 
ATOM     13  C   UNL     1      74.502  54.278  18.693  1.00  0.00     0.008 C 
ATOM     14  C   UNL     1      68.634  56.581  19.338  1.00  0.00     0.017 C 
ATOM     15  C   UNL     1      69.091  55.823  21.792  1.00  0.00    -0.020 C 
ATOM     16  C   UNL     1      71.558  55.147  22.235  1.00  0.00     0.032 C 
ATOM     17  C   UNL     1      70.107  55.054  22.745  1.00  0.00     0.006 C 
ATOM     18  C   UNL     1      68.439  56.994  22.562  1.00  0.00     0.008 C 
ATOM     19  C   UNL     1      67.953  54.799  21.444  1.00  0.00     0.012 C 
ATOM     20  C   UNL     1      69.978  55.267  24.331  1.00  0.00    -0.025 C 
ATOM     21  C   UNL     1      67.735  56.582  23.849  1.00  0.00     0.005 C 
ATOM     22  C   UNL     1      68.474  55.548  24.767  1.00  0.00     0.003 C 
ATOM     23  C   UNL     1      70.881  56.436  24.841  1.00  0.00     0.010 C 
ATOM     24  C   UNL     1      70.487  53.926  24.978  1.00  0.00     0.012 C 
ATOM     25  C   UNL     1      68.277  55.904  26.312  1.00  0.00    -0.006 C 
ATOM     26  C   UNL     1      70.709  56.776  26.335  1.00  0.00     0.033 C 
ATOM     27  C   UNL     1      69.253  57.049  26.743  1.00  0.00     0.120 C 
ATOM     28  C   UNL     1      68.503  54.661  27.225  1.00  0.00     0.014 C 
ATOM     29  C   UNL     1      66.801  56.320  26.614  1.00  0.00     0.014 C 
ENDROOT
BRANCH   1  30
ATOM     30  C   UNL     1      71.186  57.850  17.267  1.00  0.00     0.048 C 
ATOM     31  O   UNL     1      71.258  59.108  17.241  1.00  0.00    -0.550 OA
ATOM     32  O   UNL     1      70.368  57.211  16.341  1.00  0.00    -0.550 OA
ENDBRANCH   1  30
BRANCH  27  33
ATOM     33  O   UNL     1      68.870  58.289  26.200  1.00  0.00    -0.393 OA
ATOM     34  H   UNL     1      68.605  58.134  25.256  1.00  0.00     0.210 HD
ENDBRANCH  27  33
TORSDOF 2
ENDMDL
