MODEL 1
REMARK VINA RESULT:    -4.300      0.000      0.000
REMARK INTER + INTRA:          -8.151
REMARK INTER:                  -6.814
REMARK INTRA:                  -1.337
REMARK UNBOUND:                -1.337
REMARK SMILES CCCCCCCCCCCC(=O)[O-]
REMARK SMILES IDX 7 1 8 2 9 3 10 4 11 5 12 6 13 7 14 8 6 9 5 10 4 11 3 12 2 13
REMARK SMILES IDX 1 14
REMARK H PARENT
REMARK Flexibility Score: inf
ROOT
ATOM      1  C   UNL     1      54.487  39.659  47.114  1.00  0.00     0.000 C 
ENDROOT
BRANCH   1   2
ATOM      2  C   UNL     1      54.908  39.840  48.583  1.00  0.00     0.000 C 
BRANCH   2   3
ATOM      3  C   UNL     1      55.210  38.505  49.280  1.00  0.00     0.000 C 
BRANCH   3   4
ATOM      4  C   UNL     1      54.754  38.487  50.751  1.00  0.00     0.006 C 
BRANCH   4   5
ATOM      5  C   UNL     1      53.286  38.906  50.906  1.00  0.00     0.053 C 
BRANCH   5   6
ATOM      6  C   UNL     1      53.138  40.066  51.841  1.00  0.00     0.041 C 
ATOM      7  O   UNL     1      54.129  40.483  52.498  1.00  0.00    -0.550 OA
ATOM      8  O   UNL     1      51.897  40.667  52.013  1.00  0.00    -0.550 OA
ENDBRANCH   5   6
ENDBRANCH   4   5
ENDBRANCH   3   4
ENDBRANCH   2   3
ENDBRANCH   1   2
BRANCH   1   9
ATOM      9  C   UNL     1      52.973  39.827  46.909  1.00  0.00     0.000 C 
BRANCH   9  10
ATOM     10  C   UNL     1      52.339  40.780  47.938  1.00  0.00    -0.000 C 
BRANCH  10  11
ATOM     11  C   UNL     1      51.972  42.146  47.334  1.00  0.00    -0.000 C 
BRANCH  11  12
ATOM     12  C   UNL     1      52.616  43.320  48.091  1.00  0.00    -0.000 C 
BRANCH  12  13
ATOM     13  C   UNL     1      52.887  42.990  49.567  1.00  0.00    -0.003 C 
ATOM     14  C   UNL     1      54.334  43.260  49.980  1.00  0.00     0.004 C 
ENDBRANCH  12  13
ENDBRANCH  11  12
ENDBRANCH  10  11
ENDBRANCH   9  10
ENDBRANCH   1   9
TORSDOF 10
ENDMDL
MODEL 2
REMARK VINA RESULT:    -4.249      1.005      1.598
REMARK INTER + INTRA:          -8.070
REMARK INTER:                  -6.689
REMARK INTRA:                  -1.380
REMARK UNBOUND:                -1.337
REMARK SMILES CCCCCCCCCCCC(=O)[O-]
REMARK SMILES IDX 7 1 8 2 9 3 10 4 11 5 12 6 13 7 14 8 6 9 5 10 4 11 3 12 2 13
REMARK SMILES IDX 1 14
REMARK H PARENT
REMARK Flexibility Score: inf
ROOT
ATOM      1  C   UNL     1      55.067  39.656  48.564  1.00  0.00     0.000 C 
ENDROOT
BRANCH   1   2
ATOM      2  C   UNL     1      55.195  38.496  49.566  1.00  0.00     0.000 C 
BRANCH   2   3
ATOM      3  C   UNL     1      54.110  38.531  50.653  1.00  0.00     0.000 C 
BRANCH   3   4
ATOM      4  C   UNL     1      54.018  39.899  51.355  1.00  0.00     0.006 C 
BRANCH   4   5
ATOM      5  C   UNL     1      52.564  40.315  51.620  1.00  0.00     0.053 C 
BRANCH   5   6
ATOM      6  C   UNL     1      52.485  41.476  52.563  1.00  0.00     0.041 C 
ATOM      7  O   UNL     1      53.027  41.410  53.698  1.00  0.00    -0.550 OA
ATOM      8  O   UNL     1      51.784  42.619  52.202  1.00  0.00    -0.550 OA
ENDBRANCH   5   6
ENDBRANCH   4   5
ENDBRANCH   3   4
ENDBRANCH   2   3
ENDBRANCH   1   2
BRANCH   1   9
ATOM      9  C   UNL     1      54.504  39.206  47.206  1.00  0.00     0.000 C 
BRANCH   9  10
ATOM     10  C   UNL     1      53.250  39.998  46.794  1.00  0.00    -0.000 C 
BRANCH  10  11
ATOM     11  C   UNL     1      52.608  40.746  47.974  1.00  0.00    -0.000 C 
BRANCH  11  12
ATOM     12  C   UNL     1      52.303  42.218  47.648  1.00  0.00    -0.000 C 
BRANCH  12  13
ATOM     13  C   UNL     1      52.648  43.162  48.810  1.00  0.00    -0.003 C 
ATOM     14  C   UNL     1      54.099  43.029  49.273  1.00  0.00     0.004 C 
ENDBRANCH  12  13
ENDBRANCH  11  12
ENDBRANCH  10  11
ENDBRANCH   9  10
ENDBRANCH   1   9
TORSDOF 10
ENDMDL
MODEL 3
REMARK VINA RESULT:    -4.238      1.325      2.155
REMARK INTER + INTRA:          -8.053
REMARK INTER:                  -7.214
REMARK INTRA:                  -0.838
REMARK UNBOUND:                -1.337
REMARK SMILES CCCCCCCCCCCC(=O)[O-]
REMARK SMILES IDX 7 1 8 2 9 3 10 4 11 5 12 6 13 7 14 8 6 9 5 10 4 11 3 12 2 13
REMARK SMILES IDX 1 14
REMARK H PARENT
REMARK Flexibility Score: inf
ROOT
ATOM      1  C   UNL     1      54.923  39.752  48.704  1.00  0.00     0.000 C 
ENDROOT
BRANCH   1   2
ATOM      2  C   UNL     1      55.616  38.719  49.609  1.00  0.00     0.000 C 
BRANCH   2   3
ATOM      3  C   UNL     1      54.638  38.025  50.570  1.00  0.00     0.000 C 
BRANCH   3   4
ATOM      4  C   UNL     1      53.437  38.914  50.940  1.00  0.00     0.006 C 
BRANCH   4   5
ATOM      5  C   UNL     1      53.810  39.988  51.971  1.00  0.00     0.053 C 
BRANCH   5   6
ATOM      6  C   UNL     1      52.667  40.919  52.238  1.00  0.00     0.041 C 
ATOM      7  O   UNL     1      51.710  40.999  51.423  1.00  0.00    -0.550 OA
ATOM      8  O   UNL     1      52.674  41.722  53.371  1.00  0.00    -0.550 OA
ENDBRANCH   5   6
ENDBRANCH   4   5
ENDBRANCH   3   4
ENDBRANCH   2   3
ENDBRANCH   1   2
BRANCH   1   9
ATOM      9  C   UNL     1      54.461  39.151  47.366  1.00  0.00     0.000 C 
BRANCH   9  10
ATOM     10  C   UNL     1      53.237  39.879  46.782  1.00  0.00    -0.000 C 
BRANCH  10  11
ATOM     11  C   UNL     1      52.247  40.335  47.867  1.00  0.00    -0.000 C 
BRANCH  11  12
ATOM     12  C   UNL     1      52.151  41.868  47.973  1.00  0.00    -0.000 C 
BRANCH  12  13
ATOM     13  C   UNL     1      52.623  42.576  46.694  1.00  0.00    -0.003 C 
ATOM     14  C   UNL     1      51.738  43.763  46.311  1.00  0.00     0.004 C 
ENDBRANCH  12  13
ENDBRANCH  11  12
ENDBRANCH  10  11
ENDBRANCH   9  10
ENDBRANCH   1   9
TORSDOF 10
ENDMDL
MODEL 4
REMARK VINA RESULT:    -4.238      1.816      3.457
REMARK INTER + INTRA:          -8.052
REMARK INTER:                  -6.768
REMARK INTRA:                  -1.284
REMARK UNBOUND:                -1.337
REMARK SMILES CCCCCCCCCCCC(=O)[O-]
REMARK SMILES IDX 7 1 8 2 9 3 10 4 11 5 12 6 13 7 14 8 6 9 5 10 4 11 3 12 2 13
REMARK SMILES IDX 1 14
REMARK H PARENT
REMARK Flexibility Score: inf
ROOT
ATOM      1  C   UNL     1      52.285  42.245  47.286  1.00  0.00     0.000 C 
ENDROOT
BRANCH   1   2
ATOM      2  C   UNL     1      52.433  40.779  47.730  1.00  0.00     0.000 C 
BRANCH   2   3
ATOM      3  C   UNL     1      53.325  39.962  46.783  1.00  0.00     0.000 C 
BRANCH   3   4
ATOM      4  C   UNL     1      54.456  39.223  47.521  1.00  0.00     0.006 C 
BRANCH   4   5
ATOM      5  C   UNL     1      54.339  39.365  49.045  1.00  0.00     0.053 C 
BRANCH   5   6
ATOM      6  C   UNL     1      55.467  38.679  49.752  1.00  0.00     0.041 C 
ATOM      7  O   UNL     1      56.661  38.964  49.469  1.00  0.00    -0.550 OA
ATOM      8  O   UNL     1      55.201  37.702  50.703  1.00  0.00    -0.550 OA
ENDBRANCH   5   6
ENDBRANCH   4   5
ENDBRANCH   3   4
ENDBRANCH   2   3
ENDBRANCH   1   2
BRANCH   1   9
ATOM      9  C   UNL     1      52.620  43.240  48.409  1.00  0.00     0.000 C 
BRANCH   9  10
ATOM     10  C   UNL     1      54.019  43.005  49.008  1.00  0.00    -0.000 C 
BRANCH  10  11
ATOM     11  C   UNL     1      53.983  42.805  50.532  1.00  0.00    -0.000 C 
BRANCH  11  12
ATOM     12  C   UNL     1      52.620  43.171  51.145  1.00  0.00    -0.000 C 
BRANCH  12  13
ATOM     13  C   UNL     1      52.084  42.077  52.083  1.00  0.00    -0.003 C 
ATOM     14  C   UNL     1      51.848  40.746  51.370  1.00  0.00     0.004 C 
ENDBRANCH  12  13
ENDBRANCH  11  12
ENDBRANCH  10  11
ENDBRANCH   9  10
ENDBRANCH   1   9
TORSDOF 10
ENDMDL
MODEL 5
REMARK VINA RESULT:    -4.227      0.981      3.717
REMARK INTER + INTRA:          -8.035
REMARK INTER:                  -6.764
REMARK INTRA:                  -1.271
REMARK UNBOUND:                -1.337
REMARK SMILES CCCCCCCCCCCC(=O)[O-]
REMARK SMILES IDX 7 1 8 2 9 3 10 4 11 5 12 6 13 7 14 8 6 9 5 10 4 11 3 12 2 13
REMARK SMILES IDX 1 14
REMARK H PARENT
REMARK Flexibility Score: inf
ROOT
ATOM      1  C   UNL     1      52.484  40.742  47.954  1.00  0.00     0.000 C 
ENDROOT
BRANCH   1   2
ATOM      2  C   UNL     1      52.213  42.207  47.568  1.00  0.00     0.000 C 
BRANCH   2   3
ATOM      3  C   UNL     1      52.623  43.194  48.672  1.00  0.00     0.000 C 
BRANCH   3   4
ATOM      4  C   UNL     1      53.293  42.499  49.871  1.00  0.00     0.006 C 
BRANCH   4   5
ATOM      5  C   UNL     1      52.629  42.876  51.203  1.00  0.00     0.053 C 
BRANCH   5   6
ATOM      6  C   UNL     1      52.249  41.662  51.994  1.00  0.00     0.041 C 
ATOM      7  O   UNL     1      51.555  40.752  51.467  1.00  0.00    -0.550 OA
ATOM      8  O   UNL     1      52.633  41.550  53.324  1.00  0.00    -0.550 OA
ENDBRANCH   5   6
ENDBRANCH   4   5
ENDBRANCH   3   4
ENDBRANCH   2   3
ENDBRANCH   1   2
BRANCH   1   9
ATOM      9  C   UNL     1      53.087  39.928  46.798  1.00  0.00     0.000 C 
BRANCH   9  10
ATOM     10  C   UNL     1      54.459  39.326  47.151  1.00  0.00    -0.000 C 
BRANCH  10  11
ATOM     11  C   UNL     1      55.364  40.316  47.904  1.00  0.00    -0.000 C 
BRANCH  11  12
ATOM     12  C   UNL     1      55.800  39.789  49.282  1.00  0.00    -0.000 C 
BRANCH  12  13
ATOM     13  C   UNL     1      55.156  38.437  49.625  1.00  0.00    -0.003 C 
ATOM     14  C   UNL     1      54.094  38.545  50.720  1.00  0.00     0.004 C 
ENDBRANCH  12  13
ENDBRANCH  11  12
ENDBRANCH  10  11
ENDBRANCH   9  10
ENDBRANCH   1   9
TORSDOF 10
ENDMDL
MODEL 6
REMARK VINA RESULT:    -4.201      1.708      3.653
REMARK INTER + INTRA:          -7.993
REMARK INTER:                  -7.047
REMARK INTRA:                  -0.947
REMARK UNBOUND:                -1.337
REMARK SMILES CCCCCCCCCCCC(=O)[O-]
REMARK SMILES IDX 7 1 8 2 9 3 10 4 11 5 12 6 13 7 14 8 6 9 5 10 4 11 3 12 2 13
REMARK SMILES IDX 1 14
REMARK H PARENT
REMARK Flexibility Score: inf
ROOT
ATOM      1  C   UNL     1      53.083  43.022  50.894  1.00  0.00     0.000 C 
ENDROOT
BRANCH   1   2
ATOM      2  C   UNL     1      52.158  42.238  51.840  1.00  0.00     0.000 C 
BRANCH   2   3
ATOM      3  C   UNL     1      52.025  40.759  51.444  1.00  0.00     0.000 C 
BRANCH   3   4
ATOM      4  C   UNL     1      53.274  39.934  51.804  1.00  0.00     0.006 C 
BRANCH   4   5
ATOM      5  C   UNL     1      53.434  38.704  50.899  1.00  0.00     0.053 C 
BRANCH   5   6
ATOM      6  C   UNL     1      54.864  38.487  50.509  1.00  0.00     0.041 C 
ATOM      7  O   UNL     1      55.182  38.379  49.295  1.00  0.00    -0.550 OA
ATOM      8  O   UNL     1      55.842  38.371  51.488  1.00  0.00    -0.550 OA
ENDBRANCH   5   6
ENDBRANCH   4   5
ENDBRANCH   3   4
ENDBRANCH   2   3
ENDBRANCH   1   2
BRANCH   1   9
ATOM      9  C   UNL     1      53.337  42.285  49.569  1.00  0.00     0.000 C 
BRANCH   9  10
ATOM     10  C   UNL     1      52.599  42.930  48.383  1.00  0.00    -0.000 C 
BRANCH  10  11
ATOM     11  C   UNL     1      51.995  41.888  47.425  1.00  0.00    -0.000 C 
BRANCH  11  12
ATOM     12  C   UNL     1      52.326  40.443  47.838  1.00  0.00    -0.000 C 
BRANCH  12  13
ATOM     13  C   UNL     1      53.160  39.706  46.779  1.00  0.00    -0.003 C 
ATOM     14  C   UNL     1      54.463  40.431  46.438  1.00  0.00     0.004 C 
ENDBRANCH  12  13
ENDBRANCH  11  12
ENDBRANCH  10  11
ENDBRANCH   9  10
ENDBRANCH   1   9
TORSDOF 10
ENDMDL
MODEL 7
REMARK VINA RESULT:    -4.167      2.709      4.833
REMARK INTER + INTRA:          -7.939
REMARK INTER:                  -6.661
REMARK INTRA:                  -1.278
REMARK UNBOUND:                -1.337
REMARK SMILES CCCCCCCCCCCC(=O)[O-]
REMARK SMILES IDX 7 1 8 2 9 3 10 4 11 5 12 6 13 7 14 8 6 9 5 10 4 11 3 12 2 13
REMARK SMILES IDX 1 14
REMARK H PARENT
REMARK Flexibility Score: inf
ROOT
ATOM      1  C   UNL     1      54.497  39.241  47.545  1.00  0.00     0.000 C 
ENDROOT
BRANCH   1   2
ATOM      2  C   UNL     1      53.367  40.038  46.870  1.00  0.00     0.000 C 
BRANCH   2   3
ATOM      3  C   UNL     1      52.285  40.487  47.864  1.00  0.00     0.000 C 
BRANCH   3   4
ATOM      4  C   UNL     1      52.256  42.013  48.061  1.00  0.00     0.006 C 
BRANCH   4   5
ATOM      5  C   UNL     1      51.897  42.756  46.767  1.00  0.00     0.053 C 
BRANCH   5   6
ATOM      6  C   UNL     1      52.395  44.169  46.784  1.00  0.00     0.041 C 
ATOM      7  O   UNL     1      53.561  44.426  47.185  1.00  0.00    -0.550 OA
ATOM      8  O   UNL     1      51.560  45.205  46.388  1.00  0.00    -0.550 OA
ENDBRANCH   5   6
ENDBRANCH   4   5
ENDBRANCH   3   4
ENDBRANCH   2   3
ENDBRANCH   1   2
BRANCH   1   9
ATOM      9  C   UNL     1      55.410  40.127  48.409  1.00  0.00     0.000 C 
BRANCH   9  10
ATOM     10  C   UNL     1      55.434  39.690  49.884  1.00  0.00    -0.000 C 
BRANCH  10  11
ATOM     11  C   UNL     1      54.577  38.440  50.145  1.00  0.00    -0.000 C 
BRANCH  11  12
ATOM     12  C   UNL     1      53.337  38.741  51.005  1.00  0.00    -0.000 C 
BRANCH  12  13
ATOM     13  C   UNL     1      53.311  40.191  51.512  1.00  0.00    -0.003 C 
ATOM     14  C   UNL     1      51.899  40.776  51.565  1.00  0.00     0.004 C 
ENDBRANCH  12  13
ENDBRANCH  11  12
ENDBRANCH  10  11
ENDBRANCH   9  10
ENDBRANCH   1   9
TORSDOF 10
ENDMDL
MODEL 8
REMARK VINA RESULT:    -4.161      1.238      3.350
REMARK INTER + INTRA:          -7.930
REMARK INTER:                  -6.577
REMARK INTRA:                  -1.353
REMARK UNBOUND:                -1.337
REMARK SMILES CCCCCCCCCCCC(=O)[O-]
REMARK SMILES IDX 7 1 8 2 9 3 10 4 11 5 12 6 13 7 14 8 6 9 5 10 4 11 3 12 2 13
REMARK SMILES IDX 1 14
REMARK H PARENT
REMARK Flexibility Score: inf
ROOT
ATOM      1  C   UNL     1      52.700  42.911  48.452  1.00  0.00     0.000 C 
ENDROOT
BRANCH   1   2
ATOM      2  C   UNL     1      53.384  42.355  49.713  1.00  0.00     0.000 C 
BRANCH   2   3
ATOM      3  C   UNL     1      52.655  42.755  51.005  1.00  0.00     0.000 C 
BRANCH   3   4
ATOM      4  C   UNL     1      52.087  41.544  51.766  1.00  0.00     0.006 C 
BRANCH   4   5
ATOM      5  C   UNL     1      53.074  40.369  51.802  1.00  0.00     0.053 C 
BRANCH   5   6
ATOM      6  C   UNL     1      54.039  40.493  52.941  1.00  0.00     0.041 C 
ATOM      7  O   UNL     1      55.185  39.975  52.862  1.00  0.00    -0.550 OA
ATOM      8  O   UNL     1      53.662  41.152  54.104  1.00  0.00    -0.550 OA
ENDBRANCH   5   6
ENDBRANCH   4   5
ENDBRANCH   3   4
ENDBRANCH   2   3
ENDBRANCH   1   2
BRANCH   1   9
ATOM      9  C   UNL     1      51.989  41.820  47.635  1.00  0.00     0.000 C 
BRANCH   9  10
ATOM     10  C   UNL     1      52.462  40.403  48.004  1.00  0.00    -0.000 C 
BRANCH  10  11
ATOM     11  C   UNL     1      53.228  39.718  46.860  1.00  0.00    -0.000 C 
BRANCH  11  12
ATOM     12  C   UNL     1      54.662  39.326  47.260  1.00  0.00    -0.000 C 
BRANCH  12  13
ATOM     13  C   UNL     1      54.772  38.930  48.740  1.00  0.00    -0.003 C 
ATOM     14  C   UNL     1      56.020  39.499  49.416  1.00  0.00     0.004 C 
ENDBRANCH  12  13
ENDBRANCH  11  12
ENDBRANCH  10  11
ENDBRANCH   9  10
ENDBRANCH   1   9
TORSDOF 10
ENDMDL
MODEL 9
REMARK VINA RESULT:    -4.089      1.769      2.854
REMARK INTER + INTRA:          -7.816
REMARK INTER:                  -6.493
REMARK INTRA:                  -1.323
REMARK UNBOUND:                -1.337
REMARK SMILES CCCCCCCCCCCC(=O)[O-]
REMARK SMILES IDX 7 1 8 2 9 3 10 4 11 5 12 6 13 7 14 8 6 9 5 10 4 11 3 12 2 13
REMARK SMILES IDX 1 14
REMARK H PARENT
REMARK Flexibility Score: inf
ROOT
ATOM      1  C   UNL     1      52.286  40.364  47.935  1.00  0.00     0.000 C 
ENDROOT
BRANCH   1   2
ATOM      2  C   UNL     1      53.428  39.845  47.045  1.00  0.00     0.000 C 
BRANCH   2   3
ATOM      3  C   UNL     1      54.538  39.153  47.853  1.00  0.00     0.000 C 
BRANCH   3   4
ATOM      4  C   UNL     1      54.428  39.423  49.364  1.00  0.00     0.006 C 
BRANCH   4   5
ATOM      5  C   UNL     1      54.831  38.199  50.200  1.00  0.00     0.053 C 
BRANCH   5   6
ATOM      6  C   UNL     1      56.155  38.400  50.871  1.00  0.00     0.041 C 
ATOM      7  O   UNL     1      56.209  38.690  52.095  1.00  0.00    -0.550 OA
ATOM      8  O   UNL     1      57.329  38.298  50.136  1.00  0.00    -0.550 OA
ENDBRANCH   5   6
ENDBRANCH   4   5
ENDBRANCH   3   4
ENDBRANCH   2   3
ENDBRANCH   1   2
BRANCH   1   9
ATOM      9  C   UNL     1      52.017  41.865  47.737  1.00  0.00     0.000 C 
BRANCH   9  10
ATOM     10  C   UNL     1      53.311  42.676  47.545  1.00  0.00    -0.000 C 
BRANCH  10  11
ATOM     11  C   UNL     1      53.888  43.193  48.873  1.00  0.00    -0.000 C 
BRANCH  11  12
ATOM     12  C   UNL     1      52.817  43.329  49.970  1.00  0.00    -0.000 C 
BRANCH  12  13
ATOM     13  C   UNL     1      53.142  42.490  51.216  1.00  0.00    -0.003 C 
ATOM     14  C   UNL     1      52.028  41.507  51.577  1.00  0.00     0.004 C 
ENDBRANCH  12  13
ENDBRANCH  11  12
ENDBRANCH  10  11
ENDBRANCH   9  10
ENDBRANCH   1   9
TORSDOF 10
ENDMDL
