MODEL 1
REMARK VINA RESULT:    -4.529      0.000      0.000
REMARK INTER + INTRA:         -16.921
REMARK INTER:                 -11.941
REMARK INTRA:                  -4.979
REMARK UNBOUND:                -4.979
REMARK SMILES CCCCCCCCCCCCCCCCCCCCCCCCCCCCCC(=O)[O-]
REMARK SMILES IDX 16 1 17 2 18 3 19 4 20 5 21 6 22 7 23 8 24 9 25 10 26 11
REMARK SMILES IDX 27 12 28 13 29 14 30 15 31 16 32 17 15 18 14 19 13 20 12 21
REMARK SMILES IDX 11 22 10 23 9 24 8 25 7 26 6 27 5 28 4 29 3 30 2 31 1 32
REMARK H PARENT
REMARK Flexibility Score: inf
ROOT
ATOM      1  C   UNL     1     -13.736   4.875   4.343  1.00  0.00     0.000 C 
ENDROOT
BRANCH   1   2
ATOM      2  C   UNL     1     -14.051   5.904   5.442  1.00  0.00     0.000 C 
BRANCH   2   3
ATOM      3  C   UNL     1     -15.078   6.956   4.986  1.00  0.00     0.000 C 
BRANCH   3   4
ATOM      4  C   UNL     1     -14.544   8.397   5.102  1.00  0.00     0.000 C 
BRANCH   4   5
ATOM      5  C   UNL     1     -13.284   8.540   5.975  1.00  0.00     0.000 C 
BRANCH   5   6
ATOM      6  C   UNL     1     -13.504   9.462   7.187  1.00  0.00     0.000 C 
BRANCH   6   7
ATOM      7  C   UNL     1     -13.085  10.914   6.905  1.00  0.00     0.000 C 
BRANCH   7   8
ATOM      8  C   UNL     1     -11.558  11.103   6.909  1.00  0.00     0.000 C 
BRANCH   8   9
ATOM      9  C   UNL     1     -11.146  12.579   6.786  1.00  0.00     0.000 C 
BRANCH   9  10
ATOM     10  C   UNL     1     -10.089  12.808   5.696  1.00  0.00     0.000 C 
BRANCH  10  11
ATOM     11  C   UNL     1     -10.517  12.163   4.369  1.00  0.00     0.000 C 
BRANCH  11  12
ATOM     12  C   UNL     1     -11.511  13.030   3.581  1.00  0.00     0.000 C 
BRANCH  12  13
ATOM     13  C   UNL     1     -12.887  12.361   3.423  1.00  0.00     0.006 C 
BRANCH  13  14
ATOM     14  C   UNL     1     -12.773  10.848   3.197  1.00  0.00     0.053 C 
BRANCH  14  15
ATOM     15  C   UNL     1     -13.099  10.467   1.785  1.00  0.00     0.041 C 
ATOM     16  O   UNL     1     -14.177   9.869   1.525  1.00  0.00    -0.550 OA
ATOM     17  O   UNL     1     -12.235  10.810   0.754  1.00  0.00    -0.550 OA
ENDBRANCH  14  15
ENDBRANCH  13  14
ENDBRANCH  12  13
ENDBRANCH  11  12
ENDBRANCH  10  11
ENDBRANCH   9  10
ENDBRANCH   8   9
ENDBRANCH   7   8
ENDBRANCH   6   7
ENDBRANCH   5   6
ENDBRANCH   4   5
ENDBRANCH   3   4
ENDBRANCH   2   3
ENDBRANCH   1   2
BRANCH   1  18
ATOM     18  C   UNL     1     -12.782   3.769   4.825  1.00  0.00     0.000 C 
BRANCH  18  19
ATOM     19  C   UNL     1     -13.134   3.255   6.233  1.00  0.00     0.000 C 
BRANCH  19  20
ATOM     20  C   UNL     1     -11.982   2.550   6.979  1.00  0.00     0.000 C 
BRANCH  20  21
ATOM     21  C   UNL     1     -11.970   2.740   8.506  1.00  0.00     0.000 C 
BRANCH  21  22
ATOM     22  C   UNL     1     -11.951   4.219   8.926  1.00  0.00     0.000 C 
BRANCH  22  23
ATOM     23  C   UNL     1     -10.668   4.951   8.490  1.00  0.00     0.000 C 
BRANCH  23  24
ATOM     24  C   UNL     1     -10.783   5.771   7.192  1.00  0.00    -0.000 C 
BRANCH  24  25
ATOM     25  C   UNL     1      -9.558   5.617   6.276  1.00  0.00    -0.000 C 
BRANCH  25  26
ATOM     26  C   UNL     1      -9.733   6.327   4.921  1.00  0.00    -0.000 C 
BRANCH  26  27
ATOM     27  C   UNL     1      -9.778   7.868   4.982  1.00  0.00    -0.000 C 
BRANCH  27  28
ATOM     28  C   UNL     1      -8.701   8.519   5.868  1.00  0.00    -0.000 C 
BRANCH  28  29
ATOM     29  C   UNL     1      -7.971   9.675   5.168  1.00  0.00    -0.000 C 
BRANCH  29  30
ATOM     30  C   UNL     1      -7.094  10.451   6.159  1.00  0.00    -0.000 C 
BRANCH  30  31
ATOM     31  C   UNL     1      -7.775  10.556   7.529  1.00  0.00    -0.003 C 
ATOM     32  C   UNL     1      -7.481  11.901   8.188  1.00  0.00     0.004 C 
ENDBRANCH  30  31
ENDBRANCH  29  30
ENDBRANCH  28  29
ENDBRANCH  27  28
ENDBRANCH  26  27
ENDBRANCH  25  26
ENDBRANCH  24  25
ENDBRANCH  23  24
ENDBRANCH  22  23
ENDBRANCH  21  22
ENDBRANCH  20  21
ENDBRANCH  19  20
ENDBRANCH  18  19
ENDBRANCH   1  18
TORSDOF 28
ENDMDL
MODEL 2
REMARK VINA RESULT:    -4.504      2.265      6.493
REMARK INTER + INTRA:         -16.857
REMARK INTER:                 -12.002
REMARK INTRA:                  -4.855
REMARK UNBOUND:                -4.979
REMARK SMILES CCCCCCCCCCCCCCCCCCCCCCCCCCCCCC(=O)[O-]
REMARK SMILES IDX 16 1 17 2 18 3 19 4 20 5 21 6 22 7 23 8 24 9 25 10 26 11
REMARK SMILES IDX 27 12 28 13 29 14 30 15 31 16 32 17 15 18 14 19 13 20 12 21
REMARK SMILES IDX 11 22 10 23 9 24 8 25 7 26 6 27 5 28 4 29 3 30 2 31 1 32
REMARK H PARENT
REMARK Flexibility Score: inf
ROOT
ATOM      1  C   UNL     1     -14.051   6.275   5.272  1.00  0.00     0.000 C 
ENDROOT
BRANCH   1   2
ATOM      2  C   UNL     1     -13.826   5.105   4.300  1.00  0.00     0.000 C 
BRANCH   2   3
ATOM      3  C   UNL     1     -13.137   3.904   4.975  1.00  0.00     0.000 C 
BRANCH   3   4
ATOM      4  C   UNL     1     -13.445   3.812   6.482  1.00  0.00     0.000 C 
BRANCH   4   5
ATOM      5  C   UNL     1     -12.651   2.724   7.228  1.00  0.00     0.000 C 
BRANCH   5   6
ATOM      6  C   UNL     1     -11.323   3.249   7.803  1.00  0.00     0.000 C 
BRANCH   6   7
ATOM      7  C   UNL     1     -11.360   4.759   8.085  1.00  0.00     0.000 C 
BRANCH   7   8
ATOM      8  C   UNL     1     -10.251   5.530   7.347  1.00  0.00     0.000 C 
BRANCH   8   9
ATOM      9  C   UNL     1      -9.880   4.886   6.001  1.00  0.00     0.000 C 
BRANCH   9  10
ATOM     10  C   UNL     1      -9.845   5.901   4.850  1.00  0.00     0.000 C 
BRANCH  10  11
ATOM     11  C   UNL     1     -10.353   7.276   5.313  1.00  0.00     0.000 C 
BRANCH  11  12
ATOM     12  C   UNL     1      -9.444   8.427   4.856  1.00  0.00     0.000 C 
BRANCH  12  13
ATOM     13  C   UNL     1      -8.401   8.817   5.918  1.00  0.00     0.006 C 
BRANCH  13  14
ATOM     14  C   UNL     1      -7.666  10.115   5.560  1.00  0.00     0.053 C 
BRANCH  14  15
ATOM     15  C   UNL     1      -7.878  11.181   6.591  1.00  0.00     0.041 C 
ATOM     16  O   UNL     1      -7.044  11.333   7.523  1.00  0.00    -0.550 OA
ATOM     17  O   UNL     1      -8.970  12.033   6.499  1.00  0.00    -0.550 OA
ENDBRANCH  14  15
ENDBRANCH  13  14
ENDBRANCH  12  13
ENDBRANCH  11  12
ENDBRANCH  10  11
ENDBRANCH   9  10
ENDBRANCH   8   9
ENDBRANCH   7   8
ENDBRANCH   6   7
ENDBRANCH   5   6
ENDBRANCH   4   5
ENDBRANCH   3   4
ENDBRANCH   2   3
ENDBRANCH   1   2
BRANCH   1  18
ATOM     18  C   UNL     1     -15.505   6.775   5.269  1.00  0.00     0.000 C 
BRANCH  18  19
ATOM     19  C   UNL     1     -15.605   8.307   5.170  1.00  0.00     0.000 C 
BRANCH  19  20
ATOM     20  C   UNL     1     -15.047   8.917   3.867  1.00  0.00     0.000 C 
BRANCH  20  21
ATOM     21  C   UNL     1     -15.948   9.964   3.189  1.00  0.00     0.000 C 
BRANCH  21  22
ATOM     22  C   UNL     1     -15.294  10.609   1.956  1.00  0.00     0.000 C 
BRANCH  22  23
ATOM     23  C   UNL     1     -14.144   9.766   1.375  1.00  0.00     0.000 C 
BRANCH  23  24
ATOM     24  C   UNL     1     -12.782  10.479   1.285  1.00  0.00    -0.000 C 
BRANCH  24  25
ATOM     25  C   UNL     1     -12.550  11.474   2.434  1.00  0.00    -0.000 C 
BRANCH  25  26
ATOM     26  C   UNL     1     -11.829  10.840   3.637  1.00  0.00    -0.000 C 
BRANCH  26  27
ATOM     27  C   UNL     1     -12.190  11.434   5.014  1.00  0.00    -0.000 C 
BRANCH  27  28
ATOM     28  C   UNL     1     -13.588  12.071   5.106  1.00  0.00    -0.000 C 
BRANCH  28  29
ATOM     29  C   UNL     1     -14.354  11.655   6.370  1.00  0.00    -0.000 C 
BRANCH  29  30
ATOM     30  C   UNL     1     -13.505  10.724   7.244  1.00  0.00    -0.000 C 
BRANCH  30  31
ATOM     31  C   UNL     1     -13.305  11.316   8.645  1.00  0.00    -0.003 C 
ATOM     32  C   UNL     1     -11.970  12.046   8.748  1.00  0.00     0.004 C 
ENDBRANCH  30  31
ENDBRANCH  29  30
ENDBRANCH  28  29
ENDBRANCH  27  28
ENDBRANCH  26  27
ENDBRANCH  25  26
ENDBRANCH  24  25
ENDBRANCH  23  24
ENDBRANCH  22  23
ENDBRANCH  21  22
ENDBRANCH  20  21
ENDBRANCH  19  20
ENDBRANCH  18  19
ENDBRANCH   1  18
TORSDOF 28
ENDMDL
MODEL 3
REMARK VINA RESULT:    -4.396      2.281      6.673
REMARK INTER + INTRA:         -16.570
REMARK INTER:                 -11.498
REMARK INTRA:                  -5.072
REMARK UNBOUND:                -4.979
REMARK SMILES CCCCCCCCCCCCCCCCCCCCCCCCCCCCCC(=O)[O-]
REMARK SMILES IDX 16 1 17 2 18 3 19 4 20 5 21 6 22 7 23 8 24 9 25 10 26 11
REMARK SMILES IDX 27 12 28 13 29 14 30 15 31 16 32 17 15 18 14 19 13 20 12 21
REMARK SMILES IDX 11 22 10 23 9 24 8 25 7 26 6 27 5 28 4 29 3 30 2 31 1 32
REMARK H PARENT
REMARK Flexibility Score: inf
ROOT
ATOM      1  C   UNL     1     -13.925   8.176   4.955  1.00  0.00     0.000 C 
ENDROOT
BRANCH   1   2
ATOM      2  C   UNL     1     -14.874   6.973   5.079  1.00  0.00     0.000 C 
BRANCH   2   3
ATOM      3  C   UNL     1     -14.153   5.703   5.567  1.00  0.00     0.000 C 
BRANCH   3   4
ATOM      4  C   UNL     1     -13.583   4.861   4.409  1.00  0.00     0.000 C 
BRANCH   4   5
ATOM      5  C   UNL     1     -12.802   3.612   4.856  1.00  0.00     0.000 C 
BRANCH   5   6
ATOM      6  C   UNL     1     -12.981   3.304   6.353  1.00  0.00     0.000 C 
BRANCH   6   7
ATOM      7  C   UNL     1     -11.662   2.904   7.033  1.00  0.00     0.000 C 
BRANCH   7   8
ATOM      8  C   UNL     1     -11.273   3.851   8.182  1.00  0.00     0.000 C 
BRANCH   8   9
ATOM      9  C   UNL     1     -11.154   5.314   7.726  1.00  0.00     0.000 C 
BRANCH   9  10
ATOM     10  C   UNL     1     -10.070   5.514   6.658  1.00  0.00     0.000 C 
BRANCH  10  11
ATOM     11  C   UNL     1     -10.512   6.548   5.611  1.00  0.00     0.000 C 
BRANCH  11  12
ATOM     12  C   UNL     1      -9.335   7.348   5.034  1.00  0.00     0.000 C 
BRANCH  12  13
ATOM     13  C   UNL     1      -9.467   8.861   5.283  1.00  0.00     0.006 C 
BRANCH  13  14
ATOM     14  C   UNL     1      -8.184   9.622   4.923  1.00  0.00     0.053 C 
BRANCH  14  15
ATOM     15  C   UNL     1      -7.422  10.041   6.143  1.00  0.00     0.041 C 
ATOM     16  O   UNL     1      -7.882   9.797   7.290  1.00  0.00    -0.550 OA
ATOM     17  O   UNL     1      -6.187  10.662   6.014  1.00  0.00    -0.550 OA
ENDBRANCH  14  15
ENDBRANCH  13  14
ENDBRANCH  12  13
ENDBRANCH  11  12
ENDBRANCH  10  11
ENDBRANCH   9  10
ENDBRANCH   8   9
ENDBRANCH   7   8
ENDBRANCH   6   7
ENDBRANCH   5   6
ENDBRANCH   4   5
ENDBRANCH   3   4
ENDBRANCH   2   3
ENDBRANCH   1   2
BRANCH   1  18
ATOM     18  C   UNL     1     -13.786   8.956   6.273  1.00  0.00     0.000 C 
BRANCH  18  19
ATOM     19  C   UNL     1     -14.800  10.108   6.391  1.00  0.00     0.000 C 
BRANCH  19  20
ATOM     20  C   UNL     1     -14.456  11.178   7.448  1.00  0.00     0.000 C 
BRANCH  20  21
ATOM     21  C   UNL     1     -13.212  10.883   8.305  1.00  0.00     0.000 C 
BRANCH  21  22
ATOM     22  C   UNL     1     -12.645  12.137   8.990  1.00  0.00     0.000 C 
BRANCH  22  23
ATOM     23  C   UNL     1     -11.246  12.523   8.475  1.00  0.00     0.000 C 
BRANCH  23  24
ATOM     24  C   UNL     1     -10.767  11.756   7.228  1.00  0.00    -0.000 C 
BRANCH  24  25
ATOM     25  C   UNL     1     -10.033  12.655   6.218  1.00  0.00    -0.000 C 
BRANCH  25  26
ATOM     26  C   UNL     1     -10.700  12.662   4.831  1.00  0.00    -0.000 C 
BRANCH  26  27
ATOM     27  C   UNL     1     -11.956  11.775   4.696  1.00  0.00    -0.000 C 
BRANCH  27  28
ATOM     28  C   UNL     1     -11.973  10.847   3.468  1.00  0.00    -0.000 C 
BRANCH  28  29
ATOM     29  C   UNL     1     -12.739  11.443   2.278  1.00  0.00    -0.000 C 
BRANCH  29  30
ATOM     30  C   UNL     1     -13.366  10.339   1.419  1.00  0.00    -0.000 C 
BRANCH  30  31
ATOM     31  C   UNL     1     -14.848  10.150   1.762  1.00  0.00    -0.003 C 
ATOM     32  C   UNL     1     -15.314  11.186   2.781  1.00  0.00     0.004 C 
ENDBRANCH  30  31
ENDBRANCH  29  30
ENDBRANCH  28  29
ENDBRANCH  27  28
ENDBRANCH  26  27
ENDBRANCH  25  26
ENDBRANCH  24  25
ENDBRANCH  23  24
ENDBRANCH  22  23
ENDBRANCH  21  22
ENDBRANCH  20  21
ENDBRANCH  19  20
ENDBRANCH  18  19
ENDBRANCH   1  18
TORSDOF 28
ENDMDL
MODEL 4
REMARK VINA RESULT:    -4.344      1.273      5.495
REMARK INTER + INTRA:         -16.433
REMARK INTER:                 -11.655
REMARK INTRA:                  -4.778
REMARK UNBOUND:                -4.979
REMARK SMILES CCCCCCCCCCCCCCCCCCCCCCCCCCCCCC(=O)[O-]
REMARK SMILES IDX 16 1 17 2 18 3 19 4 20 5 21 6 22 7 23 8 24 9 25 10 26 11
REMARK SMILES IDX 27 12 28 13 29 14 30 15 31 16 32 17 15 18 14 19 13 20 12 21
REMARK SMILES IDX 11 22 10 23 9 24 8 25 7 26 6 27 5 28 4 29 3 30 2 31 1 32
REMARK H PARENT
REMARK Flexibility Score: inf
ROOT
ATOM      1  C   UNL     1      -9.780   5.032   6.300  1.00  0.00     0.000 C 
ENDROOT
BRANCH   1   2
ATOM      2  C   UNL     1     -10.501   5.429   7.598  1.00  0.00     0.000 C 
BRANCH   2   3
ATOM      3  C   UNL     1     -11.592   4.419   7.997  1.00  0.00     0.000 C 
BRANCH   3   4
ATOM      4  C   UNL     1     -11.290   2.991   7.503  1.00  0.00     0.000 C 
BRANCH   4   5
ATOM      5  C   UNL     1     -12.012   2.603   6.199  1.00  0.00     0.000 C 
BRANCH   5   6
ATOM      6  C   UNL     1     -13.223   3.505   5.901  1.00  0.00     0.000 C 
BRANCH   6   7
ATOM      7  C   UNL     1     -13.228   4.023   4.454  1.00  0.00     0.000 C 
BRANCH   7   8
ATOM      8  C   UNL     1     -13.796   5.448   4.334  1.00  0.00     0.000 C 
BRANCH   8   9
ATOM      9  C   UNL     1     -13.698   6.235   5.651  1.00  0.00     0.000 C 
BRANCH   9  10
ATOM     10  C   UNL     1     -14.239   7.667   5.525  1.00  0.00     0.000 C 
BRANCH  10  11
ATOM     11  C   UNL     1     -15.661   7.669   4.943  1.00  0.00     0.000 C 
BRANCH  11  12
ATOM     12  C   UNL     1     -15.978   8.951   4.157  1.00  0.00     0.000 C 
BRANCH  12  13
ATOM     13  C   UNL     1     -14.711   9.699   3.707  1.00  0.00     0.006 C 
BRANCH  13  14
ATOM     14  C   UNL     1     -14.857  10.292   2.300  1.00  0.00     0.053 C 
BRANCH  14  15
ATOM     15  C   UNL     1     -13.612  10.998   1.858  1.00  0.00     0.041 C 
ATOM     16  O   UNL     1     -12.787  10.414   1.106  1.00  0.00    -0.550 OA
ATOM     17  O   UNL     1     -13.383  12.313   2.240  1.00  0.00    -0.550 OA
ENDBRANCH  14  15
ENDBRANCH  13  14
ENDBRANCH  12  13
ENDBRANCH  11  12
ENDBRANCH  10  11
ENDBRANCH   9  10
ENDBRANCH   8   9
ENDBRANCH   7   8
ENDBRANCH   6   7
ENDBRANCH   5   6
ENDBRANCH   4   5
ENDBRANCH   3   4
ENDBRANCH   2   3
ENDBRANCH   1   2
BRANCH   1  18
ATOM     18  C   UNL     1      -9.936   6.086   5.191  1.00  0.00     0.000 C 
BRANCH  18  19
ATOM     19  C   UNL     1      -9.430   7.476   5.619  1.00  0.00     0.000 C 
BRANCH  19  20
ATOM     20  C   UNL     1      -9.905   8.646   4.734  1.00  0.00     0.000 C 
BRANCH  20  21
ATOM     21  C   UNL     1     -11.174   9.370   5.220  1.00  0.00     0.000 C 
BRANCH  21  22
ATOM     22  C   UNL     1     -11.260  10.824   4.729  1.00  0.00     0.000 C 
BRANCH  22  23
ATOM     23  C   UNL     1     -12.170  11.702   5.608  1.00  0.00     0.000 C 
BRANCH  23  24
ATOM     24  C   UNL     1     -12.785  10.998   6.832  1.00  0.00    -0.000 C 
BRANCH  24  25
ATOM     25  C   UNL     1     -12.362  11.637   8.165  1.00  0.00    -0.000 C 
BRANCH  25  26
ATOM     26  C   UNL     1     -11.335  12.769   7.986  1.00  0.00    -0.000 C 
BRANCH  26  27
ATOM     27  C   UNL     1     -10.134  12.734   8.955  1.00  0.00    -0.000 C 
BRANCH  27  28
ATOM     28  C   UNL     1      -8.750  12.764   8.283  1.00  0.00    -0.000 C 
BRANCH  28  29
ATOM     29  C   UNL     1      -8.692  11.928   6.996  1.00  0.00    -0.000 C 
BRANCH  29  30
ATOM     30  C   UNL     1      -7.830  10.675   7.193  1.00  0.00    -0.000 C 
BRANCH  30  31
ATOM     31  C   UNL     1      -7.034  10.350   5.924  1.00  0.00    -0.003 C 
ATOM     32  C   UNL     1      -5.566  10.735   6.081  1.00  0.00     0.004 C 
ENDBRANCH  30  31
ENDBRANCH  29  30
ENDBRANCH  28  29
ENDBRANCH  27  28
ENDBRANCH  26  27
ENDBRANCH  25  26
ENDBRANCH  24  25
ENDBRANCH  23  24
ENDBRANCH  22  23
ENDBRANCH  21  22
ENDBRANCH  20  21
ENDBRANCH  19  20
ENDBRANCH  18  19
ENDBRANCH   1  18
TORSDOF 28
ENDMDL
MODEL 5
REMARK VINA RESULT:    -4.198      2.245      3.600
REMARK INTER + INTRA:         -16.048
REMARK INTER:                 -11.581
REMARK INTRA:                  -4.466
REMARK UNBOUND:                -4.979
REMARK SMILES CCCCCCCCCCCCCCCCCCCCCCCCCCCCCC(=O)[O-]
REMARK SMILES IDX 16 1 17 2 18 3 19 4 20 5 21 6 22 7 23 8 24 9 25 10 26 11
REMARK SMILES IDX 27 12 28 13 29 14 30 15 31 16 32 17 15 18 14 19 13 20 12 21
REMARK SMILES IDX 11 22 10 23 9 24 8 25 7 26 6 27 5 28 4 29 3 30 2 31 1 32
REMARK H PARENT
REMARK Flexibility Score: inf
ROOT
ATOM      1  C   UNL     1     -13.859   4.922   4.249  1.00  0.00     0.000 C 
ENDROOT
BRANCH   1   2
ATOM      2  C   UNL     1     -14.016   6.054   5.277  1.00  0.00     0.000 C 
BRANCH   2   3
ATOM      3  C   UNL     1     -15.426   6.673   5.259  1.00  0.00     0.000 C 
BRANCH   3   4
ATOM      4  C   UNL     1     -15.399   8.213   5.249  1.00  0.00     0.000 C 
BRANCH   4   5
ATOM      5  C   UNL     1     -14.365   8.825   4.286  1.00  0.00     0.000 C 
BRANCH   5   6
ATOM      6  C   UNL     1     -15.019   9.587   3.119  1.00  0.00     0.000 C 
BRANCH   6   7
ATOM      7  C   UNL     1     -14.279   9.375   1.789  1.00  0.00     0.000 C 
BRANCH   7   8
ATOM      8  C   UNL     1     -13.563  10.646   1.298  1.00  0.00     0.000 C 
BRANCH   8   9
ATOM      9  C   UNL     1     -12.683  11.285   2.384  1.00  0.00     0.000 C 
BRANCH   9  10
ATOM     10  C   UNL     1     -13.178  12.677   2.803  1.00  0.00     0.000 C 
BRANCH  10  11
ATOM     11  C   UNL     1     -13.104  12.852   4.327  1.00  0.00     0.000 C 
BRANCH  11  12
ATOM     12  C   UNL     1     -14.477  12.728   5.006  1.00  0.00     0.000 C 
BRANCH  12  13
ATOM     13  C   UNL     1     -14.435  11.858   6.274  1.00  0.00     0.006 C 
BRANCH  13  14
ATOM     14  C   UNL     1     -13.511  12.445   7.349  1.00  0.00     0.053 C 
BRANCH  14  15
ATOM     15  C   UNL     1     -13.325  11.504   8.501  1.00  0.00     0.041 C 
ATOM     16  O   UNL     1     -12.424  11.721   9.354  1.00  0.00    -0.550 OA
ATOM     17  O   UNL     1     -14.173  10.416   8.656  1.00  0.00    -0.550 OA
ENDBRANCH  14  15
ENDBRANCH  13  14
ENDBRANCH  12  13
ENDBRANCH  11  12
ENDBRANCH  10  11
ENDBRANCH   9  10
ENDBRANCH   8   9
ENDBRANCH   7   8
ENDBRANCH   6   7
ENDBRANCH   5   6
ENDBRANCH   4   5
ENDBRANCH   3   4
ENDBRANCH   2   3
ENDBRANCH   1   2
BRANCH   1  18
ATOM     18  C   UNL     1     -12.979   3.772   4.767  1.00  0.00     0.000 C 
BRANCH  18  19
ATOM     19  C   UNL     1     -13.229   3.456   6.253  1.00  0.00     0.000 C 
BRANCH  19  20
ATOM     20  C   UNL     1     -11.992   2.971   7.036  1.00  0.00     0.000 C 
BRANCH  20  21
ATOM     21  C   UNL     1     -11.584   3.846   8.235  1.00  0.00     0.000 C 
BRANCH  21  22
ATOM     22  C   UNL     1     -10.906   5.161   7.814  1.00  0.00     0.000 C 
BRANCH  22  23
ATOM     23  C   UNL     1     -10.085   5.026   6.519  1.00  0.00     0.000 C 
BRANCH  23  24
ATOM     24  C   UNL     1     -10.290   6.150   5.487  1.00  0.00    -0.000 C 
BRANCH  24  25
ATOM     25  C   UNL     1      -9.233   7.262   5.595  1.00  0.00    -0.000 C 
BRANCH  25  26
ATOM     26  C   UNL     1      -9.522   8.453   4.664  1.00  0.00    -0.000 C 
BRANCH  26  27
ATOM     27  C   UNL     1     -10.670   9.381   5.113  1.00  0.00    -0.000 C 
BRANCH  27  28
ATOM     28  C   UNL     1     -10.300  10.871   5.225  1.00  0.00    -0.000 C 
BRANCH  28  29
ATOM     29  C   UNL     1     -10.096  11.329   6.676  1.00  0.00    -0.000 C 
BRANCH  29  30
ATOM     30  C   UNL     1      -8.638  11.735   6.924  1.00  0.00    -0.000 C 
BRANCH  30  31
ATOM     31  C   UNL     1      -7.741  10.500   7.069  1.00  0.00    -0.003 C 
ATOM     32  C   UNL     1      -6.677  10.460   5.976  1.00  0.00     0.004 C 
ENDBRANCH  30  31
ENDBRANCH  29  30
ENDBRANCH  28  29
ENDBRANCH  27  28
ENDBRANCH  26  27
ENDBRANCH  25  26
ENDBRANCH  24  25
ENDBRANCH  23  24
ENDBRANCH  22  23
ENDBRANCH  21  22
ENDBRANCH  20  21
ENDBRANCH  19  20
ENDBRANCH  18  19
ENDBRANCH   1  18
TORSDOF 28
ENDMDL
MODEL 6
REMARK VINA RESULT:    -4.188      1.141      5.228
REMARK INTER + INTRA:         -16.023
REMARK INTER:                 -11.206
REMARK INTRA:                  -4.817
REMARK UNBOUND:                -4.979
REMARK SMILES CCCCCCCCCCCCCCCCCCCCCCCCCCCCCC(=O)[O-]
REMARK SMILES IDX 16 1 17 2 18 3 19 4 20 5 21 6 22 7 23 8 24 9 25 10 26 11
REMARK SMILES IDX 27 12 28 13 29 14 30 15 31 16 32 17 15 18 14 19 13 20 12 21
REMARK SMILES IDX 11 22 10 23 9 24 8 25 7 26 6 27 5 28 4 29 3 30 2 31 1 32
REMARK H PARENT
REMARK Flexibility Score: inf
ROOT
ATOM      1  C   UNL     1      -9.247  10.490   5.048  1.00  0.00     0.000 C 
ENDROOT
BRANCH   1   2
ATOM      2  C   UNL     1      -7.917   9.720   5.030  1.00  0.00     0.000 C 
BRANCH   2   3
ATOM      3  C   UNL     1      -7.166   9.812   6.371  1.00  0.00     0.000 C 
BRANCH   3   4
ATOM      4  C   UNL     1      -7.999  10.497   7.472  1.00  0.00     0.000 C 
BRANCH   4   5
ATOM      5  C   UNL     1      -7.270  11.639   8.203  1.00  0.00     0.000 C 
BRANCH   5   6
ATOM      6  C   UNL     1      -8.202  12.815   8.544  1.00  0.00     0.000 C 
BRANCH   6   7
ATOM      7  C   UNL     1      -9.200  13.121   7.415  1.00  0.00     0.000 C 
BRANCH   7   8
ATOM      8  C   UNL     1     -10.660  12.859   7.825  1.00  0.00     0.000 C 
BRANCH   8   9
ATOM      9  C   UNL     1     -11.650  13.124   6.680  1.00  0.00     0.000 C 
BRANCH   9  10
ATOM     10  C   UNL     1     -13.093  12.752   7.050  1.00  0.00     0.000 C 
BRANCH  10  11
ATOM     11  C   UNL     1     -14.060  13.091   5.905  1.00  0.00     0.000 C 
BRANCH  11  12
ATOM     12  C   UNL     1     -14.044  12.042   4.784  1.00  0.00     0.000 C 
BRANCH  12  13
ATOM     13  C   UNL     1     -13.520  12.605   3.451  1.00  0.00     0.006 C 
BRANCH  13  14
ATOM     14  C   UNL     1     -12.376  11.762   2.875  1.00  0.00     0.053 C 
BRANCH  14  15
ATOM     15  C   UNL     1     -12.863  10.785   1.848  1.00  0.00     0.041 C 
ATOM     16  O   UNL     1     -12.258  10.670   0.749  1.00  0.00    -0.550 OA
ATOM     17  O   UNL     1     -13.955   9.973   2.122  1.00  0.00    -0.550 OA
ENDBRANCH  14  15
ENDBRANCH  13  14
ENDBRANCH  12  13
ENDBRANCH  11  12
ENDBRANCH  10  11
ENDBRANCH   9  10
ENDBRANCH   8   9
ENDBRANCH   7   8
ENDBRANCH   6   7
ENDBRANCH   5   6
ENDBRANCH   4   5
ENDBRANCH   3   4
ENDBRANCH   2   3
ENDBRANCH   1   2
BRANCH   1  18
ATOM     18  C   UNL     1     -10.455   9.590   4.741  1.00  0.00     0.000 C 
BRANCH  18  19
ATOM     19  C   UNL     1     -11.535   9.652   5.836  1.00  0.00     0.000 C 
BRANCH  19  20
ATOM     20  C   UNL     1     -12.869   8.962   5.481  1.00  0.00     0.000 C 
BRANCH  20  21
ATOM     21  C   UNL     1     -13.060   7.552   6.068  1.00  0.00     0.000 C 
BRANCH  21  22
ATOM     22  C   UNL     1     -13.962   6.659   5.200  1.00  0.00     0.000 C 
BRANCH  22  23
ATOM     23  C   UNL     1     -13.834   5.163   5.543  1.00  0.00     0.000 C 
BRANCH  23  24
ATOM     24  C   UNL     1     -13.086   4.309   4.503  1.00  0.00    -0.000 C 
BRANCH  24  25
ATOM     25  C   UNL     1     -12.329   3.127   5.131  1.00  0.00    -0.000 C 
BRANCH  25  26
ATOM     26  C   UNL     1     -12.808   2.802   6.558  1.00  0.00    -0.000 C 
BRANCH  26  27
ATOM     27  C   UNL     1     -11.706   2.790   7.639  1.00  0.00    -0.000 C 
BRANCH  27  28
ATOM     28  C   UNL     1     -11.764   3.954   8.644  1.00  0.00    -0.000 C 
BRANCH  28  29
ATOM     29  C   UNL     1     -11.171   5.256   8.086  1.00  0.00    -0.000 C 
BRANCH  29  30
ATOM     30  C   UNL     1     -10.113   4.963   7.015  1.00  0.00    -0.000 C 
BRANCH  30  31
ATOM     31  C   UNL     1      -9.623   6.259   6.358  1.00  0.00    -0.003 C 
ATOM     32  C   UNL     1      -9.735   6.182   4.838  1.00  0.00     0.004 C 
ENDBRANCH  30  31
ENDBRANCH  29  30
ENDBRANCH  28  29
ENDBRANCH  27  28
ENDBRANCH  26  27
ENDBRANCH  25  26
ENDBRANCH  24  25
ENDBRANCH  23  24
ENDBRANCH  22  23
ENDBRANCH  21  22
ENDBRANCH  20  21
ENDBRANCH  19  20
ENDBRANCH  18  19
ENDBRANCH   1  18
TORSDOF 28
ENDMDL
MODEL 7
REMARK VINA RESULT:    -4.178      2.401      6.721
REMARK INTER + INTRA:         -15.995
REMARK INTER:                 -10.868
REMARK INTRA:                  -5.127
REMARK UNBOUND:                -4.979
REMARK SMILES CCCCCCCCCCCCCCCCCCCCCCCCCCCCCC(=O)[O-]
REMARK SMILES IDX 16 1 17 2 18 3 19 4 20 5 21 6 22 7 23 8 24 9 25 10 26 11
REMARK SMILES IDX 27 12 28 13 29 14 30 15 31 16 32 17 15 18 14 19 13 20 12 21
REMARK SMILES IDX 11 22 10 23 9 24 8 25 7 26 6 27 5 28 4 29 3 30 2 31 1 32
REMARK H PARENT
REMARK Flexibility Score: inf
ROOT
ATOM      1  C   UNL     1     -13.478   7.788   5.653  1.00  0.00     0.000 C 
ENDROOT
BRANCH   1   2
ATOM      2  C   UNL     1     -14.270   6.706   4.900  1.00  0.00     0.000 C 
BRANCH   2   3
ATOM      3  C   UNL     1     -13.925   5.285   5.379  1.00  0.00     0.000 C 
BRANCH   3   4
ATOM      4  C   UNL     1     -13.237   4.441   4.289  1.00  0.00     0.000 C 
BRANCH   4   5
ATOM      5  C   UNL     1     -12.354   3.301   4.829  1.00  0.00     0.000 C 
BRANCH   5   6
ATOM      6  C   UNL     1     -12.589   3.027   6.325  1.00  0.00     0.000 C 
BRANCH   6   7
ATOM      7  C   UNL     1     -11.285   3.039   7.138  1.00  0.00     0.000 C 
BRANCH   7   8
ATOM      8  C   UNL     1     -11.176   4.260   8.069  1.00  0.00     0.000 C 
BRANCH   8   9
ATOM      9  C   UNL     1     -10.975   5.574   7.298  1.00  0.00     0.000 C 
BRANCH   9  10
ATOM     10  C   UNL     1      -9.649   5.610   6.527  1.00  0.00     0.000 C 
BRANCH  10  11
ATOM     11  C   UNL     1      -9.866   6.074   5.078  1.00  0.00     0.000 C 
BRANCH  11  12
ATOM     12  C   UNL     1      -9.808   7.602   4.931  1.00  0.00     0.000 C 
BRANCH  12  13
ATOM     13  C   UNL     1      -8.886   8.265   5.969  1.00  0.00     0.006 C 
BRANCH  13  14
ATOM     14  C   UNL     1      -7.903   9.251   5.326  1.00  0.00     0.053 C 
BRANCH  14  15
ATOM     15  C   UNL     1      -7.164  10.054   6.353  1.00  0.00     0.041 C 
ATOM     16  O   UNL     1      -6.009  10.490   6.103  1.00  0.00    -0.550 OA
ATOM     17  O   UNL     1      -7.767  10.358   7.565  1.00  0.00    -0.550 OA
ENDBRANCH  14  15
ENDBRANCH  13  14
ENDBRANCH  12  13
ENDBRANCH  11  12
ENDBRANCH  10  11
ENDBRANCH   9  10
ENDBRANCH   8   9
ENDBRANCH   7   8
ENDBRANCH   6   7
ENDBRANCH   5   6
ENDBRANCH   4   5
ENDBRANCH   3   4
ENDBRANCH   2   3
ENDBRANCH   1   2
BRANCH   1  18
ATOM     18  C   UNL     1     -14.315   9.048   5.929  1.00  0.00     0.000 C 
BRANCH  18  19
ATOM     19  C   UNL     1     -15.360   9.318   4.832  1.00  0.00     0.000 C 
BRANCH  19  20
ATOM     20  C   UNL     1     -15.789  10.793   4.686  1.00  0.00     0.000 C 
BRANCH  20  21
ATOM     21  C   UNL     1     -15.903  11.581   6.003  1.00  0.00     0.000 C 
BRANCH  21  22
ATOM     22  C   UNL     1     -15.099  12.892   5.989  1.00  0.00     0.000 C 
BRANCH  22  23
ATOM     23  C   UNL     1     -14.154  13.031   7.196  1.00  0.00     0.000 C 
BRANCH  23  24
ATOM     24  C   UNL     1     -13.908  11.738   7.995  1.00  0.00    -0.000 C 
BRANCH  24  25
ATOM     25  C   UNL     1     -12.531  11.709   8.678  1.00  0.00    -0.000 C 
BRANCH  25  26
ATOM     26  C   UNL     1     -11.397  12.196   7.758  1.00  0.00    -0.000 C 
BRANCH  26  27
ATOM     27  C   UNL     1     -11.187  11.368   6.472  1.00  0.00    -0.000 C 
BRANCH  27  28
ATOM     28  C   UNL     1     -10.216  11.984   5.449  1.00  0.00    -0.000 C 
BRANCH  28  29
ATOM     29  C   UNL     1     -10.892  12.331   4.115  1.00  0.00    -0.000 C 
BRANCH  29  30
ATOM     30  C   UNL     1     -12.301  11.731   4.041  1.00  0.00    -0.000 C 
BRANCH  30  31
ATOM     31  C   UNL     1     -12.330  10.511   3.112  1.00  0.00    -0.003 C 
ATOM     32  C   UNL     1     -12.748  10.906   1.699  1.00  0.00     0.004 C 
ENDBRANCH  30  31
ENDBRANCH  29  30
ENDBRANCH  28  29
ENDBRANCH  27  28
ENDBRANCH  26  27
ENDBRANCH  25  26
ENDBRANCH  24  25
ENDBRANCH  23  24
ENDBRANCH  22  23
ENDBRANCH  21  22
ENDBRANCH  20  21
ENDBRANCH  19  20
ENDBRANCH  18  19
ENDBRANCH   1  18
TORSDOF 28
ENDMDL
MODEL 8
REMARK VINA RESULT:    -4.106      1.857      5.777
REMARK INTER + INTRA:         -15.806
REMARK INTER:                 -11.106
REMARK INTRA:                  -4.700
REMARK UNBOUND:                -4.979
REMARK SMILES CCCCCCCCCCCCCCCCCCCCCCCCCCCCCC(=O)[O-]
REMARK SMILES IDX 16 1 17 2 18 3 19 4 20 5 21 6 22 7 23 8 24 9 25 10 26 11
REMARK SMILES IDX 27 12 28 13 29 14 30 15 31 16 32 17 15 18 14 19 13 20 12 21
REMARK SMILES IDX 11 22 10 23 9 24 8 25 7 26 6 27 5 28 4 29 3 30 2 31 1 32
REMARK H PARENT
REMARK Flexibility Score: inf
ROOT
ATOM      1  C   UNL     1     -15.709   9.375   3.371  1.00  0.00     0.000 C 
ENDROOT
BRANCH   1   2
ATOM      2  C   UNL     1     -14.663   9.640   2.277  1.00  0.00     0.000 C 
BRANCH   2   3
ATOM      3  C   UNL     1     -14.045  11.047   2.383  1.00  0.00     0.000 C 
BRANCH   3   4
ATOM      4  C   UNL     1     -12.508  11.030   2.279  1.00  0.00     0.000 C 
BRANCH   4   5
ATOM      5  C   UNL     1     -11.796  12.028   3.211  1.00  0.00     0.000 C 
BRANCH   5   6
ATOM      6  C   UNL     1     -12.711  12.546   4.334  1.00  0.00     0.000 C 
BRANCH   6   7
ATOM      7  C   UNL     1     -11.921  13.045   5.554  1.00  0.00     0.000 C 
BRANCH   7   8
ATOM      8  C   UNL     1     -10.542  12.373   5.685  1.00  0.00     0.000 C 
BRANCH   8   9
ATOM      9  C   UNL     1     -10.144  12.124   7.149  1.00  0.00     0.000 C 
BRANCH   9  10
ATOM     10  C   UNL     1      -8.651  12.375   7.405  1.00  0.00     0.000 C 
BRANCH  10  11
ATOM     11  C   UNL     1      -7.914  11.061   7.704  1.00  0.00     0.000 C 
BRANCH  11  12
ATOM     12  C   UNL     1      -6.812  10.752   6.680  1.00  0.00     0.000 C 
BRANCH  12  13
ATOM     13  C   UNL     1      -7.242   9.699   5.644  1.00  0.00     0.006 C 
BRANCH  13  14
ATOM     14  C   UNL     1      -8.292   8.730   6.203  1.00  0.00     0.053 C 
BRANCH  14  15
ATOM     15  C   UNL     1      -9.233   8.251   5.141  1.00  0.00     0.041 C 
ATOM     16  O   UNL     1      -9.798   9.078   4.377  1.00  0.00    -0.550 OA
ATOM     17  O   UNL     1      -9.454   6.892   4.967  1.00  0.00    -0.550 OA
ENDBRANCH  14  15
ENDBRANCH  13  14
ENDBRANCH  12  13
ENDBRANCH  11  12
ENDBRANCH  10  11
ENDBRANCH   9  10
ENDBRANCH   8   9
ENDBRANCH   7   8
ENDBRANCH   6   7
ENDBRANCH   5   6
ENDBRANCH   4   5
ENDBRANCH   3   4
ENDBRANCH   2   3
ENDBRANCH   1   2
BRANCH   1  18
ATOM     18  C   UNL     1     -15.918  10.587   4.295  1.00  0.00     0.000 C 
BRANCH  18  19
ATOM     19  C   UNL     1     -16.044  10.189   5.776  1.00  0.00     0.000 C 
BRANCH  19  20
ATOM     20  C   UNL     1     -14.949  10.759   6.702  1.00  0.00     0.000 C 
BRANCH  20  21
ATOM     21  C   UNL     1     -13.928   9.734   7.227  1.00  0.00     0.000 C 
BRANCH  21  22
ATOM     22  C   UNL     1     -12.733   9.538   6.279  1.00  0.00     0.000 C 
BRANCH  22  23
ATOM     23  C   UNL     1     -12.907   8.334   5.334  1.00  0.00     0.000 C 
BRANCH  23  24
ATOM     24  C   UNL     1     -13.078   6.970   6.028  1.00  0.00    -0.000 C 
BRANCH  24  25
ATOM     25  C   UNL     1     -14.317   6.201   5.540  1.00  0.00    -0.000 C 
BRANCH  25  26
ATOM     26  C   UNL     1     -14.040   5.358   4.283  1.00  0.00    -0.000 C 
BRANCH  26  27
ATOM     27  C   UNL     1     -13.116   4.139   4.494  1.00  0.00    -0.000 C 
BRANCH  27  28
ATOM     28  C   UNL     1     -13.172   3.512   5.898  1.00  0.00    -0.000 C 
BRANCH  28  29
ATOM     29  C   UNL     1     -11.846   2.858   6.314  1.00  0.00    -0.000 C 
BRANCH  29  30
ATOM     30  C   UNL     1     -11.588   3.043   7.814  1.00  0.00    -0.000 C 
BRANCH  30  31
ATOM     31  C   UNL     1     -11.008   4.433   8.104  1.00  0.00    -0.003 C 
ATOM     32  C   UNL     1     -11.248   4.838   9.555  1.00  0.00     0.004 C 
ENDBRANCH  30  31
ENDBRANCH  29  30
ENDBRANCH  28  29
ENDBRANCH  27  28
ENDBRANCH  26  27
ENDBRANCH  25  26
ENDBRANCH  24  25
ENDBRANCH  23  24
ENDBRANCH  22  23
ENDBRANCH  21  22
ENDBRANCH  20  21
ENDBRANCH  19  20
ENDBRANCH  18  19
ENDBRANCH   1  18
TORSDOF 28
ENDMDL
MODEL 9
REMARK VINA RESULT:    -4.067      2.272      5.746
REMARK INTER + INTRA:         -15.702
REMARK INTER:                 -11.132
REMARK INTRA:                  -4.570
REMARK UNBOUND:                -4.979
REMARK SMILES CCCCCCCCCCCCCCCCCCCCCCCCCCCCCC(=O)[O-]
REMARK SMILES IDX 16 1 17 2 18 3 19 4 20 5 21 6 22 7 23 8 24 9 25 10 26 11
REMARK SMILES IDX 27 12 28 13 29 14 30 15 31 16 32 17 15 18 14 19 13 20 12 21
REMARK SMILES IDX 11 22 10 23 9 24 8 25 7 26 6 27 5 28 4 29 3 30 2 31 1 32
REMARK H PARENT
REMARK Flexibility Score: inf
ROOT
ATOM      1  C   UNL     1     -11.949   3.484   8.081  1.00  0.00     0.000 C 
ENDROOT
BRANCH   1   2
ATOM      2  C   UNL     1     -10.871   4.529   8.411  1.00  0.00     0.000 C 
BRANCH   2   3
ATOM      3  C   UNL     1     -10.834   5.680   7.389  1.00  0.00     0.000 C 
BRANCH   3   4
ATOM      4  C   UNL     1      -9.734   5.496   6.326  1.00  0.00     0.000 C 
BRANCH   4   5
ATOM      5  C   UNL     1      -9.741   6.559   5.213  1.00  0.00     0.000 C 
BRANCH   5   6
ATOM      6  C   UNL     1     -10.578   7.797   5.581  1.00  0.00     0.000 C 
BRANCH   6   7
ATOM      7  C   UNL     1     -10.134   9.055   4.818  1.00  0.00     0.000 C 
BRANCH   7   8
ATOM      8  C   UNL     1     -11.235  10.127   4.746  1.00  0.00     0.000 C 
BRANCH   8   9
ATOM      9  C   UNL     1     -10.688  11.510   4.355  1.00  0.00     0.000 C 
BRANCH   9  10
ATOM     10  C   UNL     1     -10.707  12.504   5.524  1.00  0.00     0.000 C 
BRANCH  10  11
ATOM     11  C   UNL     1     -11.058  11.798   6.843  1.00  0.00     0.000 C 
BRANCH  11  12
ATOM     12  C   UNL     1     -10.003  12.025   7.936  1.00  0.00     0.000 C 
BRANCH  12  13
ATOM     13  C   UNL     1      -8.565  11.995   7.389  1.00  0.00     0.006 C 
BRANCH  13  14
ATOM     14  C   UNL     1      -7.947  10.593   7.459  1.00  0.00     0.053 C 
BRANCH  14  15
ATOM     15  C   UNL     1      -6.917  10.381   6.392  1.00  0.00     0.041 C 
ATOM     16  O   UNL     1      -5.844  11.042   6.409  1.00  0.00    -0.550 OA
ATOM     17  O   UNL     1      -7.122   9.428   5.405  1.00  0.00    -0.550 OA
ENDBRANCH  14  15
ENDBRANCH  13  14
ENDBRANCH  12  13
ENDBRANCH  11  12
ENDBRANCH  10  11
ENDBRANCH   9  10
ENDBRANCH   8   9
ENDBRANCH   7   8
ENDBRANCH   6   7
ENDBRANCH   5   6
ENDBRANCH   4   5
ENDBRANCH   3   4
ENDBRANCH   2   3
ENDBRANCH   1   2
BRANCH   1  18
ATOM     18  C   UNL     1     -11.553   2.581   6.901  1.00  0.00     0.000 C 
BRANCH  18  19
ATOM     19  C   UNL     1     -12.372   2.873   5.630  1.00  0.00     0.000 C 
BRANCH  19  20
ATOM     20  C   UNL     1     -13.483   3.930   5.796  1.00  0.00     0.000 C 
BRANCH  20  21
ATOM     21  C   UNL     1     -13.460   5.078   4.771  1.00  0.00     0.000 C 
BRANCH  21  22
ATOM     22  C   UNL     1     -13.903   6.424   5.368  1.00  0.00     0.000 C 
BRANCH  22  23
ATOM     23  C   UNL     1     -15.406   6.701   5.179  1.00  0.00     0.000 C 
BRANCH  23  24
ATOM     24  C   UNL     1     -15.805   8.188   5.148  1.00  0.00    -0.000 C 
BRANCH  24  25
ATOM     25  C   UNL     1     -14.593   9.131   5.070  1.00  0.00    -0.000 C 
BRANCH  25  26
ATOM     26  C   UNL     1     -14.684  10.303   6.064  1.00  0.00    -0.000 C 
BRANCH  26  27
ATOM     27  C   UNL     1     -14.504  11.707   5.450  1.00  0.00    -0.000 C 
BRANCH  27  28
ATOM     28  C   UNL     1     -15.283  11.956   4.146  1.00  0.00    -0.000 C 
BRANCH  28  29
ATOM     29  C   UNL     1     -14.371  12.058   2.915  1.00  0.00    -0.000 C 
BRANCH  29  30
ATOM     30  C   UNL     1     -14.902  11.194   1.765  1.00  0.00    -0.000 C 
BRANCH  30  31
ATOM     31  C   UNL     1     -13.945  10.034   1.463  1.00  0.00    -0.003 C 
ATOM     32  C   UNL     1     -12.528  10.541   1.209  1.00  0.00     0.004 C 
ENDBRANCH  30  31
ENDBRANCH  29  30
ENDBRANCH  28  29
ENDBRANCH  27  28
ENDBRANCH  26  27
ENDBRANCH  25  26
ENDBRANCH  24  25
ENDBRANCH  23  24
ENDBRANCH  22  23
ENDBRANCH  21  22
ENDBRANCH  20  21
ENDBRANCH  19  20
ENDBRANCH  18  19
ENDBRANCH   1  18
TORSDOF 28
ENDMDL
