MODEL 1
REMARK VINA RESULT:    -3.923      0.000      0.000
REMARK INTER + INTRA:         -11.026
REMARK INTER:                  -8.509
REMARK INTRA:                  -2.517
REMARK UNBOUND:                -2.517
REMARK SMILES CCCCCCCCCCCCCCCCCCCCCC(=O)[O-]
REMARK SMILES IDX 12 1 11 2 10 3 9 4 8 5 7 6 6 7 5 8 4 9 3 10 2 11 1 12 13 13
REMARK SMILES IDX 14 14 15 15 16 16 17 17 18 18 19 19 20 20 21 21 22 22 23 23
REMARK SMILES IDX 24 24
REMARK H PARENT
REMARK Flexibility Score: inf
ROOT
ATOM      1  C   UNL     1     -22.927  31.972  21.355  1.00  0.00     0.000 C 
ENDROOT
BRANCH   1   2
ATOM      2  C   UNL     1     -23.107  32.360  22.834  1.00  0.00     0.000 C 
BRANCH   2   3
ATOM      3  C   UNL     1     -21.821  32.796  23.563  1.00  0.00     0.000 C 
BRANCH   3   4
ATOM      4  C   UNL     1     -20.521  32.460  22.803  1.00  0.00    -0.000 C 
BRANCH   4   5
ATOM      5  C   UNL     1     -19.266  33.041  23.479  1.00  0.00    -0.000 C 
BRANCH   5   6
ATOM      6  C   UNL     1     -18.361  31.943  24.064  1.00  0.00    -0.000 C 
BRANCH   6   7
ATOM      7  C   UNL     1     -18.904  30.532  23.792  1.00  0.00    -0.000 C 
BRANCH   7   8
ATOM      8  C   UNL     1     -17.781  29.590  23.335  1.00  0.00    -0.000 C 
BRANCH   8   9
ATOM      9  C   UNL     1     -18.053  28.965  21.956  1.00  0.00    -0.000 C 
BRANCH   9  10
ATOM     10  C   UNL     1     -19.543  28.833  21.585  1.00  0.00    -0.000 C 
BRANCH  10  11
ATOM     11  C   UNL     1     -19.965  29.708  20.384  1.00  0.00    -0.003 C 
ATOM     12  C   UNL     1     -20.308  28.879  19.146  1.00  0.00     0.004 C 
ENDBRANCH  10  11
ENDBRANCH   9  10
ENDBRANCH   8   9
ENDBRANCH   7   8
ENDBRANCH   6   7
ENDBRANCH   5   6
ENDBRANCH   4   5
ENDBRANCH   3   4
ENDBRANCH   2   3
ENDBRANCH   1   2
BRANCH   1  13
ATOM     13  C   UNL     1     -23.887  32.675  20.376  1.00  0.00     0.000 C 
BRANCH  13  14
ATOM     14  C   UNL     1     -23.793  34.208  20.449  1.00  0.00     0.000 C 
BRANCH  14  15
ATOM     15  C   UNL     1     -22.418  34.742  20.022  1.00  0.00     0.000 C 
BRANCH  15  16
ATOM     16  C   UNL     1     -21.878  35.814  20.985  1.00  0.00     0.000 C 
BRANCH  16  17
ATOM     17  C   UNL     1     -22.799  36.033  22.197  1.00  0.00     0.000 C 
BRANCH  17  18
ATOM     18  C   UNL     1     -23.428  37.437  22.202  1.00  0.00     0.000 C 
BRANCH  18  19
ATOM     19  C   UNL     1     -22.394  38.553  21.987  1.00  0.00     0.000 C 
BRANCH  19  20
ATOM     20  C   UNL     1     -22.927  39.694  21.109  1.00  0.00     0.006 C 
BRANCH  20  21
ATOM     21  C   UNL     1     -21.857  40.182  20.129  1.00  0.00     0.053 C 
BRANCH  21  22
ATOM     22  C   UNL     1     -20.935  41.152  20.802  1.00  0.00     0.041 C 
ATOM     23  O   UNL     1     -19.754  41.297  20.388  1.00  0.00    -0.550 OA
ATOM     24  O   UNL     1     -21.405  41.946  21.844  1.00  0.00    -0.550 OA
ENDBRANCH  21  22
ENDBRANCH  20  21
ENDBRANCH  19  20
ENDBRANCH  18  19
ENDBRANCH  17  18
ENDBRANCH  16  17
ENDBRANCH  15  16
ENDBRANCH  14  15
ENDBRANCH  13  14
ENDBRANCH   1  13
TORSDOF 20
ENDMDL
MODEL 2
REMARK VINA RESULT:    -3.893      3.874      8.882
REMARK INTER + INTRA:         -10.961
REMARK INTER:                  -8.727
REMARK INTRA:                  -2.235
REMARK UNBOUND:                -2.517
REMARK SMILES CCCCCCCCCCCCCCCCCCCCCC(=O)[O-]
REMARK SMILES IDX 12 1 11 2 10 3 9 4 8 5 7 6 6 7 5 8 4 9 3 10 2 11 1 12 13 13
REMARK SMILES IDX 14 14 15 15 16 16 17 17 18 18 19 19 20 20 21 21 22 22 23 23
REMARK SMILES IDX 24 24
REMARK H PARENT
REMARK Flexibility Score: inf
ROOT
ATOM      1  C   UNL     1     -21.542  32.313  21.515  1.00  0.00     0.000 C 
ENDROOT
BRANCH   1   2
ATOM      2  C   UNL     1     -23.039  32.508  21.211  1.00  0.00     0.000 C 
BRANCH   2   3
ATOM      3  C   UNL     1     -23.401  33.825  20.497  1.00  0.00     0.000 C 
BRANCH   3   4
ATOM      4  C   UNL     1     -22.191  34.737  20.205  1.00  0.00    -0.000 C 
BRANCH   4   5
ATOM      5  C   UNL     1     -22.286  36.101  20.911  1.00  0.00    -0.000 C 
BRANCH   5   6
ATOM      6  C   UNL     1     -22.032  35.992  22.424  1.00  0.00    -0.000 C 
BRANCH   6   7
ATOM      7  C   UNL     1     -22.645  37.165  23.205  1.00  0.00    -0.000 C 
BRANCH   7   8
ATOM      8  C   UNL     1     -21.569  38.190  23.589  1.00  0.00    -0.000 C 
BRANCH   8   9
ATOM      9  C   UNL     1     -21.771  39.551  22.900  1.00  0.00    -0.000 C 
BRANCH   9  10
ATOM     10  C   UNL     1     -22.809  39.555  21.761  1.00  0.00    -0.000 C 
BRANCH  10  11
ATOM     11  C   UNL     1     -22.231  39.978  20.393  1.00  0.00    -0.003 C 
ATOM     12  C   UNL     1     -21.067  40.960  20.527  1.00  0.00     0.004 C 
ENDBRANCH  10  11
ENDBRANCH   9  10
ENDBRANCH   8   9
ENDBRANCH   7   8
ENDBRANCH   6   7
ENDBRANCH   5   6
ENDBRANCH   4   5
ENDBRANCH   3   4
ENDBRANCH   2   3
ENDBRANCH   1   2
BRANCH   1  13
ATOM     13  C   UNL     1     -21.185  32.252  23.012  1.00  0.00     0.000 C 
BRANCH  13  14
ATOM     14  C   UNL     1     -19.930  33.071  23.358  1.00  0.00     0.000 C 
BRANCH  14  15
ATOM     15  C   UNL     1     -18.755  32.193  23.818  1.00  0.00     0.000 C 
BRANCH  15  16
ATOM     16  C   UNL     1     -19.027  30.693  23.612  1.00  0.00     0.000 C 
BRANCH  16  17
ATOM     17  C   UNL     1     -17.778  29.930  23.139  1.00  0.00     0.000 C 
BRANCH  17  18
ATOM     18  C   UNL     1     -18.124  28.820  22.130  1.00  0.00     0.000 C 
BRANCH  18  19
ATOM     19  C   UNL     1     -19.564  28.920  21.605  1.00  0.00     0.000 C 
BRANCH  19  20
ATOM     20  C   UNL     1     -19.648  29.601  20.230  1.00  0.00     0.006 C 
BRANCH  20  21
ATOM     21  C   UNL     1     -20.448  28.749  19.241  1.00  0.00     0.053 C 
BRANCH  21  22
ATOM     22  C   UNL     1     -21.878  28.649  19.674  1.00  0.00     0.041 C 
ATOM     23  O   UNL     1     -22.733  29.463  19.236  1.00  0.00    -0.550 OA
ATOM     24  O   UNL     1     -22.278  27.611  20.511  1.00  0.00    -0.550 OA
ENDBRANCH  21  22
ENDBRANCH  20  21
ENDBRANCH  19  20
ENDBRANCH  18  19
ENDBRANCH  17  18
ENDBRANCH  16  17
ENDBRANCH  15  16
ENDBRANCH  14  15
ENDBRANCH  13  14
ENDBRANCH   1  13
TORSDOF 20
ENDMDL
MODEL 3
REMARK VINA RESULT:    -3.737      2.729      5.408
REMARK INTER + INTRA:         -10.622
REMARK INTER:                  -6.737
REMARK INTRA:                  -3.885
REMARK UNBOUND:                -2.517
REMARK SMILES CCCCCCCCCCCCCCCCCCCCCC(=O)[O-]
REMARK SMILES IDX 12 1 11 2 10 3 9 4 8 5 7 6 6 7 5 8 4 9 3 10 2 11 1 12 13 13
REMARK SMILES IDX 14 14 15 15 16 16 17 17 18 18 19 19 20 20 21 21 22 22 23 23
REMARK SMILES IDX 24 24
REMARK H PARENT
REMARK Flexibility Score: inf
ROOT
ATOM      1  C   UNL     1     -18.700  28.852  21.487  1.00  0.00     0.000 C 
ENDROOT
BRANCH   1   2
ATOM      2  C   UNL     1     -19.596  29.600  20.482  1.00  0.00     0.000 C 
BRANCH   2   3
ATOM      3  C   UNL     1     -20.301  28.711  19.438  1.00  0.00     0.000 C 
BRANCH   3   4
ATOM      4  C   UNL     1     -21.815  28.975  19.307  1.00  0.00    -0.000 C 
BRANCH   4   5
ATOM      5  C   UNL     1     -22.517  29.117  20.670  1.00  0.00    -0.000 C 
BRANCH   5   6
ATOM      6  C   UNL     1     -22.528  27.796  21.459  1.00  0.00    -0.000 C 
BRANCH   6   7
ATOM      7  C   UNL     1     -22.143  27.994  22.933  1.00  0.00    -0.000 C 
BRANCH   7   8
ATOM      8  C   UNL     1     -21.113  26.946  23.376  1.00  0.00    -0.000 C 
BRANCH   8   9
ATOM      9  C   UNL     1     -21.044  25.739  22.424  1.00  0.00    -0.000 C 
BRANCH   9  10
ATOM     10  C   UNL     1     -19.618  25.295  22.042  1.00  0.00    -0.000 C 
BRANCH  10  11
ATOM     11  C   UNL     1     -19.333  25.354  20.525  1.00  0.00    -0.003 C 
ATOM     12  C   UNL     1     -20.577  25.065  19.683  1.00  0.00     0.004 C 
ENDBRANCH  10  11
ENDBRANCH   9  10
ENDBRANCH   8   9
ENDBRANCH   7   8
ENDBRANCH   6   7
ENDBRANCH   5   6
ENDBRANCH   4   5
ENDBRANCH   3   4
ENDBRANCH   2   3
ENDBRANCH   1   2
BRANCH   1  13
ATOM     13  C   UNL     1     -18.290  29.670  22.726  1.00  0.00     0.000 C 
BRANCH  13  14
ATOM     14  C   UNL     1     -19.450  30.497  23.304  1.00  0.00     0.000 C 
BRANCH  14  15
ATOM     15  C   UNL     1     -19.074  31.969  23.535  1.00  0.00     0.000 C 
BRANCH  15  16
ATOM     16  C   UNL     1     -20.226  32.931  23.196  1.00  0.00     0.000 C 
BRANCH  16  17
ATOM     17  C   UNL     1     -21.272  32.291  22.268  1.00  0.00     0.000 C 
BRANCH  17  18
ATOM     18  C   UNL     1     -22.647  32.163  22.946  1.00  0.00     0.000 C 
BRANCH  18  19
ATOM     19  C   UNL     1     -23.810  32.505  22.002  1.00  0.00     0.000 C 
BRANCH  19  20
ATOM     20  C   UNL     1     -23.334  32.973  20.619  1.00  0.00     0.006 C 
BRANCH  20  21
ATOM     21  C   UNL     1     -23.774  34.413  20.342  1.00  0.00     0.053 C 
BRANCH  21  22
ATOM     22  C   UNL     1     -22.676  35.370  20.689  1.00  0.00     0.041 C 
ATOM     23  O   UNL     1     -21.516  35.201  20.228  1.00  0.00    -0.550 OA
ATOM     24  O   UNL     1     -22.953  36.491  21.467  1.00  0.00    -0.550 OA
ENDBRANCH  21  22
ENDBRANCH  20  21
ENDBRANCH  19  20
ENDBRANCH  18  19
ENDBRANCH  17  18
ENDBRANCH  16  17
ENDBRANCH  15  16
ENDBRANCH  14  15
ENDBRANCH  13  14
ENDBRANCH   1  13
TORSDOF 20
ENDMDL
MODEL 4
REMARK VINA RESULT:    -3.725      6.029     10.494
REMARK INTER + INTRA:         -10.596
REMARK INTER:                  -7.743
REMARK INTRA:                  -2.853
REMARK UNBOUND:                -2.517
REMARK SMILES CCCCCCCCCCCCCCCCCCCCCC(=O)[O-]
REMARK SMILES IDX 12 1 11 2 10 3 9 4 8 5 7 6 6 7 5 8 4 9 3 10 2 11 1 12 13 13
REMARK SMILES IDX 14 14 15 15 16 16 17 17 18 18 19 19 20 20 21 21 22 22 23 23
REMARK SMILES IDX 24 24
REMARK H PARENT
REMARK Flexibility Score: inf
ROOT
ATOM      1  C   UNL     1     -21.890  28.519  19.251  1.00  0.00     0.000 C 
ENDROOT
BRANCH   1   2
ATOM      2  C   UNL     1     -20.352  28.486  19.297  1.00  0.00     0.000 C 
BRANCH   2   3
ATOM      3  C   UNL     1     -19.689  29.657  20.049  1.00  0.00     0.000 C 
BRANCH   3   4
ATOM      4  C   UNL     1     -18.916  29.234  21.316  1.00  0.00    -0.000 C 
BRANCH   4   5
ATOM      5  C   UNL     1     -19.692  29.524  22.613  1.00  0.00    -0.000 C 
BRANCH   5   6
ATOM      6  C   UNL     1     -19.164  30.773  23.340  1.00  0.00    -0.000 C 
BRANCH   6   7
ATOM      7  C   UNL     1     -19.973  32.033  22.996  1.00  0.00    -0.000 C 
BRANCH   7   8
ATOM      8  C   UNL     1     -21.382  31.665  22.509  1.00  0.00    -0.000 C 
BRANCH   8   9
ATOM      9  C   UNL     1     -22.203  32.893  22.078  1.00  0.00    -0.000 C 
BRANCH   9  10
ATOM     10  C   UNL     1     -21.558  34.253  22.408  1.00  0.00    -0.000 C 
BRANCH  10  11
ATOM     11  C   UNL     1     -21.910  35.370  21.401  1.00  0.00    -0.003 C 
ATOM     12  C   UNL     1     -22.347  34.819  20.044  1.00  0.00     0.004 C 
ENDBRANCH  10  11
ENDBRANCH   9  10
ENDBRANCH   8   9
ENDBRANCH   7   8
ENDBRANCH   6   7
ENDBRANCH   5   6
ENDBRANCH   4   5
ENDBRANCH   3   4
ENDBRANCH   2   3
ENDBRANCH   1   2
BRANCH   1  13
ATOM     13  C   UNL     1     -22.583  28.525  20.627  1.00  0.00     0.000 C 
BRANCH  13  14
ATOM     14  C   UNL     1     -22.935  27.112  21.122  1.00  0.00     0.000 C 
BRANCH  14  15
ATOM     15  C   UNL     1     -21.965  26.600  22.198  1.00  0.00     0.000 C 
BRANCH  15  16
ATOM     16  C   UNL     1     -21.169  25.367  21.733  1.00  0.00     0.000 C 
BRANCH  16  17
ATOM     17  C   UNL     1     -19.662  25.652  21.614  1.00  0.00     0.000 C 
BRANCH  17  18
ATOM     18  C   UNL     1     -19.049  25.014  20.356  1.00  0.00     0.000 C 
BRANCH  18  19
ATOM     19  C   UNL     1     -20.072  24.824  19.225  1.00  0.00     0.000 C 
BRANCH  19  20
ATOM     20  C   UNL     1     -19.986  23.436  18.574  1.00  0.00     0.006 C 
BRANCH  20  21
ATOM     21  C   UNL     1     -19.044  23.450  17.367  1.00  0.00     0.053 C 
BRANCH  21  22
ATOM     22  C   UNL     1     -19.822  23.607  16.098  1.00  0.00     0.041 C 
ATOM     23  O   UNL     1     -21.029  23.253  16.045  1.00  0.00    -0.550 OA
ATOM     24  O   UNL     1     -19.230  24.211  14.992  1.00  0.00    -0.550 OA
ENDBRANCH  21  22
ENDBRANCH  20  21
ENDBRANCH  19  20
ENDBRANCH  18  19
ENDBRANCH  17  18
ENDBRANCH  16  17
ENDBRANCH  15  16
ENDBRANCH  14  15
ENDBRANCH  13  14
ENDBRANCH   1  13
TORSDOF 20
ENDMDL
MODEL 5
REMARK VINA RESULT:    -3.695      4.022      9.147
REMARK INTER + INTRA:         -10.531
REMARK INTER:                  -8.000
REMARK INTRA:                  -2.531
REMARK UNBOUND:                -2.517
REMARK SMILES CCCCCCCCCCCCCCCCCCCCCC(=O)[O-]
REMARK SMILES IDX 12 1 11 2 10 3 9 4 8 5 7 6 6 7 5 8 4 9 3 10 2 11 1 12 13 13
REMARK SMILES IDX 14 14 15 15 16 16 17 17 18 18 19 19 20 20 21 21 22 22 23 23
REMARK SMILES IDX 24 24
REMARK H PARENT
REMARK Flexibility Score: inf
ROOT
ATOM      1  C   UNL     1     -22.240  34.600  20.609  1.00  0.00     0.000 C 
ENDROOT
BRANCH   1   2
ATOM      2  C   UNL     1     -22.443  36.059  21.060  1.00  0.00     0.000 C 
BRANCH   2   3
ATOM      3  C   UNL     1     -23.695  36.314  21.923  1.00  0.00     0.000 C 
BRANCH   3   4
ATOM      4  C   UNL     1     -23.403  37.028  23.259  1.00  0.00    -0.000 C 
BRANCH   4   5
ATOM      5  C   UNL     1     -21.916  37.383  23.434  1.00  0.00    -0.000 C 
BRANCH   5   6
ATOM      6  C   UNL     1     -21.658  38.893  23.292  1.00  0.00    -0.000 C 
BRANCH   6   7
ATOM      7  C   UNL     1     -22.960  39.698  23.165  1.00  0.00    -0.000 C 
BRANCH   7   8
ATOM      8  C   UNL     1     -22.993  40.483  21.846  1.00  0.00    -0.000 C 
BRANCH   8   9
ATOM      9  C   UNL     1     -22.215  39.784  20.717  1.00  0.00    -0.000 C 
BRANCH   9  10
ATOM     10  C   UNL     1     -21.145  40.655  20.031  1.00  0.00    -0.000 C 
BRANCH  10  11
ATOM     11  C   UNL     1     -20.572  41.767  20.938  1.00  0.00    -0.003 C 
ATOM     12  C   UNL     1     -19.290  41.338  21.653  1.00  0.00     0.004 C 
ENDBRANCH  10  11
ENDBRANCH   9  10
ENDBRANCH   8   9
ENDBRANCH   7   8
ENDBRANCH   6   7
ENDBRANCH   5   6
ENDBRANCH   4   5
ENDBRANCH   3   4
ENDBRANCH   2   3
ENDBRANCH   1   2
BRANCH   1  13
ATOM     13  C   UNL     1     -21.917  33.608  21.742  1.00  0.00     0.000 C 
BRANCH  13  14
ATOM     14  C   UNL     1     -20.726  34.057  22.605  1.00  0.00     0.000 C 
BRANCH  14  15
ATOM     15  C   UNL     1     -20.391  33.058  23.723  1.00  0.00     0.000 C 
BRANCH  15  16
ATOM     16  C   UNL     1     -18.875  32.905  23.940  1.00  0.00     0.000 C 
BRANCH  16  17
ATOM     17  C   UNL     1     -18.416  31.438  23.866  1.00  0.00     0.000 C 
BRANCH  17  18
ATOM     18  C   UNL     1     -19.603  30.462  23.801  1.00  0.00     0.000 C 
BRANCH  18  19
ATOM     19  C   UNL     1     -19.588  29.588  22.538  1.00  0.00     0.000 C 
BRANCH  19  20
ATOM     20  C   UNL     1     -20.347  30.226  21.365  1.00  0.00     0.006 C 
BRANCH  20  21
ATOM     21  C   UNL     1     -19.822  29.710  20.023  1.00  0.00     0.053 C 
BRANCH  21  22
ATOM     22  C   UNL     1     -20.654  28.561  19.542  1.00  0.00     0.041 C 
ATOM     23  O   UNL     1     -20.255  27.377  19.703  1.00  0.00    -0.550 OA
ATOM     24  O   UNL     1     -21.904  28.799  18.979  1.00  0.00    -0.550 OA
ENDBRANCH  21  22
ENDBRANCH  20  21
ENDBRANCH  19  20
ENDBRANCH  18  19
ENDBRANCH  17  18
ENDBRANCH  16  17
ENDBRANCH  15  16
ENDBRANCH  14  15
ENDBRANCH  13  14
ENDBRANCH   1  13
TORSDOF 20
ENDMDL
MODEL 6
REMARK VINA RESULT:    -3.645      5.638     10.429
REMARK INTER + INTRA:         -10.423
REMARK INTER:                  -6.835
REMARK INTRA:                  -3.587
REMARK UNBOUND:                -2.517
REMARK SMILES CCCCCCCCCCCCCCCCCCCCCC(=O)[O-]
REMARK SMILES IDX 12 1 11 2 10 3 9 4 8 5 7 6 6 7 5 8 4 9 3 10 2 11 1 12 13 13
REMARK SMILES IDX 14 14 15 15 16 16 17 17 18 18 19 19 20 20 21 21 22 22 23 23
REMARK SMILES IDX 24 24
REMARK H PARENT
REMARK Flexibility Score: inf
ROOT
ATOM      1  C   UNL     1     -19.761  29.801  20.301  1.00  0.00     0.000 C 
ENDROOT
BRANCH   1   2
ATOM      2  C   UNL     1     -20.384  28.859  19.254  1.00  0.00     0.000 C 
BRANCH   2   3
ATOM      3  C   UNL     1     -20.381  27.363  19.628  1.00  0.00     0.000 C 
BRANCH   3   4
ATOM      4  C   UNL     1     -21.778  26.789  19.940  1.00  0.00    -0.000 C 
BRANCH   4   5
ATOM      5  C   UNL     1     -22.912  27.793  19.662  1.00  0.00    -0.000 C 
BRANCH   5   6
ATOM      6  C   UNL     1     -23.748  28.089  20.918  1.00  0.00    -0.000 C 
BRANCH   6   7
ATOM      7  C   UNL     1     -23.547  29.525  21.428  1.00  0.00    -0.000 C 
BRANCH   7   8
ATOM      8  C   UNL     1     -23.517  30.522  20.262  1.00  0.00    -0.000 C 
BRANCH   8   9
ATOM      9  C   UNL     1     -23.565  31.987  20.729  1.00  0.00    -0.000 C 
BRANCH   9  10
ATOM     10  C   UNL     1     -22.339  32.449  21.541  1.00  0.00    -0.000 C 
BRANCH  10  11
ATOM     11  C   UNL     1     -21.894  33.895  21.229  1.00  0.00    -0.003 C 
ATOM     12  C   UNL     1     -22.786  34.570  20.186  1.00  0.00     0.004 C 
ENDBRANCH  10  11
ENDBRANCH   9  10
ENDBRANCH   8   9
ENDBRANCH   7   8
ENDBRANCH   6   7
ENDBRANCH   5   6
ENDBRANCH   4   5
ENDBRANCH   3   4
ENDBRANCH   2   3
ENDBRANCH   1   2
BRANCH   1  13
ATOM     13  C   UNL     1     -19.259  29.108  21.582  1.00  0.00     0.000 C 
BRANCH  13  14
ATOM     14  C   UNL     1     -20.129  29.426  22.810  1.00  0.00     0.000 C 
BRANCH  14  15
ATOM     15  C   UNL     1     -20.774  28.173  23.423  1.00  0.00     0.000 C 
BRANCH  15  16
ATOM     16  C   UNL     1     -19.819  26.967  23.435  1.00  0.00     0.000 C 
BRANCH  16  17
ATOM     17  C   UNL     1     -20.534  25.648  23.094  1.00  0.00     0.000 C 
BRANCH  17  18
ATOM     18  C   UNL     1     -19.542  24.515  22.778  1.00  0.00     0.000 C 
BRANCH  18  19
ATOM     19  C   UNL     1     -19.033  24.555  21.330  1.00  0.00     0.000 C 
BRANCH  19  20
ATOM     20  C   UNL     1     -17.594  25.082  21.220  1.00  0.00     0.006 C 
BRANCH  20  21
ATOM     21  C   UNL     1     -16.596  24.086  21.817  1.00  0.00     0.053 C 
BRANCH  21  22
ATOM     22  C   UNL     1     -15.789  24.738  22.896  1.00  0.00     0.041 C 
ATOM     23  O   UNL     1     -14.573  24.444  23.046  1.00  0.00    -0.550 OA
ATOM     24  O   UNL     1     -16.365  25.723  23.694  1.00  0.00    -0.550 OA
ENDBRANCH  21  22
ENDBRANCH  20  21
ENDBRANCH  19  20
ENDBRANCH  18  19
ENDBRANCH  17  18
ENDBRANCH  16  17
ENDBRANCH  15  16
ENDBRANCH  14  15
ENDBRANCH  13  14
ENDBRANCH   1  13
TORSDOF 20
ENDMDL
MODEL 7
REMARK VINA RESULT:    -3.637      3.229      5.901
REMARK INTER + INTRA:         -10.407
REMARK INTER:                  -6.736
REMARK INTRA:                  -3.671
REMARK UNBOUND:                -2.517
REMARK SMILES CCCCCCCCCCCCCCCCCCCCCC(=O)[O-]
REMARK SMILES IDX 12 1 11 2 10 3 9 4 8 5 7 6 6 7 5 8 4 9 3 10 2 11 1 12 13 13
REMARK SMILES IDX 14 14 15 15 16 16 17 17 18 18 19 19 20 20 21 21 22 22 23 23
REMARK SMILES IDX 24 24
REMARK H PARENT
REMARK Flexibility Score: inf
ROOT
ATOM      1  C   UNL     1     -20.572  28.742  19.252  1.00  0.00     0.000 C 
ENDROOT
BRANCH   1   2
ATOM      2  C   UNL     1     -22.064  28.688  19.628  1.00  0.00     0.000 C 
BRANCH   2   3
ATOM      3  C   UNL     1     -22.733  27.308  19.479  1.00  0.00     0.000 C 
BRANCH   3   4
ATOM      4  C   UNL     1     -22.930  26.557  20.812  1.00  0.00    -0.000 C 
BRANCH   4   5
ATOM      5  C   UNL     1     -22.533  27.400  22.037  1.00  0.00    -0.000 C 
BRANCH   5   6
ATOM      6  C   UNL     1     -21.476  26.699  22.908  1.00  0.00    -0.000 C 
BRANCH   6   7
ATOM      7  C   UNL     1     -20.916  25.434  22.240  1.00  0.00    -0.000 C 
BRANCH   7   8
ATOM      8  C   UNL     1     -19.387  25.506  22.126  1.00  0.00    -0.000 C 
BRANCH   8   9
ATOM      9  C   UNL     1     -18.860  24.918  20.805  1.00  0.00    -0.000 C 
BRANCH   9  10
ATOM     10  C   UNL     1     -19.708  25.253  19.562  1.00  0.00    -0.000 C 
BRANCH  10  11
ATOM     11  C   UNL     1     -20.234  24.008  18.814  1.00  0.00    -0.003 C 
ATOM     12  C   UNL     1     -19.329  23.595  17.653  1.00  0.00     0.004 C 
ENDBRANCH  10  11
ENDBRANCH   9  10
ENDBRANCH   8   9
ENDBRANCH   7   8
ENDBRANCH   6   7
ENDBRANCH   5   6
ENDBRANCH   4   5
ENDBRANCH   3   4
ENDBRANCH   2   3
ENDBRANCH   1   2
BRANCH   1  13
ATOM     13  C   UNL     1     -19.715  29.680  20.122  1.00  0.00     0.000 C 
BRANCH  13  14
ATOM     14  C   UNL     1     -18.914  28.927  21.198  1.00  0.00     0.000 C 
BRANCH  14  15
ATOM     15  C   UNL     1     -19.170  29.463  22.615  1.00  0.00     0.000 C 
BRANCH  15  16
ATOM     16  C   UNL     1     -19.801  30.867  22.607  1.00  0.00     0.000 C 
BRANCH  16  17
ATOM     17  C   UNL     1     -21.134  30.916  23.373  1.00  0.00     0.000 C 
BRANCH  17  18
ATOM     18  C   UNL     1     -22.342  31.036  22.428  1.00  0.00     0.000 C 
BRANCH  18  19
ATOM     19  C   UNL     1     -22.334  32.337  21.613  1.00  0.00     0.000 C 
BRANCH  19  20
ATOM     20  C   UNL     1     -22.360  33.593  22.497  1.00  0.00     0.006 C 
BRANCH  20  21
ATOM     21  C   UNL     1     -21.370  34.645  21.991  1.00  0.00     0.053 C 
BRANCH  21  22
ATOM     22  C   UNL     1     -21.957  35.406  20.843  1.00  0.00     0.041 C 
ATOM     23  O   UNL     1     -22.676  36.419  21.054  1.00  0.00    -0.550 OA
ATOM     24  O   UNL     1     -21.652  35.035  19.537  1.00  0.00    -0.550 OA
ENDBRANCH  21  22
ENDBRANCH  20  21
ENDBRANCH  19  20
ENDBRANCH  18  19
ENDBRANCH  17  18
ENDBRANCH  16  17
ENDBRANCH  15  16
ENDBRANCH  14  15
ENDBRANCH  13  14
ENDBRANCH   1  13
TORSDOF 20
ENDMDL
MODEL 8
REMARK VINA RESULT:    -3.622      1.342      2.264
REMARK INTER + INTRA:         -10.373
REMARK INTER:                  -8.092
REMARK INTRA:                  -2.281
REMARK UNBOUND:                -2.517
REMARK SMILES CCCCCCCCCCCCCCCCCCCCCC(=O)[O-]
REMARK SMILES IDX 12 1 11 2 10 3 9 4 8 5 7 6 6 7 5 8 4 9 3 10 2 11 1 12 13 13
REMARK SMILES IDX 14 14 15 15 16 16 17 17 18 18 19 19 20 20 21 21 22 22 23 23
REMARK SMILES IDX 24 24
REMARK H PARENT
REMARK Flexibility Score: inf
ROOT
ATOM      1  C   UNL     1     -22.478  32.040  21.439  1.00  0.00     0.000 C 
ENDROOT
BRANCH   1   2
ATOM      2  C   UNL     1     -21.660  31.688  22.695  1.00  0.00     0.000 C 
BRANCH   2   3
ATOM      3  C   UNL     1     -20.424  32.574  22.947  1.00  0.00     0.000 C 
BRANCH   3   4
ATOM      4  C   UNL     1     -19.166  31.793  23.378  1.00  0.00    -0.000 C 
BRANCH   4   5
ATOM      5  C   UNL     1     -19.398  30.273  23.438  1.00  0.00    -0.000 C 
BRANCH   5   6
ATOM      6  C   UNL     1     -18.423  29.499  22.535  1.00  0.00    -0.000 C 
BRANCH   6   7
ATOM      7  C   UNL     1     -19.147  28.714  21.430  1.00  0.00    -0.000 C 
BRANCH   7   8
ATOM      8  C   UNL     1     -19.627  29.654  20.315  1.00  0.00    -0.000 C 
BRANCH   8   9
ATOM      9  C   UNL     1     -20.424  28.921  19.221  1.00  0.00    -0.000 C 
BRANCH   9  10
ATOM     10  C   UNL     1     -21.954  28.947  19.407  1.00  0.00    -0.000 C 
BRANCH  10  11
ATOM     11  C   UNL     1     -22.518  27.688  20.100  1.00  0.00    -0.003 C 
ATOM     12  C   UNL     1     -23.041  27.977  21.507  1.00  0.00     0.004 C 
ENDBRANCH  10  11
ENDBRANCH   9  10
ENDBRANCH   8   9
ENDBRANCH   7   8
ENDBRANCH   6   7
ENDBRANCH   5   6
ENDBRANCH   4   5
ENDBRANCH   3   4
ENDBRANCH   2   3
ENDBRANCH   1   2
BRANCH   1  13
ATOM     13  C   UNL     1     -23.225  33.386  21.506  1.00  0.00     0.000 C 
BRANCH  13  14
ATOM     14  C   UNL     1     -22.940  34.285  20.291  1.00  0.00     0.000 C 
BRANCH  14  15
ATOM     15  C   UNL     1     -21.912  35.385  20.594  1.00  0.00     0.000 C 
BRANCH  15  16
ATOM     16  C   UNL     1     -22.058  35.951  22.018  1.00  0.00     0.000 C 
BRANCH  16  17
ATOM     17  C   UNL     1     -23.172  37.007  22.119  1.00  0.00     0.000 C 
BRANCH  17  18
ATOM     18  C   UNL     1     -22.609  38.434  22.234  1.00  0.00     0.000 C 
BRANCH  18  19
ATOM     19  C   UNL     1     -22.299  39.064  20.867  1.00  0.00     0.000 C 
BRANCH  19  20
ATOM     20  C   UNL     1     -22.132  40.589  20.940  1.00  0.00     0.006 C 
BRANCH  20  21
ATOM     21  C   UNL     1     -21.284  40.994  22.149  1.00  0.00     0.053 C 
BRANCH  21  22
ATOM     22  C   UNL     1     -19.853  41.176  21.746  1.00  0.00     0.041 C 
ATOM     23  O   UNL     1     -18.937  41.098  22.607  1.00  0.00    -0.550 OA
ATOM     24  O   UNL     1     -19.528  41.362  20.406  1.00  0.00    -0.550 OA
ENDBRANCH  21  22
ENDBRANCH  20  21
ENDBRANCH  19  20
ENDBRANCH  18  19
ENDBRANCH  17  18
ENDBRANCH  16  17
ENDBRANCH  15  16
ENDBRANCH  14  15
ENDBRANCH  13  14
ENDBRANCH   1  13
TORSDOF 20
ENDMDL
MODEL 9
REMARK VINA RESULT:    -3.620      1.493      3.450
REMARK INTER + INTRA:         -10.370
REMARK INTER:                  -8.388
REMARK INTRA:                  -1.982
REMARK UNBOUND:                -2.517
REMARK SMILES CCCCCCCCCCCCCCCCCCCCCC(=O)[O-]
REMARK SMILES IDX 12 1 11 2 10 3 9 4 8 5 7 6 6 7 5 8 4 9 3 10 2 11 1 12 13 13
REMARK SMILES IDX 14 14 15 15 16 16 17 17 18 18 19 19 20 20 21 21 22 22 23 23
REMARK SMILES IDX 24 24
REMARK H PARENT
REMARK Flexibility Score: inf
ROOT
ATOM      1  C   UNL     1     -22.956  34.496  19.983  1.00  0.00     0.000 C 
ENDROOT
BRANCH   1   2
ATOM      2  C   UNL     1     -23.787  33.470  20.775  1.00  0.00     0.000 C 
BRANCH   2   3
ATOM      3  C   UNL     1     -23.047  32.776  21.936  1.00  0.00     0.000 C 
BRANCH   3   4
ATOM      4  C   UNL     1     -22.299  31.491  21.527  1.00  0.00    -0.000 C 
BRANCH   4   5
ATOM      5  C   UNL     1     -23.240  30.290  21.326  1.00  0.00    -0.000 C 
BRANCH   5   6
ATOM      6  C   UNL     1     -23.443  29.952  19.840  1.00  0.00    -0.000 C 
BRANCH   6   7
ATOM      7  C   UNL     1     -23.107  28.486  19.523  1.00  0.00    -0.000 C 
BRANCH   7   8
ATOM      8  C   UNL     1     -21.712  28.118  20.048  1.00  0.00    -0.000 C 
BRANCH   8   9
ATOM      9  C   UNL     1     -20.581  28.815  19.271  1.00  0.00    -0.000 C 
BRANCH   9  10
ATOM     10  C   UNL     1     -19.569  29.581  20.145  1.00  0.00    -0.000 C 
BRANCH  10  11
ATOM     11  C   UNL     1     -19.381  28.977  21.554  1.00  0.00    -0.003 C 
ATOM     12  C   UNL     1     -19.071  30.039  22.610  1.00  0.00     0.004 C 
ENDBRANCH  10  11
ENDBRANCH   9  10
ENDBRANCH   8   9
ENDBRANCH   7   8
ENDBRANCH   6   7
ENDBRANCH   5   6
ENDBRANCH   4   5
ENDBRANCH   3   4
ENDBRANCH   2   3
ENDBRANCH   1   2
BRANCH   1  13
ATOM     13  C   UNL     1     -21.867  35.219  20.798  1.00  0.00     0.000 C 
BRANCH  13  14
ATOM     14  C   UNL     1     -22.424  36.384  21.634  1.00  0.00     0.000 C 
BRANCH  14  15
ATOM     15  C   UNL     1     -21.898  36.385  23.078  1.00  0.00     0.000 C 
BRANCH  15  16
ATOM     16  C   UNL     1     -22.306  37.651  23.851  1.00  0.00     0.000 C 
BRANCH  16  17
ATOM     17  C   UNL     1     -21.614  38.916  23.315  1.00  0.00     0.000 C 
BRANCH  17  18
ATOM     18  C   UNL     1     -22.619  39.917  22.719  1.00  0.00     0.000 C 
BRANCH  18  19
ATOM     19  C   UNL     1     -22.435  40.118  21.207  1.00  0.00     0.000 C 
BRANCH  19  20
ATOM     20  C   UNL     1     -21.719  41.433  20.866  1.00  0.00     0.006 C 
BRANCH  20  21
ATOM     21  C   UNL     1     -20.386  41.169  20.161  1.00  0.00     0.053 C 
BRANCH  21  22
ATOM     22  C   UNL     1     -19.244  41.641  21.007  1.00  0.00     0.041 C 
ATOM     23  O   UNL     1     -18.441  42.506  20.565  1.00  0.00    -0.550 OA
ATOM     24  O   UNL     1     -19.109  41.176  22.312  1.00  0.00    -0.550 OA
ENDBRANCH  21  22
ENDBRANCH  20  21
ENDBRANCH  19  20
ENDBRANCH  18  19
ENDBRANCH  17  18
ENDBRANCH  16  17
ENDBRANCH  15  16
ENDBRANCH  14  15
ENDBRANCH  13  14
ENDBRANCH   1  13
TORSDOF 20
ENDMDL
