MODEL 1
REMARK VINA RESULT:    -0.383      0.000      0.000
REMARK INTER + INTRA:          -0.744
REMARK INTER:                  -0.450
REMARK INTRA:                  -0.294
REMARK UNBOUND:                -0.294
REMARK SMILES O=c1cc(-c2ccc(O)c(O)c2)oc2cc(O)cc(O)c12
REMARK SMILES IDX 4 1 3 2 2 3 1 4 21 5 19 6 18 7 16 8 15 9 14 10 13 11 5 12
REMARK SMILES IDX 6 13 7 14 8 15 12 16 10 17 9 18 11 20 20 22 17 24
REMARK H PARENT 9 19 11 21 20 23 17 25
REMARK Flexibility Score: inf
ROOT
ATOM      1  C   UNL     1      34.075  68.152  -7.963  1.00  0.00     0.138 A 
ATOM      2  C   UNL     1      34.230  69.306  -8.743  1.00  0.00     0.100 A 
ATOM      3  C   UNL     1      33.530  70.466  -8.406  1.00  0.00     0.197 A 
ATOM      4  O   UNL     1      33.733  71.501  -9.092  1.00  0.00    -0.289 OA
ATOM      5  C   UNL     1      32.645  70.458  -7.301  1.00  0.00     0.107 A 
ATOM      6  C   UNL     1      31.854  71.570  -6.883  1.00  0.00     0.134 A 
ATOM      7  C   UNL     1      31.088  71.473  -5.715  1.00  0.00     0.093 A 
ATOM      8  C   UNL     1      31.038  70.288  -4.983  1.00  0.00     0.123 A 
ATOM      9  C   UNL     1      31.767  69.177  -5.410  1.00  0.00     0.094 A 
ATOM     10  C   UNL     1      32.569  69.254  -6.551  1.00  0.00     0.146 A 
ATOM     11  O   UNL     1      33.262  68.179  -6.914  1.00  0.00    -0.456 OA
ENDROOT
BRANCH   1  12
ATOM     12  C   UNL     1      34.792  66.890  -8.279  1.00  0.00     0.021 A 
ATOM     13  C   UNL     1      36.159  66.878  -8.614  1.00  0.00     0.016 A 
ATOM     14  C   UNL     1      36.809  65.674  -8.896  1.00  0.00     0.051 A 
ATOM     15  C   UNL     1      36.109  64.462  -8.842  1.00  0.00     0.157 A 
ATOM     16  C   UNL     1      34.100  65.668  -8.213  1.00  0.00     0.062 A 
ATOM     17  C   UNL     1      34.749  64.460  -8.496  1.00  0.00     0.158 A 
BRANCH  15  18
ATOM     18  O   UNL     1      36.760  63.263  -9.125  1.00  0.00    -0.504 OA
ATOM     19  H   UNL     1      36.858  62.923 -10.075  1.00  0.00     0.293 HD
ENDBRANCH  15  18
BRANCH  17  20
ATOM     20  O   UNL     1      34.023  63.270  -8.429  1.00  0.00    -0.504 OA
ATOM     21  H   UNL     1      33.813  62.721  -9.254  1.00  0.00     0.293 HD
ENDBRANCH  17  20
ENDBRANCH   1  12
BRANCH   6  22
ATOM     22  O   UNL     1      31.766  72.778  -7.584  1.00  0.00    -0.507 OA
ATOM     23  H   UNL     1      32.046  73.678  -7.225  1.00  0.00     0.293 HD
ENDBRANCH   6  22
BRANCH   8  24
ATOM     24  O   UNL     1      30.252  70.222  -3.834  1.00  0.00    -0.508 OA
ATOM     25  H   UNL     1      29.585  69.473  -3.690  1.00  0.00     0.293 HD
ENDBRANCH   8  24
TORSDOF 5
ENDMDL
