MODEL 1
REMARK VINA RESULT:    -6.647      0.000      0.000
REMARK INTER + INTRA:         -10.948
REMARK INTER:                  -9.173
REMARK INTRA:                  -1.775
REMARK UNBOUND:                -1.775
REMARK SMILES CC[C@@H](CC[C@@H](C)[C@@H]1CC[C@@H]2[C@H]3CC=C4C[C@@H](O)CC[C@]4(C)[C@H]3CC[C@]21C)C(C)C
REMARK SMILES IDX 5 1 4 2 3 3 2 4 1 5 28 6 29 7 30 8 6 9 7 10 8 11 9 12 26 13
REMARK SMILES IDX 10 14 11 15 25 16 27 17 12 18 24 19 23 20 13 21 21 22 14 23
REMARK SMILES IDX 15 24 20 25 22 26 16 27 19 28 17 29 18 30
REMARK H PARENT 18 31
REMARK Flexibility Score: inf
ROOT
ATOM      1  C   UNL     1     148.238 140.253 136.693  1.00  0.00     0.004 C 
ENDROOT
BRANCH   1   2
ATOM      2  C   UNL     1     146.953 141.091 136.824  1.00  0.00     0.004 C 
BRANCH   2   3
ATOM      3  C   UNL     1     145.672 140.253 136.505  1.00  0.00    -0.009 C 
BRANCH   3   4
ATOM      4  C   UNL     1     145.842 139.434 135.200  1.00  0.00     0.000 C 
ATOM      5  C   UNL     1     145.632 137.933 135.423  1.00  0.00     0.004 C 
ENDBRANCH   3   4
BRANCH   3   6
ATOM      6  C   UNL     1     144.357 141.099 136.475  1.00  0.00    -0.014 C 
ATOM      7  C   UNL     1     143.368 140.769 137.609  1.00  0.00     0.007 C 
ATOM      8  C   UNL     1     143.649 141.009 135.115  1.00  0.00     0.007 C 
ENDBRANCH   3   6
ENDBRANCH   2   3
ENDBRANCH   1   2
BRANCH   1   9
ATOM      9  C   UNL     1     148.677 139.568 138.013  1.00  0.00    -0.011 C 
ATOM     10  C   UNL     1     150.103 140.027 138.393  1.00  0.00     0.008 C 
BRANCH   9  11
ATOM     11  C   UNL     1     147.673 139.878 139.182  1.00  0.00    -0.002 C 
ATOM     12  C   UNL     1     148.368 140.558 140.395  1.00  0.00     0.005 C 
ATOM     13  C   UNL     1     146.893 138.686 139.830  1.00  0.00    -0.026 C 
ATOM     14  C   UNL     1     147.617 140.128 141.658  1.00  0.00     0.005 C 
ATOM     15  C   UNL     1     146.421 139.349 141.141  1.00  0.00    -0.001 C 
ATOM     16  C   UNL     1     145.635 138.191 139.042  1.00  0.00     0.007 C 
ATOM     17  C   UNL     1     147.855 137.483 140.083  1.00  0.00     0.012 C 
ATOM     18  C   UNL     1     145.754 138.348 142.111  1.00  0.00     0.000 C 
ATOM     19  C   UNL     1     144.377 137.979 139.923  1.00  0.00     0.005 C 
ATOM     20  C   UNL     1     144.692 137.450 141.360  1.00  0.00     0.003 C 
ATOM     21  C   UNL     1     145.171 139.069 143.340  1.00  0.00     0.031 C 
ATOM     22  C   UNL     1     143.386 137.119 142.206  1.00  0.00    -0.008 C 
ATOM     23  C   UNL     1     144.508 138.060 144.226  1.00  0.00    -0.027 C 
ATOM     24  C   UNL     1     143.714 137.107 143.704  1.00  0.00    -0.065 C 
ATOM     25  C   UNL     1     142.863 135.708 141.800  1.00  0.00     0.014 C 
ATOM     26  C   UNL     1     142.259 138.162 141.957  1.00  0.00     0.016 C 
ATOM     27  C   UNL     1     143.344 135.915 144.565  1.00  0.00     0.063 C 
ATOM     28  C   UNL     1     141.691 135.223 142.674  1.00  0.00     0.033 C 
ATOM     29  C   UNL     1     141.977 135.297 144.196  1.00  0.00     0.118 C 
BRANCH  29  30
ATOM     30  O   UNL     1     140.932 135.952 144.871  1.00  0.00    -0.393 OA
ATOM     31  H   UNL     1     140.314 135.257 145.211  1.00  0.00     0.210 HD
ENDBRANCH  29  30
ENDBRANCH   9  11
ENDBRANCH   1   9
TORSDOF 7
ENDMDL
MODEL 2
REMARK VINA RESULT:    -6.438      3.782      5.565
REMARK INTER + INTRA:         -10.659
REMARK INTER:                  -8.657
REMARK INTRA:                  -2.002
REMARK UNBOUND:                -1.775
REMARK SMILES CC[C@@H](CC[C@@H](C)[C@@H]1CC[C@@H]2[C@H]3CC=C4C[C@@H](O)CC[C@]4(C)[C@H]3CC[C@]21C)C(C)C
REMARK SMILES IDX 5 1 4 2 3 3 2 4 1 5 28 6 29 7 30 8 6 9 7 10 8 11 9 12 26 13
REMARK SMILES IDX 10 14 11 15 25 16 27 17 12 18 24 19 23 20 13 21 21 22 14 23
REMARK SMILES IDX 15 24 20 25 22 26 16 27 19 28 17 29 18 30
REMARK H PARENT 18 31
REMARK Flexibility Score: inf
ROOT
ATOM      1  C   UNL     1     147.539 141.499 137.860  1.00  0.00     0.004 C 
ENDROOT
BRANCH   1   2
ATOM      2  C   UNL     1     146.048 141.122 137.935  1.00  0.00     0.004 C 
BRANCH   2   3
ATOM      3  C   UNL     1     145.475 140.715 136.539  1.00  0.00    -0.009 C 
BRANCH   3   4
ATOM      4  C   UNL     1     144.457 141.761 136.017  1.00  0.00     0.000 C 
ATOM      5  C   UNL     1     143.223 141.107 135.386  1.00  0.00     0.004 C 
ENDBRANCH   3   4
BRANCH   3   6
ATOM      6  C   UNL     1     144.874 139.272 136.502  1.00  0.00    -0.014 C 
ATOM      7  C   UNL     1     144.761 138.598 137.884  1.00  0.00     0.007 C 
ATOM      8  C   UNL     1     145.636 138.358 135.531  1.00  0.00     0.007 C 
ENDBRANCH   3   6
ENDBRANCH   2   3
ENDBRANCH   1   2
BRANCH   1   9
ATOM      9  C   UNL     1     148.399 140.883 138.994  1.00  0.00    -0.011 C 
ATOM     10  C   UNL     1     148.495 141.873 140.176  1.00  0.00     0.008 C 
BRANCH   9  11
ATOM     11  C   UNL     1     147.811 139.508 139.479  1.00  0.00    -0.002 C 
ATOM     12  C   UNL     1     147.673 139.435 141.025  1.00  0.00     0.005 C 
ATOM     13  C   UNL     1     148.587 138.198 139.120  1.00  0.00    -0.026 C 
ATOM     14  C   UNL     1     147.864 137.973 141.438  1.00  0.00     0.005 C 
ATOM     15  C   UNL     1     147.947 137.217 140.124  1.00  0.00    -0.001 C 
ATOM     16  C   UNL     1     148.359 137.648 137.673  1.00  0.00     0.007 C 
ATOM     17  C   UNL     1     150.117 138.389 139.368  1.00  0.00     0.012 C 
ATOM     18  C   UNL     1     148.644 135.838 140.143  1.00  0.00     0.000 C 
ATOM     19  C   UNL     1     148.081 136.124 137.609  1.00  0.00     0.005 C 
ATOM     20  C   UNL     1     148.864 135.292 138.676  1.00  0.00     0.003 C 
ATOM     21  C   UNL     1     147.892 134.846 141.047  1.00  0.00     0.031 C 
ATOM     22  C   UNL     1     148.666 133.722 138.515  1.00  0.00    -0.008 C 
ATOM     23  C   UNL     1     148.588 133.521 141.000  1.00  0.00    -0.027 C 
ATOM     24  C   UNL     1     149.007 133.008 139.828  1.00  0.00    -0.065 C 
ATOM     25  C   UNL     1     149.625 133.201 137.402  1.00  0.00     0.014 C 
ATOM     26  C   UNL     1     147.203 133.364 138.124  1.00  0.00     0.016 C 
ATOM     27  C   UNL     1     149.995 131.859 139.849  1.00  0.00     0.063 C 
ATOM     28  C   UNL     1     149.627 131.667 137.276  1.00  0.00     0.033 C 
ATOM     29  C   UNL     1     149.876 130.931 138.619  1.00  0.00     0.118 C 
BRANCH  29  30
ATOM     30  O   UNL     1     148.904 129.937 138.833  1.00  0.00    -0.393 OA
ATOM     31  H   UNL     1     149.303 129.069 138.572  1.00  0.00     0.210 HD
ENDBRANCH  29  30
ENDBRANCH   9  11
ENDBRANCH   1   9
TORSDOF 7
ENDMDL
MODEL 3
REMARK VINA RESULT:    -6.263      4.077      7.574
REMARK INTER + INTRA:         -10.418
REMARK INTER:                  -8.571
REMARK INTRA:                  -1.847
REMARK UNBOUND:                -1.775
REMARK SMILES CC[C@@H](CC[C@@H](C)[C@@H]1CC[C@@H]2[C@H]3CC=C4C[C@@H](O)CC[C@]4(C)[C@H]3CC[C@]21C)C(C)C
REMARK SMILES IDX 5 1 4 2 3 3 2 4 1 5 28 6 29 7 30 8 6 9 7 10 8 11 9 12 26 13
REMARK SMILES IDX 10 14 11 15 25 16 27 17 12 18 24 19 23 20 13 21 21 22 14 23
REMARK SMILES IDX 15 24 20 25 22 26 16 27 19 28 17 29 18 30
REMARK H PARENT 18 31
REMARK Flexibility Score: inf
ROOT
ATOM      1  C   UNL     1     148.713 132.032 138.220  1.00  0.00     0.004 C 
ENDROOT
BRANCH   1   2
ATOM      2  C   UNL     1     147.593 132.181 139.266  1.00  0.00     0.004 C 
BRANCH   2   3
ATOM      3  C   UNL     1     148.160 132.438 140.700  1.00  0.00    -0.009 C 
BRANCH   3   4
ATOM      4  C   UNL     1     148.476 131.107 141.431  1.00  0.00     0.000 C 
ATOM      5  C   UNL     1     149.958 130.732 141.341  1.00  0.00     0.004 C 
ENDBRANCH   3   4
BRANCH   3   6
ATOM      6  C   UNL     1     147.257 133.364 141.578  1.00  0.00    -0.014 C 
ATOM      7  C   UNL     1     146.784 132.721 142.896  1.00  0.00     0.007 C 
ATOM      8  C   UNL     1     146.051 133.901 140.792  1.00  0.00     0.007 C 
ENDBRANCH   3   6
ENDBRANCH   2   3
ENDBRANCH   1   2
BRANCH   1   9
ATOM      9  C   UNL     1     149.197 133.379 137.624  1.00  0.00    -0.011 C 
ATOM     10  C   UNL     1     149.428 133.228 136.104  1.00  0.00     0.008 C 
BRANCH   9  11
ATOM     11  C   UNL     1     148.171 134.535 137.909  1.00  0.00    -0.002 C 
ATOM     12  C   UNL     1     147.331 134.904 136.654  1.00  0.00     0.005 C 
ATOM     13  C   UNL     1     148.720 135.916 138.398  1.00  0.00    -0.026 C 
ATOM     14  C   UNL     1     146.991 136.394 136.747  1.00  0.00     0.005 C 
ATOM     15  C   UNL     1     147.497 136.813 138.116  1.00  0.00    -0.001 C 
ATOM     16  C   UNL     1     149.063 136.008 139.923  1.00  0.00     0.007 C 
ATOM     17  C   UNL     1     149.969 136.331 137.559  1.00  0.00     0.012 C 
ATOM     18  C   UNL     1     147.792 138.314 138.333  1.00  0.00     0.000 C 
ATOM     19  C   UNL     1     148.522 137.284 140.620  1.00  0.00     0.005 C 
ATOM     20  C   UNL     1     148.532 138.555 139.710  1.00  0.00     0.003 C 
ATOM     21  C   UNL     1     146.515 139.160 138.181  1.00  0.00     0.031 C 
ATOM     22  C   UNL     1     148.093 139.877 140.477  1.00  0.00    -0.008 C 
ATOM     23  C   UNL     1     146.851 140.597 138.437  1.00  0.00    -0.027 C 
ATOM     24  C   UNL     1     147.634 140.943 139.474  1.00  0.00    -0.065 C 
ATOM     25  C   UNL     1     149.315 140.433 141.269  1.00  0.00     0.014 C 
ATOM     26  C   UNL     1     146.931 139.606 141.475  1.00  0.00     0.016 C 
ATOM     27  C   UNL     1     148.229 142.338 139.503  1.00  0.00     0.063 C 
ATOM     28  C   UNL     1     149.042 141.801 141.920  1.00  0.00     0.033 C 
ATOM     29  C   UNL     1     148.485 142.861 140.934  1.00  0.00     0.118 C 
BRANCH  29  30
ATOM     30  O   UNL     1     147.333 143.476 141.457  1.00  0.00    -0.393 OA
ATOM     31  H   UNL     1     146.849 143.893 140.701  1.00  0.00     0.210 HD
ENDBRANCH  29  30
ENDBRANCH   9  11
ENDBRANCH   1   9
TORSDOF 7
ENDMDL
MODEL 4
REMARK VINA RESULT:    -6.246      2.209      4.037
REMARK INTER + INTRA:         -10.394
REMARK INTER:                  -8.543
REMARK INTRA:                  -1.851
REMARK UNBOUND:                -1.775
REMARK SMILES CC[C@@H](CC[C@@H](C)[C@@H]1CC[C@@H]2[C@H]3CC=C4C[C@@H](O)CC[C@]4(C)[C@H]3CC[C@]21C)C(C)C
REMARK SMILES IDX 5 1 4 2 3 3 2 4 1 5 28 6 29 7 30 8 6 9 7 10 8 11 9 12 26 13
REMARK SMILES IDX 10 14 11 15 25 16 27 17 12 18 24 19 23 20 13 21 21 22 14 23
REMARK SMILES IDX 15 24 20 25 22 26 16 27 19 28 17 29 18 30
REMARK H PARENT 18 31
REMARK Flexibility Score: inf
ROOT
ATOM      1  C   UNL     1     150.125 138.402 140.208  1.00  0.00     0.004 C 
ENDROOT
BRANCH   1   2
ATOM      2  C   UNL     1     150.018 139.808 139.589  1.00  0.00     0.004 C 
BRANCH   2   3
ATOM      3  C   UNL     1     148.686 140.523 139.984  1.00  0.00    -0.009 C 
BRANCH   3   4
ATOM      4  C   UNL     1     147.933 141.050 138.735  1.00  0.00     0.000 C 
ATOM      5  C   UNL     1     148.399 140.369 137.445  1.00  0.00     0.004 C 
ENDBRANCH   3   4
BRANCH   3   6
ATOM      6  C   UNL     1     148.870 141.651 141.051  1.00  0.00    -0.014 C 
ATOM      7  C   UNL     1     148.845 141.152 142.509  1.00  0.00     0.007 C 
ATOM      8  C   UNL     1     147.853 142.787 140.866  1.00  0.00     0.007 C 
ENDBRANCH   3   6
ENDBRANCH   2   3
ENDBRANCH   1   2
BRANCH   1   9
ATOM      9  C   UNL     1     149.233 137.341 139.512  1.00  0.00    -0.011 C 
ATOM     10  C   UNL     1     150.120 136.264 138.848  1.00  0.00     0.008 C 
BRANCH   9  11
ATOM     11  C   UNL     1     148.234 136.676 140.527  1.00  0.00    -0.002 C 
ATOM     12  C   UNL     1     148.216 135.126 140.411  1.00  0.00     0.005 C 
ATOM     13  C   UNL     1     146.721 137.065 140.446  1.00  0.00    -0.026 C 
ATOM     14  C   UNL     1     146.808 134.651 140.781  1.00  0.00     0.005 C 
ATOM     15  C   UNL     1     146.097 135.907 141.253  1.00  0.00    -0.001 C 
ATOM     16  C   UNL     1     146.330 138.416 141.133  1.00  0.00     0.007 C 
ATOM     17  C   UNL     1     146.244 137.080 138.960  1.00  0.00     0.012 C 
ATOM     18  C   UNL     1     144.552 135.907 141.204  1.00  0.00     0.000 C 
ATOM     19  C   UNL     1     145.067 138.332 142.029  1.00  0.00     0.005 C 
ATOM     20  C   UNL     1     143.975 137.351 141.493  1.00  0.00     0.003 C 
ATOM     21  C   UNL     1     143.966 134.829 142.133  1.00  0.00     0.031 C 
ATOM     22  C   UNL     1     142.638 137.371 142.355  1.00  0.00    -0.008 C 
ATOM     23  C   UNL     1     142.471 134.898 142.075  1.00  0.00    -0.027 C 
ATOM     24  C   UNL     1     141.838 136.084 142.121  1.00  0.00    -0.065 C 
ATOM     25  C   UNL     1     141.767 138.585 141.912  1.00  0.00     0.014 C 
ATOM     26  C   UNL     1     142.936 137.496 143.877  1.00  0.00     0.016 C 
ATOM     27  C   UNL     1     140.378 136.145 141.718  1.00  0.00     0.063 C 
ATOM     28  C   UNL     1     140.378 138.606 142.574  1.00  0.00     0.033 C 
ATOM     29  C   UNL     1     139.596 137.274 142.427  1.00  0.00     0.118 C 
BRANCH  29  30
ATOM     30  O   UNL     1     139.106 136.840 143.671  1.00  0.00    -0.393 OA
ATOM     31  H   UNL     1     138.118 136.815 143.610  1.00  0.00     0.210 HD
ENDBRANCH  29  30
ENDBRANCH   9  11
ENDBRANCH   1   9
TORSDOF 7
ENDMDL
MODEL 5
REMARK VINA RESULT:    -6.023      4.473      6.879
REMARK INTER + INTRA:         -10.087
REMARK INTER:                  -7.749
REMARK INTRA:                  -2.337
REMARK UNBOUND:                -1.775
REMARK SMILES CC[C@@H](CC[C@@H](C)[C@@H]1CC[C@@H]2[C@H]3CC=C4C[C@@H](O)CC[C@]4(C)[C@H]3CC[C@]21C)C(C)C
REMARK SMILES IDX 5 1 4 2 3 3 2 4 1 5 28 6 29 7 30 8 6 9 7 10 8 11 9 12 26 13
REMARK SMILES IDX 10 14 11 15 25 16 27 17 12 18 24 19 23 20 13 21 21 22 14 23
REMARK SMILES IDX 15 24 20 25 22 26 16 27 19 28 17 29 18 30
REMARK H PARENT 18 31
REMARK Flexibility Score: inf
ROOT
ATOM      1  C   UNL     1     148.803 139.763 141.782  1.00  0.00     0.004 C 
ENDROOT
BRANCH   1   2
ATOM      2  C   UNL     1     149.458 139.787 140.388  1.00  0.00     0.004 C 
BRANCH   2   3
ATOM      3  C   UNL     1     149.072 141.068 139.580  1.00  0.00    -0.009 C 
BRANCH   3   4
ATOM      4  C   UNL     1     148.144 141.999 140.404  1.00  0.00     0.000 C 
ATOM      5  C   UNL     1     148.773 143.373 140.654  1.00  0.00     0.004 C 
ENDBRANCH   3   4
BRANCH   3   6
ATOM      6  C   UNL     1     148.462 140.765 138.172  1.00  0.00    -0.014 C 
ATOM      7  C   UNL     1     146.927 140.890 138.107  1.00  0.00     0.007 C 
ATOM      8  C   UNL     1     148.901 139.392 137.641  1.00  0.00     0.007 C 
ENDBRANCH   3   6
ENDBRANCH   2   3
ENDBRANCH   1   2
BRANCH   1   9
ATOM      9  C   UNL     1     147.648 138.738 141.915  1.00  0.00    -0.011 C 
ATOM     10  C   UNL     1     146.395 139.432 142.493  1.00  0.00     0.008 C 
BRANCH   9  11
ATOM     11  C   UNL     1     147.313 138.067 140.533  1.00  0.00    -0.002 C 
ATOM     12  C   UNL     1     145.799 138.141 140.191  1.00  0.00     0.005 C 
ATOM     13  C   UNL     1     147.658 136.554 140.337  1.00  0.00    -0.026 C 
ATOM     14  C   UNL     1     145.453 136.905 139.356  1.00  0.00     0.005 C 
ATOM     15  C   UNL     1     146.791 136.234 139.101  1.00  0.00    -0.001 C 
ATOM     16  C   UNL     1     149.151 136.237 139.991  1.00  0.00     0.007 C 
ATOM     17  C   UNL     1     147.230 135.732 141.593  1.00  0.00     0.012 C 
ATOM     18  C   UNL     1     146.774 134.728 138.755  1.00  0.00     0.000 C 
ATOM     19  C   UNL     1     149.335 135.239 138.819  1.00  0.00     0.005 C 
ATOM     20  C   UNL     1     148.237 134.128 138.756  1.00  0.00     0.003 C 
ATOM     21  C   UNL     1     146.019 134.468 137.439  1.00  0.00     0.031 C 
ATOM     22  C   UNL     1     148.510 133.042 137.627  1.00  0.00    -0.008 C 
ATOM     23  C   UNL     1     146.065 133.003 137.134  1.00  0.00    -0.027 C 
ATOM     24  C   UNL     1     147.210 132.310 137.271  1.00  0.00    -0.065 C 
ATOM     25  C   UNL     1     149.536 131.999 138.164  1.00  0.00     0.014 C 
ATOM     26  C   UNL     1     149.083 133.687 136.333  1.00  0.00     0.016 C 
ATOM     27  C   UNL     1     147.146 130.795 137.291  1.00  0.00     0.063 C 
ATOM     28  C   UNL     1     149.750 130.812 137.206  1.00  0.00     0.033 C 
ATOM     29  C   UNL     1     148.433 130.124 136.763  1.00  0.00     0.118 C 
BRANCH  29  30
ATOM     30  O   UNL     1     148.387 129.983 135.364  1.00  0.00    -0.393 OA
ATOM     31  H   UNL     1     149.007 129.251 135.117  1.00  0.00     0.210 HD
ENDBRANCH  29  30
ENDBRANCH   9  11
ENDBRANCH   1   9
TORSDOF 7
ENDMDL
MODEL 6
REMARK VINA RESULT:    -6.003      3.089      7.394
REMARK INTER + INTRA:         -10.059
REMARK INTER:                  -7.963
REMARK INTRA:                  -2.096
REMARK UNBOUND:                -1.775
REMARK SMILES CC[C@@H](CC[C@@H](C)[C@@H]1CC[C@@H]2[C@H]3CC=C4C[C@@H](O)CC[C@]4(C)[C@H]3CC[C@]21C)C(C)C
REMARK SMILES IDX 5 1 4 2 3 3 2 4 1 5 28 6 29 7 30 8 6 9 7 10 8 11 9 12 26 13
REMARK SMILES IDX 10 14 11 15 25 16 27 17 12 18 24 19 23 20 13 21 21 22 14 23
REMARK SMILES IDX 15 24 20 25 22 26 16 27 19 28 17 29 18 30
REMARK H PARENT 18 31
REMARK Flexibility Score: inf
ROOT
ATOM      1  C   UNL     1     141.176 135.829 143.975  1.00  0.00     0.004 C 
ENDROOT
BRANCH   1   2
ATOM      2  C   UNL     1     141.140 135.544 142.462  1.00  0.00     0.004 C 
BRANCH   2   3
ATOM      3  C   UNL     1     140.094 136.439 141.722  1.00  0.00    -0.009 C 
BRANCH   3   4
ATOM      4  C   UNL     1     140.596 136.850 140.313  1.00  0.00     0.000 C 
ATOM      5  C   UNL     1     141.637 135.874 139.759  1.00  0.00     0.004 C 
ENDBRANCH   3   4
BRANCH   3   6
ATOM      6  C   UNL     1     139.637 137.687 142.546  1.00  0.00    -0.014 C 
ATOM      7  C   UNL     1     138.127 137.984 142.458  1.00  0.00     0.007 C 
ATOM      8  C   UNL     1     140.442 138.942 142.179  1.00  0.00     0.007 C 
ENDBRANCH   3   6
ENDBRANCH   2   3
ENDBRANCH   1   2
BRANCH   1   9
ATOM      9  C   UNL     1     142.526 136.408 144.472  1.00  0.00    -0.011 C 
ATOM     10  C   UNL     1     142.844 135.861 145.881  1.00  0.00     0.008 C 
BRANCH   9  11
ATOM     11  C   UNL     1     143.696 136.071 143.478  1.00  0.00    -0.002 C 
ATOM     12  C   UNL     1     144.785 135.172 144.127  1.00  0.00     0.005 C 
ATOM     13  C   UNL     1     144.517 137.254 142.866  1.00  0.00    -0.026 C 
ATOM     14  C   UNL     1     146.125 135.524 143.475  1.00  0.00     0.005 C 
ATOM     15  C   UNL     1     145.761 136.492 142.362  1.00  0.00    -0.001 C 
ATOM     16  C   UNL     1     143.855 137.982 141.649  1.00  0.00     0.007 C 
ATOM     17  C   UNL     1     144.867 138.300 143.970  1.00  0.00     0.012 C 
ATOM     18  C   UNL     1     146.874 137.433 141.851  1.00  0.00     0.000 C 
ATOM     19  C   UNL     1     144.813 138.224 140.454  1.00  0.00     0.005 C 
ATOM     20  C   UNL     1     146.286 138.531 140.877  1.00  0.00     0.003 C 
ATOM     21  C   UNL     1     148.034 136.636 141.228  1.00  0.00     0.031 C 
ATOM     22  C   UNL     1     147.226 138.900 139.648  1.00  0.00    -0.008 C 
ATOM     23  C   UNL     1     149.064 137.596 140.717  1.00  0.00    -0.027 C 
ATOM     24  C   UNL     1     148.698 138.690 140.025  1.00  0.00    -0.065 C 
ATOM     25  C   UNL     1     147.017 140.401 139.282  1.00  0.00     0.014 C 
ATOM     26  C   UNL     1     146.908 138.031 138.398  1.00  0.00     0.016 C 
ATOM     27  C   UNL     1     149.712 139.800 139.827  1.00  0.00     0.063 C 
ATOM     28  C   UNL     1     147.996 140.903 138.205  1.00  0.00     0.033 C 
ATOM     29  C   UNL     1     149.484 140.610 138.531  1.00  0.00     0.118 C 
BRANCH  29  30
ATOM     30  O   UNL     1     150.125 139.998 137.439  1.00  0.00    -0.393 OA
ATOM     31  H   UNL     1     150.231 139.038 137.654  1.00  0.00     0.210 HD
ENDBRANCH  29  30
ENDBRANCH   9  11
ENDBRANCH   1   9
TORSDOF 7
ENDMDL
MODEL 7
REMARK VINA RESULT:    -5.986      1.663      2.724
REMARK INTER + INTRA:         -10.036
REMARK INTER:                  -7.942
REMARK INTRA:                  -2.094
REMARK UNBOUND:                -1.775
REMARK SMILES CC[C@@H](CC[C@@H](C)[C@@H]1CC[C@@H]2[C@H]3CC=C4C[C@@H](O)CC[C@]4(C)[C@H]3CC[C@]21C)C(C)C
REMARK SMILES IDX 5 1 4 2 3 3 2 4 1 5 28 6 29 7 30 8 6 9 7 10 8 11 9 12 26 13
REMARK SMILES IDX 10 14 11 15 25 16 27 17 12 18 24 19 23 20 13 21 21 22 14 23
REMARK SMILES IDX 15 24 20 25 22 26 16 27 19 28 17 29 18 30
REMARK H PARENT 18 31
REMARK Flexibility Score: inf
ROOT
ATOM      1  C   UNL     1     146.043 138.171 136.406  1.00  0.00     0.004 C 
ENDROOT
BRANCH   1   2
ATOM      2  C   UNL     1     146.646 139.540 136.042  1.00  0.00     0.004 C 
BRANCH   2   3
ATOM      3  C   UNL     1     145.736 140.723 136.508  1.00  0.00    -0.009 C 
BRANCH   3   4
ATOM      4  C   UNL     1     146.100 141.187 137.942  1.00  0.00     0.000 C 
ATOM      5  C   UNL     1     147.597 141.469 138.100  1.00  0.00     0.004 C 
ENDBRANCH   3   4
BRANCH   3   6
ATOM      6  C   UNL     1     144.206 140.429 136.380  1.00  0.00    -0.014 C 
ATOM      7  C   UNL     1     143.613 140.759 134.996  1.00  0.00     0.007 C 
ATOM      8  C   UNL     1     143.394 141.128 137.480  1.00  0.00     0.007 C 
ENDBRANCH   3   6
ENDBRANCH   2   3
ENDBRANCH   1   2
BRANCH   1   9
ATOM      9  C   UNL     1     146.715 137.495 137.629  1.00  0.00    -0.011 C 
ATOM     10  C   UNL     1     148.233 137.783 137.620  1.00  0.00     0.008 C 
BRANCH   9  11
ATOM     11  C   UNL     1     146.074 137.983 138.979  1.00  0.00    -0.002 C 
ATOM     12  C   UNL     1     147.045 137.833 140.183  1.00  0.00     0.005 C 
ATOM     13  C   UNL     1     144.765 137.286 139.477  1.00  0.00    -0.026 C 
ATOM     14  C   UNL     1     146.197 137.569 141.431  1.00  0.00     0.005 C 
ATOM     15  C   UNL     1     144.764 137.731 140.955  1.00  0.00    -0.001 C 
ATOM     16  C   UNL     1     143.438 137.779 138.810  1.00  0.00     0.007 C 
ATOM     17  C   UNL     1     144.882 135.738 139.321  1.00  0.00     0.012 C 
ATOM     18  C   UNL     1     143.660 137.041 141.787  1.00  0.00     0.000 C 
ATOM     19  C   UNL     1     142.290 138.064 139.812  1.00  0.00     0.005 C 
ATOM     20  C   UNL     1     142.267 137.097 141.040  1.00  0.00     0.003 C 
ATOM     21  C   UNL     1     143.599 137.614 143.215  1.00  0.00     0.031 C 
ATOM     22  C   UNL     1     141.012 137.322 141.991  1.00  0.00    -0.008 C 
ATOM     23  C   UNL     1     142.492 136.938 143.963  1.00  0.00    -0.027 C 
ATOM     24  C   UNL     1     141.293 136.744 143.383  1.00  0.00    -0.065 C 
ATOM     25  C   UNL     1     139.779 136.585 141.386  1.00  0.00     0.014 C 
ATOM     26  C   UNL     1     140.668 138.831 142.144  1.00  0.00     0.016 C 
ATOM     27  C   UNL     1     140.324 135.769 144.025  1.00  0.00     0.063 C 
ATOM     28  C   UNL     1     138.548 136.606 142.311  1.00  0.00     0.033 C 
ATOM     29  C   UNL     1     138.843 136.114 143.752  1.00  0.00     0.118 C 
BRANCH  29  30
ATOM     30  O   UNL     1     138.358 137.029 144.704  1.00  0.00    -0.393 OA
ATOM     31  H   UNL     1     137.373 137.061 144.612  1.00  0.00     0.210 HD
ENDBRANCH  29  30
ENDBRANCH   9  11
ENDBRANCH   1   9
TORSDOF 7
ENDMDL
MODEL 8
REMARK VINA RESULT:    -5.976      2.048      3.513
REMARK INTER + INTRA:         -10.022
REMARK INTER:                  -7.800
REMARK INTRA:                  -2.222
REMARK UNBOUND:                -1.775
REMARK SMILES CC[C@@H](CC[C@@H](C)[C@@H]1CC[C@@H]2[C@H]3CC=C4C[C@@H](O)CC[C@]4(C)[C@H]3CC[C@]21C)C(C)C
REMARK SMILES IDX 5 1 4 2 3 3 2 4 1 5 28 6 29 7 30 8 6 9 7 10 8 11 9 12 26 13
REMARK SMILES IDX 10 14 11 15 25 16 27 17 12 18 24 19 23 20 13 21 21 22 14 23
REMARK SMILES IDX 15 24 20 25 22 26 16 27 19 28 17 29 18 30
REMARK H PARENT 18 31
REMARK Flexibility Score: inf
ROOT
ATOM      1  C   UNL     1     149.332 138.688 139.644  1.00  0.00     0.004 C 
ENDROOT
BRANCH   1   2
ATOM      2  C   UNL     1     149.818 140.148 139.575  1.00  0.00     0.004 C 
BRANCH   2   3
ATOM      3  C   UNL     1     148.806 141.068 138.818  1.00  0.00    -0.009 C 
BRANCH   3   4
ATOM      4  C   UNL     1     148.015 141.970 139.800  1.00  0.00     0.000 C 
ATOM      5  C   UNL     1     148.891 142.495 140.941  1.00  0.00     0.004 C 
ENDBRANCH   3   4
BRANCH   3   6
ATOM      6  C   UNL     1     147.842 140.291 137.862  1.00  0.00    -0.014 C 
ATOM      7  C   UNL     1     148.188 140.429 136.367  1.00  0.00     0.007 C 
ATOM      8  C   UNL     1     146.372 140.669 138.100  1.00  0.00     0.007 C 
ENDBRANCH   3   6
ENDBRANCH   2   3
ENDBRANCH   1   2
BRANCH   1   9
ATOM      9  C   UNL     1     148.744 138.287 141.021  1.00  0.00    -0.011 C 
ATOM     10  C   UNL     1     149.577 138.929 142.154  1.00  0.00     0.008 C 
BRANCH   9  11
ATOM     11  C   UNL     1     147.235 138.709 141.146  1.00  0.00    -0.002 C 
ATOM     12  C   UNL     1     146.967 139.586 142.402  1.00  0.00     0.005 C 
ATOM     13  C   UNL     1     146.152 137.584 141.250  1.00  0.00    -0.026 C 
ATOM     14  C   UNL     1     145.536 139.302 142.867  1.00  0.00     0.005 C 
ATOM     15  C   UNL     1     144.960 138.401 141.790  1.00  0.00    -0.001 C 
ATOM     16  C   UNL     1     145.730 136.923 139.896  1.00  0.00     0.007 C 
ATOM     17  C   UNL     1     146.616 136.476 142.247  1.00  0.00     0.012 C 
ATOM     18  C   UNL     1     143.754 137.515 142.177  1.00  0.00     0.000 C 
ATOM     19  C   UNL     1     144.197 136.776 139.711  1.00  0.00     0.005 C 
ATOM     20  C   UNL     1     143.426 136.471 141.036  1.00  0.00     0.003 C 
ATOM     21  C   UNL     1     142.539 138.373 142.574  1.00  0.00     0.031 C 
ATOM     22  C   UNL     1     141.876 136.199 140.810  1.00  0.00    -0.008 C 
ATOM     23  C   UNL     1     141.392 137.467 142.904  1.00  0.00    -0.027 C 
ATOM     24  C   UNL     1     141.105 136.413 142.118  1.00  0.00    -0.065 C 
ATOM     25  C   UNL     1     141.681 134.721 140.354  1.00  0.00     0.014 C 
ATOM     26  C   UNL     1     141.278 137.141 139.726  1.00  0.00     0.016 C 
ATOM     27  C   UNL     1     140.179 135.338 142.654  1.00  0.00     0.063 C 
ATOM     28  C   UNL     1     140.201 134.308 140.261  1.00  0.00     0.033 C 
ATOM     29  C   UNL     1     139.387 134.608 141.546  1.00  0.00     0.118 C 
BRANCH  29  30
ATOM     30  O   UNL     1     138.202 135.301 141.239  1.00  0.00    -0.393 OA
ATOM     31  H   UNL     1     137.722 135.463 142.090  1.00  0.00     0.210 HD
ENDBRANCH  29  30
ENDBRANCH   9  11
ENDBRANCH   1   9
TORSDOF 7
ENDMDL
MODEL 9
REMARK VINA RESULT:    -5.951      2.321      4.524
REMARK INTER + INTRA:          -9.988
REMARK INTER:                  -8.131
REMARK INTRA:                  -1.857
REMARK UNBOUND:                -1.775
REMARK SMILES CC[C@@H](CC[C@@H](C)[C@@H]1CC[C@@H]2[C@H]3CC=C4C[C@@H](O)CC[C@]4(C)[C@H]3CC[C@]21C)C(C)C
REMARK SMILES IDX 5 1 4 2 3 3 2 4 1 5 28 6 29 7 30 8 6 9 7 10 8 11 9 12 26 13
REMARK SMILES IDX 10 14 11 15 25 16 27 17 12 18 24 19 23 20 13 21 21 22 14 23
REMARK SMILES IDX 15 24 20 25 22 26 16 27 19 28 17 29 18 30
REMARK H PARENT 18 31
REMARK Flexibility Score: inf
ROOT
ATOM      1  C   UNL     1     147.182 139.415 138.750  1.00  0.00     0.004 C 
ENDROOT
BRANCH   1   2
ATOM      2  C   UNL     1     148.395 140.048 139.458  1.00  0.00     0.004 C 
BRANCH   2   3
ATOM      3  C   UNL     1     147.973 141.203 140.423  1.00  0.00    -0.009 C 
BRANCH   3   4
ATOM      4  C   UNL     1     148.507 142.574 139.934  1.00  0.00     0.000 C 
ATOM      5  C   UNL     1     149.171 143.374 141.058  1.00  0.00     0.004 C 
ENDBRANCH   3   4
BRANCH   3   6
ATOM      6  C   UNL     1     148.358 140.946 141.917  1.00  0.00    -0.014 C 
ATOM      7  C   UNL     1     149.304 139.748 142.129  1.00  0.00     0.007 C 
ATOM      8  C   UNL     1     147.118 140.803 142.812  1.00  0.00     0.007 C 
ENDBRANCH   3   6
ENDBRANCH   2   3
ENDBRANCH   1   2
BRANCH   1   9
ATOM      9  C   UNL     1     146.797 138.016 139.297  1.00  0.00    -0.011 C 
ATOM     10  C   UNL     1     148.073 137.226 139.663  1.00  0.00     0.008 C 
BRANCH   9  11
ATOM     11  C   UNL     1     145.848 138.130 140.546  1.00  0.00    -0.002 C 
ATOM     12  C   UNL     1     146.456 137.468 141.814  1.00  0.00     0.005 C 
ATOM     13  C   UNL     1     144.419 137.499 140.455  1.00  0.00    -0.026 C 
ATOM     14  C   UNL     1     145.296 136.938 142.661  1.00  0.00     0.005 C 
ATOM     15  C   UNL     1     144.050 137.441 141.952  1.00  0.00    -0.001 C 
ATOM     16  C   UNL     1     143.344 138.359 139.711  1.00  0.00     0.007 C 
ATOM     17  C   UNL     1     144.492 136.082 139.805  1.00  0.00     0.012 C 
ATOM     18  C   UNL     1     142.730 136.681 142.215  1.00  0.00     0.000 C 
ATOM     19  C   UNL     1     141.987 138.463 140.456  1.00  0.00     0.005 C 
ATOM     20  C   UNL     1     141.590 137.167 141.233  1.00  0.00     0.003 C 
ATOM     21  C   UNL     1     142.324 136.768 143.697  1.00  0.00     0.031 C 
ATOM     22  C   UNL     1     140.142 137.246 141.885  1.00  0.00    -0.008 C 
ATOM     23  C   UNL     1     141.024 136.049 143.887  1.00  0.00    -0.027 C 
ATOM     24  C   UNL     1     140.013 136.219 143.016  1.00  0.00    -0.065 C 
ATOM     25  C   UNL     1     139.076 136.921 140.795  1.00  0.00     0.014 C 
ATOM     26  C   UNL     1     139.849 138.659 142.466  1.00  0.00     0.016 C 
ATOM     27  C   UNL     1     138.860 135.234 143.038  1.00  0.00     0.063 C 
ATOM     28  C   UNL     1     137.647 136.815 141.359  1.00  0.00     0.033 C 
ATOM     29  C   UNL     1     137.524 135.850 142.567  1.00  0.00     0.118 C 
BRANCH  29  30
ATOM     30  O   UNL     1     136.853 136.469 143.636  1.00  0.00    -0.393 OA
ATOM     31  H   UNL     1     137.233 136.109 144.476  1.00  0.00     0.210 HD
ENDBRANCH  29  30
ENDBRANCH   9  11
ENDBRANCH   1   9
TORSDOF 7
ENDMDL
