MODEL 1
REMARK VINA RESULT:    -5.273      0.000      0.000
REMARK INTER + INTRA:          -9.234
REMARK INTER:                  -8.356
REMARK INTRA:                  -0.878
REMARK UNBOUND:                -0.878
REMARK SMILES CCCCCCCCCCCC(=O)[O-]
REMARK SMILES IDX 7 1 8 2 9 3 10 4 11 5 12 6 13 7 14 8 6 9 5 10 4 11 3 12 2 13
REMARK SMILES IDX 1 14
REMARK H PARENT
REMARK Flexibility Score: inf
ROOT
ATOM      1  C   UNL     1       7.511  54.572  22.215  1.00  0.00     0.000 C 
ENDROOT
BRANCH   1   2
ATOM      2  C   UNL     1       7.467  53.899  23.591  1.00  0.00     0.000 C 
BRANCH   2   3
ATOM      3  C   UNL     1       8.733  54.210  24.399  1.00  0.00     0.000 C 
BRANCH   3   4
ATOM      4  C   UNL     1       9.829  54.800  23.499  1.00  0.00     0.006 C 
BRANCH   4   5
ATOM      5  C   UNL     1      11.001  53.829  23.302  1.00  0.00     0.053 C 
BRANCH   5   6
ATOM      6  C   UNL     1      10.696  52.795  22.262  1.00  0.00     0.041 C 
ATOM      7  O   UNL     1      10.516  53.133  21.063  1.00  0.00    -0.550 OA
ATOM      8  O   UNL     1      10.642  51.451  22.613  1.00  0.00    -0.550 OA
ENDBRANCH   5   6
ENDBRANCH   4   5
ENDBRANCH   3   4
ENDBRANCH   2   3
ENDBRANCH   1   2
BRANCH   1   9
ATOM      9  C   UNL     1       6.241  55.399  21.966  1.00  0.00     0.000 C 
BRANCH   9  10
ATOM     10  C   UNL     1       6.510  56.655  21.121  1.00  0.00    -0.000 C 
BRANCH  10  11
ATOM     11  C   UNL     1       7.850  56.585  20.368  1.00  0.00    -0.000 C 
BRANCH  11  12
ATOM     12  C   UNL     1       7.672  56.459  18.844  1.00  0.00    -0.000 C 
BRANCH  12  13
ATOM     13  C   UNL     1       7.563  55.013  18.326  1.00  0.00    -0.003 C 
ATOM     14  C   UNL     1       6.941  54.922  16.934  1.00  0.00     0.004 C 
ENDBRANCH  12  13
ENDBRANCH  11  12
ENDBRANCH  10  11
ENDBRANCH   9  10
ENDBRANCH   1   9
TORSDOF 10
ENDMDL
MODEL 2
REMARK VINA RESULT:    -5.267      2.009      5.011
REMARK INTER + INTRA:          -9.223
REMARK INTER:                  -8.188
REMARK INTRA:                  -1.035
REMARK UNBOUND:                -0.878
REMARK SMILES CCCCCCCCCCCC(=O)[O-]
REMARK SMILES IDX 7 1 8 2 9 3 10 4 11 5 12 6 13 7 14 8 6 9 5 10 4 11 3 12 2 13
REMARK SMILES IDX 1 14
REMARK H PARENT
REMARK Flexibility Score: inf
ROOT
ATOM      1  C   UNL     1       7.558  54.442  22.199  1.00  0.00     0.000 C 
ENDROOT
BRANCH   1   2
ATOM      2  C   UNL     1       6.450  55.484  22.010  1.00  0.00     0.000 C 
BRANCH   2   3
ATOM      3  C   UNL     1       6.942  56.669  21.171  1.00  0.00     0.000 C 
BRANCH   3   4
ATOM      4  C   UNL     1       8.051  56.234  20.201  1.00  0.00     0.006 C 
BRANCH   4   5
ATOM      5  C   UNL     1       7.693  56.534  18.740  1.00  0.00     0.053 C 
BRANCH   5   6
ATOM      6  C   UNL     1       7.253  55.301  18.012  1.00  0.00     0.041 C 
ATOM      7  O   UNL     1       7.110  55.320  16.761  1.00  0.00    -0.550 OA
ATOM      8  O   UNL     1       7.032  54.122  18.713  1.00  0.00    -0.550 OA
ENDBRANCH   5   6
ENDBRANCH   4   5
ENDBRANCH   3   4
ENDBRANCH   2   3
ENDBRANCH   1   2
BRANCH   1   9
ATOM      9  C   UNL     1       7.551  53.883  23.630  1.00  0.00     0.000 C 
BRANCH   9  10
ATOM     10  C   UNL     1       8.761  54.353  24.453  1.00  0.00    -0.000 C 
BRANCH  10  11
ATOM     11  C   UNL     1       9.842  55.023  23.587  1.00  0.00    -0.000 C 
BRANCH  11  12
ATOM     12  C   UNL     1      11.030  54.089  23.288  1.00  0.00    -0.000 C 
BRANCH  12  13
ATOM     13  C   UNL     1      10.822  53.149  22.087  1.00  0.00    -0.003 C 
ATOM     14  C   UNL     1      10.540  51.705  22.500  1.00  0.00     0.004 C 
ENDBRANCH  12  13
ENDBRANCH  11  12
ENDBRANCH  10  11
ENDBRANCH   9  10
ENDBRANCH   1   9
TORSDOF 10
ENDMDL
MODEL 3
REMARK VINA RESULT:    -5.093      2.057      2.548
REMARK INTER + INTRA:          -8.948
REMARK INTER:                  -8.068
REMARK INTRA:                  -0.880
REMARK UNBOUND:                -0.878
REMARK SMILES CCCCCCCCCCCC(=O)[O-]
REMARK SMILES IDX 7 1 8 2 9 3 10 4 11 5 12 6 13 7 14 8 6 9 5 10 4 11 3 12 2 13
REMARK SMILES IDX 1 14
REMARK H PARENT
REMARK Flexibility Score: inf
ROOT
ATOM      1  C   UNL     1       8.255  53.969  21.527  1.00  0.00     0.000 C 
ENDROOT
BRANCH   1   2
ATOM      2  C   UNL     1       9.658  54.433  21.118  1.00  0.00     0.000 C 
BRANCH   2   3
ATOM      3  C   UNL     1      10.733  53.476  21.647  1.00  0.00     0.000 C 
BRANCH   3   4
ATOM      4  C   UNL     1      10.530  53.192  23.143  1.00  0.00     0.006 C 
BRANCH   4   5
ATOM      5  C   UNL     1      11.033  54.342  24.025  1.00  0.00     0.053 C 
BRANCH   5   6
ATOM      6  C   UNL     1      10.101  54.613  25.167  1.00  0.00     0.041 C 
ATOM      7  O   UNL     1       8.861  54.695  24.969  1.00  0.00    -0.550 OA
ATOM      8  O   UNL     1      10.602  54.744  26.456  1.00  0.00    -0.550 OA
ENDBRANCH   5   6
ENDBRANCH   4   5
ENDBRANCH   3   4
ENDBRANCH   2   3
ENDBRANCH   1   2
BRANCH   1   9
ATOM      9  C   UNL     1       7.391  55.157  21.975  1.00  0.00     0.000 C 
BRANCH   9  10
ATOM     10  C   UNL     1       6.384  55.593  20.898  1.00  0.00    -0.000 C 
BRANCH  10  11
ATOM     11  C   UNL     1       6.828  56.864  20.153  1.00  0.00    -0.000 C 
BRANCH  11  12
ATOM     12  C   UNL     1       7.718  56.559  18.933  1.00  0.00    -0.000 C 
BRANCH  12  13
ATOM     13  C   UNL     1       7.428  55.213  18.245  1.00  0.00    -0.003 C 
ATOM     14  C   UNL     1       7.012  55.367  16.782  1.00  0.00     0.004 C 
ENDBRANCH  12  13
ENDBRANCH  11  12
ENDBRANCH  10  11
ENDBRANCH   9  10
ENDBRANCH   1   9
TORSDOF 10
ENDMDL
MODEL 4
REMARK VINA RESULT:    -4.921      2.259      5.374
REMARK INTER + INTRA:          -8.676
REMARK INTER:                  -7.615
REMARK INTRA:                  -1.061
REMARK UNBOUND:                -0.878
REMARK SMILES CCCCCCCCCCCC(=O)[O-]
REMARK SMILES IDX 7 1 8 2 9 3 10 4 11 5 12 6 13 7 14 8 6 9 5 10 4 11 3 12 2 13
REMARK SMILES IDX 1 14
REMARK H PARENT
REMARK Flexibility Score: inf
ROOT
ATOM      1  C   UNL     1       7.453  54.449  22.214  1.00  0.00     0.000 C 
ENDROOT
BRANCH   1   2
ATOM      2  C   UNL     1       7.994  55.823  21.801  1.00  0.00     0.000 C 
BRANCH   2   3
ATOM      3  C   UNL     1       6.852  56.790  21.470  1.00  0.00     0.000 C 
BRANCH   3   4
ATOM      4  C   UNL     1       6.770  57.051  19.959  1.00  0.00     0.006 C 
BRANCH   4   5
ATOM      5  C   UNL     1       7.867  56.311  19.183  1.00  0.00     0.053 C 
BRANCH   5   6
ATOM      6  C   UNL     1       7.305  55.198  18.352  1.00  0.00     0.041 C 
ATOM      7  O   UNL     1       6.700  54.240  18.900  1.00  0.00    -0.550 OA
ATOM      8  O   UNL     1       7.422  55.237  16.968  1.00  0.00    -0.550 OA
ENDBRANCH   5   6
ENDBRANCH   4   5
ENDBRANCH   3   4
ENDBRANCH   2   3
ENDBRANCH   1   2
BRANCH   1   9
ATOM      9  C   UNL     1       8.545  53.374  22.112  1.00  0.00     0.000 C 
BRANCH   9  10
ATOM     10  C   UNL     1       9.702  53.793  21.191  1.00  0.00    -0.000 C 
BRANCH  10  11
ATOM     11  C   UNL     1      11.030  53.965  21.950  1.00  0.00    -0.000 C 
BRANCH  11  12
ATOM     12  C   UNL     1      10.909  53.628  23.448  1.00  0.00    -0.000 C 
BRANCH  12  13
ATOM     13  C   UNL     1      10.781  54.851  24.374  1.00  0.00    -0.003 C 
ATOM     14  C   UNL     1       9.497  54.842  25.202  1.00  0.00     0.004 C 
ENDBRANCH  12  13
ENDBRANCH  11  12
ENDBRANCH  10  11
ENDBRANCH   9  10
ENDBRANCH   1   9
TORSDOF 10
ENDMDL
MODEL 5
REMARK VINA RESULT:    -4.823      1.430      2.114
REMARK INTER + INTRA:          -8.519
REMARK INTER:                  -7.836
REMARK INTRA:                  -0.684
REMARK UNBOUND:                -0.878
REMARK SMILES CCCCCCCCCCCC(=O)[O-]
REMARK SMILES IDX 7 1 8 2 9 3 10 4 11 5 12 6 13 7 14 8 6 9 5 10 4 11 3 12 2 13
REMARK SMILES IDX 1 14
REMARK H PARENT
REMARK Flexibility Score: inf
ROOT
ATOM      1  C   UNL     1       6.030  55.761  21.823  1.00  0.00     0.000 C 
ENDROOT
BRANCH   1   2
ATOM      2  C   UNL     1       7.348  55.155  22.320  1.00  0.00     0.000 C 
BRANCH   2   3
ATOM      3  C   UNL     1       7.091  53.978  23.269  1.00  0.00     0.000 C 
BRANCH   3   4
ATOM      4  C   UNL     1       8.410  53.421  23.825  1.00  0.00     0.006 C 
BRANCH   4   5
ATOM      5  C   UNL     1       9.247  54.499  24.523  1.00  0.00     0.053 C 
BRANCH   5   6
ATOM      6  C   UNL     1      10.701  54.383  24.179  1.00  0.00     0.041 C 
ATOM      7  O   UNL     1      11.054  53.942  23.055  1.00  0.00    -0.550 OA
ATOM      8  O   UNL     1      11.666  54.795  25.091  1.00  0.00    -0.550 OA
ENDBRANCH   5   6
ENDBRANCH   4   5
ENDBRANCH   3   4
ENDBRANCH   2   3
ENDBRANCH   1   2
BRANCH   1   9
ATOM      9  C   UNL     1       6.290  56.913  20.841  1.00  0.00     0.000 C 
BRANCH   9  10
ATOM     10  C   UNL     1       7.710  56.879  20.254  1.00  0.00    -0.000 C 
BRANCH  10  11
ATOM     11  C   UNL     1       7.742  56.333  18.815  1.00  0.00    -0.000 C 
BRANCH  11  12
ATOM     12  C   UNL     1       7.725  54.794  18.761  1.00  0.00    -0.000 C 
BRANCH  12  13
ATOM     13  C   UNL     1       6.887  54.199  17.615  1.00  0.00    -0.003 C 
ATOM     14  C   UNL     1       6.762  55.138  16.416  1.00  0.00     0.004 C 
ENDBRANCH  12  13
ENDBRANCH  11  12
ENDBRANCH  10  11
ENDBRANCH   9  10
ENDBRANCH   1   9
TORSDOF 10
ENDMDL
MODEL 6
REMARK VINA RESULT:    -4.635      2.360      3.534
REMARK INTER + INTRA:          -8.223
REMARK INTER:                  -7.327
REMARK INTRA:                  -0.896
REMARK UNBOUND:                -0.878
REMARK SMILES CCCCCCCCCCCC(=O)[O-]
REMARK SMILES IDX 7 1 8 2 9 3 10 4 11 5 12 6 13 7 14 8 6 9 5 10 4 11 3 12 2 13
REMARK SMILES IDX 1 14
REMARK H PARENT
REMARK Flexibility Score: inf
ROOT
ATOM      1  C   UNL     1       8.263  54.531  20.195  1.00  0.00     0.000 C 
ENDROOT
BRANCH   1   2
ATOM      2  C   UNL     1       9.469  54.073  21.024  1.00  0.00     0.000 C 
BRANCH   2   3
ATOM      3  C   UNL     1       9.025  53.234  22.228  1.00  0.00     0.000 C 
BRANCH   3   4
ATOM      4  C   UNL     1       8.588  54.132  23.394  1.00  0.00     0.006 C 
BRANCH   4   5
ATOM      5  C   UNL     1       9.629  55.212  23.717  1.00  0.00     0.053 C 
BRANCH   5   6
ATOM      6  C   UNL     1      10.535  54.793  24.834  1.00  0.00     0.041 C 
ATOM      7  O   UNL     1      11.753  54.564  24.613  1.00  0.00    -0.550 OA
ATOM      8  O   UNL     1      10.039  54.688  26.128  1.00  0.00    -0.550 OA
ENDBRANCH   5   6
ENDBRANCH   4   5
ENDBRANCH   3   4
ENDBRANCH   2   3
ENDBRANCH   1   2
BRANCH   1   9
ATOM      9  C   UNL     1       8.391  56.012  19.808  1.00  0.00     0.000 C 
BRANCH   9  10
ATOM     10  C   UNL     1       7.107  56.809  20.089  1.00  0.00    -0.000 C 
BRANCH  10  11
ATOM     11  C   UNL     1       6.541  56.543  21.495  1.00  0.00    -0.000 C 
BRANCH  11  12
ATOM     12  C   UNL     1       5.050  56.909  21.617  1.00  0.00    -0.000 C 
BRANCH  12  13
ATOM     13  C   UNL     1       4.577  58.012  20.653  1.00  0.00    -0.003 C 
ATOM     14  C   UNL     1       3.364  58.781  21.174  1.00  0.00     0.004 C 
ENDBRANCH  12  13
ENDBRANCH  11  12
ENDBRANCH  10  11
ENDBRANCH   9  10
ENDBRANCH   1   9
TORSDOF 10
ENDMDL
MODEL 7
REMARK VINA RESULT:    -4.461      4.512      7.131
REMARK INTER + INTRA:          -7.947
REMARK INTER:                  -7.469
REMARK INTRA:                  -0.478
REMARK UNBOUND:                -0.878
REMARK SMILES CCCCCCCCCCCC(=O)[O-]
REMARK SMILES IDX 7 1 8 2 9 3 10 4 11 5 12 6 13 7 14 8 6 9 5 10 4 11 3 12 2 13
REMARK SMILES IDX 1 14
REMARK H PARENT
REMARK Flexibility Score: inf
ROOT
ATOM      1  C   UNL     1       7.748  56.189  21.114  1.00  0.00     0.000 C 
ENDROOT
BRANCH   1   2
ATOM      2  C   UNL     1       6.250  55.888  20.981  1.00  0.00     0.000 C 
BRANCH   2   3
ATOM      3  C   UNL     1       5.408  56.959  21.683  1.00  0.00     0.000 C 
BRANCH   3   4
ATOM      4  C   UNL     1       4.588  57.769  20.668  1.00  0.00     0.006 C 
BRANCH   4   5
ATOM      5  C   UNL     1       3.561  58.682  21.349  1.00  0.00     0.053 C 
BRANCH   5   6
ATOM      6  C   UNL     1       3.029  59.719  20.407  1.00  0.00     0.041 C 
ATOM      7  O   UNL     1       2.912  60.915  20.780  1.00  0.00    -0.550 OA
ATOM      8  O   UNL     1       2.693  59.368  19.105  1.00  0.00    -0.550 OA
ENDBRANCH   5   6
ENDBRANCH   4   5
ENDBRANCH   3   4
ENDBRANCH   2   3
ENDBRANCH   1   2
BRANCH   1   9
ATOM      9  C   UNL     1       8.580  55.240  20.239  1.00  0.00     0.000 C 
BRANCH   9  10
ATOM     10  C   UNL     1       8.968  53.947  20.974  1.00  0.00    -0.000 C 
BRANCH  10  11
ATOM     11  C   UNL     1      10.420  53.968  21.481  1.00  0.00    -0.000 C 
BRANCH  11  12
ATOM     12  C   UNL     1      10.576  53.320  22.870  1.00  0.00    -0.000 C 
BRANCH  12  13
ATOM     13  C   UNL     1      10.915  54.304  24.005  1.00  0.00    -0.003 C 
ATOM     14  C   UNL     1       9.904  55.443  24.130  1.00  0.00     0.004 C 
ENDBRANCH  12  13
ENDBRANCH  11  12
ENDBRANCH  10  11
ENDBRANCH   9  10
ENDBRANCH   1   9
TORSDOF 10
ENDMDL
MODEL 8
REMARK VINA RESULT:    -4.403      2.686      4.031
REMARK INTER + INTRA:          -7.855
REMARK INTER:                  -7.389
REMARK INTRA:                  -0.466
REMARK UNBOUND:                -0.878
REMARK SMILES CCCCCCCCCCCC(=O)[O-]
REMARK SMILES IDX 7 1 8 2 9 3 10 4 11 5 12 6 13 7 14 8 6 9 5 10 4 11 3 12 2 13
REMARK SMILES IDX 1 14
REMARK H PARENT
REMARK Flexibility Score: inf
ROOT
ATOM      1  C   UNL     1       7.857  55.736  19.929  1.00  0.00     0.000 C 
ENDROOT
BRANCH   1   2
ATOM      2  C   UNL     1       7.963  54.751  21.100  1.00  0.00     0.000 C 
BRANCH   2   3
ATOM      3  C   UNL     1       9.071  53.720  20.857  1.00  0.00     0.000 C 
BRANCH   3   4
ATOM      4  C   UNL     1      10.360  54.111  21.595  1.00  0.00     0.006 C 
BRANCH   4   5
ATOM      5  C   UNL     1      10.394  53.567  23.029  1.00  0.00     0.053 C 
BRANCH   5   6
ATOM      6  C   UNL     1      10.574  54.663  24.034  1.00  0.00     0.041 C 
ATOM      7  O   UNL     1      11.401  54.533  24.974  1.00  0.00    -0.550 OA
ATOM      8  O   UNL     1       9.851  55.844  23.913  1.00  0.00    -0.550 OA
ENDBRANCH   5   6
ENDBRANCH   4   5
ENDBRANCH   3   4
ENDBRANCH   2   3
ENDBRANCH   1   2
BRANCH   1   9
ATOM      9  C   UNL     1       6.883  56.877  20.257  1.00  0.00     0.000 C 
BRANCH   9  10
ATOM     10  C   UNL     1       5.752  56.436  21.199  1.00  0.00    -0.000 C 
BRANCH  10  11
ATOM     11  C   UNL     1       4.889  57.615  21.681  1.00  0.00    -0.000 C 
BRANCH  11  12
ATOM     12  C   UNL     1       4.101  58.284  20.540  1.00  0.00    -0.000 C 
BRANCH  12  13
ATOM     13  C   UNL     1       2.716  58.821  20.942  1.00  0.00    -0.003 C 
ATOM     14  C   UNL     1       2.779  59.858  22.063  1.00  0.00     0.004 C 
ENDBRANCH  12  13
ENDBRANCH  11  12
ENDBRANCH  10  11
ENDBRANCH   9  10
ENDBRANCH   1   9
TORSDOF 10
ENDMDL
MODEL 9
REMARK VINA RESULT:    -4.362      5.070      7.362
REMARK INTER + INTRA:          -7.790
REMARK INTER:                  -7.097
REMARK INTRA:                  -0.693
REMARK UNBOUND:                -0.878
REMARK SMILES CCCCCCCCCCCC(=O)[O-]
REMARK SMILES IDX 7 1 8 2 9 3 10 4 11 5 12 6 13 7 14 8 6 9 5 10 4 11 3 12 2 13
REMARK SMILES IDX 1 14
REMARK H PARENT
REMARK Flexibility Score: inf
ROOT
ATOM      1  C   UNL     1       5.937  56.127  21.256  1.00  0.00     0.000 C 
ENDROOT
BRANCH   1   2
ATOM      2  C   UNL     1       4.894  57.176  21.659  1.00  0.00     0.000 C 
BRANCH   2   3
ATOM      3  C   UNL     1       4.618  58.152  20.509  1.00  0.00     0.000 C 
BRANCH   3   4
ATOM      4  C   UNL     1       3.239  58.808  20.663  1.00  0.00     0.006 C 
BRANCH   4   5
ATOM      5  C   UNL     1       3.073  59.499  22.022  1.00  0.00     0.053 C 
BRANCH   5   6
ATOM      6  C   UNL     1       1.645  59.498  22.476  1.00  0.00     0.041 C 
ATOM      7  O   UNL     1       1.186  60.469  23.132  1.00  0.00    -0.550 OA
ATOM      8  O   UNL     1       0.812  58.436  22.144  1.00  0.00    -0.550 OA
ENDBRANCH   5   6
ENDBRANCH   4   5
ENDBRANCH   3   4
ENDBRANCH   2   3
ENDBRANCH   1   2
BRANCH   1   9
ATOM      9  C   UNL     1       7.158  56.790  20.600  1.00  0.00     0.000 C 
BRANCH   9  10
ATOM     10  C   UNL     1       7.968  55.810  19.735  1.00  0.00    -0.000 C 
BRANCH  10  11
ATOM     11  C   UNL     1       8.107  54.423  20.386  1.00  0.00    -0.000 C 
BRANCH  11  12
ATOM     12  C   UNL     1       9.354  54.307  21.283  1.00  0.00    -0.000 C 
BRANCH  12  13
ATOM     13  C   UNL     1       9.057  54.254  22.793  1.00  0.00    -0.003 C 
ATOM     14  C   UNL     1       9.733  55.378  23.575  1.00  0.00     0.004 C 
ENDBRANCH  12  13
ENDBRANCH  11  12
ENDBRANCH  10  11
ENDBRANCH   9  10
ENDBRANCH   1   9
TORSDOF 10
ENDMDL
