MODEL 1
REMARK VINA RESULT:    -6.252      0.000      0.000
REMARK INTER + INTRA:          -7.577
REMARK INTER:                  -7.348
REMARK INTRA:                  -0.229
REMARK UNBOUND:                -0.229
REMARK SMILES O=c1c(O)c(-c2ccc(O)cc2)oc2cc(O)cc(O)c12
REMARK SMILES IDX 5 1 3 2 2 3 1 4 21 5 19 6 18 7 16 8 15 9 14 10 13 11 6 12
REMARK SMILES IDX 7 13 8 14 9 15 12 16 11 17 10 18 4 20 20 22 17 24
REMARK H PARENT 10 19 4 21 20 23 17 25
REMARK Flexibility Score: inf
ROOT
ATOM      1  C   UNL     1       2.509  -4.090  21.973  1.00  0.00     0.180 A 
ATOM      2  C   UNL     1       2.988  -5.086  21.100  1.00  0.00     0.208 A 
ATOM      3  C   UNL     1       2.625  -5.031  19.746  1.00  0.00     0.238 A 
ATOM      4  O   UNL     1       3.057  -5.911  18.951  1.00  0.00    -0.285 OA
ATOM      5  C   UNL     1       1.778  -4.000  19.292  1.00  0.00     0.111 A 
ATOM      6  C   UNL     1       1.362  -3.875  17.943  1.00  0.00     0.134 A 
ATOM      7  C   UNL     1       0.510  -2.825  17.573  1.00  0.00     0.093 A 
ATOM      8  C   UNL     1       0.065  -1.899  18.519  1.00  0.00     0.123 A 
ATOM      9  C   UNL     1       0.473  -2.017  19.853  1.00  0.00     0.094 A 
ATOM     10  C   UNL     1       1.323  -3.056  20.242  1.00  0.00     0.146 A 
ATOM     11  O   UNL     1       1.700  -3.141  21.513  1.00  0.00    -0.452 OA
ENDROOT
BRANCH   1  12
ATOM     12  C   UNL     1       2.863  -4.068  23.411  1.00  0.00     0.021 A 
ATOM     13  C   UNL     1       2.237  -4.968  24.291  1.00  0.00     0.016 A 
ATOM     14  C   UNL     1       2.540  -4.949  25.656  1.00  0.00     0.047 A 
ATOM     15  C   UNL     1       3.458  -4.024  26.161  1.00  0.00     0.115 A 
ATOM     16  C   UNL     1       3.771  -3.126  23.928  1.00  0.00     0.016 A 
ATOM     17  C   UNL     1       4.071  -3.110  25.294  1.00  0.00     0.047 A 
BRANCH  15  18
ATOM     18  O   UNL     1       3.750  -4.018  27.523  1.00  0.00    -0.508 OA
ATOM     19  H   UNL     1       3.760  -3.157  28.058  1.00  0.00     0.293 HD
ENDBRANCH  15  18
ENDBRANCH   1  12
BRANCH   2  20
ATOM     20  O   UNL     1       3.787  -6.125  21.584  1.00  0.00    -0.502 OA
ATOM     21  H   UNL     1       4.402  -6.661  20.984  1.00  0.00     0.293 HD
ENDBRANCH   2  20
BRANCH   6  22
ATOM     22  O   UNL     1       1.787  -4.785  16.974  1.00  0.00    -0.507 OA
ATOM     23  H   UNL     1       1.161  -5.130  16.257  1.00  0.00     0.293 HD
ENDBRANCH   6  22
BRANCH   8  24
ATOM     24  O   UNL     1      -0.782  -0.866  18.125  1.00  0.00    -0.508 OA
ATOM     25  H   UNL     1      -1.481  -1.002  17.404  1.00  0.00     0.293 HD
ENDBRANCH   8  24
TORSDOF 5
ENDMDL
MODEL 2
REMARK VINA RESULT:    -6.230      2.505      6.452
REMARK INTER + INTRA:          -7.552
REMARK INTER:                  -7.338
REMARK INTRA:                  -0.214
REMARK UNBOUND:                -0.229
REMARK SMILES O=c1c(O)c(-c2ccc(O)cc2)oc2cc(O)cc(O)c12
REMARK SMILES IDX 5 1 3 2 2 3 1 4 21 5 19 6 18 7 16 8 15 9 14 10 13 11 6 12
REMARK SMILES IDX 7 13 8 14 9 15 12 16 11 17 10 18 4 20 20 22 17 24
REMARK H PARENT 10 19 4 21 20 23 17 25
REMARK Flexibility Score: inf
ROOT
ATOM      1  C   UNL     1       1.758  -3.923  21.859  1.00  0.00     0.180 A 
ATOM      2  C   UNL     1       2.817  -3.580  22.722  1.00  0.00     0.208 A 
ATOM      3  C   UNL     1       2.531  -3.291  24.065  1.00  0.00     0.238 A 
ATOM      4  O   UNL     1       3.472  -2.994  24.850  1.00  0.00    -0.285 OA
ATOM      5  C   UNL     1       1.196  -3.331  24.518  1.00  0.00     0.111 A 
ATOM      6  C   UNL     1       0.822  -3.051  25.855  1.00  0.00     0.134 A 
ATOM      7  C   UNL     1      -0.529  -3.103  26.224  1.00  0.00     0.093 A 
ATOM      8  C   UNL     1      -1.514  -3.427  25.288  1.00  0.00     0.123 A 
ATOM      9  C   UNL     1      -1.150  -3.706  23.965  1.00  0.00     0.094 A 
ATOM     10  C   UNL     1       0.192  -3.661  23.577  1.00  0.00     0.146 A 
ATOM     11  O   UNL     1       0.510  -3.936  22.317  1.00  0.00    -0.452 OA
ENDROOT
BRANCH   1  12
ATOM     12  C   UNL     1       1.981  -4.258  20.434  1.00  0.00     0.021 A 
ATOM     13  C   UNL     1       1.501  -3.393  19.437  1.00  0.00     0.016 A 
ATOM     14  C   UNL     1       1.681  -3.701  18.085  1.00  0.00     0.047 A 
ATOM     15  C   UNL     1       2.328  -4.882  17.712  1.00  0.00     0.115 A 
ATOM     16  C   UNL     1       2.614  -5.456  20.053  1.00  0.00     0.016 A 
ATOM     17  C   UNL     1       2.793  -5.761  18.700  1.00  0.00     0.047 A 
BRANCH  15  18
ATOM     18  O   UNL     1       2.501  -5.176  16.361  1.00  0.00    -0.508 OA
ATOM     19  H   UNL     1       2.183  -6.054  15.966  1.00  0.00     0.293 HD
ENDBRANCH  15  18
ENDBRANCH   1  12
BRANCH   2  20
ATOM     20  O   UNL     1       4.125  -3.500  22.237  1.00  0.00    -0.502 OA
ATOM     21  H   UNL     1       4.903  -3.215  22.820  1.00  0.00     0.293 HD
ENDBRANCH   2  20
BRANCH   6  22
ATOM     22  O   UNL     1       1.781  -2.721  26.814  1.00  0.00    -0.507 OA
ATOM     23  H   UNL     1       2.543  -3.348  27.042  1.00  0.00     0.293 HD
ENDBRANCH   6  22
BRANCH   8  24
ATOM     24  O   UNL     1      -2.848  -3.471  25.681  1.00  0.00    -0.508 OA
ATOM     25  H   UNL     1      -3.154  -3.073  26.561  1.00  0.00     0.293 HD
ENDBRANCH   8  24
TORSDOF 5
ENDMDL
MODEL 3
REMARK VINA RESULT:    -5.980      4.681      8.121
REMARK INTER + INTRA:          -7.258
REMARK INTER:                  -7.503
REMARK INTRA:                   0.245
REMARK UNBOUND:                -0.229
REMARK SMILES O=c1c(O)c(-c2ccc(O)cc2)oc2cc(O)cc(O)c12
REMARK SMILES IDX 5 1 3 2 2 3 1 4 21 5 19 6 18 7 16 8 15 9 14 10 13 11 6 12
REMARK SMILES IDX 7 13 8 14 9 15 12 16 11 17 10 18 4 20 20 22 17 24
REMARK H PARENT 10 19 4 21 20 23 17 25
REMARK Flexibility Score: inf
ROOT
ATOM      1  C   UNL     1      -2.645  -0.919  18.680  1.00  0.00     0.180 A 
ATOM      2  C   UNL     1      -3.245  -0.643  19.924  1.00  0.00     0.208 A 
ATOM      3  C   UNL     1      -4.475   0.033  19.949  1.00  0.00     0.238 A 
ATOM      4  O   UNL     1      -5.028   0.276  21.056  1.00  0.00    -0.285 OA
ATOM      5  C   UNL     1      -5.072   0.438  18.738  1.00  0.00     0.111 A 
ATOM      6  C   UNL     1      -6.309   1.126  18.675  1.00  0.00     0.134 A 
ATOM      7  C   UNL     1      -6.833   1.503  17.430  1.00  0.00     0.093 A 
ATOM      8  C   UNL     1      -6.149   1.207  16.249  1.00  0.00     0.123 A 
ATOM      9  C   UNL     1      -4.927   0.527  16.304  1.00  0.00     0.094 A 
ATOM     10  C   UNL     1      -4.389   0.141  17.536  1.00  0.00     0.146 A 
ATOM     11  O   UNL     1      -3.230  -0.509  17.559  1.00  0.00    -0.452 OA
ENDROOT
BRANCH   1  12
ATOM     12  C   UNL     1      -1.359  -1.644  18.570  1.00  0.00     0.021 A 
ATOM     13  C   UNL     1      -1.167  -2.555  17.518  1.00  0.00     0.016 A 
ATOM     14  C   UNL     1       0.032  -3.267  17.408  1.00  0.00     0.047 A 
ATOM     15  C   UNL     1       1.046  -3.090  18.353  1.00  0.00     0.115 A 
ATOM     16  C   UNL     1      -0.343  -1.484  19.530  1.00  0.00     0.016 A 
ATOM     17  C   UNL     1       0.855  -2.197  19.417  1.00  0.00     0.047 A 
BRANCH  15  18
ATOM     18  O   UNL     1       2.235  -3.805  18.230  1.00  0.00    -0.508 OA
ATOM     19  H   UNL     1       2.329  -4.742  18.603  1.00  0.00     0.293 HD
ENDBRANCH  15  18
ENDBRANCH   1  12
BRANCH   2  20
ATOM     20  O   UNL     1      -2.608  -1.011  21.112  1.00  0.00    -0.502 OA
ATOM     21  H   UNL     1      -1.652  -0.747  21.320  1.00  0.00     0.293 HD
ENDBRANCH   2  20
BRANCH   6  22
ATOM     22  O   UNL     1      -7.016   1.438  19.837  1.00  0.00    -0.507 OA
ATOM     23  H   UNL     1      -7.639   2.235  19.883  1.00  0.00     0.293 HD
ENDBRANCH   6  22
BRANCH   8  24
ATOM     24  O   UNL     1      -6.691   1.594  15.026  1.00  0.00    -0.508 OA
ATOM     25  H   UNL     1      -6.126   2.042  14.314  1.00  0.00     0.293 HD
ENDBRANCH   8  24
TORSDOF 5
ENDMDL
MODEL 4
REMARK VINA RESULT:    -5.664      3.581      7.146
REMARK INTER + INTRA:          -6.887
REMARK INTER:                  -6.599
REMARK INTRA:                  -0.288
REMARK UNBOUND:                -0.229
REMARK SMILES O=c1c(O)c(-c2ccc(O)cc2)oc2cc(O)cc(O)c12
REMARK SMILES IDX 5 1 3 2 2 3 1 4 21 5 19 6 18 7 16 8 15 9 14 10 13 11 6 12
REMARK SMILES IDX 7 13 8 14 9 15 12 16 11 17 10 18 4 20 20 22 17 24
REMARK H PARENT 10 19 4 21 20 23 17 25
REMARK Flexibility Score: inf
ROOT
ATOM      1  C   UNL     1      -0.355  -3.245  24.209  1.00  0.00     0.180 A 
ATOM      2  C   UNL     1       0.169  -2.752  25.420  1.00  0.00     0.208 A 
ATOM      3  C   UNL     1       1.440  -3.182  25.833  1.00  0.00     0.238 A 
ATOM      4  O   UNL     1       1.925  -2.739  26.910  1.00  0.00    -0.285 OA
ATOM      5  C   UNL     1       2.154  -4.106  25.044  1.00  0.00     0.111 A 
ATOM      6  C   UNL     1       3.439  -4.592  25.390  1.00  0.00     0.134 A 
ATOM      7  C   UNL     1       4.081  -5.519  24.557  1.00  0.00     0.093 A 
ATOM      8  C   UNL     1       3.466  -5.970  23.386  1.00  0.00     0.123 A 
ATOM      9  C   UNL     1       2.197  -5.494  23.038  1.00  0.00     0.094 A 
ATOM     10  C   UNL     1       1.542  -4.568  23.855  1.00  0.00     0.146 A 
ATOM     11  O   UNL     1       0.341  -4.128  23.498  1.00  0.00    -0.452 OA
ENDROOT
BRANCH   1  12
ATOM     12  C   UNL     1      -1.679  -2.826  23.696  1.00  0.00     0.021 A 
ATOM     13  C   UNL     1      -1.784  -1.651  22.932  1.00  0.00     0.016 A 
ATOM     14  C   UNL     1      -3.028  -1.225  22.456  1.00  0.00     0.047 A 
ATOM     15  C   UNL     1      -4.183  -1.956  22.750  1.00  0.00     0.115 A 
ATOM     16  C   UNL     1      -2.847  -3.547  24.005  1.00  0.00     0.016 A 
ATOM     17  C   UNL     1      -4.090  -3.118  23.528  1.00  0.00     0.047 A 
BRANCH  15  18
ATOM     18  O   UNL     1      -5.415  -1.520  22.268  1.00  0.00    -0.508 OA
ATOM     19  H   UNL     1      -5.538  -0.584  21.900  1.00  0.00     0.293 HD
ENDBRANCH  15  18
ENDBRANCH   1  12
BRANCH   2  20
ATOM     20  O   UNL     1      -0.579  -1.874  26.208  1.00  0.00    -0.502 OA
ATOM     21  H   UNL     1      -0.148  -1.227  26.858  1.00  0.00     0.293 HD
ENDBRANCH   2  20
BRANCH   6  22
ATOM     22  O   UNL     1       4.079  -4.162  26.554  1.00  0.00    -0.507 OA
ATOM     23  H   UNL     1       3.856  -4.556  27.460  1.00  0.00     0.293 HD
ENDBRANCH   6  22
BRANCH   8  24
ATOM     24  O   UNL     1       4.125  -6.891  22.576  1.00  0.00    -0.508 OA
ATOM     25  H   UNL     1       4.737  -7.599  22.968  1.00  0.00     0.293 HD
ENDBRANCH   8  24
TORSDOF 5
ENDMDL
MODEL 5
REMARK VINA RESULT:    -5.620      4.050      6.854
REMARK INTER + INTRA:          -6.835
REMARK INTER:                  -6.614
REMARK INTRA:                  -0.221
REMARK UNBOUND:                -0.229
REMARK SMILES O=c1c(O)c(-c2ccc(O)cc2)oc2cc(O)cc(O)c12
REMARK SMILES IDX 5 1 3 2 2 3 1 4 21 5 19 6 18 7 16 8 15 9 14 10 13 11 6 12
REMARK SMILES IDX 7 13 8 14 9 15 12 16 11 17 10 18 4 20 20 22 17 24
REMARK H PARENT 10 19 4 21 20 23 17 25
REMARK Flexibility Score: inf
ROOT
ATOM      1  C   UNL     1       0.642  -3.326  24.083  1.00  0.00     0.180 A 
ATOM      2  C   UNL     1       1.297  -3.069  25.303  1.00  0.00     0.208 A 
ATOM      3  C   UNL     1       0.569  -2.495  26.356  1.00  0.00     0.238 A 
ATOM      4  O   UNL     1       1.142  -2.270  27.457  1.00  0.00    -0.285 OA
ATOM      5  C   UNL     1      -0.791  -2.171  26.168  1.00  0.00     0.111 A 
ATOM      6  C   UNL     1      -1.595  -1.588  27.178  1.00  0.00     0.134 A 
ATOM      7  C   UNL     1      -2.938  -1.286  26.910  1.00  0.00     0.093 A 
ATOM      8  C   UNL     1      -3.493  -1.554  25.656  1.00  0.00     0.123 A 
ATOM      9  C   UNL     1      -2.703  -2.131  24.655  1.00  0.00     0.094 A 
ATOM     10  C   UNL     1      -1.363  -2.440  24.903  1.00  0.00     0.146 A 
ATOM     11  O   UNL     1      -0.638  -2.993  23.937  1.00  0.00    -0.452 OA
ENDROOT
BRANCH   1  12
ATOM     12  C   UNL     1       1.336  -3.946  22.932  1.00  0.00     0.021 A 
ATOM     13  C   UNL     1       1.582  -3.181  21.779  1.00  0.00     0.016 A 
ATOM     14  C   UNL     1       2.217  -3.752  20.672  1.00  0.00     0.047 A 
ATOM     15  C   UNL     1       2.600  -5.096  20.696  1.00  0.00     0.115 A 
ATOM     16  C   UNL     1       1.706  -5.303  22.943  1.00  0.00     0.016 A 
ATOM     17  C   UNL     1       2.341  -5.872  21.834  1.00  0.00     0.047 A 
BRANCH  15  18
ATOM     18  O   UNL     1       3.232  -5.653  19.586  1.00  0.00    -0.508 OA
ATOM     19  H   UNL     1       2.859  -5.536  18.651  1.00  0.00     0.293 HD
ENDBRANCH  15  18
ENDBRANCH   1  12
BRANCH   2  20
ATOM     20  O   UNL     1       2.657  -3.354  25.447  1.00  0.00    -0.502 OA
ATOM     21  H   UNL     1       3.252  -2.849  26.094  1.00  0.00     0.293 HD
ENDBRANCH   2  20
BRANCH   6  22
ATOM     22  O   UNL     1      -1.070  -1.305  28.440  1.00  0.00    -0.507 OA
ATOM     23  H   UNL     1      -0.658  -0.405  28.656  1.00  0.00     0.293 HD
ENDBRANCH   6  22
BRANCH   8  24
ATOM     24  O   UNL     1      -4.828  -1.244  25.415  1.00  0.00    -0.508 OA
ATOM     25  H   UNL     1      -5.532  -1.335  26.140  1.00  0.00     0.293 HD
ENDBRANCH   8  24
TORSDOF 5
ENDMDL
MODEL 6
REMARK VINA RESULT:    -5.611      1.778      7.051
REMARK INTER + INTRA:          -6.824
REMARK INTER:                  -7.258
REMARK INTRA:                   0.434
REMARK UNBOUND:                -0.229
REMARK SMILES O=c1c(O)c(-c2ccc(O)cc2)oc2cc(O)cc(O)c12
REMARK SMILES IDX 5 1 3 2 2 3 1 4 21 5 19 6 18 7 16 8 15 9 14 10 13 11 6 12
REMARK SMILES IDX 7 13 8 14 9 15 12 16 11 17 10 18 4 20 20 22 17 24
REMARK H PARENT 10 19 4 21 20 23 17 25
REMARK Flexibility Score: inf
ROOT
ATOM      1  C   UNL     1       1.754  -3.932  21.890  1.00  0.00     0.180 A 
ATOM      2  C   UNL     1       0.756  -3.038  22.324  1.00  0.00     0.208 A 
ATOM      3  C   UNL     1       0.634  -2.772  23.696  1.00  0.00     0.238 A 
ATOM      4  O   UNL     1      -0.249  -1.964  24.096  1.00  0.00    -0.285 OA
ATOM      5  C   UNL     1       1.493  -3.416  24.610  1.00  0.00     0.111 A 
ATOM      6  C   UNL     1       1.433  -3.206  26.010  1.00  0.00     0.134 A 
ATOM      7  C   UNL     1       2.317  -3.892  26.855  1.00  0.00     0.093 A 
ATOM      8  C   UNL     1       3.258  -4.783  26.331  1.00  0.00     0.123 A 
ATOM      9  C   UNL     1       3.321  -4.994  24.949  1.00  0.00     0.094 A 
ATOM     10  C   UNL     1       2.450  -4.318  24.090  1.00  0.00     0.146 A 
ATOM     11  O   UNL     1       2.536  -4.533  22.782  1.00  0.00    -0.452 OA
ENDROOT
BRANCH   1  12
ATOM     12  C   UNL     1       1.958  -4.250  20.458  1.00  0.00     0.021 A 
ATOM     13  C   UNL     1       1.501  -3.351  19.479  1.00  0.00     0.016 A 
ATOM     14  C   UNL     1       1.664  -3.641  18.121  1.00  0.00     0.047 A 
ATOM     15  C   UNL     1       2.270  -4.836  17.724  1.00  0.00     0.115 A 
ATOM     16  C   UNL     1       2.550  -5.460  20.053  1.00  0.00     0.016 A 
ATOM     17  C   UNL     1       2.711  -5.747  18.694  1.00  0.00     0.047 A 
BRANCH  15  18
ATOM     18  O   UNL     1       2.427  -5.111  16.367  1.00  0.00    -0.508 OA
ATOM     19  H   UNL     1       2.050  -5.955  15.952  1.00  0.00     0.293 HD
ENDBRANCH  15  18
ENDBRANCH   1  12
BRANCH   2  20
ATOM     20  O   UNL     1      -0.114  -2.450  21.402  1.00  0.00    -0.502 OA
ATOM     21  H   UNL     1      -0.340  -2.885  20.515  1.00  0.00     0.293 HD
ENDBRANCH   2  20
BRANCH   6  22
ATOM     22  O   UNL     1       0.504  -2.324  26.564  1.00  0.00    -0.507 OA
ATOM     23  H   UNL     1       0.612  -1.320  26.489  1.00  0.00     0.293 HD
ENDBRANCH   6  22
BRANCH   8  24
ATOM     24  O   UNL     1       4.123  -5.452  27.192  1.00  0.00    -0.508 OA
ATOM     25  H   UNL     1       3.937  -5.516  28.186  1.00  0.00     0.293 HD
ENDBRANCH   8  24
TORSDOF 5
ENDMDL
MODEL 7
REMARK VINA RESULT:    -5.548      3.650      7.216
REMARK INTER + INTRA:          -6.750
REMARK INTER:                  -6.455
REMARK INTRA:                  -0.295
REMARK UNBOUND:                -0.229
REMARK SMILES O=c1c(O)c(-c2ccc(O)cc2)oc2cc(O)cc(O)c12
REMARK SMILES IDX 5 1 3 2 2 3 1 4 21 5 19 6 18 7 16 8 15 9 14 10 13 11 6 12
REMARK SMILES IDX 7 13 8 14 9 15 12 16 11 17 10 18 4 20 20 22 17 24
REMARK H PARENT 10 19 4 21 20 23 17 25
REMARK Flexibility Score: inf
ROOT
ATOM      1  C   UNL     1      -0.473  -3.115  24.319  1.00  0.00     0.180 A 
ATOM      2  C   UNL     1      -0.019  -2.651  25.569  1.00  0.00     0.208 A 
ATOM      3  C   UNL     1       1.232  -3.081  26.039  1.00  0.00     0.238 A 
ATOM      4  O   UNL     1       1.654  -2.663  27.152  1.00  0.00    -0.285 OA
ATOM      5  C   UNL     1       1.996  -3.978  25.266  1.00  0.00     0.111 A 
ATOM      6  C   UNL     1       3.265  -4.461  25.668  1.00  0.00     0.134 A 
ATOM      7  C   UNL     1       3.960  -5.360  24.846  1.00  0.00     0.093 A 
ATOM      8  C   UNL     1       3.414  -5.785  23.632  1.00  0.00     0.123 A 
ATOM      9  C   UNL     1       2.161  -5.310  23.229  1.00  0.00     0.094 A 
ATOM     10  C   UNL     1       1.454  -4.412  24.034  1.00  0.00     0.146 A 
ATOM     11  O   UNL     1       0.269  -3.973  23.624  1.00  0.00    -0.452 OA
ENDROOT
BRANCH   1  12
ATOM     12  C   UNL     1      -1.772  -2.693  23.747  1.00  0.00     0.021 A 
ATOM     13  C   UNL     1      -2.902  -3.509  23.925  1.00  0.00     0.016 A 
ATOM     14  C   UNL     1      -4.134  -3.141  23.374  1.00  0.00     0.047 A 
ATOM     15  C   UNL     1      -4.248  -1.964  22.628  1.00  0.00     0.115 A 
ATOM     16  C   UNL     1      -1.888  -1.521  22.979  1.00  0.00     0.016 A 
ATOM     17  C   UNL     1      -3.121  -1.156  22.429  1.00  0.00     0.047 A 
BRANCH  15  18
ATOM     18  O   UNL     1      -5.482  -1.610  22.086  1.00  0.00    -0.508 OA
ATOM     19  H   UNL     1      -6.111  -0.981  22.571  1.00  0.00     0.293 HD
ENDBRANCH  15  18
ENDBRANCH   1  12
BRANCH   2  20
ATOM     20  O   UNL     1      -0.818  -1.801  26.339  1.00  0.00    -0.502 OA
ATOM     21  H   UNL     1      -0.722  -1.730  27.345  1.00  0.00     0.293 HD
ENDBRANCH   2  20
BRANCH   6  22
ATOM     22  O   UNL     1       3.837  -4.058  26.876  1.00  0.00    -0.507 OA
ATOM     23  H   UNL     1       3.530  -4.438  27.763  1.00  0.00     0.293 HD
ENDBRANCH   6  22
BRANCH   8  24
ATOM     24  O   UNL     1       4.125  -6.678  22.835  1.00  0.00    -0.508 OA
ATOM     25  H   UNL     1       4.784  -7.336  23.235  1.00  0.00     0.293 HD
ENDBRANCH   8  24
TORSDOF 5
ENDMDL
MODEL 8
REMARK VINA RESULT:    -5.483      4.733      8.512
REMARK INTER + INTRA:          -6.673
REMARK INTER:                  -6.377
REMARK INTRA:                  -0.296
REMARK UNBOUND:                -0.229
REMARK SMILES O=c1c(O)c(-c2ccc(O)cc2)oc2cc(O)cc(O)c12
REMARK SMILES IDX 5 1 3 2 2 3 1 4 21 5 19 6 18 7 16 8 15 9 14 10 13 11 6 12
REMARK SMILES IDX 7 13 8 14 9 15 12 16 11 17 10 18 4 20 20 22 17 24
REMARK H PARENT 10 19 4 21 20 23 17 25
REMARK Flexibility Score: inf
ROOT
ATOM      1  C   UNL     1      -2.566  -1.236  22.966  1.00  0.00     0.180 A 
ATOM      2  C   UNL     1      -2.452  -0.469  24.142  1.00  0.00     0.208 A 
ATOM      3  C   UNL     1      -1.493  -0.834  25.099  1.00  0.00     0.238 A 
ATOM      4  O   UNL     1      -1.374  -0.148  26.151  1.00  0.00    -0.285 OA
ATOM      5  C   UNL     1      -0.680  -1.964  24.876  1.00  0.00     0.111 A 
ATOM      6  C   UNL     1       0.309  -2.400  25.791  1.00  0.00     0.134 A 
ATOM      7  C   UNL     1       1.071  -3.541  25.500  1.00  0.00     0.093 A 
ATOM      8  C   UNL     1       0.867  -4.253  24.316  1.00  0.00     0.123 A 
ATOM      9  C   UNL     1      -0.109  -3.826  23.408  1.00  0.00     0.094 A 
ATOM     10  C   UNL     1      -0.878  -2.691  23.679  1.00  0.00     0.146 A 
ATOM     11  O   UNL     1      -1.792  -2.304  22.796  1.00  0.00    -0.452 OA
ENDROOT
BRANCH   1  12
ATOM     12  C   UNL     1      -3.540  -0.905  21.901  1.00  0.00     0.021 A 
ATOM     13  C   UNL     1      -4.820  -1.484  21.931  1.00  0.00     0.016 A 
ATOM     14  C   UNL     1      -5.748  -1.203  20.924  1.00  0.00     0.047 A 
ATOM     15  C   UNL     1      -5.406  -0.353  19.868  1.00  0.00     0.115 A 
ATOM     16  C   UNL     1      -3.194  -0.066  20.826  1.00  0.00     0.016 A 
ATOM     17  C   UNL     1      -4.125   0.214  19.820  1.00  0.00     0.047 A 
BRANCH  15  18
ATOM     18  O   UNL     1      -6.341  -0.081  18.872  1.00  0.00    -0.508 OA
ATOM     19  H   UNL     1      -7.283   0.218  19.098  1.00  0.00     0.293 HD
ENDBRANCH  15  18
ENDBRANCH   1  12
BRANCH   2  20
ATOM     20  O   UNL     1      -3.303   0.617  24.361  1.00  0.00    -0.502 OA
ATOM     21  H   UNL     1      -4.311   0.543  24.277  1.00  0.00     0.293 HD
ENDBRANCH   2  20
BRANCH   6  22
ATOM     22  O   UNL     1       0.537  -1.712  26.984  1.00  0.00    -0.507 OA
ATOM     23  H   UNL     1       1.042  -0.834  27.004  1.00  0.00     0.293 HD
ENDBRANCH   6  22
BRANCH   8  24
ATOM     24  O   UNL     1       1.636  -5.382  24.053  1.00  0.00    -0.508 OA
ATOM     25  H   UNL     1       2.416  -5.352  23.406  1.00  0.00     0.293 HD
ENDBRANCH   8  24
TORSDOF 5
ENDMDL
MODEL 9
REMARK VINA RESULT:    -5.387      4.197      5.837
REMARK INTER + INTRA:          -6.561
REMARK INTER:                  -6.276
REMARK INTRA:                  -0.284
REMARK UNBOUND:                -0.229
REMARK SMILES O=c1c(O)c(-c2ccc(O)cc2)oc2cc(O)cc(O)c12
REMARK SMILES IDX 5 1 3 2 2 3 1 4 21 5 19 6 18 7 16 8 15 9 14 10 13 11 6 12
REMARK SMILES IDX 7 13 8 14 9 15 12 16 11 17 10 18 4 20 20 22 17 24
REMARK H PARENT 10 19 4 21 20 23 17 25
REMARK Flexibility Score: inf
ROOT
ATOM      1  C   UNL     1      -0.072  -2.661  24.781  1.00  0.00     0.180 A 
ATOM      2  C   UNL     1       0.779  -3.319  25.690  1.00  0.00     0.208 A 
ATOM      3  C   UNL     1       1.873  -4.044  25.192  1.00  0.00     0.238 A 
ATOM      4  O   UNL     1       2.648  -4.628  25.998  1.00  0.00    -0.285 OA
ATOM      5  C   UNL     1       2.085  -4.117  23.801  1.00  0.00     0.111 A 
ATOM      6  C   UNL     1       3.162  -4.829  23.217  1.00  0.00     0.134 A 
ATOM      7  C   UNL     1       3.300  -4.862  21.822  1.00  0.00     0.093 A 
ATOM      8  C   UNL     1       2.386  -4.198  20.999  1.00  0.00     0.123 A 
ATOM      9  C   UNL     1       1.321  -3.492  21.570  1.00  0.00     0.094 A 
ATOM     10  C   UNL     1       1.168  -3.447  22.959  1.00  0.00     0.146 A 
ATOM     11  O   UNL     1       0.151  -2.764  23.474  1.00  0.00    -0.452 OA
ENDROOT
BRANCH   1  12
ATOM     12  C   UNL     1      -1.235  -1.861  25.229  1.00  0.00     0.021 A 
ATOM     13  C   UNL     1      -2.467  -2.498  25.453  1.00  0.00     0.016 A 
ATOM     14  C   UNL     1      -3.584  -1.759  25.855  1.00  0.00     0.047 A 
ATOM     15  C   UNL     1      -3.488  -0.375  26.023  1.00  0.00     0.115 A 
ATOM     16  C   UNL     1      -1.149  -0.465  25.381  1.00  0.00     0.016 A 
ATOM     17  C   UNL     1      -2.268   0.272  25.782  1.00  0.00     0.047 A 
BRANCH  15  18
ATOM     18  O   UNL     1      -4.608   0.350  26.425  1.00  0.00    -0.508 OA
ATOM     19  H   UNL     1      -5.521   0.180  26.019  1.00  0.00     0.293 HD
ENDBRANCH  15  18
ENDBRANCH   1  12
BRANCH   2  20
ATOM     20  O   UNL     1       0.518  -3.272  27.062  1.00  0.00    -0.502 OA
ATOM     21  H   UNL     1       1.008  -3.858  27.728  1.00  0.00     0.293 HD
ENDBRANCH   2  20
BRANCH   6  22
ATOM     22  O   UNL     1       4.090  -5.504  24.012  1.00  0.00    -0.507 OA
ATOM     23  H   UNL     1       3.928  -5.667  24.998  1.00  0.00     0.293 HD
ENDBRANCH   6  22
BRANCH   8  24
ATOM     24  O   UNL     1       2.546  -4.247  19.617  1.00  0.00    -0.508 OA
ATOM     25  H   UNL     1       1.776  -4.488  19.003  1.00  0.00     0.293 HD
ENDBRANCH   8  24
TORSDOF 5
ENDMDL
