MODEL 1
REMARK VINA RESULT:    40.164      0.000      0.000
REMARK INTER + INTRA:          46.913
REMARK INTER:                  47.208
REMARK INTRA:                  -0.295
REMARK UNBOUND:                -0.295
REMARK SMILES O=c1cc(-c2ccc(O)c(O)c2)oc2cc(O)cc(O)c12
REMARK SMILES IDX 4 1 3 2 2 3 1 4 21 5 19 6 18 7 16 8 15 9 14 10 13 11 5 12
REMARK SMILES IDX 6 13 7 14 8 15 12 16 10 17 9 18 11 20 20 22 17 24
REMARK H PARENT 9 19 11 21 20 23 17 25
REMARK Flexibility Score: inf
ROOT
ATOM      1  C   UNL     1      11.612   1.673  26.882  1.00  0.00     0.138 A 
ATOM      2  C   UNL     1      10.932   1.572  25.661  1.00  0.00     0.100 A 
ATOM      3  C   UNL     1      10.678   2.725  24.916  1.00  0.00     0.197 A 
ATOM      4  O   UNL     1      10.012   2.612  23.855  1.00  0.00    -0.289 OA
ATOM      5  C   UNL     1      11.135   3.980  25.384  1.00  0.00     0.107 A 
ATOM      6  C   UNL     1      10.969   5.215  24.690  1.00  0.00     0.134 A 
ATOM      7  C   UNL     1      11.360   6.411  25.305  1.00  0.00     0.093 A 
ATOM      8  C   UNL     1      11.966   6.409  26.564  1.00  0.00     0.123 A 
ATOM      9  C   UNL     1      12.182   5.202  27.226  1.00  0.00     0.094 A 
ATOM     10  C   UNL     1      11.771   3.996  26.654  1.00  0.00     0.146 A 
ATOM     11  O   UNL     1      11.982   2.869  27.325  1.00  0.00    -0.456 OA
ENDROOT
BRANCH   1  12
ATOM     12  C   UNL     1      11.909   0.479  27.713  1.00  0.00     0.021 A 
ATOM     13  C   UNL     1      12.822   0.587  28.777  1.00  0.00     0.016 A 
ATOM     14  C   UNL     1      13.124  -0.523  29.569  1.00  0.00     0.051 A 
ATOM     15  C   UNL     1      12.530  -1.761  29.309  1.00  0.00     0.157 A 
ATOM     16  C   UNL     1      11.323  -0.775  27.446  1.00  0.00     0.062 A 
ATOM     17  C   UNL     1      11.628  -1.890  28.240  1.00  0.00     0.158 A 
BRANCH  15  18
ATOM     18  O   UNL     1      12.851  -2.851  30.119  1.00  0.00    -0.504 OA
ATOM     19  H   UNL     1      12.279  -3.121  30.909  1.00  0.00     0.293 HD
ENDBRANCH  15  18
BRANCH  17  20
ATOM     20  O   UNL     1      11.041  -3.125  27.968  1.00  0.00    -0.504 OA
ATOM     21  H   UNL     1      11.125  -3.905  28.609  1.00  0.00     0.293 HD
ENDBRANCH  17  20
ENDBRANCH   1  12
BRANCH   6  22
ATOM     22  O   UNL     1      10.453   5.321  23.394  1.00  0.00    -0.507 OA
ATOM     23  H   UNL     1      10.693   6.047  22.736  1.00  0.00     0.293 HD
ENDBRANCH   6  22
BRANCH   8  24
ATOM     24  O   UNL     1      12.367   7.602  27.163  1.00  0.00    -0.508 OA
ATOM     25  H   UNL     1      11.712   8.185  27.670  1.00  0.00     0.293 HD
ENDBRANCH   8  24
TORSDOF 5
ENDMDL
