MODEL 1
REMARK VINA RESULT:    -5.152      0.000      0.000
REMARK INTER + INTRA:          -6.500
REMARK INTER:                  -6.206
REMARK INTRA:                  -0.294
REMARK UNBOUND:                -0.294
REMARK SMILES O=c1c(O)c(-c2ccc(O)c(O)c2)oc2cc(O)cc(O)c12
REMARK SMILES IDX 5 1 3 2 2 3 1 4 22 5 20 6 19 7 17 8 16 9 15 10 14 11 6 12
REMARK SMILES IDX 7 13 8 14 9 15 13 16 11 17 10 18 12 20 4 22 21 24 18 26
REMARK H PARENT 10 19 12 21 4 23 21 25 18 27
REMARK Flexibility Score: inf
ROOT
ATOM      1  C   UNL     1     -15.204  15.519  11.349  1.00  0.00     0.180 A 
ATOM      2  C   UNL     1     -16.310  16.219  10.830  1.00  0.00     0.208 A 
ATOM      3  C   UNL     1     -16.441  16.343   9.437  1.00  0.00     0.238 A 
ATOM      4  O   UNL     1     -17.422  16.976   8.961  1.00  0.00    -0.285 OA
ATOM      5  C   UNL     1     -15.480  15.752   8.591  1.00  0.00     0.111 A 
ATOM      6  C   UNL     1     -15.541  15.827   7.180  1.00  0.00     0.134 A 
ATOM      7  C   UNL     1     -14.550  15.204   6.406  1.00  0.00     0.093 A 
ATOM      8  C   UNL     1     -13.504  14.509   7.015  1.00  0.00     0.123 A 
ATOM      9  C   UNL     1     -13.437  14.431   8.410  1.00  0.00     0.094 A 
ATOM     10  C   UNL     1     -14.415  15.046   9.199  1.00  0.00     0.146 A 
ATOM     11  O   UNL     1     -14.325  14.961  10.520  1.00  0.00    -0.452 OA
ENDROOT
BRANCH   1  12
ATOM     12  C   UNL     1     -14.986  15.361  12.805  1.00  0.00     0.025 A 
ATOM     13  C   UNL     1     -15.685  14.396  13.551  1.00  0.00     0.016 A 
ATOM     14  C   UNL     1     -15.480  14.283  14.928  1.00  0.00     0.051 A 
ATOM     15  C   UNL     1     -14.586  15.138  15.584  1.00  0.00     0.157 A 
ATOM     16  C   UNL     1     -14.106  16.231  13.471  1.00  0.00     0.062 A 
ATOM     17  C   UNL     1     -13.899  16.120  14.850  1.00  0.00     0.158 A 
BRANCH  15  18
ATOM     18  O   UNL     1     -14.383  15.022  16.957  1.00  0.00    -0.504 OA
ATOM     19  H   UNL     1     -14.743  14.232  17.482  1.00  0.00     0.293 HD
ENDBRANCH  15  18
BRANCH  17  20
ATOM     20  O   UNL     1     -13.007  16.993  15.473  1.00  0.00    -0.504 OA
ATOM     21  H   UNL     1     -12.557  16.765  16.352  1.00  0.00     0.293 HD
ENDBRANCH  17  20
ENDBRANCH   1  12
BRANCH   2  22
ATOM     22  O   UNL     1     -17.275  16.752  11.688  1.00  0.00    -0.502 OA
ATOM     23  H   UNL     1     -17.433  16.388  12.620  1.00  0.00     0.293 HD
ENDBRANCH   2  22
BRANCH   6  24
ATOM     24  O   UNL     1     -16.575  16.514   6.540  1.00  0.00    -0.507 OA
ATOM     25  H   UNL     1     -17.523  16.158   6.525  1.00  0.00     0.293 HD
ENDBRANCH   6  24
BRANCH   8  26
ATOM     26  O   UNL     1     -12.533  13.898   6.223  1.00  0.00    -0.508 OA
ATOM     27  H   UNL     1     -12.528  14.002   5.216  1.00  0.00     0.293 HD
ENDBRANCH   8  26
TORSDOF 6
ENDMDL
MODEL 2
REMARK VINA RESULT:    -4.178     11.736     14.817
REMARK INTER + INTRA:          -5.327
REMARK INTER:                  -5.042
REMARK INTRA:                  -0.285
REMARK UNBOUND:                -0.294
REMARK SMILES O=c1c(O)c(-c2ccc(O)c(O)c2)oc2cc(O)cc(O)c12
REMARK SMILES IDX 5 1 3 2 2 3 1 4 22 5 20 6 19 7 17 8 16 9 15 10 14 11 6 12
REMARK SMILES IDX 7 13 8 14 9 15 13 16 11 17 10 18 12 20 4 22 21 24 18 26
REMARK H PARENT 10 19 12 21 4 23 21 25 18 27
REMARK Flexibility Score: inf
ROOT
ATOM      1  C   UNL     1     -25.994  15.642  19.174  1.00  0.00     0.180 A 
ATOM      2  C   UNL     1     -24.969  15.002  18.451  1.00  0.00     0.208 A 
ATOM      3  C   UNL     1     -23.658  15.496  18.551  1.00  0.00     0.238 A 
ATOM      4  O   UNL     1     -22.734  14.937  17.901  1.00  0.00    -0.285 OA
ATOM      5  C   UNL     1     -23.393  16.604  19.382  1.00  0.00     0.111 A 
ATOM      6  C   UNL     1     -22.101  17.159  19.541  1.00  0.00     0.134 A 
ATOM      7  C   UNL     1     -21.917  18.257  20.395  1.00  0.00     0.093 A 
ATOM      8  C   UNL     1     -22.994  18.807  21.092  1.00  0.00     0.123 A 
ATOM      9  C   UNL     1     -24.274  18.263  20.938  1.00  0.00     0.094 A 
ATOM     10  C   UNL     1     -24.479  17.169  20.091  1.00  0.00     0.146 A 
ATOM     11  O   UNL     1     -25.704  16.674  19.960  1.00  0.00    -0.452 OA
ENDROOT
BRANCH   1  12
ATOM     12  C   UNL     1     -27.403  15.192  19.106  1.00  0.00     0.025 A 
ATOM     13  C   UNL     1     -27.967  14.393  20.116  1.00  0.00     0.016 A 
ATOM     14  C   UNL     1     -29.292  13.960  20.017  1.00  0.00     0.051 A 
ATOM     15  C   UNL     1     -30.069  14.306  18.904  1.00  0.00     0.157 A 
ATOM     16  C   UNL     1     -28.180  15.518  17.981  1.00  0.00     0.062 A 
ATOM     17  C   UNL     1     -29.507  15.087  17.879  1.00  0.00     0.158 A 
BRANCH  15  18
ATOM     18  O   UNL     1     -31.390  13.875  18.809  1.00  0.00    -0.504 OA
ATOM     19  H   UNL     1     -31.954  13.706  19.635  1.00  0.00     0.293 HD
ENDBRANCH  15  18
BRANCH  17  20
ATOM     20  O   UNL     1     -30.250  15.443  16.755  1.00  0.00    -0.504 OA
ATOM     21  H   UNL     1     -31.139  15.007  16.537  1.00  0.00     0.293 HD
ENDBRANCH  17  20
ENDBRANCH   1  12
BRANCH   2  22
ATOM     22  O   UNL     1     -25.250  13.875  17.673  1.00  0.00    -0.502 OA
ATOM     23  H   UNL     1     -25.563  13.001  18.077  1.00  0.00     0.293 HD
ENDBRANCH   2  22
BRANCH   6  24
ATOM     24  O   UNL     1     -21.002  16.633  18.860  1.00  0.00    -0.507 OA
ATOM     25  H   UNL     1     -21.098  16.197  17.950  1.00  0.00     0.293 HD
ENDBRANCH   6  24
BRANCH   8  26
ATOM     26  O   UNL     1     -22.784  19.897  21.935  1.00  0.00    -0.508 OA
ATOM     27  H   UNL     1     -23.191  19.936  22.861  1.00  0.00     0.293 HD
ENDBRANCH   8  26
TORSDOF 6
ENDMDL
MODEL 3
REMARK VINA RESULT:    -4.134      1.377      1.902
REMARK INTER + INTRA:          -5.275
REMARK INTER:                  -5.046
REMARK INTRA:                  -0.229
REMARK UNBOUND:                -0.294
REMARK SMILES O=c1c(O)c(-c2ccc(O)c(O)c2)oc2cc(O)cc(O)c12
REMARK SMILES IDX 5 1 3 2 2 3 1 4 22 5 20 6 19 7 17 8 16 9 15 10 14 11 6 12
REMARK SMILES IDX 7 13 8 14 9 15 13 16 11 17 10 18 12 20 4 22 21 24 18 26
REMARK H PARENT 10 19 12 21 4 23 21 25 18 27
REMARK Flexibility Score: inf
ROOT
ATOM      1  C   UNL     1     -14.779  15.178  13.174  1.00  0.00     0.180 A 
ATOM      2  C   UNL     1     -15.949  15.800  12.695  1.00  0.00     0.208 A 
ATOM      3  C   UNL     1     -16.122  15.941  11.309  1.00  0.00     0.238 A 
ATOM      4  O   UNL     1     -17.160  16.504  10.868  1.00  0.00    -0.285 OA
ATOM      5  C   UNL     1     -15.138  15.444  10.429  1.00  0.00     0.111 A 
ATOM      6  C   UNL     1     -15.238  15.542   9.021  1.00  0.00     0.134 A 
ATOM      7  C   UNL     1     -14.220  15.015   8.213  1.00  0.00     0.093 A 
ATOM      8  C   UNL     1     -13.108  14.392   8.783  1.00  0.00     0.123 A 
ATOM      9  C   UNL     1     -13.003  14.292  10.174  1.00  0.00     0.094 A 
ATOM     10  C   UNL     1     -14.006  14.812  10.997  1.00  0.00     0.146 A 
ATOM     11  O   UNL     1     -13.879  14.709  12.315  1.00  0.00    -0.452 OA
ENDROOT
BRANCH   1  12
ATOM     12  C   UNL     1     -14.515  15.010  14.622  1.00  0.00     0.025 A 
ATOM     13  C   UNL     1     -15.254  14.102  15.400  1.00  0.00     0.016 A 
ATOM     14  C   UNL     1     -15.003  13.978  16.769  1.00  0.00     0.051 A 
ATOM     15  C   UNL     1     -14.022  14.766  17.383  1.00  0.00     0.157 A 
ATOM     16  C   UNL     1     -13.547  15.813  15.246  1.00  0.00     0.062 A 
ATOM     17  C   UNL     1     -13.293  15.691  16.617  1.00  0.00     0.158 A 
BRANCH  15  18
ATOM     18  O   UNL     1     -13.773  14.639  18.748  1.00  0.00    -0.504 OA
ATOM     19  H   UNL     1     -13.200  15.310  19.248  1.00  0.00     0.293 HD
ENDBRANCH  15  18
BRANCH  17  20
ATOM     20  O   UNL     1     -12.314  16.497  17.199  1.00  0.00    -0.504 OA
ATOM     21  H   UNL     1     -12.152  17.450  16.895  1.00  0.00     0.293 HD
ENDBRANCH  17  20
ENDBRANCH   1  12
BRANCH   2  22
ATOM     22  O   UNL     1     -16.931  16.238  13.586  1.00  0.00    -0.502 OA
ATOM     23  H   UNL     1     -16.850  17.108  14.098  1.00  0.00     0.293 HD
ENDBRANCH   2  22
BRANCH   6  24
ATOM     24  O   UNL     1     -16.337  16.159   8.419  1.00  0.00    -0.507 OA
ATOM     25  H   UNL     1     -17.034  16.655   8.962  1.00  0.00     0.293 HD
ENDBRANCH   6  24
BRANCH   8  26
ATOM     26  O   UNL     1     -12.111  13.875   7.957  1.00  0.00    -0.508 OA
ATOM     27  H   UNL     1     -11.852  12.897   7.989  1.00  0.00     0.293 HD
ENDBRANCH   8  26
TORSDOF 6
ENDMDL
MODEL 4
REMARK VINA RESULT:    -4.063      1.524      3.412
REMARK INTER + INTRA:          -5.188
REMARK INTER:                  -4.905
REMARK INTRA:                  -0.283
REMARK UNBOUND:                -0.294
REMARK SMILES O=c1c(O)c(-c2ccc(O)c(O)c2)oc2cc(O)cc(O)c12
REMARK SMILES IDX 5 1 3 2 2 3 1 4 22 5 20 6 19 7 17 8 16 9 15 10 14 11 6 12
REMARK SMILES IDX 7 13 8 14 9 15 13 16 11 17 10 18 12 20 4 22 21 24 18 26
REMARK H PARENT 10 19 12 21 4 23 21 25 18 27
REMARK Flexibility Score: inf
ROOT
ATOM      1  C   UNL     1     -14.361  15.345  12.496  1.00  0.00     0.180 A 
ATOM      2  C   UNL     1     -13.434  14.619  11.723  1.00  0.00     0.208 A 
ATOM      3  C   UNL     1     -13.626  14.535  10.335  1.00  0.00     0.238 A 
ATOM      4  O   UNL     1     -12.808  13.880   9.635  1.00  0.00    -0.285 OA
ATOM      5  C   UNL     1     -14.726  15.191   9.743  1.00  0.00     0.111 A 
ATOM      6  C   UNL     1     -14.988  15.159   8.353  1.00  0.00     0.134 A 
ATOM      7  C   UNL     1     -16.099  15.846   7.839  1.00  0.00     0.093 A 
ATOM      8  C   UNL     1     -16.948  16.562   8.685  1.00  0.00     0.123 A 
ATOM      9  C   UNL     1     -16.694  16.596  10.061  1.00  0.00     0.094 A 
ATOM     10  C   UNL     1     -15.593  15.918  10.593  1.00  0.00     0.146 A 
ATOM     11  O   UNL     1     -15.377  15.963  11.902  1.00  0.00    -0.452 OA
ENDROOT
BRANCH   1  12
ATOM     12  C   UNL     1     -14.237  15.463  13.967  1.00  0.00     0.025 A 
ATOM     13  C   UNL     1     -13.317  16.349  14.556  1.00  0.00     0.016 A 
ATOM     14  C   UNL     1     -13.202  16.425  15.946  1.00  0.00     0.051 A 
ATOM     15  C   UNL     1     -13.990  15.611  16.768  1.00  0.00     0.157 A 
ATOM     16  C   UNL     1     -15.010  14.633  14.795  1.00  0.00     0.062 A 
ATOM     17  C   UNL     1     -14.896  14.707  16.188  1.00  0.00     0.158 A 
BRANCH  15  18
ATOM     18  O   UNL     1     -13.873  15.690  18.154  1.00  0.00    -0.504 OA
ATOM     19  H   UNL     1     -14.349  16.410  18.686  1.00  0.00     0.293 HD
ENDBRANCH  15  18
BRANCH  17  20
ATOM     20  O   UNL     1     -15.691  13.876  16.977  1.00  0.00    -0.504 OA
ATOM     21  H   UNL     1     -15.531  13.765  17.972  1.00  0.00     0.293 HD
ENDBRANCH  17  20
ENDBRANCH   1  12
BRANCH   2  22
ATOM     22  O   UNL     1     -12.325  14.020  12.328  1.00  0.00    -0.502 OA
ATOM     23  H   UNL     1     -12.284  13.835  13.323  1.00  0.00     0.293 HD
ENDBRANCH   2  22
BRANCH   6  24
ATOM     24  O   UNL     1     -14.159  14.453   7.480  1.00  0.00    -0.507 OA
ATOM     25  H   UNL     1     -14.313  14.455   6.479  1.00  0.00     0.293 HD
ENDBRANCH   6  24
BRANCH   8  26
ATOM     26  O   UNL     1     -18.043  17.236   8.150  1.00  0.00    -0.508 OA
ATOM     27  H   UNL     1     -18.564  17.915   8.691  1.00  0.00     0.293 HD
ENDBRANCH   8  26
TORSDOF 6
ENDMDL
MODEL 5
REMARK VINA RESULT:    -3.254      1.942      7.286
REMARK INTER + INTRA:          -4.214
REMARK INTER:                  -4.005
REMARK INTRA:                  -0.209
REMARK UNBOUND:                -0.294
REMARK SMILES O=c1c(O)c(-c2ccc(O)c(O)c2)oc2cc(O)cc(O)c12
REMARK SMILES IDX 5 1 3 2 2 3 1 4 22 5 20 6 19 7 17 8 16 9 15 10 14 11 6 12
REMARK SMILES IDX 7 13 8 14 9 15 13 16 11 17 10 18 12 20 4 22 21 24 18 26
REMARK H PARENT 10 19 12 21 4 23 21 25 18 27
REMARK Flexibility Score: inf
ROOT
ATOM      1  C   UNL     1     -14.981  14.957   9.544  1.00  0.00     0.180 A 
ATOM      2  C   UNL     1     -13.636  14.551   9.634  1.00  0.00     0.208 A 
ATOM      3  C   UNL     1     -13.081  14.319  10.903  1.00  0.00     0.238 A 
ATOM      4  O   UNL     1     -11.875  13.964  10.997  1.00  0.00    -0.285 OA
ATOM      5  C   UNL     1     -13.882  14.476  12.053  1.00  0.00     0.111 A 
ATOM      6  C   UNL     1     -13.402  14.258  13.366  1.00  0.00     0.134 A 
ATOM      7  C   UNL     1     -14.265  14.428  14.460  1.00  0.00     0.093 A 
ATOM      8  C   UNL     1     -15.594  14.808  14.266  1.00  0.00     0.123 A 
ATOM      9  C   UNL     1     -16.075  15.026  12.970  1.00  0.00     0.094 A 
ATOM     10  C   UNL     1     -15.231  14.863  11.867  1.00  0.00     0.146 A 
ATOM     11  O   UNL     1     -15.711  15.080  10.649  1.00  0.00    -0.452 OA
ENDROOT
BRANCH   1  12
ATOM     12  C   UNL     1     -15.632  15.239   8.244  1.00  0.00     0.025 A 
ATOM     13  C   UNL     1     -15.230  16.322   7.443  1.00  0.00     0.016 A 
ATOM     14  C   UNL     1     -15.875  16.582   6.231  1.00  0.00     0.051 A 
ATOM     15  C   UNL     1     -16.938  15.775   5.807  1.00  0.00     0.157 A 
ATOM     16  C   UNL     1     -16.712  14.445   7.824  1.00  0.00     0.062 A 
ATOM     17  C   UNL     1     -17.361  14.703   6.612  1.00  0.00     0.158 A 
BRANCH  15  18
ATOM     18  O   UNL     1     -17.578  16.036   4.598  1.00  0.00    -0.504 OA
ATOM     19  H   UNL     1     -18.590  16.040   4.523  1.00  0.00     0.293 HD
ENDBRANCH  15  18
BRANCH  17  20
ATOM     20  O   UNL     1     -18.420  13.884   6.223  1.00  0.00    -0.504 OA
ATOM     21  H   UNL     1     -18.344  12.874   6.214  1.00  0.00     0.293 HD
ENDBRANCH  17  20
ENDBRANCH   1  12
BRANCH   2  22
ATOM     22  O   UNL     1     -12.878  14.354   8.477  1.00  0.00    -0.502 OA
ATOM     23  H   UNL     1     -11.906  14.629   8.411  1.00  0.00     0.293 HD
ENDBRANCH   2  22
BRANCH   6  24
ATOM     24  O   UNL     1     -12.078  13.877  13.594  1.00  0.00    -0.507 OA
ATOM     25  H   UNL     1     -11.686  13.038  13.182  1.00  0.00     0.293 HD
ENDBRANCH   6  24
BRANCH   8  26
ATOM     26  O   UNL     1     -16.431  14.968  15.369  1.00  0.00    -0.508 OA
ATOM     27  H   UNL     1     -17.245  14.382  15.505  1.00  0.00     0.293 HD
ENDBRANCH   8  26
TORSDOF 6
ENDMDL
