MODEL 1
REMARK VINA RESULT:    -5.592      0.000      0.000
REMARK INTER + INTRA:         -12.661
REMARK INTER:                 -10.169
REMARK INTRA:                  -2.493
REMARK UNBOUND:                -2.493
REMARK SMILES CCCCCCCCCCCCCCCC(=O)[O-]
REMARK SMILES IDX 9 1 10 2 11 3 12 4 13 5 14 6 15 7 16 8 17 9 18 10 8 11 7 12
REMARK SMILES IDX 6 13 5 14 4 15 3 16 2 17 1 18
REMARK H PARENT
REMARK Flexibility Score: inf
ROOT
ATOM      1  C   UNL     1      10.471  73.033  -5.884  1.00  0.00     0.000 C 
ENDROOT
BRANCH   1   2
ATOM      2  C   UNL     1      11.794  73.811  -5.848  1.00  0.00     0.000 C 
BRANCH   2   3
ATOM      3  C   UNL     1      12.957  72.898  -5.443  1.00  0.00     0.000 C 
BRANCH   3   4
ATOM      4  C   UNL     1      13.699  73.459  -4.220  1.00  0.00     0.000 C 
BRANCH   4   5
ATOM      5  C   UNL     1      13.971  74.973  -4.347  1.00  0.00     0.000 C 
BRANCH   5   6
ATOM      6  C   UNL     1      13.491  75.790  -3.135  1.00  0.00     0.006 C 
BRANCH   6   7
ATOM      7  C   UNL     1      12.935  77.164  -3.524  1.00  0.00     0.053 C 
BRANCH   7   8
ATOM      8  C   UNL     1      14.050  78.142  -3.724  1.00  0.00     0.041 C 
ATOM      9  O   UNL     1      14.690  78.583  -2.732  1.00  0.00    -0.550 OA
ATOM     10  O   UNL     1      14.416  78.528  -5.007  1.00  0.00    -0.550 OA
ENDBRANCH   7   8
ENDBRANCH   6   7
ENDBRANCH   5   6
ENDBRANCH   4   5
ENDBRANCH   3   4
ENDBRANCH   2   3
ENDBRANCH   1   2
BRANCH   1  11
ATOM     11  C   UNL     1      10.651  71.539  -5.571  1.00  0.00     0.000 C 
BRANCH  11  12
ATOM     12  C   UNL     1       9.831  71.088  -4.349  1.00  0.00    -0.000 C 
BRANCH  12  13
ATOM     13  C   UNL     1      10.608  71.241  -3.031  1.00  0.00    -0.000 C 
BRANCH  13  14
ATOM     14  C   UNL     1       9.946  72.243  -2.070  1.00  0.00    -0.000 C 
BRANCH  14  15
ATOM     15  C   UNL     1      10.747  73.549  -1.927  1.00  0.00    -0.000 C 
BRANCH  15  16
ATOM     16  C   UNL     1      10.095  74.757  -2.631  1.00  0.00    -0.000 C 
BRANCH  16  17
ATOM     17  C   UNL     1       8.561  74.678  -2.619  1.00  0.00    -0.003 C 
ATOM     18  C   UNL     1       7.980  75.016  -3.988  1.00  0.00     0.004 C 
ENDBRANCH  16  17
ENDBRANCH  15  16
ENDBRANCH  14  15
ENDBRANCH  13  14
ENDBRANCH  12  13
ENDBRANCH  11  12
ENDBRANCH   1  11
TORSDOF 14
ENDMDL
MODEL 2
REMARK VINA RESULT:    -5.545      4.027      6.152
REMARK INTER + INTRA:         -12.576
REMARK INTER:                 -10.768
REMARK INTRA:                  -1.808
REMARK UNBOUND:                -2.493
REMARK SMILES CCCCCCCCCCCCCCCC(=O)[O-]
REMARK SMILES IDX 9 1 10 2 11 3 12 4 13 5 14 6 15 7 16 8 17 9 18 10 8 11 7 12
REMARK SMILES IDX 6 13 5 14 4 15 3 16 2 17 1 18
REMARK H PARENT
REMARK Flexibility Score: inf
ROOT
ATOM      1  C   UNL     1      10.379  72.171  -1.953  1.00  0.00     0.000 C 
ENDROOT
BRANCH   1   2
ATOM      2  C   UNL     1       9.636  73.387  -2.529  1.00  0.00     0.000 C 
BRANCH   2   3
ATOM      3  C   UNL     1      10.486  74.657  -2.405  1.00  0.00     0.000 C 
BRANCH   3   4
ATOM      4  C   UNL     1       9.688  75.792  -1.744  1.00  0.00     0.000 C 
BRANCH   4   5
ATOM      5  C   UNL     1       9.381  75.502  -0.260  1.00  0.00     0.000 C 
BRANCH   5   6
ATOM      6  C   UNL     1       7.889  75.623   0.097  1.00  0.00     0.006 C 
BRANCH   6   7
ATOM      7  C   UNL     1       6.980  74.865  -0.877  1.00  0.00     0.053 C 
BRANCH   7   8
ATOM      8  C   UNL     1       5.569  74.859  -0.378  1.00  0.00     0.041 C 
ATOM      9  O   UNL     1       5.313  75.219   0.802  1.00  0.00    -0.550 OA
ATOM     10  O   UNL     1       4.531  74.506  -1.231  1.00  0.00    -0.550 OA
ENDBRANCH   7   8
ENDBRANCH   6   7
ENDBRANCH   5   6
ENDBRANCH   4   5
ENDBRANCH   3   4
ENDBRANCH   2   3
ENDBRANCH   1   2
BRANCH   1  11
ATOM     11  C   UNL     1      10.745  71.134  -3.027  1.00  0.00     0.000 C 
BRANCH  11  12
ATOM     12  C   UNL     1       9.827  71.212  -4.261  1.00  0.00    -0.000 C 
BRANCH  12  13
ATOM     13  C   UNL     1      10.599  71.544  -5.548  1.00  0.00    -0.000 C 
BRANCH  13  14
ATOM     14  C   UNL     1      10.500  73.031  -5.928  1.00  0.00    -0.000 C 
BRANCH  14  15
ATOM     15  C   UNL     1      11.873  73.721  -5.998  1.00  0.00    -0.000 C 
BRANCH  15  16
ATOM     16  C   UNL     1      12.998  72.939  -5.289  1.00  0.00    -0.000 C 
BRANCH  16  17
ATOM     17  C   UNL     1      13.545  73.690  -4.066  1.00  0.00    -0.003 C 
ATOM     18  C   UNL     1      14.521  72.823  -3.277  1.00  0.00     0.004 C 
ENDBRANCH  16  17
ENDBRANCH  15  16
ENDBRANCH  14  15
ENDBRANCH  13  14
ENDBRANCH  12  13
ENDBRANCH  11  12
ENDBRANCH   1  11
TORSDOF 14
ENDMDL
MODEL 3
REMARK VINA RESULT:    -5.492      1.872      3.945
REMARK INTER + INTRA:         -12.479
REMARK INTER:                  -9.927
REMARK INTRA:                  -2.552
REMARK UNBOUND:                -2.493
REMARK SMILES CCCCCCCCCCCCCCCC(=O)[O-]
REMARK SMILES IDX 9 1 10 2 11 3 12 4 13 5 14 6 15 7 16 8 17 9 18 10 8 11 7 12
REMARK SMILES IDX 6 13 5 14 4 15 3 16 2 17 1 18
REMARK H PARENT
REMARK Flexibility Score: inf
ROOT
ATOM      1  C   UNL     1      10.202  72.044  -1.867  1.00  0.00     0.000 C 
ENDROOT
BRANCH   1   2
ATOM      2  C   UNL     1       9.517  73.317  -2.385  1.00  0.00     0.000 C 
BRANCH   2   3
ATOM      3  C   UNL     1      10.342  74.563  -2.040  1.00  0.00     0.000 C 
BRANCH   3   4
ATOM      4  C   UNL     1      10.376  75.547  -3.220  1.00  0.00     0.000 C 
BRANCH   4   5
ATOM      5  C   UNL     1      11.024  76.894  -2.837  1.00  0.00     0.000 C 
BRANCH   5   6
ATOM      6  C   UNL     1      12.510  76.995  -3.221  1.00  0.00     0.006 C 
BRANCH   6   7
ATOM      7  C   UNL     1      13.370  77.627  -2.120  1.00  0.00     0.053 C 
BRANCH   7   8
ATOM      8  C   UNL     1      13.036  77.030  -0.789  1.00  0.00     0.041 C 
ATOM      9  O   UNL     1      12.453  77.723   0.087  1.00  0.00    -0.550 OA
ATOM     10  O   UNL     1      13.323  75.695  -0.534  1.00  0.00    -0.550 OA
ENDBRANCH   7   8
ENDBRANCH   6   7
ENDBRANCH   5   6
ENDBRANCH   4   5
ENDBRANCH   3   4
ENDBRANCH   2   3
ENDBRANCH   1   2
BRANCH   1  11
ATOM     11  C   UNL     1      10.661  71.112  -3.000  1.00  0.00     0.000 C 
BRANCH  11  12
ATOM     12  C   UNL     1       9.831  71.290  -4.284  1.00  0.00    -0.000 C 
BRANCH  12  13
ATOM     13  C   UNL     1      10.707  71.565  -5.518  1.00  0.00    -0.000 C 
BRANCH  13  14
ATOM     14  C   UNL     1      10.715  73.051  -5.914  1.00  0.00    -0.000 C 
BRANCH  14  15
ATOM     15  C   UNL     1      12.121  73.673  -5.866  1.00  0.00    -0.000 C 
BRANCH  15  16
ATOM     16  C   UNL     1      13.121  72.882  -4.998  1.00  0.00    -0.000 C 
BRANCH  16  17
ATOM     17  C   UNL     1      13.588  73.684  -3.774  1.00  0.00    -0.003 C 
ATOM     18  C   UNL     1      13.918  72.762  -2.603  1.00  0.00     0.004 C 
ENDBRANCH  16  17
ENDBRANCH  15  16
ENDBRANCH  14  15
ENDBRANCH  13  14
ENDBRANCH  12  13
ENDBRANCH  11  12
ENDBRANCH   1  11
TORSDOF 14
ENDMDL
MODEL 4
REMARK VINA RESULT:    -5.408      3.800      5.980
REMARK INTER + INTRA:         -12.328
REMARK INTER:                 -10.341
REMARK INTRA:                  -1.986
REMARK UNBOUND:                -2.493
REMARK SMILES CCCCCCCCCCCCCCCC(=O)[O-]
REMARK SMILES IDX 9 1 10 2 11 3 12 4 13 5 14 6 15 7 16 8 17 9 18 10 8 11 7 12
REMARK SMILES IDX 6 13 5 14 4 15 3 16 2 17 1 18
REMARK H PARENT
REMARK Flexibility Score: inf
ROOT
ATOM      1  C   UNL     1       9.882  71.374  -4.388  1.00  0.00     0.000 C 
ENDROOT
BRANCH   1   2
ATOM      2  C   UNL     1      10.613  71.082  -3.069  1.00  0.00     0.000 C 
BRANCH   2   3
ATOM      3  C   UNL     1      10.052  71.941  -1.929  1.00  0.00     0.000 C 
BRANCH   3   4
ATOM      4  C   UNL     1       9.511  73.278  -2.461  1.00  0.00     0.000 C 
BRANCH   4   5
ATOM      5  C   UNL     1       9.410  74.348  -1.353  1.00  0.00     0.000 C 
BRANCH   5   6
ATOM      6  C   UNL     1       8.135  75.204  -1.437  1.00  0.00     0.006 C 
BRANCH   6   7
ATOM      7  C   UNL     1       7.550  75.540  -0.060  1.00  0.00     0.053 C 
BRANCH   7   8
ATOM      8  C   UNL     1       6.175  74.967   0.078  1.00  0.00     0.041 C 
ATOM      9  O   UNL     1       5.606  74.440  -0.914  1.00  0.00    -0.550 OA
ATOM     10  O   UNL     1       5.543  74.967   1.315  1.00  0.00    -0.550 OA
ENDBRANCH   7   8
ENDBRANCH   6   7
ENDBRANCH   5   6
ENDBRANCH   4   5
ENDBRANCH   3   4
ENDBRANCH   2   3
ENDBRANCH   1   2
BRANCH   1  11
ATOM     11  C   UNL     1      10.844  71.709  -5.539  1.00  0.00     0.000 C 
BRANCH  11  12
ATOM     12  C   UNL     1      10.888  73.215  -5.853  1.00  0.00    -0.000 C 
BRANCH  12  13
ATOM     13  C   UNL     1      12.255  73.843  -5.535  1.00  0.00    -0.000 C 
BRANCH  13  14
ATOM     14  C   UNL     1      12.177  74.883  -4.405  1.00  0.00    -0.000 C 
BRANCH  14  15
ATOM     15  C   UNL     1      13.401  74.843  -3.473  1.00  0.00    -0.000 C 
BRANCH  15  16
ATOM     16  C   UNL     1      13.210  73.944  -2.234  1.00  0.00    -0.000 C 
BRANCH  16  17
ATOM     17  C   UNL     1      13.932  72.597  -2.377  1.00  0.00    -0.003 C 
ATOM     18  C   UNL     1      15.124  72.708  -3.323  1.00  0.00     0.004 C 
ENDBRANCH  16  17
ENDBRANCH  15  16
ENDBRANCH  14  15
ENDBRANCH  13  14
ENDBRANCH  12  13
ENDBRANCH  11  12
ENDBRANCH   1  11
TORSDOF 14
ENDMDL
MODEL 5
REMARK VINA RESULT:    -5.370      2.322      4.346
REMARK INTER + INTRA:         -12.258
REMARK INTER:                  -9.922
REMARK INTRA:                  -2.336
REMARK UNBOUND:                -2.493
REMARK SMILES CCCCCCCCCCCCCCCC(=O)[O-]
REMARK SMILES IDX 9 1 10 2 11 3 12 4 13 5 14 6 15 7 16 8 17 9 18 10 8 11 7 12
REMARK SMILES IDX 6 13 5 14 4 15 3 16 2 17 1 18
REMARK H PARENT
REMARK Flexibility Score: inf
ROOT
ATOM      1  C   UNL     1      10.080  72.845  -5.898  1.00  0.00     0.000 C 
ENDROOT
BRANCH   1   2
ATOM      2  C   UNL     1      10.513  71.440  -5.450  1.00  0.00     0.000 C 
BRANCH   2   3
ATOM      3  C   UNL     1       9.885  71.078  -4.099  1.00  0.00     0.000 C 
BRANCH   3   4
ATOM      4  C   UNL     1      10.862  71.351  -2.945  1.00  0.00     0.000 C 
BRANCH   4   5
ATOM      5  C   UNL     1      10.280  72.336  -1.909  1.00  0.00     0.000 C 
BRANCH   5   6
ATOM      6  C   UNL     1       9.306  73.362  -2.513  1.00  0.00     0.006 C 
BRANCH   6   7
ATOM      7  C   UNL     1       9.463  74.761  -1.908  1.00  0.00     0.053 C 
BRANCH   7   8
ATOM      8  C   UNL     1       9.474  75.799  -2.986  1.00  0.00     0.041 C 
ATOM      9  O   UNL     1      10.538  76.415  -3.260  1.00  0.00    -0.550 OA
ATOM     10  O   UNL     1       8.323  76.050  -3.722  1.00  0.00    -0.550 OA
ENDBRANCH   7   8
ENDBRANCH   6   7
ENDBRANCH   5   6
ENDBRANCH   4   5
ENDBRANCH   3   4
ENDBRANCH   2   3
ENDBRANCH   1   2
BRANCH   1  11
ATOM     11  C   UNL     1      11.245  73.848  -5.919  1.00  0.00     0.000 C 
BRANCH  11  12
ATOM     12  C   UNL     1      12.609  73.174  -5.683  1.00  0.00    -0.000 C 
BRANCH  12  13
ATOM     13  C   UNL     1      13.471  73.934  -4.661  1.00  0.00    -0.000 C 
BRANCH  13  14
ATOM     14  C   UNL     1      14.147  72.995  -3.648  1.00  0.00    -0.000 C 
BRANCH  14  15
ATOM     15  C   UNL     1      13.769  73.317  -2.192  1.00  0.00    -0.000 C 
BRANCH  15  16
ATOM     16  C   UNL     1      13.165  74.725  -2.005  1.00  0.00    -0.000 C 
BRANCH  16  17
ATOM     17  C   UNL     1      13.180  75.172  -0.536  1.00  0.00    -0.003 C 
ATOM     18  C   UNL     1      12.455  76.502  -0.356  1.00  0.00     0.004 C 
ENDBRANCH  16  17
ENDBRANCH  15  16
ENDBRANCH  14  15
ENDBRANCH  13  14
ENDBRANCH  12  13
ENDBRANCH  11  12
ENDBRANCH   1  11
TORSDOF 14
ENDMDL
MODEL 6
REMARK VINA RESULT:    -5.360      1.233      2.656
REMARK INTER + INTRA:         -12.239
REMARK INTER:                  -9.959
REMARK INTRA:                  -2.280
REMARK UNBOUND:                -2.493
REMARK SMILES CCCCCCCCCCCCCCCC(=O)[O-]
REMARK SMILES IDX 9 1 10 2 11 3 12 4 13 5 14 6 15 7 16 8 17 9 18 10 8 11 7 12
REMARK SMILES IDX 6 13 5 14 4 15 3 16 2 17 1 18
REMARK H PARENT
REMARK Flexibility Score: inf
ROOT
ATOM      1  C   UNL     1      10.523  72.357  -2.244  1.00  0.00     0.000 C 
ENDROOT
BRANCH   1   2
ATOM      2  C   UNL     1      11.799  73.209  -2.317  1.00  0.00     0.000 C 
BRANCH   2   3
ATOM      3  C   UNL     1      13.038  72.324  -2.502  1.00  0.00     0.000 C 
BRANCH   3   4
ATOM      4  C   UNL     1      14.108  73.041  -3.341  1.00  0.00     0.000 C 
BRANCH   4   5
ATOM      5  C   UNL     1      13.487  73.975  -4.402  1.00  0.00     0.000 C 
BRANCH   5   6
ATOM      6  C   UNL     1      14.064  75.401  -4.381  1.00  0.00     0.006 C 
BRANCH   6   7
ATOM      7  C   UNL     1      13.062  76.443  -3.873  1.00  0.00     0.053 C 
BRANCH   7   8
ATOM      8  C   UNL     1      13.504  76.996  -2.555  1.00  0.00     0.041 C 
ATOM      9  O   UNL     1      14.292  77.977  -2.512  1.00  0.00    -0.550 OA
ATOM     10  O   UNL     1      13.006  76.460  -1.374  1.00  0.00    -0.550 OA
ENDBRANCH   7   8
ENDBRANCH   6   7
ENDBRANCH   5   6
ENDBRANCH   4   5
ENDBRANCH   3   4
ENDBRANCH   2   3
ENDBRANCH   1   2
BRANCH   1  11
ATOM     11  C   UNL     1      10.627  71.058  -3.059  1.00  0.00     0.000 C 
BRANCH  11  12
ATOM     12  C   UNL     1       9.901  71.150  -4.413  1.00  0.00    -0.000 C 
BRANCH  12  13
ATOM     13  C   UNL     1      10.810  71.680  -5.534  1.00  0.00    -0.000 C 
BRANCH  13  14
ATOM     14  C   UNL     1      10.459  73.120  -5.945  1.00  0.00    -0.000 C 
BRANCH  14  15
ATOM     15  C   UNL     1       8.942  73.378  -5.976  1.00  0.00    -0.000 C 
BRANCH  15  16
ATOM     16  C   UNL     1       8.529  74.720  -5.336  1.00  0.00    -0.000 C 
BRANCH  16  17
ATOM     17  C   UNL     1       8.671  74.703  -3.807  1.00  0.00    -0.003 C 
ATOM     18  C   UNL     1       9.454  75.915  -3.312  1.00  0.00     0.004 C 
ENDBRANCH  16  17
ENDBRANCH  15  16
ENDBRANCH  14  15
ENDBRANCH  13  14
ENDBRANCH  12  13
ENDBRANCH  11  12
ENDBRANCH   1  11
TORSDOF 14
ENDMDL
MODEL 7
REMARK VINA RESULT:    -5.358      1.406      2.092
REMARK INTER + INTRA:         -12.236
REMARK INTER:                  -9.639
REMARK INTRA:                  -2.597
REMARK UNBOUND:                -2.493
REMARK SMILES CCCCCCCCCCCCCCCC(=O)[O-]
REMARK SMILES IDX 9 1 10 2 11 3 12 4 13 5 14 6 15 7 16 8 17 9 18 10 8 11 7 12
REMARK SMILES IDX 6 13 5 14 4 15 3 16 2 17 1 18
REMARK H PARENT
REMARK Flexibility Score: inf
ROOT
ATOM      1  C   UNL     1      10.631  71.500  -5.347  1.00  0.00     0.000 C 
ENDROOT
BRANCH   1   2
ATOM      2  C   UNL     1      10.350  72.902  -5.908  1.00  0.00     0.000 C 
BRANCH   2   3
ATOM      3  C   UNL     1      11.623  73.756  -5.914  1.00  0.00     0.000 C 
BRANCH   3   4
ATOM      4  C   UNL     1      12.825  72.957  -5.386  1.00  0.00     0.000 C 
BRANCH   4   5
ATOM      5  C   UNL     1      13.660  73.764  -4.369  1.00  0.00     0.000 C 
BRANCH   5   6
ATOM      6  C   UNL     1      12.913  74.972  -3.778  1.00  0.00     0.006 C 
BRANCH   6   7
ATOM      7  C   UNL     1      12.877  74.959  -2.245  1.00  0.00     0.053 C 
BRANCH   7   8
ATOM      8  C   UNL     1      12.957  76.354  -1.709  1.00  0.00     0.041 C 
ATOM      9  O   UNL     1      13.650  77.222  -2.303  1.00  0.00    -0.550 OA
ATOM     10  O   UNL     1      12.226  76.709  -0.583  1.00  0.00    -0.550 OA
ENDBRANCH   7   8
ENDBRANCH   6   7
ENDBRANCH   5   6
ENDBRANCH   4   5
ENDBRANCH   3   4
ENDBRANCH   2   3
ENDBRANCH   1   2
BRANCH   1  11
ATOM     11  C   UNL     1       9.849  71.208  -4.056  1.00  0.00     0.000 C 
BRANCH  11  12
ATOM     12  C   UNL     1      10.760  71.130  -2.818  1.00  0.00    -0.000 C 
BRANCH  12  13
ATOM     13  C   UNL     1      10.494  72.267  -1.818  1.00  0.00    -0.000 C 
BRANCH  13  14
ATOM     14  C   UNL     1       9.451  73.273  -2.334  1.00  0.00    -0.000 C 
BRANCH  14  15
ATOM     15  C   UNL     1       9.269  74.477  -1.395  1.00  0.00    -0.000 C 
BRANCH  15  16
ATOM     16  C   UNL     1       9.095  75.820  -2.134  1.00  0.00    -0.000 C 
BRANCH  16  17
ATOM     17  C   UNL     1       9.259  75.671  -3.654  1.00  0.00    -0.003 C 
ATOM     18  C   UNL     1       7.936  75.904  -4.377  1.00  0.00     0.004 C 
ENDBRANCH  16  17
ENDBRANCH  15  16
ENDBRANCH  14  15
ENDBRANCH  13  14
ENDBRANCH  12  13
ENDBRANCH  11  12
ENDBRANCH   1  11
TORSDOF 14
ENDMDL
MODEL 8
REMARK VINA RESULT:    -5.314      3.028      5.396
REMARK INTER + INTRA:         -12.157
REMARK INTER:                  -9.972
REMARK INTRA:                  -2.185
REMARK UNBOUND:                -2.493
REMARK SMILES CCCCCCCCCCCCCCCC(=O)[O-]
REMARK SMILES IDX 9 1 10 2 11 3 12 4 13 5 14 6 15 7 16 8 17 9 18 10 8 11 7 12
REMARK SMILES IDX 6 13 5 14 4 15 3 16 2 17 1 18
REMARK H PARENT
REMARK Flexibility Score: inf
ROOT
ATOM      1  C   UNL     1      13.369  73.417  -2.284  1.00  0.00     0.000 C 
ENDROOT
BRANCH   1   2
ATOM      2  C   UNL     1      12.857  74.865  -2.321  1.00  0.00     0.000 C 
BRANCH   2   3
ATOM      3  C   UNL     1      11.406  74.946  -1.832  1.00  0.00     0.000 C 
BRANCH   3   4
ATOM      4  C   UNL     1      10.519  75.672  -2.854  1.00  0.00     0.000 C 
BRANCH   4   5
ATOM      5  C   UNL     1       9.169  74.954  -3.070  1.00  0.00     0.000 C 
BRANCH   5   6
ATOM      6  C   UNL     1       8.611  74.296  -1.797  1.00  0.00     0.006 C 
BRANCH   6   7
ATOM      7  C   UNL     1       7.327  74.965  -1.292  1.00  0.00     0.053 C 
BRANCH   7   8
ATOM      8  C   UNL     1       7.571  75.642   0.019  1.00  0.00     0.041 C 
ATOM      9  O   UNL     1       8.748  75.828   0.427  1.00  0.00    -0.550 OA
ATOM     10  O   UNL     1       6.500  76.114   0.767  1.00  0.00    -0.550 OA
ENDBRANCH   7   8
ENDBRANCH   6   7
ENDBRANCH   5   6
ENDBRANCH   4   5
ENDBRANCH   3   4
ENDBRANCH   2   3
ENDBRANCH   1   2
BRANCH   1  11
ATOM     11  C   UNL     1      13.799  72.903  -3.667  1.00  0.00     0.000 C 
BRANCH  11  12
ATOM     12  C   UNL     1      13.270  73.781  -4.815  1.00  0.00    -0.000 C 
BRANCH  12  13
ATOM     13  C   UNL     1      12.463  72.977  -5.847  1.00  0.00    -0.000 C 
BRANCH  13  14
ATOM     14  C   UNL     1      10.952  73.002  -5.563  1.00  0.00    -0.000 C 
BRANCH  14  15
ATOM     15  C   UNL     1      10.279  71.640  -5.800  1.00  0.00    -0.000 C 
BRANCH  15  16
ATOM     16  C   UNL     1       9.876  70.912  -4.500  1.00  0.00    -0.000 C 
BRANCH  16  17
ATOM     17  C   UNL     1      10.272  71.703  -3.245  1.00  0.00    -0.003 C 
ATOM     18  C   UNL     1      10.577  70.769  -2.078  1.00  0.00     0.004 C 
ENDBRANCH  16  17
ENDBRANCH  15  16
ENDBRANCH  14  15
ENDBRANCH  13  14
ENDBRANCH  12  13
ENDBRANCH  11  12
ENDBRANCH   1  11
TORSDOF 14
ENDMDL
MODEL 9
REMARK VINA RESULT:    -5.289      2.701      4.758
REMARK INTER + INTRA:         -12.111
REMARK INTER:                  -9.810
REMARK INTRA:                  -2.301
REMARK UNBOUND:                -2.493
REMARK SMILES CCCCCCCCCCCCCCCC(=O)[O-]
REMARK SMILES IDX 9 1 10 2 11 3 12 4 13 5 14 6 15 7 16 8 17 9 18 10 8 11 7 12
REMARK SMILES IDX 6 13 5 14 4 15 3 16 2 17 1 18
REMARK H PARENT
REMARK Flexibility Score: inf
ROOT
ATOM      1  C   UNL     1      10.052  71.615  -2.003  1.00  0.00     0.000 C 
ENDROOT
BRANCH   1   2
ATOM      2  C   UNL     1      10.407  73.072  -1.672  1.00  0.00     0.000 C 
BRANCH   2   3
ATOM      3  C   UNL     1       9.157  73.960  -1.700  1.00  0.00     0.000 C 
BRANCH   3   4
ATOM      4  C   UNL     1       8.947  74.573  -3.093  1.00  0.00     0.000 C 
BRANCH   4   5
ATOM      5  C   UNL     1       9.847  75.804  -3.331  1.00  0.00     0.000 C 
BRANCH   5   6
ATOM      6  C   UNL     1       9.270  77.109  -2.756  1.00  0.00     0.006 C 
BRANCH   6   7
ATOM      7  C   UNL     1      10.160  77.727  -1.671  1.00  0.00     0.053 C 
BRANCH   7   8
ATOM      8  C   UNL     1       9.612  77.428  -0.311  1.00  0.00     0.041 C 
ATOM      9  O   UNL     1       8.530  77.952   0.064  1.00  0.00    -0.550 OA
ATOM     10  O   UNL     1      10.269  76.531   0.521  1.00  0.00    -0.550 OA
ENDBRANCH   7   8
ENDBRANCH   6   7
ENDBRANCH   5   6
ENDBRANCH   4   5
ENDBRANCH   3   4
ENDBRANCH   2   3
ENDBRANCH   1   2
BRANCH   1  11
ATOM     11  C   UNL     1      10.757  71.103  -3.269  1.00  0.00     0.000 C 
BRANCH  11  12
ATOM     12  C   UNL     1       9.864  71.196  -4.520  1.00  0.00    -0.000 C 
BRANCH  12  13
ATOM     13  C   UNL     1      10.635  71.682  -5.758  1.00  0.00    -0.000 C 
BRANCH  13  14
ATOM     14  C   UNL     1      10.814  73.209  -5.778  1.00  0.00    -0.000 C 
BRANCH  14  15
ATOM     15  C   UNL     1      12.291  73.637  -5.805  1.00  0.00    -0.000 C 
BRANCH  15  16
ATOM     16  C   UNL     1      12.874  73.942  -4.409  1.00  0.00    -0.000 C 
BRANCH  16  17
ATOM     17  C   UNL     1      13.974  72.947  -4.008  1.00  0.00    -0.003 C 
ATOM     18  C   UNL     1      14.061  72.802  -2.492  1.00  0.00     0.004 C 
ENDBRANCH  16  17
ENDBRANCH  15  16
ENDBRANCH  14  15
ENDBRANCH  13  14
ENDBRANCH  12  13
ENDBRANCH  11  12
ENDBRANCH   1  11
TORSDOF 14
ENDMDL
