MODEL 1
REMARK VINA RESULT:    -6.429      0.000      0.000
REMARK INTER + INTRA:          -6.804
REMARK INTER:                  -6.804
REMARK INTRA:                   0.000
REMARK UNBOUND:                 0.000
REMARK SMILES O=c1ccc2cc(O)c(O)cc2o1
REMARK SMILES IDX 4 1 3 2 2 3 1 4 13 5 12 6 11 7 9 8 7 9 6 10 5 11 8 12 10 14
REMARK H PARENT 8 13 10 15
REMARK Flexibility Score: inf
ROOT
ATOM      1  C   UNL     1     -36.407  -7.330 -13.394  1.00  0.00     0.019 A 
ATOM      2  C   UNL     1     -35.858  -6.049 -13.395  1.00  0.00     0.094 A 
ATOM      3  C   UNL     1     -36.715  -4.943 -13.400  1.00  0.00     0.336 A 
ATOM      4  O   UNL     1     -36.237  -3.778 -13.402  1.00  0.00    -0.246 OA
ATOM      5  O   UNL     1     -38.034  -5.114 -13.405  1.00  0.00    -0.423 OA
ATOM      6  C   UNL     1     -38.600  -6.319 -13.404  1.00  0.00     0.142 A 
ATOM      7  C   UNL     1     -39.994  -6.436 -13.408  1.00  0.00     0.098 A 
ATOM      8  C   UNL     1     -40.596  -7.700 -13.407  1.00  0.00     0.161 A 
ATOM      9  C   UNL     1     -39.799  -8.859 -13.401  1.00  0.00     0.158 A 
ATOM     10  C   UNL     1     -38.401  -8.745 -13.397  1.00  0.00     0.062 A 
ATOM     11  C   UNL     1     -37.798  -7.480 -13.398  1.00  0.00     0.022 A 
ENDROOT
BRANCH   9  12
ATOM     12  O   UNL     1     -40.398 -10.117 -13.400  1.00  0.00    -0.504 OA
ATOM     13  H   UNL     1     -41.225 -10.313 -13.953  1.00  0.00     0.293 HD
ENDBRANCH   9  12
BRANCH   8  14
ATOM     14  O   UNL     1     -41.988  -7.784 -13.411  1.00  0.00    -0.504 OA
ATOM     15  H   UNL     1     -42.519  -7.967 -12.568  1.00  0.00     0.293 HD
ENDBRANCH   8  14
TORSDOF 2
ENDMDL
MODEL 2
REMARK VINA RESULT:    -6.060      6.531      9.184
REMARK INTER + INTRA:          -6.414
REMARK INTER:                  -6.414
REMARK INTRA:                   0.000
REMARK UNBOUND:                 0.000
REMARK SMILES O=c1ccc2cc(O)c(O)cc2o1
REMARK SMILES IDX 4 1 3 2 2 3 1 4 13 5 12 6 11 7 9 8 7 9 6 10 5 11 8 12 10 14
REMARK H PARENT 8 13 10 15
REMARK Flexibility Score: inf
ROOT
ATOM      1  C   UNL     1     -32.103  -4.157 -16.278  1.00  0.00     0.019 A 
ATOM      2  C   UNL     1     -33.243  -4.564 -15.585  1.00  0.00     0.094 A 
ATOM      3  C   UNL     1     -34.497  -4.390 -16.180  1.00  0.00     0.336 A 
ATOM      4  O   UNL     1     -35.537  -4.751 -15.570  1.00  0.00    -0.246 OA
ATOM      5  O   UNL     1     -34.599  -3.843 -17.389  1.00  0.00    -0.423 OA
ATOM      6  C   UNL     1     -33.538  -3.441 -18.084  1.00  0.00     0.142 A 
ATOM      7  C   UNL     1     -33.706  -2.874 -19.351  1.00  0.00     0.098 A 
ATOM      8  C   UNL     1     -32.595  -2.448 -20.088  1.00  0.00     0.161 A 
ATOM      9  C   UNL     1     -31.301  -2.591 -19.556  1.00  0.00     0.158 A 
ATOM     10  C   UNL     1     -31.127  -3.160 -18.285  1.00  0.00     0.062 A 
ATOM     11  C   UNL     1     -32.240  -3.585 -17.547  1.00  0.00     0.022 A 
ENDROOT
BRANCH   9  12
ATOM     12  O   UNL     1     -30.194  -2.168 -20.289  1.00  0.00    -0.504 OA
ATOM     13  H   UNL     1     -30.184  -1.275 -20.767  1.00  0.00     0.293 HD
ENDBRANCH   9  12
BRANCH   8  14
ATOM     14  O   UNL     1     -32.796  -1.886 -21.349  1.00  0.00    -0.504 OA
ATOM     15  H   UNL     1     -32.798  -2.445 -22.194  1.00  0.00     0.293 HD
ENDBRANCH   8  14
TORSDOF 2
ENDMDL
MODEL 3
REMARK VINA RESULT:    -5.975      7.182     10.013
REMARK INTER + INTRA:          -6.324
REMARK INTER:                  -6.324
REMARK INTRA:                   0.000
REMARK UNBOUND:                 0.000
REMARK SMILES O=c1ccc2cc(O)c(O)cc2o1
REMARK SMILES IDX 4 1 3 2 2 3 1 4 13 5 12 6 11 7 9 8 7 9 6 10 5 11 8 12 10 14
REMARK H PARENT 8 13 10 15
REMARK Flexibility Score: inf
ROOT
ATOM      1  C   UNL     1     -34.391  -3.301 -18.493  1.00  0.00     0.019 A 
ATOM      2  C   UNL     1     -34.715  -3.801 -17.232  1.00  0.00     0.094 A 
ATOM      3  C   UNL     1     -33.684  -4.107 -16.338  1.00  0.00     0.336 A 
ATOM      4  O   UNL     1     -33.957  -4.559 -15.195  1.00  0.00    -0.246 OA
ATOM      5  O   UNL     1     -32.413  -3.925 -16.688  1.00  0.00    -0.423 OA
ATOM      6  C   UNL     1     -32.060  -3.451 -17.880  1.00  0.00     0.142 A 
ATOM      7  C   UNL     1     -30.708  -3.279 -18.192  1.00  0.00     0.098 A 
ATOM      8  C   UNL     1     -30.328  -2.782 -19.444  1.00  0.00     0.161 A 
ATOM      9  C   UNL     1     -31.310  -2.450 -20.395  1.00  0.00     0.158 A 
ATOM     10  C   UNL     1     -32.668  -2.621 -20.087  1.00  0.00     0.062 A 
ATOM     11  C   UNL     1     -33.047  -3.119 -18.833  1.00  0.00     0.022 A 
ENDROOT
BRANCH   9  12
ATOM     12  O   UNL     1     -30.933  -1.955 -21.642  1.00  0.00    -0.504 OA
ATOM     13  H   UNL     1     -30.254  -2.435 -22.222  1.00  0.00     0.293 HD
ENDBRANCH   9  12
BRANCH   8  14
ATOM     14  O   UNL     1     -28.972  -2.622 -19.724  1.00  0.00    -0.504 OA
ATOM     15  H   UNL     1     -28.534  -1.710 -19.766  1.00  0.00     0.293 HD
ENDBRANCH   8  14
TORSDOF 2
ENDMDL
MODEL 4
REMARK VINA RESULT:    -5.962      1.138      4.551
REMARK INTER + INTRA:          -6.311
REMARK INTER:                  -6.311
REMARK INTRA:                   0.000
REMARK UNBOUND:                 0.000
REMARK SMILES O=c1ccc2cc(O)c(O)cc2o1
REMARK SMILES IDX 4 1 3 2 2 3 1 4 13 5 12 6 11 7 9 8 7 9 6 10 5 11 8 12 10 14
REMARK H PARENT 8 13 10 15
REMARK Flexibility Score: inf
ROOT
ATOM      1  C   UNL     1     -37.355  -8.672 -13.486  1.00  0.00     0.019 A 
ATOM      2  C   UNL     1     -38.590  -9.320 -13.505  1.00  0.00     0.094 A 
ATOM      3  C   UNL     1     -39.758  -8.560 -13.392  1.00  0.00     0.336 A 
ATOM      4  O   UNL     1     -40.881  -9.128 -13.407  1.00  0.00    -0.246 OA
ATOM      5  O   UNL     1     -39.690  -7.237 -13.266  1.00  0.00    -0.423 OA
ATOM      6  C   UNL     1     -38.534  -6.578 -13.243  1.00  0.00     0.142 A 
ATOM      7  C   UNL     1     -38.525  -5.186 -13.110  1.00  0.00     0.098 A 
ATOM      8  C   UNL     1     -37.313  -4.486 -13.084  1.00  0.00     0.161 A 
ATOM      9  C   UNL     1     -36.096  -5.183 -13.194  1.00  0.00     0.158 A 
ATOM     10  C   UNL     1     -36.101  -6.580 -13.328  1.00  0.00     0.062 A 
ATOM     11  C   UNL     1     -37.314  -7.280 -13.353  1.00  0.00     0.022 A 
ENDROOT
BRANCH   9  12
ATOM     12  O   UNL     1     -34.889  -4.487 -13.169  1.00  0.00    -0.504 OA
ATOM     13  H   UNL     1     -34.453  -4.149 -14.019  1.00  0.00     0.293 HD
ENDBRANCH   9  12
BRANCH   8  14
ATOM     14  O   UNL     1     -37.337  -3.098 -12.950  1.00  0.00    -0.504 OA
ATOM     15  H   UNL     1     -37.324  -2.643 -12.045  1.00  0.00     0.293 HD
ENDBRANCH   8  14
TORSDOF 2
ENDMDL
MODEL 5
REMARK VINA RESULT:    -5.869      0.866      1.019
REMARK INTER + INTRA:          -6.212
REMARK INTER:                  -6.212
REMARK INTRA:                   0.000
REMARK UNBOUND:                 0.000
REMARK SMILES O=c1ccc2cc(O)c(O)cc2o1
REMARK SMILES IDX 4 1 3 2 2 3 1 4 13 5 12 6 11 7 9 8 7 9 6 10 5 11 8 12 10 14
REMARK H PARENT 8 13 10 15
REMARK Flexibility Score: inf
ROOT
ATOM      1  C   UNL     1     -36.022  -6.188 -13.336  1.00  0.00     0.019 A 
ATOM      2  C   UNL     1     -35.922  -4.801 -13.434  1.00  0.00     0.094 A 
ATOM      3  C   UNL     1     -37.091  -4.042 -13.545  1.00  0.00     0.336 A 
ATOM      4  O   UNL     1     -37.020  -2.788 -13.635  1.00  0.00    -0.246 OA
ATOM      5  O   UNL     1     -38.281  -4.637 -13.557  1.00  0.00    -0.423 OA
ATOM      6  C   UNL     1     -38.423  -5.957 -13.465  1.00  0.00     0.142 A 
ATOM      7  C   UNL     1     -39.700  -6.526 -13.482  1.00  0.00     0.098 A 
ATOM      8  C   UNL     1     -39.857  -7.914 -13.386  1.00  0.00     0.161 A 
ATOM      9  C   UNL     1     -38.726  -8.743 -13.271  1.00  0.00     0.158 A 
ATOM     10  C   UNL     1     -37.443  -8.176 -13.254  1.00  0.00     0.062 A 
ATOM     11  C   UNL     1     -37.287  -6.787 -13.350  1.00  0.00     0.022 A 
ENDROOT
BRANCH   9  12
ATOM     12  O   UNL     1     -38.881 -10.124 -13.176  1.00  0.00    -0.504 OA
ATOM     13  H   UNL     1     -39.691 -10.596 -13.563  1.00  0.00     0.293 HD
ENDBRANCH   9  12
BRANCH   8  14
ATOM     14  O   UNL     1     -41.144  -8.451 -13.406  1.00  0.00    -0.504 OA
ATOM     15  H   UNL     1     -41.667  -8.626 -12.556  1.00  0.00     0.293 HD
ENDBRANCH   8  14
TORSDOF 2
ENDMDL
MODEL 6
REMARK VINA RESULT:    -5.853      6.502      8.579
REMARK INTER + INTRA:          -6.195
REMARK INTER:                  -6.195
REMARK INTRA:                   0.000
REMARK UNBOUND:                 0.000
REMARK SMILES O=c1ccc2cc(O)c(O)cc2o1
REMARK SMILES IDX 4 1 3 2 2 3 1 4 13 5 12 6 11 7 9 8 7 9 6 10 5 11 8 12 10 14
REMARK H PARENT 8 13 10 15
REMARK Flexibility Score: inf
ROOT
ATOM      1  C   UNL     1     -34.653  -5.546 -17.274  1.00  0.00     0.019 A 
ATOM      2  C   UNL     1     -35.720  -4.842 -17.832  1.00  0.00     0.094 A 
ATOM      3  C   UNL     1     -35.479  -3.590 -18.407  1.00  0.00     0.336 A 
ATOM      4  O   UNL     1     -36.429  -2.940 -18.916  1.00  0.00    -0.246 OA
ATOM      5  O   UNL     1     -34.250  -3.080 -18.420  1.00  0.00    -0.423 OA
ATOM      6  C   UNL     1     -33.204  -3.718 -17.899  1.00  0.00     0.142 A 
ATOM      7  C   UNL     1     -31.935  -3.133 -17.942  1.00  0.00     0.098 A 
ATOM      8  C   UNL     1     -30.831  -3.797 -17.396  1.00  0.00     0.161 A 
ATOM      9  C   UNL     1     -30.995  -5.061 -16.801  1.00  0.00     0.158 A 
ATOM     10  C   UNL     1     -32.267  -5.652 -16.755  1.00  0.00     0.062 A 
ATOM     11  C   UNL     1     -33.372  -4.986 -17.302  1.00  0.00     0.022 A 
ENDROOT
BRANCH   9  12
ATOM     12  O   UNL     1     -29.897  -5.724 -16.257  1.00  0.00    -0.504 OA
ATOM     13  H   UNL     1     -29.909  -6.723 -16.088  1.00  0.00     0.293 HD
ENDBRANCH   9  12
BRANCH   8  14
ATOM     14  O   UNL     1     -29.579  -3.187 -17.456  1.00  0.00    -0.504 OA
ATOM     15  H   UNL     1     -29.288  -2.487 -16.783  1.00  0.00     0.293 HD
ENDBRANCH   8  14
TORSDOF 2
ENDMDL
MODEL 7
REMARK VINA RESULT:    -5.837      0.943      2.237
REMARK INTER + INTRA:          -6.178
REMARK INTER:                  -6.178
REMARK INTRA:                   0.000
REMARK UNBOUND:                 0.000
REMARK SMILES O=c1ccc2cc(O)c(O)cc2o1
REMARK SMILES IDX 4 1 3 2 2 3 1 4 13 5 12 6 11 7 9 8 7 9 6 10 5 11 8 12 10 14
REMARK H PARENT 8 13 10 15
REMARK Flexibility Score: inf
ROOT
ATOM      1  C   UNL     1     -38.788  -4.569 -13.357  1.00  0.00     0.019 A 
ATOM      2  C   UNL     1     -37.451  -4.172 -13.359  1.00  0.00     0.094 A 
ATOM      3  C   UNL     1     -36.453  -5.151 -13.380  1.00  0.00     0.336 A 
ATOM      4  O   UNL     1     -35.241  -4.812 -13.382  1.00  0.00    -0.246 OA
ATOM      5  O   UNL     1     -36.776  -6.442 -13.397  1.00  0.00    -0.423 OA
ATOM      6  C   UNL     1     -38.038  -6.864 -13.396  1.00  0.00     0.142 A 
ATOM      7  C   UNL     1     -38.317  -8.234 -13.416  1.00  0.00     0.098 A 
ATOM      8  C   UNL     1     -39.642  -8.686 -13.414  1.00  0.00     0.161 A 
ATOM      9  C   UNL     1     -40.701  -7.759 -13.395  1.00  0.00     0.158 A 
ATOM     10  C   UNL     1     -40.425  -6.384 -13.375  1.00  0.00     0.062 A 
ATOM     11  C   UNL     1     -39.098  -5.932 -13.376  1.00  0.00     0.022 A 
ENDROOT
BRANCH   9  12
ATOM     12  O   UNL     1     -42.020  -8.208 -13.393  1.00  0.00    -0.504 OA
ATOM     13  H   UNL     1     -42.256  -9.165 -13.157  1.00  0.00     0.293 HD
ENDBRANCH   9  12
BRANCH   8  14
ATOM     14  O   UNL     1     -39.888 -10.058 -13.434  1.00  0.00    -0.504 OA
ATOM     15  H   UNL     1     -40.827 -10.438 -13.413  1.00  0.00     0.293 HD
ENDBRANCH   8  14
TORSDOF 2
ENDMDL
MODEL 8
REMARK VINA RESULT:    -5.824      2.488      3.016
REMARK INTER + INTRA:          -6.165
REMARK INTER:                  -6.165
REMARK INTRA:                   0.000
REMARK UNBOUND:                 0.000
REMARK SMILES O=c1ccc2cc(O)c(O)cc2o1
REMARK SMILES IDX 4 1 3 2 2 3 1 4 13 5 12 6 11 7 9 8 7 9 6 10 5 11 8 12 10 14
REMARK H PARENT 8 13 10 15
REMARK Flexibility Score: inf
ROOT
ATOM      1  C   UNL     1     -35.785  -5.206 -14.170  1.00  0.00     0.019 A 
ATOM      2  C   UNL     1     -34.806  -5.105 -15.157  1.00  0.00     0.094 A 
ATOM      3  C   UNL     1     -34.875  -5.948 -16.271  1.00  0.00     0.336 A 
ATOM      4  O   UNL     1     -34.000  -5.871 -17.173  1.00  0.00    -0.246 OA
ATOM      5  O   UNL     1     -35.861  -6.834 -16.384  1.00  0.00    -0.423 OA
ATOM      6  C   UNL     1     -36.816  -6.964 -15.465  1.00  0.00     0.142 A 
ATOM      7  C   UNL     1     -37.829  -7.913 -15.639  1.00  0.00     0.098 A 
ATOM      8  C   UNL     1     -38.836  -8.056 -14.677  1.00  0.00     0.161 A 
ATOM      9  C   UNL     1     -38.833  -7.241 -13.530  1.00  0.00     0.158 A 
ATOM     10  C   UNL     1     -37.819  -6.288 -13.352  1.00  0.00     0.062 A 
ATOM     11  C   UNL     1     -36.811  -6.146 -14.315  1.00  0.00     0.022 A 
ENDROOT
BRANCH   9  12
ATOM     12  O   UNL     1     -39.835  -7.382 -12.572  1.00  0.00    -0.504 OA
ATOM     13  H   UNL     1     -40.814  -7.261 -12.805  1.00  0.00     0.293 HD
ENDBRANCH   9  12
BRANCH   8  14
ATOM     14  O   UNL     1     -39.832  -9.011 -14.879  1.00  0.00    -0.504 OA
ATOM     15  H   UNL     1     -39.628 -10.002 -14.920  1.00  0.00     0.293 HD
ENDBRANCH   8  14
TORSDOF 2
ENDMDL
MODEL 9
REMARK VINA RESULT:    -5.743      1.623      1.661
REMARK INTER + INTRA:          -6.079
REMARK INTER:                  -6.079
REMARK INTRA:                   0.000
REMARK UNBOUND:                 0.000
REMARK SMILES O=c1ccc2cc(O)c(O)cc2o1
REMARK SMILES IDX 4 1 3 2 2 3 1 4 13 5 12 6 11 7 9 8 7 9 6 10 5 11 8 12 10 14
REMARK H PARENT 8 13 10 15
REMARK Flexibility Score: inf
ROOT
ATOM      1  C   UNL     1     -36.375  -7.637 -15.650  1.00  0.00     0.019 A 
ATOM      2  C   UNL     1     -35.612  -6.503 -15.929  1.00  0.00     0.094 A 
ATOM      3  C   UNL     1     -35.969  -5.284 -15.343  1.00  0.00     0.336 A 
ATOM      4  O   UNL     1     -35.291  -4.250 -15.583  1.00  0.00    -0.246 OA
ATOM      5  O   UNL     1     -37.022  -5.209 -14.533  1.00  0.00    -0.423 OA
ATOM      6  C   UNL     1     -37.777  -6.265 -14.240  1.00  0.00     0.142 A 
ATOM      7  C   UNL     1     -38.871  -6.126 -13.381  1.00  0.00     0.098 A 
ATOM      8  C   UNL     1     -39.670  -7.232 -13.069  1.00  0.00     0.161 A 
ATOM      9  C   UNL     1     -39.373  -8.492 -13.620  1.00  0.00     0.158 A 
ATOM     10  C   UNL     1     -38.276  -8.636 -14.482  1.00  0.00     0.062 A 
ATOM     11  C   UNL     1     -37.476  -7.528 -14.795  1.00  0.00     0.022 A 
ENDROOT
BRANCH   9  12
ATOM     12  O   UNL     1     -40.168  -9.594 -13.310  1.00  0.00    -0.504 OA
ATOM     13  H   UNL     1     -40.693  -9.643 -12.445  1.00  0.00     0.293 HD
ENDBRANCH   9  12
BRANCH   8  14
ATOM     14  O   UNL     1     -40.755  -7.061 -12.209  1.00  0.00    -0.504 OA
ATOM     15  H   UNL     1     -41.135  -7.824 -11.663  1.00  0.00     0.293 HD
ENDBRANCH   8  14
TORSDOF 2
ENDMDL
