MODEL 1
REMARK VINA RESULT:    -6.961      0.000      0.000
REMARK INTER + INTRA:         -11.472
REMARK INTER:                 -10.013
REMARK INTRA:                  -1.460
REMARK UNBOUND:                -1.460
REMARK SMILES O=c1c(O[C@H]2O[C@H](CO)[C@H](O)[C@H](O)[C@@H]2O)c(-c2ccc(O)cc2)oc2cc(O)cc(O)c12
REMARK SMILES IDX 4 1 3 2 16 3 24 4 2 5 25 6 1 7 32 8 26 9 30 10 27 11 29 12
REMARK SMILES IDX 17 13 18 14 19 15 20 16 23 17 22 18 21 19 31 21 28 23 5 25
REMARK SMILES IDX 14 26 6 27 12 28 7 29 10 30 15 31 13 33 8 35 9 36 11 38
REMARK H PARENT 21 20 31 22 28 24 15 32 13 34 9 37 11 39
REMARK Flexibility Score: inf
ROOT
ATOM      1  O   UNL     1      14.705 -35.062  -1.889  1.00  0.00    -0.454 OA
ENDROOT
BRANCH   1   2
ATOM      2  C   UNL     1      14.070 -36.078  -2.584  1.00  0.00     0.214 A 
ATOM      3  C   UNL     1      14.809 -37.097  -3.187  1.00  0.00     0.180 A 
ATOM      4  O   UNL     1      14.298 -37.926  -4.084  1.00  0.00    -0.452 OA
ATOM      5  C   UNL     1      12.676 -36.046  -2.838  1.00  0.00     0.239 A 
ATOM      6  C   UNL     1      12.976 -37.891  -4.421  1.00  0.00     0.146 A 
ATOM      7  O   UNL     1      11.948 -35.147  -2.372  1.00  0.00    -0.285 OA
ATOM      8  C   UNL     1      12.120 -37.049  -3.659  1.00  0.00     0.111 A 
ATOM      9  C   UNL     1      12.436 -38.638  -5.481  1.00  0.00     0.094 A 
ATOM     10  C   UNL     1      10.758 -37.364  -3.704  1.00  0.00     0.134 A 
ATOM     11  C   UNL     1      11.067 -38.502  -5.778  1.00  0.00     0.123 A 
ATOM     12  C   UNL     1      10.294 -37.635  -5.007  1.00  0.00     0.093 A 
BRANCH   3  13
ATOM     13  C   UNL     1      16.229 -37.370  -2.880  1.00  0.00     0.021 A 
ATOM     14  C   UNL     1      17.274 -36.812  -3.619  1.00  0.00     0.016 A 
ATOM     15  C   UNL     1      18.613 -37.160  -3.348  1.00  0.00     0.047 A 
ATOM     16  C   UNL     1      18.855 -38.155  -2.407  1.00  0.00     0.115 A 
ATOM     17  C   UNL     1      16.509 -38.379  -1.966  1.00  0.00     0.016 A 
ATOM     18  C   UNL     1      17.796 -38.757  -1.702  1.00  0.00     0.047 A 
BRANCH  16  19
ATOM     19  O   UNL     1      20.160 -38.548  -2.114  1.00  0.00    -0.508 OA
ATOM     20  H   UNL     1      20.530 -39.438  -2.434  1.00  0.00     0.293 HD
ENDBRANCH  16  19
ENDBRANCH   3  13
BRANCH  10  21
ATOM     21  O   UNL     1      10.184 -38.053  -2.628  1.00  0.00    -0.507 OA
ATOM     22  H   UNL     1      10.474 -37.758  -1.677  1.00  0.00     0.293 HD
ENDBRANCH  10  21
BRANCH  11  23
ATOM     23  O   UNL     1      10.458 -39.242  -6.775  1.00  0.00    -0.508 OA
ATOM     24  H   UNL     1      10.535 -40.251  -6.705  1.00  0.00     0.293 HD
ENDBRANCH  11  23
ENDBRANCH   1   2
BRANCH   1  25
ATOM     25  C   UNL     1      14.781 -34.963  -0.445  1.00  0.00     0.339 C 
ATOM     26  C   UNL     1      14.474 -33.519   0.043  1.00  0.00     0.214 C 
ATOM     27  O   UNL     1      16.075 -35.428  -0.041  1.00  0.00    -0.332 OA
ATOM     28  C   UNL     1      14.472 -33.478   1.608  1.00  0.00     0.180 C 
ATOM     29  C   UNL     1      16.613 -34.803   1.106  1.00  0.00     0.179 C 
ATOM     30  C   UNL     1      15.545 -34.569   2.163  1.00  0.00     0.177 C 
BRANCH  26  31
ATOM     31  O   UNL     1      13.217 -33.116  -0.425  1.00  0.00    -0.384 OA
ATOM     32  H   UNL     1      13.377 -32.360  -1.058  1.00  0.00     0.211 HD
ENDBRANCH  26  31
BRANCH  28  33
ATOM     33  O   UNL     1      13.191 -33.847   2.086  1.00  0.00    -0.387 OA
ATOM     34  H   UNL     1      13.004 -33.298   2.897  1.00  0.00     0.211 HD
ENDBRANCH  28  33
BRANCH  29  35
ATOM     35  C   UNL     1      17.816 -35.626   1.550  1.00  0.00     0.191 C 
BRANCH  35  36
ATOM     36  O   UNL     1      18.911 -34.764   1.619  1.00  0.00    -0.394 OA
ATOM     37  H   UNL     1      19.422 -34.992   2.470  1.00  0.00     0.210 HD
ENDBRANCH  35  36
ENDBRANCH  29  35
BRANCH  30  38
ATOM     38  O   UNL     1      14.906 -35.772   2.415  1.00  0.00    -0.387 OA
ATOM     39  H   UNL     1      14.177 -35.958   1.736  1.00  0.00     0.211 HD
ENDBRANCH  30  38
ENDBRANCH   1  25
TORSDOF 11
ENDMDL
MODEL 2
REMARK VINA RESULT:    -6.502      2.064      4.814
REMARK INTER + INTRA:         -10.813
REMARK INTER:                  -9.030
REMARK INTRA:                  -1.782
REMARK UNBOUND:                -1.460
REMARK SMILES O=c1c(O[C@H]2O[C@H](CO)[C@H](O)[C@H](O)[C@@H]2O)c(-c2ccc(O)cc2)oc2cc(O)cc(O)c12
REMARK SMILES IDX 4 1 3 2 16 3 24 4 2 5 25 6 1 7 32 8 26 9 30 10 27 11 29 12
REMARK SMILES IDX 17 13 18 14 19 15 20 16 23 17 22 18 21 19 31 21 28 23 5 25
REMARK SMILES IDX 14 26 6 27 12 28 7 29 10 30 15 31 13 33 8 35 9 36 11 38
REMARK H PARENT 21 20 31 22 28 24 15 32 13 34 9 37 11 39
REMARK Flexibility Score: inf
ROOT
ATOM      1  O   UNL     1      14.277 -37.618  -0.078  1.00  0.00    -0.454 OA
ENDROOT
BRANCH   1   2
ATOM      2  C   UNL     1      13.499 -37.300  -1.179  1.00  0.00     0.214 A 
ATOM      3  C   UNL     1      12.752 -36.122  -1.207  1.00  0.00     0.180 A 
ATOM      4  O   UNL     1      11.790 -35.897  -2.088  1.00  0.00    -0.452 OA
ATOM      5  C   UNL     1      13.312 -38.216  -2.245  1.00  0.00     0.239 A 
ATOM      6  C   UNL     1      11.517 -36.779  -3.092  1.00  0.00     0.146 A 
ATOM      7  O   UNL     1      13.908 -39.311  -2.278  1.00  0.00    -0.285 OA
ATOM      8  C   UNL     1      12.407 -37.875  -3.271  1.00  0.00     0.111 A 
ATOM      9  C   UNL     1      10.404 -36.655  -3.939  1.00  0.00     0.094 A 
ATOM     10  C   UNL     1      12.385 -38.476  -4.534  1.00  0.00     0.134 A 
ATOM     11  C   UNL     1      10.184 -37.641  -4.919  1.00  0.00     0.123 A 
ATOM     12  C   UNL     1      11.082 -38.703  -5.018  1.00  0.00     0.093 A 
BRANCH   3  13
ATOM     13  C   UNL     1      12.964 -34.996  -0.271  1.00  0.00     0.021 A 
ATOM     14  C   UNL     1      12.178 -34.814   0.869  1.00  0.00     0.016 A 
ATOM     15  C   UNL     1      12.357 -33.685   1.693  1.00  0.00     0.047 A 
ATOM     16  C   UNL     1      13.253 -32.706   1.278  1.00  0.00     0.115 A 
ATOM     17  C   UNL     1      13.831 -33.984  -0.666  1.00  0.00     0.016 A 
ATOM     18  C   UNL     1      14.005 -32.864   0.099  1.00  0.00     0.047 A 
BRANCH  16  19
ATOM     19  O   UNL     1      13.455 -31.561   2.048  1.00  0.00    -0.508 OA
ATOM     20  H   UNL     1      13.988 -30.772   1.694  1.00  0.00     0.293 HD
ENDBRANCH  16  19
ENDBRANCH   3  13
BRANCH  10  21
ATOM     21  O   UNL     1      13.400 -38.170  -5.450  1.00  0.00    -0.507 OA
ATOM     22  H   UNL     1      13.100 -37.891  -6.403  1.00  0.00     0.293 HD
ENDBRANCH  10  21
BRANCH  11  23
ATOM     23  O   UNL     1       9.137 -37.558  -5.818  1.00  0.00    -0.508 OA
ATOM     24  H   UNL     1       8.244 -37.932  -5.514  1.00  0.00     0.293 HD
ENDBRANCH  11  23
ENDBRANCH   1   2
BRANCH   1  25
ATOM     25  C   UNL     1      15.649 -37.197   0.121  1.00  0.00     0.339 C 
ATOM     26  C   UNL     1      16.613 -38.415   0.193  1.00  0.00     0.214 C 
ATOM     27  O   UNL     1      15.690 -36.379   1.297  1.00  0.00    -0.332 OA
ATOM     28  C   UNL     1      18.091 -37.913   0.311  1.00  0.00     0.180 C 
ATOM     29  C   UNL     1      16.886 -36.453   2.045  1.00  0.00     0.179 C 
ATOM     30  C   UNL     1      18.106 -36.512   1.139  1.00  0.00     0.177 C 
BRANCH  26  31
ATOM     31  O   UNL     1      16.487 -39.190  -0.966  1.00  0.00    -0.384 OA
ATOM     32  H   UNL     1      17.297 -39.008  -1.521  1.00  0.00     0.211 HD
ENDBRANCH  26  31
BRANCH  28  33
ATOM     33  O   UNL     1      18.607 -37.659  -0.983  1.00  0.00    -0.387 OA
ATOM     34  H   UNL     1      18.101 -36.889  -1.362  1.00  0.00     0.211 HD
ENDBRANCH  28  33
BRANCH  29  35
ATOM     35  C   UNL     1      16.864 -35.310   3.053  1.00  0.00     0.191 C 
BRANCH  35  36
ATOM     36  O   UNL     1      16.506 -34.150   2.363  1.00  0.00    -0.394 OA
ATOM     37  H   UNL     1      17.092 -33.396   2.717  1.00  0.00     0.210 HD
ENDBRANCH  35  36
ENDBRANCH  29  35
BRANCH  30  38
ATOM     38  O   UNL     1      18.049 -35.444   0.257  1.00  0.00    -0.387 OA
ATOM     39  H   UNL     1      17.613 -34.632   0.680  1.00  0.00     0.211 HD
ENDBRANCH  30  38
ENDBRANCH   1  25
TORSDOF 11
ENDMDL
MODEL 3
REMARK VINA RESULT:    -6.444      1.940      4.975
REMARK INTER + INTRA:         -10.728
REMARK INTER:                 -10.185
REMARK INTRA:                  -0.543
REMARK UNBOUND:                -1.460
REMARK SMILES O=c1c(O[C@H]2O[C@H](CO)[C@H](O)[C@H](O)[C@@H]2O)c(-c2ccc(O)cc2)oc2cc(O)cc(O)c12
REMARK SMILES IDX 4 1 3 2 16 3 24 4 2 5 25 6 1 7 32 8 26 9 30 10 27 11 29 12
REMARK SMILES IDX 17 13 18 14 19 15 20 16 23 17 22 18 21 19 31 21 28 23 5 25
REMARK SMILES IDX 14 26 6 27 12 28 7 29 10 30 15 31 13 33 8 35 9 36 11 38
REMARK H PARENT 21 20 31 22 28 24 15 32 13 34 9 37 11 39
REMARK Flexibility Score: inf
ROOT
ATOM      1  O   UNL     1      14.583 -37.576  -0.858  1.00  0.00    -0.454 OA
ENDROOT
BRANCH   1   2
ATOM      2  C   UNL     1      13.683 -37.428  -1.899  1.00  0.00     0.214 A 
ATOM      3  C   UNL     1      12.856 -36.305  -1.972  1.00  0.00     0.180 A 
ATOM      4  O   UNL     1      11.800 -36.236  -2.767  1.00  0.00    -0.452 OA
ATOM      5  C   UNL     1      13.458 -38.465  -2.840  1.00  0.00     0.239 A 
ATOM      6  C   UNL     1      11.494 -37.238  -3.641  1.00  0.00     0.146 A 
ATOM      7  O   UNL     1      14.123 -39.519  -2.821  1.00  0.00    -0.285 OA
ATOM      8  C   UNL     1      12.437 -38.292  -3.797  1.00  0.00     0.111 A 
ATOM      9  C   UNL     1      10.299 -37.274  -4.378  1.00  0.00     0.094 A 
ATOM     10  C   UNL     1      12.336 -39.029  -4.982  1.00  0.00     0.134 A 
ATOM     11  C   UNL     1      10.055 -38.373  -5.223  1.00  0.00     0.123 A 
ATOM     12  C   UNL     1      11.011 -39.385  -5.303  1.00  0.00     0.093 A 
BRANCH   3  13
ATOM     13  C   UNL     1      13.078 -35.074  -1.185  1.00  0.00     0.021 A 
ATOM     14  C   UNL     1      13.366 -33.846  -1.784  1.00  0.00     0.016 A 
ATOM     15  C   UNL     1      13.651 -32.711  -0.997  1.00  0.00     0.047 A 
ATOM     16  C   UNL     1      13.749 -32.875   0.380  1.00  0.00     0.115 A 
ATOM     17  C   UNL     1      13.211 -35.204   0.193  1.00  0.00     0.016 A 
ATOM     18  C   UNL     1      13.513 -34.127   0.979  1.00  0.00     0.047 A 
BRANCH  16  19
ATOM     19  O   UNL     1      14.045 -31.789   1.203  1.00  0.00    -0.508 OA
ATOM     20  H   UNL     1      13.765 -31.772   2.178  1.00  0.00     0.293 HD
ENDBRANCH  16  19
ENDBRANCH   3  13
BRANCH  10  21
ATOM     21  O   UNL     1      13.234 -38.766  -6.024  1.00  0.00    -0.507 OA
ATOM     22  H   UNL     1      12.986 -37.994  -6.671  1.00  0.00     0.293 HD
ENDBRANCH  10  21
BRANCH  11  23
ATOM     23  O   UNL     1       8.923 -38.451  -6.013  1.00  0.00    -0.508 OA
ATOM     24  H   UNL     1       8.958 -37.973  -6.908  1.00  0.00     0.293 HD
ENDBRANCH  11  23
ENDBRANCH   1   2
BRANCH   1  25
ATOM     25  C   UNL     1      15.939 -38.069  -0.993  1.00  0.00     0.339 C 
ATOM     26  C   UNL     1      16.783 -37.770   0.277  1.00  0.00     0.214 C 
ATOM     27  O   UNL     1      16.496 -37.497  -2.184  1.00  0.00    -0.332 OA
ATOM     28  C   UNL     1      18.207 -38.402   0.128  1.00  0.00     0.180 C 
ATOM     29  C   UNL     1      17.887 -37.250  -2.144  1.00  0.00     0.179 C 
ATOM     30  C   UNL     1      18.631 -38.376  -1.444  1.00  0.00     0.177 C 
BRANCH  26  31
ATOM     31  O   UNL     1      16.157 -38.320   1.403  1.00  0.00    -0.384 OA
ATOM     32  H   UNL     1      16.878 -38.733   1.957  1.00  0.00     0.211 HD
ENDBRANCH  26  31
BRANCH  28  33
ATOM     33  O   UNL     1      18.168 -39.755   0.545  1.00  0.00    -0.387 OA
ATOM     34  H   UNL     1      18.625 -39.809   1.429  1.00  0.00     0.211 HD
ENDBRANCH  28  33
BRANCH  29  35
ATOM     35  C   UNL     1      18.335 -36.945  -3.568  1.00  0.00     0.191 C 
BRANCH  35  36
ATOM     36  O   UNL     1      17.605 -37.771  -4.424  1.00  0.00    -0.394 OA
ATOM     37  H   UNL     1      16.629 -37.716  -4.136  1.00  0.00     0.210 HD
ENDBRANCH  35  36
ENDBRANCH  29  35
BRANCH  30  38
ATOM     38  O   UNL     1      18.280 -39.575  -2.045  1.00  0.00    -0.387 OA
ATOM     39  H   UNL     1      17.924 -39.432  -2.984  1.00  0.00     0.211 HD
ENDBRANCH  30  38
ENDBRANCH   1  25
TORSDOF 11
ENDMDL
MODEL 4
REMARK VINA RESULT:    -6.419      1.166      2.479
REMARK INTER + INTRA:         -10.692
REMARK INTER:                  -9.693
REMARK INTRA:                  -1.000
REMARK UNBOUND:                -1.460
REMARK SMILES O=c1c(O[C@H]2O[C@H](CO)[C@H](O)[C@H](O)[C@@H]2O)c(-c2ccc(O)cc2)oc2cc(O)cc(O)c12
REMARK SMILES IDX 4 1 3 2 16 3 24 4 2 5 25 6 1 7 32 8 26 9 30 10 27 11 29 12
REMARK SMILES IDX 17 13 18 14 19 15 20 16 23 17 22 18 21 19 31 21 28 23 5 25
REMARK SMILES IDX 14 26 6 27 12 28 7 29 10 30 15 31 13 33 8 35 9 36 11 38
REMARK H PARENT 21 20 31 22 28 24 15 32 13 34 9 37 11 39
REMARK Flexibility Score: inf
ROOT
ATOM      1  O   UNL     1      15.339 -34.901  -1.420  1.00  0.00    -0.454 OA
ENDROOT
BRANCH   1   2
ATOM      2  C   UNL     1      14.428 -35.757  -2.014  1.00  0.00     0.214 A 
ATOM      3  C   UNL     1      14.861 -36.889  -2.705  1.00  0.00     0.180 A 
ATOM      4  O   UNL     1      14.079 -37.583  -3.519  1.00  0.00    -0.452 OA
ATOM      5  C   UNL     1      13.046 -35.445  -2.074  1.00  0.00     0.239 A 
ATOM      6  C   UNL     1      12.757 -37.281  -3.671  1.00  0.00     0.146 A 
ATOM      7  O   UNL     1      12.581 -34.430  -1.519  1.00  0.00    -0.285 OA
ATOM      8  C   UNL     1      12.196 -36.302  -2.804  1.00  0.00     0.111 A 
ATOM      9  C   UNL     1      11.940 -37.885  -4.641  1.00  0.00     0.094 A 
ATOM     10  C   UNL     1      10.805 -36.341  -2.660  1.00  0.00     0.134 A 
ATOM     11  C   UNL     1      10.598 -37.476  -4.748  1.00  0.00     0.123 A 
ATOM     12  C   UNL     1      10.124 -36.489  -3.884  1.00  0.00     0.093 A 
BRANCH   3  13
ATOM     13  C   UNL     1      16.227 -37.443  -2.595  1.00  0.00     0.021 A 
ATOM     14  C   UNL     1      16.574 -38.390  -1.629  1.00  0.00     0.016 A 
ATOM     15  C   UNL     1      17.905 -38.834  -1.502  1.00  0.00     0.047 A 
ATOM     16  C   UNL     1      18.879 -38.222  -2.284  1.00  0.00     0.115 A 
ATOM     17  C   UNL     1      17.231 -36.837  -3.340  1.00  0.00     0.016 A 
ATOM     18  C   UNL     1      18.536 -37.228  -3.219  1.00  0.00     0.047 A 
BRANCH  16  19
ATOM     19  O   UNL     1      20.214 -38.613  -2.186  1.00  0.00    -0.508 OA
ATOM     20  H   UNL     1      20.471 -39.562  -1.934  1.00  0.00     0.293 HD
ENDBRANCH  16  19
ENDBRANCH   3  13
BRANCH  10  21
ATOM     21  O   UNL     1      10.258 -36.925  -1.510  1.00  0.00    -0.507 OA
ATOM     22  H   UNL     1      10.742 -37.762  -1.136  1.00  0.00     0.293 HD
ENDBRANCH  10  21
BRANCH  11  23
ATOM     23  O   UNL     1       9.725 -38.060  -5.647  1.00  0.00    -0.508 OA
ATOM     24  H   UNL     1       9.119 -38.790  -5.285  1.00  0.00     0.293 HD
ENDBRANCH  11  23
ENDBRANCH   1   2
BRANCH   1  25
ATOM     25  C   UNL     1      15.557 -34.777   0.008  1.00  0.00     0.339 C 
ATOM     26  C   UNL     1      16.686 -35.728   0.496  1.00  0.00     0.214 C 
ATOM     27  O   UNL     1      14.304 -35.011   0.664  1.00  0.00    -0.332 OA
ATOM     28  C   UNL     1      16.954 -35.493   2.020  1.00  0.00     0.180 C 
ATOM     29  C   UNL     1      14.392 -35.620   1.936  1.00  0.00     0.179 C 
ATOM     30  C   UNL     1      15.558 -35.065   2.739  1.00  0.00     0.177 C 
BRANCH  26  31
ATOM     31  O   UNL     1      17.864 -35.472  -0.218  1.00  0.00    -0.384 OA
ATOM     32  H   UNL     1      17.667 -35.676  -1.176  1.00  0.00     0.211 HD
ENDBRANCH  26  31
BRANCH  28  33
ATOM     33  O   UNL     1      17.869 -34.424   2.178  1.00  0.00    -0.387 OA
ATOM     34  H   UNL     1      17.339 -33.599   2.361  1.00  0.00     0.211 HD
ENDBRANCH  28  33
BRANCH  29  35
ATOM     35  C   UNL     1      13.021 -35.502   2.591  1.00  0.00     0.191 C 
BRANCH  35  36
ATOM     36  O   UNL     1      12.534 -34.223   2.318  1.00  0.00    -0.394 OA
ATOM     37  H   UNL     1      11.572 -34.188   2.651  1.00  0.00     0.210 HD
ENDBRANCH  35  36
ENDBRANCH  29  35
BRANCH  30  38
ATOM     38  O   UNL     1      15.449 -33.684   2.773  1.00  0.00    -0.387 OA
ATOM     39  H   UNL     1      14.824 -33.375   3.509  1.00  0.00     0.211 HD
ENDBRANCH  30  38
ENDBRANCH   1  25
TORSDOF 11
ENDMDL
MODEL 5
REMARK VINA RESULT:    -6.383      2.975      5.736
REMARK INTER + INTRA:         -10.641
REMARK INTER:                  -9.388
REMARK INTRA:                  -1.252
REMARK UNBOUND:                -1.460
REMARK SMILES O=c1c(O[C@H]2O[C@H](CO)[C@H](O)[C@H](O)[C@@H]2O)c(-c2ccc(O)cc2)oc2cc(O)cc(O)c12
REMARK SMILES IDX 4 1 3 2 16 3 24 4 2 5 25 6 1 7 32 8 26 9 30 10 27 11 29 12
REMARK SMILES IDX 17 13 18 14 19 15 20 16 23 17 22 18 21 19 31 21 28 23 5 25
REMARK SMILES IDX 14 26 6 27 12 28 7 29 10 30 15 31 13 33 8 35 9 36 11 38
REMARK H PARENT 21 20 31 22 28 24 15 32 13 34 9 37 11 39
REMARK Flexibility Score: inf
ROOT
ATOM      1  O   UNL     1      14.045 -37.674  -2.029  1.00  0.00    -0.454 OA
ENDROOT
BRANCH   1   2
ATOM      2  C   UNL     1      13.079 -38.364  -2.740  1.00  0.00     0.214 A 
ATOM      3  C   UNL     1      11.846 -37.774  -3.025  1.00  0.00     0.180 A 
ATOM      4  O   UNL     1      10.796 -38.462  -3.446  1.00  0.00    -0.452 OA
ATOM      5  C   UNL     1      13.239 -39.732  -3.075  1.00  0.00     0.239 A 
ATOM      6  C   UNL     1      10.875 -39.797  -3.714  1.00  0.00     0.146 A 
ATOM      7  O   UNL     1      14.293 -40.348  -2.819  1.00  0.00    -0.285 OA
ATOM      8  C   UNL     1      12.162 -40.404  -3.689  1.00  0.00     0.111 A 
ATOM      9  C   UNL     1       9.751 -40.588  -4.003  1.00  0.00     0.094 A 
ATOM     10  C   UNL     1      12.282 -41.607  -4.393  1.00  0.00     0.134 A 
ATOM     11  C   UNL     1       9.930 -41.966  -4.224  1.00  0.00     0.123 A 
ATOM     12  C   UNL     1      11.217 -42.498  -4.155  1.00  0.00     0.093 A 
BRANCH   3  13
ATOM     13  C   UNL     1      11.585 -36.324  -2.901  1.00  0.00     0.021 A 
ATOM     14  C   UNL     1      11.378 -35.705  -1.667  1.00  0.00     0.016 A 
ATOM     15  C   UNL     1      11.051 -34.336  -1.596  1.00  0.00     0.047 A 
ATOM     16  C   UNL     1      10.829 -33.651  -2.785  1.00  0.00     0.115 A 
ATOM     17  C   UNL     1      11.329 -35.614  -4.068  1.00  0.00     0.016 A 
ATOM     18  C   UNL     1      10.984 -34.291  -4.029  1.00  0.00     0.047 A 
BRANCH  16  19
ATOM     19  O   UNL     1      10.487 -32.299  -2.770  1.00  0.00    -0.508 OA
ATOM     20  H   UNL     1       9.710 -31.943  -3.319  1.00  0.00     0.293 HD
ENDBRANCH  16  19
ENDBRANCH   3  13
BRANCH  10  21
ATOM     21  O   UNL     1      12.880 -41.596  -5.660  1.00  0.00    -0.507 OA
ATOM     22  H   UNL     1      13.917 -41.593  -5.686  1.00  0.00     0.293 HD
ENDBRANCH  10  21
BRANCH  11  23
ATOM     23  O   UNL     1       8.876 -42.796  -4.560  1.00  0.00    -0.508 OA
ATOM     24  H   UNL     1       8.923 -43.752  -4.223  1.00  0.00     0.293 HD
ENDBRANCH  11  23
ENDBRANCH   1   2
BRANCH   1  25
ATOM     25  C   UNL     1      15.450 -37.608  -2.379  1.00  0.00     0.339 C 
ATOM     26  C   UNL     1      16.353 -38.057  -1.197  1.00  0.00     0.214 C 
ATOM     27  O   UNL     1      15.729 -36.274  -2.823  1.00  0.00    -0.332 OA
ATOM     28  C   UNL     1      17.852 -38.064  -1.649  1.00  0.00     0.180 C 
ATOM     29  C   UNL     1      17.030 -35.801  -2.539  1.00  0.00     0.179 C 
ATOM     30  C   UNL     1      18.073 -36.887  -2.751  1.00  0.00     0.177 C 
BRANCH  26  31
ATOM     31  O   UNL     1      15.995 -39.349  -0.790  1.00  0.00    -0.384 OA
ATOM     32  H   UNL     1      15.927 -39.325   0.206  1.00  0.00     0.211 HD
ENDBRANCH  26  31
BRANCH  28  33
ATOM     33  O   UNL     1      18.152 -39.301  -2.269  1.00  0.00    -0.387 OA
ATOM     34  H   UNL     1      18.393 -39.111  -3.217  1.00  0.00     0.211 HD
ENDBRANCH  28  33
BRANCH  29  35
ATOM     35  C   UNL     1      17.233 -34.522  -3.342  1.00  0.00     0.191 C 
BRANCH  35  36
ATOM     36  O   UNL     1      18.547 -34.526  -3.813  1.00  0.00    -0.394 OA
ATOM     37  H   UNL     1      18.549 -34.042  -4.709  1.00  0.00     0.210 HD
ENDBRANCH  35  36
ENDBRANCH  29  35
BRANCH  30  38
ATOM     38  O   UNL     1      17.918 -37.402  -4.028  1.00  0.00    -0.387 OA
ATOM     39  H   UNL     1      17.470 -36.737  -4.648  1.00  0.00     0.211 HD
ENDBRANCH  30  38
ENDBRANCH   1  25
TORSDOF 11
ENDMDL
MODEL 6
REMARK VINA RESULT:    -6.302      2.087      5.999
REMARK INTER + INTRA:         -10.525
REMARK INTER:                  -9.496
REMARK INTRA:                  -1.029
REMARK UNBOUND:                -1.460
REMARK SMILES O=c1c(O[C@H]2O[C@H](CO)[C@H](O)[C@H](O)[C@@H]2O)c(-c2ccc(O)cc2)oc2cc(O)cc(O)c12
REMARK SMILES IDX 4 1 3 2 16 3 24 4 2 5 25 6 1 7 32 8 26 9 30 10 27 11 29 12
REMARK SMILES IDX 17 13 18 14 19 15 20 16 23 17 22 18 21 19 31 21 28 23 5 25
REMARK SMILES IDX 14 26 6 27 12 28 7 29 10 30 15 31 13 33 8 35 9 36 11 38
REMARK H PARENT 21 20 31 22 28 24 15 32 13 34 9 37 11 39
REMARK Flexibility Score: inf
ROOT
ATOM      1  O   UNL     1      12.890 -34.942  -3.463  1.00  0.00    -0.454 OA
ENDROOT
BRANCH   1   2
ATOM      2  C   UNL     1      13.887 -35.902  -3.427  1.00  0.00     0.214 A 
ATOM      3  C   UNL     1      13.604 -37.233  -3.738  1.00  0.00     0.180 A 
ATOM      4  O   UNL     1      14.428 -38.231  -3.457  1.00  0.00    -0.452 OA
ATOM      5  C   UNL     1      15.183 -35.609  -2.934  1.00  0.00     0.239 A 
ATOM      6  C   UNL     1      15.660 -38.012  -2.913  1.00  0.00     0.146 A 
ATOM      7  O   UNL     1      15.506 -34.454  -2.593  1.00  0.00    -0.285 OA
ATOM      8  C   UNL     1      16.108 -36.666  -2.809  1.00  0.00     0.111 A 
ATOM      9  C   UNL     1      16.490 -39.048  -2.452  1.00  0.00     0.094 A 
ATOM     10  C   UNL     1      17.492 -36.492  -2.694  1.00  0.00     0.134 A 
ATOM     11  C   UNL     1      17.726 -38.717  -1.868  1.00  0.00     0.123 A 
ATOM     12  C   UNL     1      18.088 -37.374  -1.771  1.00  0.00     0.093 A 
BRANCH   3  13
ATOM     13  C   UNL     1      12.370 -37.670  -4.424  1.00  0.00     0.021 A 
ATOM     14  C   UNL     1      11.121 -37.655  -3.798  1.00  0.00     0.016 A 
ATOM     15  C   UNL     1       9.980 -38.155  -4.457  1.00  0.00     0.047 A 
ATOM     16  C   UNL     1      10.152 -38.764  -5.695  1.00  0.00     0.115 A 
ATOM     17  C   UNL     1      12.505 -38.309  -5.651  1.00  0.00     0.016 A 
ATOM     18  C   UNL     1      11.420 -38.828  -6.301  1.00  0.00     0.047 A 
BRANCH  16  19
ATOM     19  O   UNL     1       9.058 -39.290  -6.383  1.00  0.00    -0.508 OA
ATOM     20  H   UNL     1       8.672 -38.824  -7.198  1.00  0.00     0.293 HD
ENDBRANCH  16  19
ENDBRANCH   3  13
BRANCH  10  21
ATOM     21  O   UNL     1      18.223 -36.104  -3.824  1.00  0.00    -0.507 OA
ATOM     22  H   UNL     1      17.842 -35.316  -4.380  1.00  0.00     0.293 HD
ENDBRANCH  10  21
BRANCH  11  23
ATOM     23  O   UNL     1      18.613 -39.686  -1.436  1.00  0.00    -0.508 OA
ATOM     24  H   UNL     1      19.435 -39.361  -0.936  1.00  0.00     0.293 HD
ENDBRANCH  11  23
ENDBRANCH   1   2
BRANCH   1  25
ATOM     25  C   UNL     1      11.948 -34.679  -2.393  1.00  0.00     0.339 C 
ATOM     26  C   UNL     1      11.085 -33.421  -2.691  1.00  0.00     0.214 C 
ATOM     27  O   UNL     1      12.690 -34.574  -1.172  1.00  0.00    -0.332 OA
ATOM     28  C   UNL     1      10.019 -33.230  -1.561  1.00  0.00     0.180 C 
ATOM     29  C   UNL     1      12.158 -33.681  -0.215  1.00  0.00     0.179 C 
ATOM     30  C   UNL     1      10.642 -33.768  -0.156  1.00  0.00     0.177 C 
BRANCH  26  31
ATOM     31  O   UNL     1      10.426 -33.576  -3.917  1.00  0.00    -0.384 OA
ATOM     32  H   UNL     1      11.136 -33.662  -4.614  1.00  0.00     0.211 HD
ENDBRANCH  26  31
BRANCH  28  33
ATOM     33  O   UNL     1       8.875 -34.010  -1.856  1.00  0.00    -0.387 OA
ATOM     34  H   UNL     1       8.334 -33.508  -2.525  1.00  0.00     0.211 HD
ENDBRANCH  28  33
BRANCH  29  35
ATOM     35  C   UNL     1      12.888 -33.935   1.099  1.00  0.00     0.191 C 
BRANCH  35  36
ATOM     36  O   UNL     1      12.733 -35.287   1.410  1.00  0.00    -0.394 OA
ATOM     37  H   UNL     1      12.249 -35.338   2.304  1.00  0.00     0.210 HD
ENDBRANCH  35  36
ENDBRANCH  29  35
BRANCH  30  38
ATOM     38  O   UNL     1      10.286 -35.093   0.039  1.00  0.00    -0.387 OA
ATOM     39  H   UNL     1       9.279 -35.211   0.068  1.00  0.00     0.211 HD
ENDBRANCH  30  38
ENDBRANCH   1  25
TORSDOF 11
ENDMDL
MODEL 7
REMARK VINA RESULT:    -6.261      2.454      5.412
REMARK INTER + INTRA:         -10.465
REMARK INTER:                  -9.448
REMARK INTRA:                  -1.017
REMARK UNBOUND:                -1.460
REMARK SMILES O=c1c(O[C@H]2O[C@H](CO)[C@H](O)[C@H](O)[C@@H]2O)c(-c2ccc(O)cc2)oc2cc(O)cc(O)c12
REMARK SMILES IDX 4 1 3 2 16 3 24 4 2 5 25 6 1 7 32 8 26 9 30 10 27 11 29 12
REMARK SMILES IDX 17 13 18 14 19 15 20 16 23 17 22 18 21 19 31 21 28 23 5 25
REMARK SMILES IDX 14 26 6 27 12 28 7 29 10 30 15 31 13 33 8 35 9 36 11 38
REMARK H PARENT 21 20 31 22 28 24 15 32 13 34 9 37 11 39
REMARK Flexibility Score: inf
ROOT
ATOM      1  O   UNL     1      14.989 -38.191  -1.227  1.00  0.00    -0.454 OA
ENDROOT
BRANCH   1   2
ATOM      2  C   UNL     1      13.881 -37.407  -1.500  1.00  0.00     0.214 A 
ATOM      3  C   UNL     1      13.037 -37.715  -2.568  1.00  0.00     0.180 A 
ATOM      4  O   UNL     1      12.140 -36.867  -3.048  1.00  0.00    -0.452 OA
ATOM      5  C   UNL     1      13.644 -36.190  -0.812  1.00  0.00     0.239 A 
ATOM      6  C   UNL     1      11.921 -35.651  -2.469  1.00  0.00     0.146 A 
ATOM      7  O   UNL     1      14.375 -35.819   0.127  1.00  0.00    -0.285 OA
ATOM      8  C   UNL     1      12.566 -35.382  -1.230  1.00  0.00     0.111 A 
ATOM      9  C   UNL     1      11.101 -34.665  -3.042  1.00  0.00     0.094 A 
ATOM     10  C   UNL     1      11.992 -34.372  -0.450  1.00  0.00     0.134 A 
ATOM     11  C   UNL     1      10.972 -33.426  -2.389  1.00  0.00     0.123 A 
ATOM     12  C   UNL     1      11.658 -33.221  -1.192  1.00  0.00     0.093 A 
BRANCH   3  13
ATOM     13  C   UNL     1      13.042 -39.018  -3.266  1.00  0.00     0.021 A 
ATOM     14  C   UNL     1      13.347 -40.214  -2.613  1.00  0.00     0.016 A 
ATOM     15  C   UNL     1      13.421 -41.426  -3.329  1.00  0.00     0.047 A 
ATOM     16  C   UNL     1      13.295 -41.379  -4.714  1.00  0.00     0.115 A 
ATOM     17  C   UNL     1      12.948 -39.007  -4.653  1.00  0.00     0.016 A 
ATOM     18  C   UNL     1      13.042 -40.163  -5.377  1.00  0.00     0.047 A 
BRANCH  16  19
ATOM     19  O   UNL     1      13.377 -42.547  -5.472  1.00  0.00    -0.508 OA
ATOM     20  H   UNL     1      14.112 -42.681  -6.159  1.00  0.00     0.293 HD
ENDBRANCH  16  19
ENDBRANCH   3  13
BRANCH  10  21
ATOM     21  O   UNL     1      11.185 -34.730   0.638  1.00  0.00    -0.507 OA
ATOM     22  H   UNL     1      10.530 -34.007   0.990  1.00  0.00     0.293 HD
ENDBRANCH  10  21
BRANCH  11  23
ATOM     23  O   UNL     1      10.145 -32.428  -2.870  1.00  0.00    -0.508 OA
ATOM     24  H   UNL     1      10.351 -32.075  -3.800  1.00  0.00     0.293 HD
ENDBRANCH  11  23
ENDBRANCH   1   2
BRANCH   1  25
ATOM     25  C   UNL     1      16.301 -38.013  -1.817  1.00  0.00     0.339 C 
ATOM     26  C   UNL     1      17.430 -38.247  -0.775  1.00  0.00     0.214 C 
ATOM     27  O   UNL     1      16.343 -36.706  -2.406  1.00  0.00    -0.332 OA
ATOM     28  C   UNL     1      18.826 -38.140  -1.475  1.00  0.00     0.180 C 
ATOM     29  C   UNL     1      17.606 -36.075  -2.388  1.00  0.00     0.179 C 
ATOM     30  C   UNL     1      18.724 -37.060  -2.688  1.00  0.00     0.177 C 
BRANCH  26  31
ATOM     31  O   UNL     1      17.299 -39.523  -0.212  1.00  0.00    -0.384 OA
ATOM     32  H   UNL     1      16.814 -40.082  -0.882  1.00  0.00     0.211 HD
ENDBRANCH  26  31
BRANCH  28  33
ATOM     33  O   UNL     1      19.168 -39.394  -2.037  1.00  0.00    -0.387 OA
ATOM     34  H   UNL     1      18.800 -39.419  -2.963  1.00  0.00     0.211 HD
ENDBRANCH  28  33
BRANCH  29  35
ATOM     35  C   UNL     1      17.523 -34.866  -3.312  1.00  0.00     0.191 C 
BRANCH  35  36
ATOM     36  O   UNL     1      18.739 -34.772  -3.991  1.00  0.00    -0.394 OA
ATOM     37  H   UNL     1      18.955 -35.699  -4.353  1.00  0.00     0.210 HD
ENDBRANCH  35  36
ENDBRANCH  29  35
BRANCH  30  38
ATOM     38  O   UNL     1      18.428 -37.712  -3.875  1.00  0.00    -0.387 OA
ATOM     39  H   UNL     1      18.267 -38.702  -3.728  1.00  0.00     0.211 HD
ENDBRANCH  30  38
ENDBRANCH   1  25
TORSDOF 11
ENDMDL
MODEL 8
REMARK VINA RESULT:    -6.235      2.315      3.727
REMARK INTER + INTRA:         -10.429
REMARK INTER:                  -8.901
REMARK INTRA:                  -1.528
REMARK UNBOUND:                -1.460
REMARK SMILES O=c1c(O[C@H]2O[C@H](CO)[C@H](O)[C@H](O)[C@@H]2O)c(-c2ccc(O)cc2)oc2cc(O)cc(O)c12
REMARK SMILES IDX 4 1 3 2 16 3 24 4 2 5 25 6 1 7 32 8 26 9 30 10 27 11 29 12
REMARK SMILES IDX 17 13 18 14 19 15 20 16 23 17 22 18 21 19 31 21 28 23 5 25
REMARK SMILES IDX 14 26 6 27 12 28 7 29 10 30 15 31 13 33 8 35 9 36 11 38
REMARK H PARENT 21 20 31 22 28 24 15 32 13 34 9 37 11 39
REMARK Flexibility Score: inf
ROOT
ATOM      1  O   UNL     1      14.579 -36.033  -2.439  1.00  0.00    -0.454 OA
ENDROOT
BRANCH   1   2
ATOM      2  C   UNL     1      14.222 -37.358  -2.624  1.00  0.00     0.214 A 
ATOM      3  C   UNL     1      14.707 -38.352  -1.772  1.00  0.00     0.180 A 
ATOM      4  O   UNL     1      14.635 -39.644  -2.053  1.00  0.00    -0.452 OA
ATOM      5  C   UNL     1      13.484 -37.777  -3.760  1.00  0.00     0.239 A 
ATOM      6  C   UNL     1      13.999 -40.099  -3.171  1.00  0.00     0.146 A 
ATOM      7  O   UNL     1      13.050 -36.958  -4.594  1.00  0.00    -0.285 OA
ATOM      8  C   UNL     1      13.266 -39.158  -3.947  1.00  0.00     0.111 A 
ATOM      9  C   UNL     1      14.044 -41.440  -3.586  1.00  0.00     0.094 A 
ATOM     10  C   UNL     1      12.280 -39.693  -4.782  1.00  0.00     0.134 A 
ATOM     11  C   UNL     1      13.391 -41.804  -4.777  1.00  0.00     0.123 A 
ATOM     12  C   UNL     1      12.717 -40.822  -5.503  1.00  0.00     0.093 A 
BRANCH   3  13
ATOM     13  C   UNL     1      15.335 -38.072  -0.463  1.00  0.00     0.021 A 
ATOM     14  C   UNL     1      14.590 -37.714   0.663  1.00  0.00     0.016 A 
ATOM     15  C   UNL     1      15.231 -37.377   1.872  1.00  0.00     0.047 A 
ATOM     16  C   UNL     1      16.619 -37.299   1.879  1.00  0.00     0.115 A 
ATOM     17  C   UNL     1      16.720 -37.958  -0.424  1.00  0.00     0.016 A 
ATOM     18  C   UNL     1      17.368 -37.606   0.728  1.00  0.00     0.047 A 
BRANCH  16  19
ATOM     19  O   UNL     1      17.302 -36.953   3.045  1.00  0.00    -0.508 OA
ATOM     20  H   UNL     1      17.585 -35.995   3.229  1.00  0.00     0.293 HD
ENDBRANCH  16  19
ENDBRANCH   3  13
BRANCH  10  21
ATOM     21  O   UNL     1      10.940 -39.628  -4.380  1.00  0.00    -0.507 OA
ATOM     22  H   UNL     1      10.660 -40.237  -3.589  1.00  0.00     0.293 HD
ENDBRANCH  10  21
BRANCH  11  23
ATOM     23  O   UNL     1      13.354 -43.114  -5.221  1.00  0.00    -0.508 OA
ATOM     24  H   UNL     1      14.182 -43.675  -5.053  1.00  0.00     0.293 HD
ENDBRANCH  11  23
ENDBRANCH   1   2
BRANCH   1  25
ATOM     25  C   UNL     1      13.733 -35.019  -1.841  1.00  0.00     0.339 C 
ATOM     26  C   UNL     1      13.476 -33.841  -2.823  1.00  0.00     0.214 C 
ATOM     27  O   UNL     1      14.347 -34.604  -0.614  1.00  0.00    -0.332 OA
ATOM     28  C   UNL     1      12.483 -32.819  -2.175  1.00  0.00     0.180 C 
ATOM     29  C   UNL     1      14.137 -33.252  -0.260  1.00  0.00     0.179 C 
ATOM     30  C   UNL     1      12.714 -32.813  -0.564  1.00  0.00     0.177 C 
BRANCH  26  31
ATOM     31  O   UNL     1      12.919 -34.327  -4.012  1.00  0.00    -0.384 OA
ATOM     32  H   UNL     1      13.669 -34.726  -4.537  1.00  0.00     0.211 HD
ENDBRANCH  26  31
BRANCH  28  33
ATOM     33  O   UNL     1      11.152 -33.235  -2.422  1.00  0.00    -0.387 OA
ATOM     34  H   UNL     1      11.089 -33.484  -3.385  1.00  0.00     0.211 HD
ENDBRANCH  28  33
BRANCH  29  35
ATOM     35  C   UNL     1      14.587 -33.087   1.187  1.00  0.00     0.191 C 
BRANCH  35  36
ATOM     36  O   UNL     1      14.067 -31.878   1.652  1.00  0.00    -0.394 OA
ATOM     37  H   UNL     1      13.379 -31.563   0.970  1.00  0.00     0.210 HD
ENDBRANCH  35  36
ENDBRANCH  29  35
BRANCH  30  38
ATOM     38  O   UNL     1      11.841 -33.704   0.040  1.00  0.00    -0.387 OA
ATOM     39  H   UNL     1      12.221 -34.073   0.904  1.00  0.00     0.211 HD
ENDBRANCH  30  38
ENDBRANCH   1  25
TORSDOF 11
ENDMDL
MODEL 9
REMARK VINA RESULT:    -6.218      2.210      6.029
REMARK INTER + INTRA:         -10.404
REMARK INTER:                  -9.001
REMARK INTRA:                  -1.403
REMARK UNBOUND:                -1.460
REMARK SMILES O=c1c(O[C@H]2O[C@H](CO)[C@H](O)[C@H](O)[C@@H]2O)c(-c2ccc(O)cc2)oc2cc(O)cc(O)c12
REMARK SMILES IDX 4 1 3 2 16 3 24 4 2 5 25 6 1 7 32 8 26 9 30 10 27 11 29 12
REMARK SMILES IDX 17 13 18 14 19 15 20 16 23 17 22 18 21 19 31 21 28 23 5 25
REMARK SMILES IDX 14 26 6 27 12 28 7 29 10 30 15 31 13 33 8 35 9 36 11 38
REMARK H PARENT 21 20 31 22 28 24 15 32 13 34 9 37 11 39
REMARK Flexibility Score: inf
ROOT
ATOM      1  O   UNL     1      13.893 -37.249  -3.989  1.00  0.00    -0.454 OA
ENDROOT
BRANCH   1   2
ATOM      2  C   UNL     1      13.712 -36.280  -3.016  1.00  0.00     0.214 A 
ATOM      3  C   UNL     1      14.688 -36.056  -2.044  1.00  0.00     0.180 A 
ATOM      4  O   UNL     1      14.464 -35.356  -0.942  1.00  0.00    -0.452 OA
ATOM      5  C   UNL     1      12.482 -35.589  -2.876  1.00  0.00     0.239 A 
ATOM      6  C   UNL     1      13.272 -34.730  -0.722  1.00  0.00     0.146 A 
ATOM      7  O   UNL     1      11.542 -35.761  -3.676  1.00  0.00    -0.285 OA
ATOM      8  C   UNL     1      12.328 -34.708  -1.786  1.00  0.00     0.111 A 
ATOM      9  C   UNL     1      12.941 -34.121   0.500  1.00  0.00     0.094 A 
ATOM     10  C   UNL     1      11.353 -33.707  -1.714  1.00  0.00     0.134 A 
ATOM     11  C   UNL     1      11.669 -33.537   0.644  1.00  0.00     0.123 A 
ATOM     12  C   UNL     1      10.783 -33.579  -0.432  1.00  0.00     0.093 A 
BRANCH   3  13
ATOM     13  C   UNL     1      16.075 -36.559  -2.146  1.00  0.00     0.021 A 
ATOM     14  C   UNL     1      16.968 -36.100  -3.116  1.00  0.00     0.016 A 
ATOM     15  C   UNL     1      18.255 -36.661  -3.233  1.00  0.00     0.047 A 
ATOM     16  C   UNL     1      18.568 -37.756  -2.435  1.00  0.00     0.115 A 
ATOM     17  C   UNL     1      16.415 -37.671  -1.384  1.00  0.00     0.016 A 
ATOM     18  C   UNL     1      17.646 -38.254  -1.495  1.00  0.00     0.047 A 
BRANCH  16  19
ATOM     19  O   UNL     1      19.822 -38.360  -2.522  1.00  0.00    -0.508 OA
ATOM     20  H   UNL     1      20.003 -39.266  -2.103  1.00  0.00     0.293 HD
ENDBRANCH  16  19
ENDBRANCH   3  13
BRANCH  10  21
ATOM     21  O   UNL     1      11.497 -32.560  -2.505  1.00  0.00    -0.507 OA
ATOM     22  H   UNL     1      10.828 -32.447  -3.290  1.00  0.00     0.293 HD
ENDBRANCH  10  21
BRANCH  11  23
ATOM     23  O   UNL     1      11.294 -32.879   1.801  1.00  0.00    -0.508 OA
ATOM     24  H   UNL     1      11.981 -32.257   2.215  1.00  0.00     0.293 HD
ENDBRANCH  11  23
ENDBRANCH   1   2
BRANCH   1  25
ATOM     25  C   UNL     1      13.524 -38.644  -3.853  1.00  0.00     0.339 C 
ATOM     26  C   UNL     1      12.577 -39.096  -4.999  1.00  0.00     0.214 C 
ATOM     27  O   UNL     1      12.952 -38.821  -2.550  1.00  0.00    -0.332 OA
ATOM     28  C   UNL     1      12.281 -40.628  -4.869  1.00  0.00     0.180 C 
ATOM     29  C   UNL     1      11.944 -39.806  -2.460  1.00  0.00     0.179 C 
ATOM     30  C   UNL     1      12.289 -41.032  -3.292  1.00  0.00     0.177 C 
BRANCH  26  31
ATOM     31  O   UNL     1      13.182 -38.853  -6.239  1.00  0.00    -0.384 OA
ATOM     32  H   UNL     1      14.154 -38.711  -6.059  1.00  0.00     0.211 HD
ENDBRANCH  26  31
BRANCH  28  33
ATOM     33  O   UNL     1      13.309 -41.362  -5.510  1.00  0.00    -0.387 OA
ATOM     34  H   UNL     1      14.148 -40.829  -5.439  1.00  0.00     0.211 HD
ENDBRANCH  28  33
BRANCH  29  35
ATOM     35  C   UNL     1      11.688 -40.061  -0.980  1.00  0.00     0.191 C 
BRANCH  35  36
ATOM     36  O   UNL     1      11.249 -41.380  -0.851  1.00  0.00    -0.394 OA
ATOM     37  H   UNL     1      10.930 -41.500   0.109  1.00  0.00     0.210 HD
ENDBRANCH  35  36
ENDBRANCH  29  35
BRANCH  30  38
ATOM     38  O   UNL     1      13.551 -41.470  -2.925  1.00  0.00    -0.387 OA
ATOM     39  H   UNL     1      14.248 -40.742  -3.036  1.00  0.00     0.211 HD
ENDBRANCH  30  38
ENDBRANCH   1  25
TORSDOF 11
ENDMDL
