MODEL 1
REMARK VINA RESULT:    -3.289      0.000      0.000
REMARK INTER + INTRA:          -7.588
REMARK INTER:                  -5.596
REMARK INTRA:                  -1.992
REMARK UNBOUND:                -1.992
REMARK SMILES CCCCCCCCCCCCCC(=O)[O-]
REMARK SMILES IDX 8 1 9 2 10 3 11 4 12 5 13 6 14 7 15 8 16 9 7 10 6 11 5 12
REMARK SMILES IDX 4 13 3 14 2 15 1 16
REMARK H PARENT
REMARK Flexibility Score: inf
ROOT
ATOM      1  C   UNL     1      16.962  13.262  31.691  1.00  0.00     0.000 C 
ENDROOT
BRANCH   1   2
ATOM      2  C   UNL     1      15.729  13.673  30.860  1.00  0.00     0.000 C 
BRANCH   2   3
ATOM      3  C   UNL     1      15.920  14.920  29.979  1.00  0.00     0.000 C 
BRANCH   3   4
ATOM      4  C   UNL     1      15.356  14.798  28.550  1.00  0.00     0.000 C 
BRANCH   4   5
ATOM      5  C   UNL     1      16.144  15.611  27.500  1.00  0.00     0.006 C 
BRANCH   5   6
ATOM      6  C   UNL     1      16.520  14.776  26.271  1.00  0.00     0.053 C 
BRANCH   6   7
ATOM      7  C   UNL     1      15.654  15.141  25.107  1.00  0.00     0.041 C 
ATOM      8  O   UNL     1      14.757  14.351  24.712  1.00  0.00    -0.550 OA
ATOM      9  O   UNL     1      15.868  16.333  24.426  1.00  0.00    -0.550 OA
ENDBRANCH   6   7
ENDBRANCH   5   6
ENDBRANCH   4   5
ENDBRANCH   3   4
ENDBRANCH   2   3
ENDBRANCH   1   2
BRANCH   1  10
ATOM     10  C   UNL     1      18.023  14.363  31.873  1.00  0.00     0.000 C 
BRANCH  10  11
ATOM     11  C   UNL     1      19.433  13.802  32.107  1.00  0.00    -0.000 C 
BRANCH  11  12
ATOM     12  C   UNL     1      20.293  13.938  30.841  1.00  0.00    -0.000 C 
BRANCH  12  13
ATOM     13  C   UNL     1      19.627  14.803  29.758  1.00  0.00    -0.000 C 
BRANCH  13  14
ATOM     14  C   UNL     1      19.527  14.142  28.370  1.00  0.00    -0.000 C 
BRANCH  14  15
ATOM     15  C   UNL     1      19.446  12.601  28.419  1.00  0.00    -0.003 C 
ATOM     16  C   UNL     1      18.009  12.087  28.339  1.00  0.00     0.004 C 
ENDBRANCH  14  15
ENDBRANCH  13  14
ENDBRANCH  12  13
ENDBRANCH  11  12
ENDBRANCH  10  11
ENDBRANCH   1  10
TORSDOF 12
ENDMDL
MODEL 2
REMARK VINA RESULT:    -3.285      3.436      4.886
REMARK INTER + INTRA:          -7.581
REMARK INTER:                  -6.087
REMARK INTRA:                  -1.494
REMARK UNBOUND:                -1.992
REMARK SMILES CCCCCCCCCCCCCC(=O)[O-]
REMARK SMILES IDX 8 1 9 2 10 3 11 4 12 5 13 6 14 7 15 8 16 9 7 10 6 11 5 12
REMARK SMILES IDX 4 13 3 14 2 15 1 16
REMARK H PARENT
REMARK Flexibility Score: inf
ROOT
ATOM      1  C   UNL     1      17.685  13.970  31.991  1.00  0.00     0.000 C 
ENDROOT
BRANCH   1   2
ATOM      2  C   UNL     1      16.958  12.622  32.181  1.00  0.00     0.000 C 
BRANCH   2   3
ATOM      3  C   UNL     1      15.894  12.298  31.118  1.00  0.00     0.000 C 
BRANCH   3   4
ATOM      4  C   UNL     1      14.441  12.583  31.545  1.00  0.00     0.000 C 
BRANCH   4   5
ATOM      5  C   UNL     1      13.504  12.924  30.366  1.00  0.00     0.006 C 
BRANCH   5   6
ATOM      6  C   UNL     1      12.769  14.255  30.565  1.00  0.00     0.053 C 
BRANCH   6   7
ATOM      7  C   UNL     1      11.408  14.019  31.140  1.00  0.00     0.041 C 
ATOM      8  O   UNL     1      10.943  12.851  31.211  1.00  0.00    -0.550 OA
ATOM      9  O   UNL     1      10.630  15.095  31.553  1.00  0.00    -0.550 OA
ENDBRANCH   6   7
ENDBRANCH   5   6
ENDBRANCH   4   5
ENDBRANCH   3   4
ENDBRANCH   2   3
ENDBRANCH   1   2
BRANCH   1  10
ATOM     10  C   UNL     1      17.733  14.486  30.541  1.00  0.00     0.000 C 
BRANCH  10  11
ATOM     11  C   UNL     1      17.066  15.859  30.372  1.00  0.00    -0.000 C 
BRANCH  11  12
ATOM     12  C   UNL     1      15.866  15.770  29.416  1.00  0.00    -0.000 C 
BRANCH  12  13
ATOM     13  C   UNL     1      16.171  14.950  28.151  1.00  0.00    -0.000 C 
BRANCH  13  14
ATOM     14  C   UNL     1      16.057  15.733  26.829  1.00  0.00    -0.000 C 
BRANCH  14  15
ATOM     15  C   UNL     1      17.366  15.771  26.013  1.00  0.00    -0.003 C 
ATOM     16  C   UNL     1      18.561  15.227  26.796  1.00  0.00     0.004 C 
ENDBRANCH  14  15
ENDBRANCH  13  14
ENDBRANCH  12  13
ENDBRANCH  11  12
ENDBRANCH  10  11
ENDBRANCH   1  10
TORSDOF 12
ENDMDL
MODEL 3
REMARK VINA RESULT:    -3.253      2.501      5.001
REMARK INTER + INTRA:          -7.527
REMARK INTER:                  -5.963
REMARK INTRA:                  -1.564
REMARK UNBOUND:                -1.992
REMARK SMILES CCCCCCCCCCCCCC(=O)[O-]
REMARK SMILES IDX 8 1 9 2 10 3 11 4 12 5 13 6 14 7 15 8 16 9 7 10 6 11 5 12
REMARK SMILES IDX 4 13 3 14 2 15 1 16
REMARK H PARENT
REMARK Flexibility Score: inf
ROOT
ATOM      1  C   UNL     1      16.367  12.549  31.667  1.00  0.00     0.000 C 
ENDROOT
BRANCH   1   2
ATOM      2  C   UNL     1      17.339  13.723  31.906  1.00  0.00     0.000 C 
BRANCH   2   3
ATOM      3  C   UNL     1      17.706  14.533  30.650  1.00  0.00     0.000 C 
BRANCH   3   4
ATOM      4  C   UNL     1      16.843  15.788  30.412  1.00  0.00     0.000 C 
BRANCH   4   5
ATOM      5  C   UNL     1      16.080  15.771  29.070  1.00  0.00     0.006 C 
BRANCH   5   6
ATOM      6  C   UNL     1      16.714  14.823  28.045  1.00  0.00     0.053 C 
BRANCH   6   7
ATOM      7  C   UNL     1      16.129  15.055  26.688  1.00  0.00     0.041 C 
ATOM      8  O   UNL     1      16.581  15.969  25.950  1.00  0.00    -0.550 OA
ATOM      9  O   UNL     1      15.051  14.292  26.256  1.00  0.00    -0.550 OA
ENDBRANCH   6   7
ENDBRANCH   5   6
ENDBRANCH   4   5
ENDBRANCH   3   4
ENDBRANCH   2   3
ENDBRANCH   1   2
BRANCH   1  10
ATOM     10  C   UNL     1      14.890  12.950  31.495  1.00  0.00     0.000 C 
BRANCH  10  11
ATOM     11  C   UNL     1      14.191  12.183  30.363  1.00  0.00    -0.000 C 
BRANCH  11  12
ATOM     12  C   UNL     1      13.504  13.154  29.389  1.00  0.00    -0.000 C 
BRANCH  12  13
ATOM     13  C   UNL     1      12.951  14.407  30.087  1.00  0.00    -0.000 C 
BRANCH  13  14
ATOM     14  C   UNL     1      11.419  14.563  30.021  1.00  0.00    -0.000 C 
BRANCH  14  15
ATOM     15  C   UNL     1      10.762  14.842  31.390  1.00  0.00    -0.003 C 
ATOM     16  C   UNL     1      11.481  14.136  32.539  1.00  0.00     0.004 C 
ENDBRANCH  14  15
ENDBRANCH  13  14
ENDBRANCH  12  13
ENDBRANCH  11  12
ENDBRANCH  10  11
ENDBRANCH   1  10
TORSDOF 12
ENDMDL
MODEL 4
REMARK VINA RESULT:    -3.247      3.334      5.433
REMARK INTER + INTRA:          -7.516
REMARK INTER:                  -5.579
REMARK INTRA:                  -1.937
REMARK UNBOUND:                -1.992
REMARK SMILES CCCCCCCCCCCCCC(=O)[O-]
REMARK SMILES IDX 8 1 9 2 10 3 11 4 12 5 13 6 14 7 15 8 16 9 7 10 6 11 5 12
REMARK SMILES IDX 4 13 3 14 2 15 1 16
REMARK H PARENT
REMARK Flexibility Score: inf
ROOT
ATOM      1  C   UNL     1      15.290  14.731  28.580  1.00  0.00     0.000 C 
ENDROOT
BRANCH   1   2
ATOM      2  C   UNL     1      15.848  15.957  29.335  1.00  0.00     0.000 C 
BRANCH   2   3
ATOM      3  C   UNL     1      17.035  15.664  30.268  1.00  0.00     0.000 C 
BRANCH   3   4
ATOM      4  C   UNL     1      16.916  14.360  31.081  1.00  0.00     0.000 C 
BRANCH   4   5
ATOM      5  C   UNL     1      18.071  14.146  32.084  1.00  0.00     0.006 C 
BRANCH   5   6
ATOM      6  C   UNL     1      18.000  12.781  32.779  1.00  0.00     0.053 C 
BRANCH   6   7
ATOM      7  C   UNL     1      18.612  11.723  31.916  1.00  0.00     0.041 C 
ATOM      8  O   UNL     1      19.817  11.811  31.564  1.00  0.00    -0.550 OA
ATOM      9  O   UNL     1      17.837  10.664  31.459  1.00  0.00    -0.550 OA
ENDBRANCH   6   7
ENDBRANCH   5   6
ENDBRANCH   4   5
ENDBRANCH   3   4
ENDBRANCH   2   3
ENDBRANCH   1   2
BRANCH   1  10
ATOM     10  C   UNL     1      15.634  14.677  27.081  1.00  0.00     0.000 C 
BRANCH  10  11
ATOM     11  C   UNL     1      16.129  16.022  26.531  1.00  0.00    -0.000 C 
BRANCH  11  12
ATOM     12  C   UNL     1      17.412  15.837  25.705  1.00  0.00    -0.000 C 
BRANCH  12  13
ATOM     13  C   UNL     1      18.306  14.705  26.238  1.00  0.00    -0.000 C 
BRANCH  13  14
ATOM     14  C   UNL     1      19.187  15.088  27.443  1.00  0.00    -0.000 C 
BRANCH  14  15
ATOM     15  C   UNL     1      19.618  13.884  28.307  1.00  0.00    -0.003 C 
ATOM     16  C   UNL     1      18.607  12.739  28.263  1.00  0.00     0.004 C 
ENDBRANCH  14  15
ENDBRANCH  13  14
ENDBRANCH  12  13
ENDBRANCH  11  12
ENDBRANCH  10  11
ENDBRANCH   1  10
TORSDOF 12
ENDMDL
MODEL 5
REMARK VINA RESULT:    -3.243      1.394      3.222
REMARK INTER + INTRA:          -7.510
REMARK INTER:                  -6.035
REMARK INTRA:                  -1.475
REMARK UNBOUND:                -1.992
REMARK SMILES CCCCCCCCCCCCCC(=O)[O-]
REMARK SMILES IDX 8 1 9 2 10 3 11 4 12 5 13 6 14 7 15 8 16 9 7 10 6 11 5 12
REMARK SMILES IDX 4 13 3 14 2 15 1 16
REMARK H PARENT
REMARK Flexibility Score: inf
ROOT
ATOM      1  C   UNL     1      19.820  13.827  28.690  1.00  0.00     0.000 C 
ENDROOT
BRANCH   1   2
ATOM      2  C   UNL     1      19.234  14.989  27.860  1.00  0.00     0.000 C 
BRANCH   2   3
ATOM      3  C   UNL     1      18.285  14.568  26.725  1.00  0.00     0.000 C 
BRANCH   3   4
ATOM      4  C   UNL     1      17.947  15.682  25.715  1.00  0.00     0.000 C 
BRANCH   4   5
ATOM      5  C   UNL     1      16.467  16.123  25.750  1.00  0.00     0.006 C 
BRANCH   5   6
ATOM      6  C   UNL     1      15.811  16.092  24.365  1.00  0.00     0.053 C 
BRANCH   6   7
ATOM      7  C   UNL     1      15.869  14.712  23.790  1.00  0.00     0.041 C 
ATOM      8  O   UNL     1      15.280  13.760  24.367  1.00  0.00    -0.550 OA
ATOM      9  O   UNL     1      16.613  14.466  22.643  1.00  0.00    -0.550 OA
ENDBRANCH   6   7
ENDBRANCH   5   6
ENDBRANCH   4   5
ENDBRANCH   3   4
ENDBRANCH   2   3
ENDBRANCH   1   2
BRANCH   1  10
ATOM     10  C   UNL     1      20.112  14.161  30.164  1.00  0.00     0.000 C 
BRANCH  10  11
ATOM     11  C   UNL     1      19.290  13.312  31.144  1.00  0.00    -0.000 C 
BRANCH  11  12
ATOM     12  C   UNL     1      18.290  14.185  31.919  1.00  0.00    -0.000 C 
BRANCH  12  13
ATOM     13  C   UNL     1      16.977  14.413  31.150  1.00  0.00    -0.000 C 
BRANCH  13  14
ATOM     14  C   UNL     1      16.863  15.784  30.455  1.00  0.00    -0.000 C 
BRANCH  14  15
ATOM     15  C   UNL     1      15.873  15.802  29.272  1.00  0.00    -0.003 C 
ATOM     16  C   UNL     1      15.215  14.442  29.037  1.00  0.00     0.004 C 
ENDBRANCH  14  15
ENDBRANCH  13  14
ENDBRANCH  12  13
ENDBRANCH  11  12
ENDBRANCH  10  11
ENDBRANCH   1  10
TORSDOF 12
ENDMDL
MODEL 6
REMARK VINA RESULT:    -3.236      2.632      3.973
REMARK INTER + INTRA:          -7.498
REMARK INTER:                  -5.754
REMARK INTRA:                  -1.744
REMARK UNBOUND:                -1.992
REMARK SMILES CCCCCCCCCCCCCC(=O)[O-]
REMARK SMILES IDX 8 1 9 2 10 3 11 4 12 5 13 6 14 7 15 8 16 9 7 10 6 11 5 12
REMARK SMILES IDX 4 13 3 14 2 15 1 16
REMARK H PARENT
REMARK Flexibility Score: inf
ROOT
ATOM      1  C   UNL     1      18.251  14.858  29.277  1.00  0.00     0.000 C 
ENDROOT
BRANCH   1   2
ATOM      2  C   UNL     1      17.275  15.720  30.106  1.00  0.00     0.000 C 
BRANCH   2   3
ATOM      3  C   UNL     1      15.863  15.864  29.512  1.00  0.00     0.000 C 
BRANCH   3   4
ATOM      4  C   UNL     1      15.537  14.883  28.370  1.00  0.00     0.000 C 
BRANCH   4   5
ATOM      5  C   UNL     1      14.310  13.988  28.651  1.00  0.00     0.006 C 
BRANCH   5   6
ATOM      6  C   UNL     1      13.831  14.088  30.105  1.00  0.00     0.053 C 
BRANCH   6   7
ATOM      7  C   UNL     1      12.377  14.437  30.153  1.00  0.00     0.041 C 
ATOM      8  O   UNL     1      11.778  14.507  31.258  1.00  0.00    -0.550 OA
ATOM      9  O   UNL     1      11.671  14.639  28.973  1.00  0.00    -0.550 OA
ENDBRANCH   6   7
ENDBRANCH   5   6
ENDBRANCH   4   5
ENDBRANCH   3   4
ENDBRANCH   2   3
ENDBRANCH   1   2
BRANCH   1  10
ATOM     10  C   UNL     1      19.708  14.864  29.772  1.00  0.00     0.000 C 
BRANCH  10  11
ATOM     11  C   UNL     1      20.104  13.560  30.481  1.00  0.00    -0.000 C 
BRANCH  11  12
ATOM     12  C   UNL     1      20.312  13.797  31.985  1.00  0.00    -0.000 C 
BRANCH  12  13
ATOM     13  C   UNL     1      18.989  13.989  32.746  1.00  0.00    -0.000 C 
BRANCH  13  14
ATOM     14  C   UNL     1      18.129  12.717  32.879  1.00  0.00    -0.000 C 
BRANCH  14  15
ATOM     15  C   UNL     1      16.798  12.782  32.101  1.00  0.00    -0.003 C 
ATOM     16  C   UNL     1      16.789  11.866  30.877  1.00  0.00     0.004 C 
ENDBRANCH  14  15
ENDBRANCH  13  14
ENDBRANCH  12  13
ENDBRANCH  11  12
ENDBRANCH  10  11
ENDBRANCH   1  10
TORSDOF 12
ENDMDL
MODEL 7
REMARK VINA RESULT:    -3.216      3.956      5.527
REMARK INTER + INTRA:          -7.465
REMARK INTER:                  -5.965
REMARK INTRA:                  -1.500
REMARK UNBOUND:                -1.992
REMARK SMILES CCCCCCCCCCCCCC(=O)[O-]
REMARK SMILES IDX 8 1 9 2 10 3 11 4 12 5 13 6 14 7 15 8 16 9 7 10 6 11 5 12
REMARK SMILES IDX 4 13 3 14 2 15 1 16
REMARK H PARENT
REMARK Flexibility Score: inf
ROOT
ATOM      1  C   UNL     1      13.657  13.017  30.048  1.00  0.00     0.000 C 
ENDROOT
BRANCH   1   2
ATOM      2  C   UNL     1      13.490  12.814  31.569  1.00  0.00     0.000 C 
BRANCH   2   3
ATOM      3  C   UNL     1      12.036  12.796  32.071  1.00  0.00     0.000 C 
BRANCH   3   4
ATOM      4  C   UNL     1      11.485  14.166  32.512  1.00  0.00     0.000 C 
BRANCH   4   5
ATOM      5  C   UNL     1      10.662  14.885  31.421  1.00  0.00     0.006 C 
BRANCH   5   6
ATOM      6  C   UNL     1      10.092  13.915  30.379  1.00  0.00     0.053 C 
BRANCH   6   7
ATOM      7  C   UNL     1       9.510  14.670  29.226  1.00  0.00     0.041 C 
ATOM      8  O   UNL     1      10.263  15.284  28.425  1.00  0.00    -0.550 OA
ATOM      9  O   UNL     1       8.132  14.736  29.062  1.00  0.00    -0.550 OA
ENDBRANCH   6   7
ENDBRANCH   5   6
ENDBRANCH   4   5
ENDBRANCH   3   4
ENDBRANCH   2   3
ENDBRANCH   1   2
BRANCH   1  10
ATOM     10  C   UNL     1      13.957  14.463  29.613  1.00  0.00     0.000 C 
BRANCH  10  11
ATOM     11  C   UNL     1      14.686  14.541  28.264  1.00  0.00    -0.000 C 
BRANCH  11  12
ATOM     12  C   UNL     1      15.862  15.529  28.334  1.00  0.00    -0.000 C 
BRANCH  12  13
ATOM     13  C   UNL     1      16.207  15.942  29.775  1.00  0.00    -0.000 C 
BRANCH  13  14
ATOM     14  C   UNL     1      17.480  15.292  30.348  1.00  0.00    -0.000 C 
BRANCH  14  15
ATOM     15  C   UNL     1      17.204  14.252  31.455  1.00  0.00    -0.003 C 
ATOM     16  C   UNL     1      17.283  12.815  30.942  1.00  0.00     0.004 C 
ENDBRANCH  14  15
ENDBRANCH  13  14
ENDBRANCH  12  13
ENDBRANCH  11  12
ENDBRANCH  10  11
ENDBRANCH   1  10
TORSDOF 12
ENDMDL
MODEL 8
REMARK VINA RESULT:    -3.171      4.337      5.677
REMARK INTER + INTRA:          -7.389
REMARK INTER:                  -5.633
REMARK INTRA:                  -1.756
REMARK UNBOUND:                -1.992
REMARK SMILES CCCCCCCCCCCCCC(=O)[O-]
REMARK SMILES IDX 8 1 9 2 10 3 11 4 12 5 13 6 14 7 15 8 16 9 7 10 6 11 5 12
REMARK SMILES IDX 4 13 3 14 2 15 1 16
REMARK H PARENT
REMARK Flexibility Score: inf
ROOT
ATOM      1  C   UNL     1      13.881  12.239  30.345  1.00  0.00     0.000 C 
ENDROOT
BRANCH   1   2
ATOM      2  C   UNL     1      13.305  12.981  29.121  1.00  0.00     0.000 C 
BRANCH   2   3
ATOM      3  C   UNL     1      12.776  14.397  29.405  1.00  0.00     0.000 C 
BRANCH   3   4
ATOM      4  C   UNL     1      11.256  14.572  29.220  1.00  0.00     0.000 C 
BRANCH   4   5
ATOM      5  C   UNL     1      10.432  14.190  30.469  1.00  0.00     0.006 C 
BRANCH   5   6
ATOM      6  C   UNL     1      11.016  14.775  31.761  1.00  0.00     0.053 C 
BRANCH   6   7
ATOM      7  C   UNL     1      11.195  13.700  32.786  1.00  0.00     0.041 C 
ATOM      8  O   UNL     1      11.078  12.489  32.462  1.00  0.00    -0.550 OA
ATOM      9  O   UNL     1      11.443  14.037  34.111  1.00  0.00    -0.550 OA
ENDBRANCH   6   7
ENDBRANCH   5   6
ENDBRANCH   4   5
ENDBRANCH   3   4
ENDBRANCH   2   3
ENDBRANCH   1   2
BRANCH   1  10
ATOM     10  C   UNL     1      14.737  13.103  31.289  1.00  0.00     0.000 C 
BRANCH  10  11
ATOM     11  C   UNL     1      16.244  12.879  31.104  1.00  0.00    -0.000 C 
BRANCH  11  12
ATOM     12  C   UNL     1      17.036  14.140  31.484  1.00  0.00    -0.000 C 
BRANCH  12  13
ATOM     13  C   UNL     1      17.454  14.973  30.261  1.00  0.00    -0.000 C 
BRANCH  13  14
ATOM     14  C   UNL     1      16.378  15.946  29.742  1.00  0.00    -0.000 C 
BRANCH  14  15
ATOM     15  C   UNL     1      15.933  15.667  28.290  1.00  0.00    -0.003 C 
ATOM     16  C   UNL     1      16.653  14.466  27.678  1.00  0.00     0.004 C 
ENDBRANCH  14  15
ENDBRANCH  13  14
ENDBRANCH  12  13
ENDBRANCH  11  12
ENDBRANCH  10  11
ENDBRANCH   1  10
TORSDOF 12
ENDMDL
MODEL 9
REMARK VINA RESULT:    -3.132      3.312      5.003
REMARK INTER + INTRA:          -7.322
REMARK INTER:                  -5.332
REMARK INTRA:                  -1.990
REMARK UNBOUND:                -1.992
REMARK SMILES CCCCCCCCCCCCCC(=O)[O-]
REMARK SMILES IDX 8 1 9 2 10 3 11 4 12 5 13 6 14 7 15 8 16 9 7 10 6 11 5 12
REMARK SMILES IDX 4 13 3 14 2 15 1 16
REMARK H PARENT
REMARK Flexibility Score: inf
ROOT
ATOM      1  C   UNL     1      16.255  13.054  27.715  1.00  0.00     0.000 C 
ENDROOT
BRANCH   1   2
ATOM      2  C   UNL     1      15.706  11.993  28.692  1.00  0.00     0.000 C 
BRANCH   2   3
ATOM      3  C   UNL     1      14.323  12.307  29.288  1.00  0.00     0.000 C 
BRANCH   3   4
ATOM      4  C   UNL     1      14.320  12.600  30.801  1.00  0.00     0.000 C 
BRANCH   4   5
ATOM      5  C   UNL     1      13.041  13.314  31.292  1.00  0.00     0.006 C 
BRANCH   5   6
ATOM      6  C   UNL     1      12.587  14.427  30.340  1.00  0.00     0.053 C 
BRANCH   6   7
ATOM      7  C   UNL     1      11.112  14.648  30.460  1.00  0.00     0.041 C 
ATOM      8  O   UNL     1      10.349  14.367  29.499  1.00  0.00    -0.550 OA
ATOM      9  O   UNL     1      10.584  15.209  31.617  1.00  0.00    -0.550 OA
ENDBRANCH   6   7
ENDBRANCH   5   6
ENDBRANCH   4   5
ENDBRANCH   3   4
ENDBRANCH   2   3
ENDBRANCH   1   2
BRANCH   1  10
ATOM     10  C   UNL     1      15.328  14.260  27.474  1.00  0.00     0.000 C 
BRANCH  10  11
ATOM     11  C   UNL     1      15.954  15.592  27.913  1.00  0.00    -0.000 C 
BRANCH  11  12
ATOM     12  C   UNL     1      15.848  15.770  29.436  1.00  0.00    -0.000 C 
BRANCH  12  13
ATOM     13  C   UNL     1      17.210  15.669  30.144  1.00  0.00    -0.000 C 
BRANCH  13  14
ATOM     14  C   UNL     1      17.279  14.617  31.268  1.00  0.00    -0.000 C 
BRANCH  14  15
ATOM     15  C   UNL     1      18.479  13.654  31.146  1.00  0.00    -0.003 C 
ATOM     16  C   UNL     1      19.274  13.867  29.858  1.00  0.00     0.004 C 
ENDBRANCH  14  15
ENDBRANCH  13  14
ENDBRANCH  12  13
ENDBRANCH  11  12
ENDBRANCH  10  11
ENDBRANCH   1  10
TORSDOF 12
ENDMDL
