MODEL 1
REMARK VINA RESULT:    -6.518      0.000      0.000
REMARK INTER + INTRA:          -7.580
REMARK INTER:                  -7.661
REMARK INTRA:                   0.082
REMARK UNBOUND:                 0.082
REMARK SMILES O=c1c(O)c(-c2ccc(O)cc2)oc2cc(O)cc(O)c12
REMARK SMILES IDX 5 1 3 2 2 3 1 4 21 5 19 6 18 7 16 8 15 9 14 10 13 11 6 12
REMARK SMILES IDX 7 13 8 14 9 15 12 16 11 17 10 18 4 20 20 22 17 24
REMARK H PARENT 10 19 4 21 20 23 17 25
REMARK Flexibility Score: inf
ROOT
ATOM      1  C   UNL     1       6.043  27.413  59.532  1.00  0.00     0.180 A 
ATOM      2  C   UNL     1       5.631  26.834  60.744  1.00  0.00     0.208 A 
ATOM      3  C   UNL     1       6.554  26.080  61.486  1.00  0.00     0.238 A 
ATOM      4  O   UNL     1       6.195  25.609  62.597  1.00  0.00    -0.285 OA
ATOM      5  C   UNL     1       7.873  25.902  61.001  1.00  0.00     0.111 A 
ATOM      6  C   UNL     1       8.878  25.125  61.651  1.00  0.00     0.134 A 
ATOM      7  C   UNL     1      10.184  25.127  61.147  1.00  0.00     0.093 A 
ATOM      8  C   UNL     1      10.505  25.824  59.980  1.00  0.00     0.123 A 
ATOM      9  C   UNL     1       9.517  26.537  59.305  1.00  0.00     0.094 A 
ATOM     10  C   UNL     1       8.213  26.584  59.803  1.00  0.00     0.146 A 
ATOM     11  O   UNL     1       7.304  27.284  59.136  1.00  0.00    -0.452 OA
ENDROOT
BRANCH   1  12
ATOM     12  C   UNL     1       5.122  28.200  58.681  1.00  0.00     0.021 A 
ATOM     13  C   UNL     1       5.575  29.387  58.081  1.00  0.00     0.016 A 
ATOM     14  C   UNL     1       4.729  30.134  57.256  1.00  0.00     0.047 A 
ATOM     15  C   UNL     1       3.425  29.696  57.007  1.00  0.00     0.115 A 
ATOM     16  C   UNL     1       3.814  27.756  58.410  1.00  0.00     0.016 A 
ATOM     17  C   UNL     1       2.970  28.505  57.585  1.00  0.00     0.047 A 
BRANCH  15  18
ATOM     18  O   UNL     1       2.592  30.451  56.183  1.00  0.00    -0.508 OA
ATOM     19  H   UNL     1       2.646  31.462  56.159  1.00  0.00     0.293 HD
ENDBRANCH  15  18
ENDBRANCH   1  12
BRANCH   2  20
ATOM     20  O   UNL     1       4.332  27.040  61.216  1.00  0.00    -0.502 OA
ATOM     21  H   UNL     1       4.081  27.839  61.786  1.00  0.00     0.293 HD
ENDBRANCH   2  20
BRANCH   6  22
ATOM     22  O   UNL     1       8.640  24.320  62.769  1.00  0.00    -0.507 OA
ATOM     23  H   UNL     1       7.782  23.819  62.944  1.00  0.00     0.293 HD
ENDBRANCH   6  22
BRANCH   8  24
ATOM     24  O   UNL     1      11.805  25.806  59.477  1.00  0.00    -0.508 OA
ATOM     25  H   UNL     1      12.304  26.663  59.269  1.00  0.00     0.293 HD
ENDBRANCH   8  24
TORSDOF 5
ENDMDL
MODEL 2
REMARK VINA RESULT:    -6.383      1.229      6.428
REMARK INTER + INTRA:          -7.421
REMARK INTER:                  -7.215
REMARK INTRA:                  -0.206
REMARK UNBOUND:                 0.082
REMARK SMILES O=c1c(O)c(-c2ccc(O)cc2)oc2cc(O)cc(O)c12
REMARK SMILES IDX 5 1 3 2 2 3 1 4 21 5 19 6 18 7 16 8 15 9 14 10 13 11 6 12
REMARK SMILES IDX 7 13 8 14 9 15 12 16 11 17 10 18 4 20 20 22 17 24
REMARK H PARENT 10 19 4 21 20 23 17 25
REMARK Flexibility Score: inf
ROOT
ATOM      1  C   UNL     1       7.204  26.815  59.986  1.00  0.00     0.180 A 
ATOM      2  C   UNL     1       6.203  26.046  60.604  1.00  0.00     0.208 A 
ATOM      3  C   UNL     1       4.856  26.352  60.349  1.00  0.00     0.238 A 
ATOM      4  O   UNL     1       3.964  25.627  60.863  1.00  0.00    -0.285 OA
ATOM      5  C   UNL     1       4.528  27.432  59.493  1.00  0.00     0.111 A 
ATOM      6  C   UNL     1       3.198  27.855  59.197  1.00  0.00     0.134 A 
ATOM      7  C   UNL     1       2.988  28.850  58.234  1.00  0.00     0.093 A 
ATOM      8  C   UNL     1       4.064  29.483  57.607  1.00  0.00     0.123 A 
ATOM      9  C   UNL     1       5.369  29.118  57.933  1.00  0.00     0.094 A 
ATOM     10  C   UNL     1       5.608  28.103  58.862  1.00  0.00     0.146 A 
ATOM     11  O   UNL     1       6.865  27.778  59.137  1.00  0.00    -0.452 OA
ENDROOT
BRANCH   1  12
ATOM     12  C   UNL     1       8.645  26.570  60.224  1.00  0.00     0.021 A 
ATOM     13  C   UNL     1       9.450  26.095  59.175  1.00  0.00     0.016 A 
ATOM     14  C   UNL     1      10.817  25.878  59.372  1.00  0.00     0.047 A 
ATOM     15  C   UNL     1      11.399  26.147  60.614  1.00  0.00     0.115 A 
ATOM     16  C   UNL     1       9.242  26.857  61.466  1.00  0.00     0.016 A 
ATOM     17  C   UNL     1      10.609  26.639  61.660  1.00  0.00     0.047 A 
BRANCH  15  18
ATOM     18  O   UNL     1      12.763  25.925  60.797  1.00  0.00    -0.508 OA
ATOM     19  H   UNL     1      13.459  26.465  60.296  1.00  0.00     0.293 HD
ENDBRANCH  15  18
ENDBRANCH   1  12
BRANCH   2  20
ATOM     20  O   UNL     1       6.548  24.972  61.427  1.00  0.00    -0.502 OA
ATOM     21  H   UNL     1       5.882  24.260  61.702  1.00  0.00     0.293 HD
ENDBRANCH   2  20
BRANCH   6  22
ATOM     22  O   UNL     1       2.059  27.354  59.834  1.00  0.00    -0.507 OA
ATOM     23  H   UNL     1       1.372  26.758  59.398  1.00  0.00     0.293 HD
ENDBRANCH   6  22
BRANCH   8  24
ATOM     24  O   UNL     1       3.848  30.484  56.662  1.00  0.00    -0.508 OA
ATOM     25  H   UNL     1       3.879  31.466  56.912  1.00  0.00     0.293 HD
ENDBRANCH   8  24
TORSDOF 5
ENDMDL
MODEL 3
REMARK VINA RESULT:    -5.764      1.744      3.793
REMARK INTER + INTRA:          -6.693
REMARK INTER:                  -6.906
REMARK INTRA:                   0.213
REMARK UNBOUND:                 0.082
REMARK SMILES O=c1c(O)c(-c2ccc(O)cc2)oc2cc(O)cc(O)c12
REMARK SMILES IDX 5 1 3 2 2 3 1 4 21 5 19 6 18 7 16 8 15 9 14 10 13 11 6 12
REMARK SMILES IDX 7 13 8 14 9 15 12 16 11 17 10 18 4 20 20 22 17 24
REMARK H PARENT 10 19 4 21 20 23 17 25
REMARK Flexibility Score: inf
ROOT
ATOM      1  C   UNL     1       5.188  27.370  59.468  1.00  0.00     0.180 A 
ATOM      2  C   UNL     1       6.563  27.079  59.461  1.00  0.00     0.208 A 
ATOM      3  C   UNL     1       7.072  26.178  60.410  1.00  0.00     0.238 A 
ATOM      4  O   UNL     1       8.295  25.880  60.366  1.00  0.00    -0.285 OA
ATOM      5  C   UNL     1       6.204  25.592  61.363  1.00  0.00     0.111 A 
ATOM      6  C   UNL     1       6.618  24.697  62.395  1.00  0.00     0.134 A 
ATOM      7  C   UNL     1       5.655  24.076  63.199  1.00  0.00     0.093 A 
ATOM      8  C   UNL     1       4.297  24.369  63.051  1.00  0.00     0.123 A 
ATOM      9  C   UNL     1       3.887  25.286  62.085  1.00  0.00     0.094 A 
ATOM     10  C   UNL     1       4.822  25.894  61.245  1.00  0.00     0.146 A 
ATOM     11  O   UNL     1       4.389  26.754  60.331  1.00  0.00    -0.452 OA
ENDROOT
BRANCH   1  12
ATOM     12  C   UNL     1       4.581  28.328  58.516  1.00  0.00     0.021 A 
ATOM     13  C   UNL     1       3.259  28.130  58.082  1.00  0.00     0.016 A 
ATOM     14  C   UNL     1       2.659  29.034  57.200  1.00  0.00     0.047 A 
ATOM     15  C   UNL     1       3.365  30.154  56.754  1.00  0.00     0.115 A 
ATOM     16  C   UNL     1       5.279  29.469  58.077  1.00  0.00     0.016 A 
ATOM     17  C   UNL     1       4.676  30.371  57.196  1.00  0.00     0.047 A 
BRANCH  15  18
ATOM     18  O   UNL     1       2.755  31.047  55.875  1.00  0.00    -0.508 OA
ATOM     19  H   UNL     1       2.069  31.720  56.196  1.00  0.00     0.293 HD
ENDBRANCH  15  18
ENDBRANCH   1  12
BRANCH   2  20
ATOM     20  O   UNL     1       7.399  27.651  58.499  1.00  0.00    -0.502 OA
ATOM     21  H   UNL     1       8.104  27.118  58.005  1.00  0.00     0.293 HD
ENDBRANCH   2  20
BRANCH   6  22
ATOM     22  O   UNL     1       7.955  24.409  62.687  1.00  0.00    -0.507 OA
ATOM     23  H   UNL     1       8.705  24.420  62.014  1.00  0.00     0.293 HD
ENDBRANCH   6  22
BRANCH   8  24
ATOM     24  O   UNL     1       3.345  23.759  63.866  1.00  0.00    -0.508 OA
ATOM     25  H   UNL     1       2.973  24.223  64.686  1.00  0.00     0.293 HD
ENDBRANCH   8  24
TORSDOF 5
ENDMDL
MODEL 4
REMARK VINA RESULT:    -5.542      1.732      3.430
REMARK INTER + INTRA:          -6.432
REMARK INTER:                  -6.148
REMARK INTRA:                  -0.284
REMARK UNBOUND:                 0.082
REMARK SMILES O=c1c(O)c(-c2ccc(O)cc2)oc2cc(O)cc(O)c12
REMARK SMILES IDX 5 1 3 2 2 3 1 4 21 5 19 6 18 7 16 8 15 9 14 10 13 11 6 12
REMARK SMILES IDX 7 13 8 14 9 15 12 16 11 17 10 18 4 20 20 22 17 24
REMARK H PARENT 10 19 4 21 20 23 17 25
REMARK Flexibility Score: inf
ROOT
ATOM      1  C   UNL     1       6.058  26.834  60.088  1.00  0.00     0.180 A 
ATOM      2  C   UNL     1       7.447  26.670  59.946  1.00  0.00     0.208 A 
ATOM      3  C   UNL     1       8.120  25.795  60.813  1.00  0.00     0.238 A 
ATOM      4  O   UNL     1       9.355  25.610  60.647  1.00  0.00    -0.285 OA
ATOM      5  C   UNL     1       7.400  25.107  61.821  1.00  0.00     0.111 A 
ATOM      6  C   UNL     1       7.987  24.228  62.779  1.00  0.00     0.134 A 
ATOM      7  C   UNL     1       7.161  23.501  63.646  1.00  0.00     0.093 A 
ATOM      8  C   UNL     1       5.775  23.673  63.632  1.00  0.00     0.123 A 
ATOM      9  C   UNL     1       5.197  24.573  62.740  1.00  0.00     0.094 A 
ATOM     10  C   UNL     1       5.992  25.285  61.839  1.00  0.00     0.146 A 
ATOM     11  O   UNL     1       5.401  26.126  60.998  1.00  0.00    -0.452 OA
ENDROOT
BRANCH   1  12
ATOM     12  C   UNL     1       5.283  27.757  59.228  1.00  0.00     0.021 A 
ATOM     13  C   UNL     1       5.212  29.120  59.563  1.00  0.00     0.016 A 
ATOM     14  C   UNL     1       4.504  30.014  58.753  1.00  0.00     0.047 A 
ATOM     15  C   UNL     1       3.870  29.560  57.593  1.00  0.00     0.115 A 
ATOM     16  C   UNL     1       4.659  27.311  58.048  1.00  0.00     0.016 A 
ATOM     17  C   UNL     1       3.951  28.207  57.241  1.00  0.00     0.047 A 
BRANCH  15  18
ATOM     18  O   UNL     1       3.167  30.461  56.796  1.00  0.00    -0.508 OA
ATOM     19  H   UNL     1       2.455  30.149  56.146  1.00  0.00     0.293 HD
ENDBRANCH  15  18
ENDBRANCH   1  12
BRANCH   2  20
ATOM     20  O   UNL     1       8.135  27.340  58.931  1.00  0.00    -0.502 OA
ATOM     21  H   UNL     1       8.437  28.302  59.023  1.00  0.00     0.293 HD
ENDBRANCH   2  20
BRANCH   6  22
ATOM     22  O   UNL     1       9.365  24.054  62.938  1.00  0.00    -0.507 OA
ATOM     23  H   UNL     1      10.065  24.720  62.649  1.00  0.00     0.293 HD
ENDBRANCH   6  22
BRANCH   8  24
ATOM     24  O   UNL     1       4.961  22.958  64.510  1.00  0.00    -0.508 OA
ATOM     25  H   UNL     1       4.824  23.256  65.468  1.00  0.00     0.293 HD
ENDBRANCH   8  24
TORSDOF 5
ENDMDL
MODEL 5
REMARK VINA RESULT:    -5.515      1.165      1.299
REMARK INTER + INTRA:          -6.401
REMARK INTER:                  -6.109
REMARK INTRA:                  -0.292
REMARK UNBOUND:                 0.082
REMARK SMILES O=c1c(O)c(-c2ccc(O)cc2)oc2cc(O)cc(O)c12
REMARK SMILES IDX 5 1 3 2 2 3 1 4 21 5 19 6 18 7 16 8 15 9 14 10 13 11 6 12
REMARK SMILES IDX 7 13 8 14 9 15 12 16 11 17 10 18 4 20 20 22 17 24
REMARK H PARENT 10 19 4 21 20 23 17 25
REMARK Flexibility Score: inf
ROOT
ATOM      1  C   UNL     1       5.897  26.811  60.193  1.00  0.00     0.180 A 
ATOM      2  C   UNL     1       5.233  25.986  61.117  1.00  0.00     0.208 A 
ATOM      3  C   UNL     1       5.987  25.102  61.904  1.00  0.00     0.238 A 
ATOM      4  O   UNL     1       5.393  24.404  62.768  1.00  0.00    -0.285 OA
ATOM      5  C   UNL     1       7.394  25.041  61.746  1.00  0.00     0.111 A 
ATOM      6  C   UNL     1       8.252  24.154  62.462  1.00  0.00     0.134 A 
ATOM      7  C   UNL     1       9.640  24.272  62.321  1.00  0.00     0.093 A 
ATOM      8  C   UNL     1      10.197  25.201  61.439  1.00  0.00     0.123 A 
ATOM      9  C   UNL     1       9.366  26.032  60.692  1.00  0.00     0.094 A 
ATOM     10  C   UNL     1       7.978  25.962  60.838  1.00  0.00     0.146 A 
ATOM     11  O   UNL     1       7.222  26.779  60.115  1.00  0.00    -0.452 OA
ENDROOT
BRANCH   1  12
ATOM     12  C   UNL     1       5.169  27.751  59.310  1.00  0.00     0.021 A 
ATOM     13  C   UNL     1       5.086  29.109  59.662  1.00  0.00     0.016 A 
ATOM     14  C   UNL     1       4.423  30.018  58.832  1.00  0.00     0.047 A 
ATOM     15  C   UNL     1       3.847  29.585  57.634  1.00  0.00     0.115 A 
ATOM     16  C   UNL     1       4.603  27.326  58.093  1.00  0.00     0.016 A 
ATOM     17  C   UNL     1       3.941  28.237  57.265  1.00  0.00     0.047 A 
BRANCH  15  18
ATOM     18  O   UNL     1       3.188  30.501  56.817  1.00  0.00    -0.508 OA
ATOM     19  H   UNL     1       2.907  31.412  57.162  1.00  0.00     0.293 HD
ENDBRANCH  15  18
ENDBRANCH   1  12
BRANCH   2  20
ATOM     20  O   UNL     1       3.847  26.077  61.272  1.00  0.00    -0.502 OA
ATOM     21  H   UNL     1       3.386  26.936  61.547  1.00  0.00     0.293 HD
ENDBRANCH   2  20
BRANCH   6  22
ATOM     22  O   UNL     1       7.794  23.130  63.297  1.00  0.00    -0.507 OA
ATOM     23  H   UNL     1       7.242  23.270  64.129  1.00  0.00     0.293 HD
ENDBRANCH   6  22
BRANCH   8  24
ATOM     24  O   UNL     1      11.579  25.301  61.292  1.00  0.00    -0.508 OA
ATOM     25  H   UNL     1      12.190  25.423  62.092  1.00  0.00     0.293 HD
ENDBRANCH   8  24
TORSDOF 5
ENDMDL
MODEL 6
REMARK VINA RESULT:    -5.381      2.357      3.195
REMARK INTER + INTRA:          -6.243
REMARK INTER:                  -6.063
REMARK INTRA:                  -0.180
REMARK UNBOUND:                 0.082
REMARK SMILES O=c1c(O)c(-c2ccc(O)cc2)oc2cc(O)cc(O)c12
REMARK SMILES IDX 5 1 3 2 2 3 1 4 21 5 19 6 18 7 16 8 15 9 14 10 13 11 6 12
REMARK SMILES IDX 7 13 8 14 9 15 12 16 11 17 10 18 4 20 20 22 17 24
REMARK H PARENT 10 19 4 21 20 23 17 25
REMARK Flexibility Score: inf
ROOT
ATOM      1  C   UNL     1       4.058  27.162  60.288  1.00  0.00     0.180 A 
ATOM      2  C   UNL     1       3.054  26.942  61.246  1.00  0.00     0.208 A 
ATOM      3  C   UNL     1       3.255  25.958  62.228  1.00  0.00     0.238 A 
ATOM      4  O   UNL     1       2.376  25.802  63.116  1.00  0.00    -0.285 OA
ATOM      5  C   UNL     1       4.449  25.197  62.230  1.00  0.00     0.111 A 
ATOM      6  C   UNL     1       4.741  24.148  63.153  1.00  0.00     0.134 A 
ATOM      7  C   UNL     1       6.007  23.552  63.143  1.00  0.00     0.093 A 
ATOM      8  C   UNL     1       6.969  23.921  62.199  1.00  0.00     0.123 A 
ATOM      9  C   UNL     1       6.674  24.903  61.256  1.00  0.00     0.094 A 
ATOM     10  C   UNL     1       5.431  25.541  61.265  1.00  0.00     0.146 A 
ATOM     11  O   UNL     1       5.194  26.479  60.355  1.00  0.00    -0.452 OA
ENDROOT
BRANCH   1  12
ATOM     12  C   UNL     1       3.908  28.163  59.207  1.00  0.00     0.021 A 
ATOM     13  C   UNL     1       4.777  29.267  59.160  1.00  0.00     0.016 A 
ATOM     14  C   UNL     1       4.668  30.213  58.136  1.00  0.00     0.047 A 
ATOM     15  C   UNL     1       3.702  30.059  57.138  1.00  0.00     0.115 A 
ATOM     16  C   UNL     1       2.951  28.005  58.187  1.00  0.00     0.016 A 
ATOM     17  C   UNL     1       2.845  28.952  57.164  1.00  0.00     0.047 A 
BRANCH  15  18
ATOM     18  O   UNL     1       3.604  31.009  56.123  1.00  0.00    -0.508 OA
ATOM     19  H   UNL     1       2.950  31.780  56.181  1.00  0.00     0.293 HD
ENDBRANCH  15  18
ENDBRANCH   1  12
BRANCH   2  20
ATOM     20  O   UNL     1       1.892  27.719  61.240  1.00  0.00    -0.502 OA
ATOM     21  H   UNL     1       1.452  28.045  62.092  1.00  0.00     0.293 HD
ENDBRANCH   2  20
BRANCH   6  22
ATOM     22  O   UNL     1       3.819  23.641  64.074  1.00  0.00    -0.507 OA
ATOM     23  H   UNL     1       3.209  24.205  64.646  1.00  0.00     0.293 HD
ENDBRANCH   6  22
BRANCH   8  24
ATOM     24  O   UNL     1       8.222  23.311  62.186  1.00  0.00    -0.508 OA
ATOM     25  H   UNL     1       8.519  22.693  62.932  1.00  0.00     0.293 HD
ENDBRANCH   8  24
TORSDOF 5
ENDMDL
MODEL 7
REMARK VINA RESULT:    -5.375      2.840      6.955
REMARK INTER + INTRA:          -6.236
REMARK INTER:                  -5.937
REMARK INTRA:                  -0.299
REMARK UNBOUND:                 0.082
REMARK SMILES O=c1c(O)c(-c2ccc(O)cc2)oc2cc(O)cc(O)c12
REMARK SMILES IDX 5 1 3 2 2 3 1 4 21 5 19 6 18 7 16 8 15 9 14 10 13 11 6 12
REMARK SMILES IDX 7 13 8 14 9 15 12 16 11 17 10 18 4 20 20 22 17 24
REMARK H PARENT 10 19 4 21 20 23 17 25
REMARK Flexibility Score: inf
ROOT
ATOM      1  C   UNL     1       5.385  26.258  61.695  1.00  0.00     0.180 A 
ATOM      2  C   UNL     1       5.652  27.438  62.409  1.00  0.00     0.208 A 
ATOM      3  C   UNL     1       5.246  28.668  61.867  1.00  0.00     0.238 A 
ATOM      4  O   UNL     1       5.440  29.717  62.536  1.00  0.00    -0.285 OA
ATOM      5  C   UNL     1       4.593  28.704  60.610  1.00  0.00     0.111 A 
ATOM      6  C   UNL     1       4.175  29.897  59.948  1.00  0.00     0.134 A 
ATOM      7  C   UNL     1       3.422  29.805  58.772  1.00  0.00     0.093 A 
ATOM      8  C   UNL     1       3.130  28.565  58.198  1.00  0.00     0.123 A 
ATOM      9  C   UNL     1       3.584  27.397  58.806  1.00  0.00     0.094 A 
ATOM     10  C   UNL     1       4.307  27.455  60.000  1.00  0.00     0.146 A 
ATOM     11  O   UNL     1       4.713  26.318  60.552  1.00  0.00    -0.452 OA
ENDROOT
BRANCH   1  12
ATOM     12  C   UNL     1       5.804  24.926  62.189  1.00  0.00     0.021 A 
ATOM     13  C   UNL     1       4.894  24.139  62.915  1.00  0.00     0.016 A 
ATOM     14  C   UNL     1       5.261  22.870  63.372  1.00  0.00     0.047 A 
ATOM     15  C   UNL     1       6.535  22.365  63.097  1.00  0.00     0.115 A 
ATOM     16  C   UNL     1       7.078  24.403  61.899  1.00  0.00     0.016 A 
ATOM     17  C   UNL     1       7.442  23.134  62.357  1.00  0.00     0.047 A 
BRANCH  15  18
ATOM     18  O   UNL     1       6.888  21.098  63.559  1.00  0.00    -0.508 OA
ATOM     19  H   UNL     1       7.399  20.974  64.425  1.00  0.00     0.293 HD
ENDBRANCH  15  18
ENDBRANCH   1  12
BRANCH   2  20
ATOM     20  O   UNL     1       6.278  27.379  63.657  1.00  0.00    -0.502 OA
ATOM     21  H   UNL     1       6.562  28.209  64.163  1.00  0.00     0.293 HD
ENDBRANCH   2  20
BRANCH   6  22
ATOM     22  O   UNL     1       4.494  31.186  60.387  1.00  0.00    -0.507 OA
ATOM     23  H   UNL     1       5.198  31.776  59.972  1.00  0.00     0.293 HD
ENDBRANCH   6  22
BRANCH   8  24
ATOM     24  O   UNL     1       2.393  28.484  57.018  1.00  0.00    -0.508 OA
ATOM     25  H   UNL     1       1.433  28.803  56.969  1.00  0.00     0.293 HD
ENDBRANCH   8  24
TORSDOF 5
ENDMDL
MODEL 8
REMARK VINA RESULT:    -5.231      5.175      6.986
REMARK INTER + INTRA:          -6.066
REMARK INTER:                  -5.817
REMARK INTRA:                  -0.249
REMARK UNBOUND:                 0.082
REMARK SMILES O=c1c(O)c(-c2ccc(O)cc2)oc2cc(O)cc(O)c12
REMARK SMILES IDX 5 1 3 2 2 3 1 4 21 5 19 6 18 7 16 8 15 9 14 10 13 11 6 12
REMARK SMILES IDX 7 13 8 14 9 15 12 16 11 17 10 18 4 20 20 22 17 24
REMARK H PARENT 10 19 4 21 20 23 17 25
REMARK Flexibility Score: inf
ROOT
ATOM      1  C   UNL     1       5.114  31.773  62.178  1.00  0.00     0.180 A 
ATOM      2  C   UNL     1       4.832  30.857  63.205  1.00  0.00     0.208 A 
ATOM      3  C   UNL     1       4.209  29.642  62.881  1.00  0.00     0.238 A 
ATOM      4  O   UNL     1       4.007  28.802  63.797  1.00  0.00    -0.285 OA
ATOM      5  C   UNL     1       3.861  29.364  61.536  1.00  0.00     0.111 A 
ATOM      6  C   UNL     1       3.191  28.182  61.100  1.00  0.00     0.134 A 
ATOM      7  C   UNL     1       3.014  27.954  59.730  1.00  0.00     0.093 A 
ATOM      8  C   UNL     1       3.425  28.897  58.784  1.00  0.00     0.123 A 
ATOM      9  C   UNL     1       4.028  30.081  59.204  1.00  0.00     0.094 A 
ATOM     10  C   UNL     1       4.250  30.320  60.562  1.00  0.00     0.146 A 
ATOM     11  O   UNL     1       4.836  31.456  60.919  1.00  0.00    -0.452 OA
ENDROOT
BRANCH   1  12
ATOM     12  C   UNL     1       5.746  33.086  62.444  1.00  0.00     0.021 A 
ATOM     13  C   UNL     1       4.976  34.128  62.987  1.00  0.00     0.016 A 
ATOM     14  C   UNL     1       5.558  35.368  63.267  1.00  0.00     0.047 A 
ATOM     15  C   UNL     1       6.918  35.578  63.022  1.00  0.00     0.115 A 
ATOM     16  C   UNL     1       7.120  33.298  62.219  1.00  0.00     0.016 A 
ATOM     17  C   UNL     1       7.698  34.539  62.500  1.00  0.00     0.047 A 
BRANCH  15  18
ATOM     18  O   UNL     1       7.485  36.819  63.305  1.00  0.00    -0.508 OA
ATOM     19  H   UNL     1       7.905  37.016  64.206  1.00  0.00     0.293 HD
ENDBRANCH  15  18
ENDBRANCH   1  12
BRANCH   2  20
ATOM     20  O   UNL     1       5.204  31.140  64.522  1.00  0.00    -0.502 OA
ATOM     21  H   UNL     1       5.195  32.080  64.900  1.00  0.00     0.293 HD
ENDBRANCH   2  20
BRANCH   6  22
ATOM     22  O   UNL     1       2.659  27.222  61.966  1.00  0.00    -0.507 OA
ATOM     23  H   UNL     1       2.267  26.340  61.674  1.00  0.00     0.293 HD
ENDBRANCH   6  22
BRANCH   8  24
ATOM     24  O   UNL     1       3.231  28.670  57.423  1.00  0.00    -0.508 OA
ATOM     25  H   UNL     1       3.859  28.080  56.890  1.00  0.00     0.293 HD
ENDBRANCH   8  24
TORSDOF 5
ENDMDL
MODEL 9
REMARK VINA RESULT:    -5.188      1.655      6.489
REMARK INTER + INTRA:          -6.016
REMARK INTER:                  -6.222
REMARK INTRA:                   0.207
REMARK UNBOUND:                 0.082
REMARK SMILES O=c1c(O)c(-c2ccc(O)cc2)oc2cc(O)cc(O)c12
REMARK SMILES IDX 5 1 3 2 2 3 1 4 21 5 19 6 18 7 16 8 15 9 14 10 13 11 6 12
REMARK SMILES IDX 7 13 8 14 9 15 12 16 11 17 10 18 4 20 20 22 17 24
REMARK H PARENT 10 19 4 21 20 23 17 25
REMARK Flexibility Score: inf
ROOT
ATOM      1  C   UNL     1       7.423  26.884  60.741  1.00  0.00     0.180 A 
ATOM      2  C   UNL     1       6.975  27.266  62.017  1.00  0.00     0.208 A 
ATOM      3  C   UNL     1       5.691  27.818  62.149  1.00  0.00     0.238 A 
ATOM      4  O   UNL     1       5.274  28.109  63.301  1.00  0.00    -0.285 OA
ATOM      5  C   UNL     1       4.878  27.996  61.003  1.00  0.00     0.111 A 
ATOM      6  C   UNL     1       3.577  28.583  61.016  1.00  0.00     0.134 A 
ATOM      7  C   UNL     1       2.811  28.588  59.844  1.00  0.00     0.093 A 
ATOM      8  C   UNL     1       3.326  28.089  58.645  1.00  0.00     0.123 A 
ATOM      9  C   UNL     1       4.617  27.568  58.609  1.00  0.00     0.094 A 
ATOM     10  C   UNL     1       5.391  27.516  59.771  1.00  0.00     0.146 A 
ATOM     11  O   UNL     1       6.613  27.002  59.696  1.00  0.00    -0.452 OA
ENDROOT
BRANCH   1  12
ATOM     12  C   UNL     1       8.773  26.318  60.517  1.00  0.00     0.021 A 
ATOM     13  C   UNL     1       9.287  25.374  61.422  1.00  0.00     0.016 A 
ATOM     14  C   UNL     1      10.551  24.810  61.218  1.00  0.00     0.047 A 
ATOM     15  C   UNL     1      11.309  25.171  60.101  1.00  0.00     0.115 A 
ATOM     16  C   UNL     1       9.534  26.661  59.384  1.00  0.00     0.016 A 
ATOM     17  C   UNL     1      10.797  26.096  59.183  1.00  0.00     0.047 A 
BRANCH  15  18
ATOM     18  O   UNL     1      12.567  24.601  59.910  1.00  0.00    -0.508 OA
ATOM     19  H   UNL     1      13.021  24.065  60.639  1.00  0.00     0.293 HD
ENDBRANCH  15  18
ENDBRANCH   1  12
BRANCH   2  20
ATOM     20  O   UNL     1       7.784  27.061  63.137  1.00  0.00    -0.502 OA
ATOM     21  H   UNL     1       7.580  27.476  64.039  1.00  0.00     0.293 HD
ENDBRANCH   2  20
BRANCH   6  22
ATOM     22  O   UNL     1       3.006  29.192  62.137  1.00  0.00    -0.507 OA
ATOM     23  H   UNL     1       2.072  29.016  62.474  1.00  0.00     0.293 HD
ENDBRANCH   6  22
BRANCH   8  24
ATOM     24  O   UNL     1       2.562  28.113  57.479  1.00  0.00    -0.508 OA
ATOM     25  H   UNL     1       1.563  27.947  57.496  1.00  0.00     0.293 HD
ENDBRANCH   8  24
TORSDOF 5
ENDMDL
