MODEL 1
REMARK VINA RESULT:    -2.958      0.000      0.000
REMARK INTER + INTRA:          -6.504
REMARK INTER:                  -5.379
REMARK INTRA:                  -1.125
REMARK UNBOUND:                -1.125
REMARK SMILES CCCCCCCCCCCCCCCC(=O)[O-]
REMARK SMILES IDX 9 1 10 2 11 3 12 4 13 5 14 6 15 7 16 8 17 9 18 10 8 11 7 12
REMARK SMILES IDX 6 13 5 14 4 15 3 16 2 17 1 18
REMARK H PARENT
REMARK Flexibility Score: inf
ROOT
ATOM      1  C   UNL     1     -16.055  16.085  -7.438  1.00  0.00     0.000 C 
ENDROOT
BRANCH   1   2
ATOM      2  C   UNL     1     -17.125  14.995  -7.244  1.00  0.00     0.000 C 
BRANCH   2   3
ATOM      3  C   UNL     1     -16.759  13.605  -7.810  1.00  0.00     0.000 C 
BRANCH   3   4
ATOM      4  C   UNL     1     -17.066  13.408  -9.306  1.00  0.00     0.000 C 
BRANCH   4   5
ATOM      5  C   UNL     1     -15.918  13.793 -10.258  1.00  0.00     0.000 C 
BRANCH   5   6
ATOM      6  C   UNL     1     -14.613  13.007 -10.008  1.00  0.00     0.006 C 
BRANCH   6   7
ATOM      7  C   UNL     1     -14.522  11.733 -10.858  1.00  0.00     0.053 C 
BRANCH   7   8
ATOM      8  C   UNL     1     -14.629  12.066 -12.313  1.00  0.00     0.041 C 
ATOM      9  O   UNL     1     -13.907  12.970 -12.811  1.00  0.00    -0.550 OA
ATOM     10  O   UNL     1     -15.561  11.412 -13.108  1.00  0.00    -0.550 OA
ENDBRANCH   7   8
ENDBRANCH   6   7
ENDBRANCH   5   6
ENDBRANCH   4   5
ENDBRANCH   3   4
ENDBRANCH   2   3
ENDBRANCH   1   2
BRANCH   1  11
ATOM     11  C   UNL     1     -16.563  17.281  -8.261  1.00  0.00     0.000 C 
BRANCH  11  12
ATOM     12  C   UNL     1     -15.858  17.399  -9.623  1.00  0.00    -0.000 C 
BRANCH  12  13
ATOM     13  C   UNL     1     -16.682  18.200 -10.645  1.00  0.00    -0.000 C 
BRANCH  13  14
ATOM     14  C   UNL     1     -16.313  19.693 -10.658  1.00  0.00    -0.000 C 
BRANCH  14  15
ATOM     15  C   UNL     1     -15.690  20.138 -11.992  1.00  0.00    -0.000 C 
BRANCH  15  16
ATOM     16  C   UNL     1     -14.283  19.555 -12.216  1.00  0.00    -0.000 C 
BRANCH  16  17
ATOM     17  C   UNL     1     -13.185  20.603 -12.475  1.00  0.00    -0.003 C 
ATOM     18  C   UNL     1     -13.598  22.016 -12.064  1.00  0.00     0.004 C 
ENDBRANCH  16  17
ENDBRANCH  15  16
ENDBRANCH  14  15
ENDBRANCH  13  14
ENDBRANCH  12  13
ENDBRANCH  11  12
ENDBRANCH   1  11
TORSDOF 14
ENDMDL
MODEL 2
REMARK VINA RESULT:    -2.606      1.166      1.714
REMARK INTER + INTRA:          -5.864
REMARK INTER:                  -4.706
REMARK INTRA:                  -1.159
REMARK UNBOUND:                -1.125
REMARK SMILES CCCCCCCCCCCCCCCC(=O)[O-]
REMARK SMILES IDX 9 1 10 2 11 3 12 4 13 5 14 6 15 7 16 8 17 9 18 10 8 11 7 12
REMARK SMILES IDX 6 13 5 14 4 15 3 16 2 17 1 18
REMARK H PARENT
REMARK Flexibility Score: inf
ROOT
ATOM      1  C   UNL     1     -16.261  15.754  -7.181  1.00  0.00     0.000 C 
ENDROOT
BRANCH   1   2
ATOM      2  C   UNL     1     -17.103  14.496  -6.904  1.00  0.00     0.000 C 
BRANCH   2   3
ATOM      3  C   UNL     1     -16.305  13.179  -6.799  1.00  0.00     0.000 C 
BRANCH   3   4
ATOM      4  C   UNL     1     -14.824  13.277  -7.210  1.00  0.00     0.000 C 
BRANCH   4   5
ATOM      5  C   UNL     1     -14.506  12.739  -8.618  1.00  0.00     0.000 C 
BRANCH   5   6
ATOM      6  C   UNL     1     -14.967  13.671  -9.758  1.00  0.00     0.006 C 
BRANCH   6   7
ATOM      7  C   UNL     1     -16.268  13.196 -10.417  1.00  0.00     0.053 C 
BRANCH   7   8
ATOM      8  C   UNL     1     -15.971  12.386 -11.639  1.00  0.00     0.041 C 
ATOM      9  O   UNL     1     -16.884  12.133 -12.469  1.00  0.00    -0.550 OA
ATOM     10  O   UNL     1     -14.698  11.866 -11.836  1.00  0.00    -0.550 OA
ENDBRANCH   7   8
ENDBRANCH   6   7
ENDBRANCH   5   6
ENDBRANCH   4   5
ENDBRANCH   3   4
ENDBRANCH   2   3
ENDBRANCH   1   2
BRANCH   1  11
ATOM     11  C   UNL     1     -17.120  17.006  -7.429  1.00  0.00     0.000 C 
BRANCH  11  12
ATOM     12  C   UNL     1     -16.679  17.783  -8.680  1.00  0.00    -0.000 C 
BRANCH  12  13
ATOM     13  C   UNL     1     -16.888  16.980  -9.976  1.00  0.00    -0.000 C 
BRANCH  13  14
ATOM     14  C   UNL     1     -16.377  17.727 -11.220  1.00  0.00    -0.000 C 
BRANCH  14  15
ATOM     15  C   UNL     1     -15.681  19.054 -10.870  1.00  0.00    -0.000 C 
BRANCH  15  16
ATOM     16  C   UNL     1     -14.715  19.528 -11.971  1.00  0.00    -0.000 C 
BRANCH  16  17
ATOM     17  C   UNL     1     -14.500  21.051 -12.027  1.00  0.00    -0.003 C 
ATOM     18  C   UNL     1     -13.428  21.466 -13.035  1.00  0.00     0.004 C 
ENDBRANCH  16  17
ENDBRANCH  15  16
ENDBRANCH  14  15
ENDBRANCH  13  14
ENDBRANCH  12  13
ENDBRANCH  11  12
ENDBRANCH   1  11
TORSDOF 14
ENDMDL
MODEL 3
REMARK VINA RESULT:    -2.485      1.697      3.958
REMARK INTER + INTRA:          -5.643
REMARK INTER:                  -3.928
REMARK INTRA:                  -1.716
REMARK UNBOUND:                -1.125
REMARK SMILES CCCCCCCCCCCCCCCC(=O)[O-]
REMARK SMILES IDX 9 1 10 2 11 3 12 4 13 5 14 6 15 7 16 8 17 9 18 10 8 11 7 12
REMARK SMILES IDX 6 13 5 14 4 15 3 16 2 17 1 18
REMARK H PARENT
REMARK Flexibility Score: inf
ROOT
ATOM      1  C   UNL     1     -13.782  12.532  -7.456  1.00  0.00     0.000 C 
ENDROOT
BRANCH   1   2
ATOM      2  C   UNL     1     -14.267  12.255  -8.890  1.00  0.00     0.000 C 
BRANCH   2   3
ATOM      3  C   UNL     1     -14.880  13.466  -9.625  1.00  0.00     0.000 C 
BRANCH   3   4
ATOM      4  C   UNL     1     -16.288  13.235 -10.203  1.00  0.00     0.000 C 
BRANCH   4   5
ATOM      5  C   UNL     1     -16.724  14.253 -11.274  1.00  0.00     0.000 C 
BRANCH   5   6
ATOM      6  C   UNL     1     -16.475  13.778 -12.721  1.00  0.00     0.006 C 
BRANCH   6   7
ATOM      7  C   UNL     1     -14.998  13.869 -13.125  1.00  0.00     0.053 C 
BRANCH   7   8
ATOM      8  C   UNL     1     -14.365  12.514 -13.104  1.00  0.00     0.041 C 
ATOM      9  O   UNL     1     -15.083  11.479 -13.076  1.00  0.00    -0.550 OA
ATOM     10  O   UNL     1     -12.982  12.394 -13.065  1.00  0.00    -0.550 OA
ENDBRANCH   7   8
ENDBRANCH   6   7
ENDBRANCH   5   6
ENDBRANCH   4   5
ENDBRANCH   3   4
ENDBRANCH   2   3
ENDBRANCH   1   2
BRANCH   1  11
ATOM     11  C   UNL     1     -14.621  13.602  -6.738  1.00  0.00     0.000 C 
BRANCH  11  12
ATOM     12  C   UNL     1     -16.047  13.119  -6.424  1.00  0.00    -0.000 C 
BRANCH  12  13
ATOM     13  C   UNL     1     -17.109  14.196  -6.704  1.00  0.00    -0.000 C 
BRANCH  13  14
ATOM     14  C   UNL     1     -16.488  15.567  -7.021  1.00  0.00    -0.000 C 
BRANCH  14  15
ATOM     15  C   UNL     1     -17.118  16.232  -8.257  1.00  0.00    -0.000 C 
BRANCH  15  16
ATOM     16  C   UNL     1     -16.160  17.211  -8.960  1.00  0.00    -0.000 C 
BRANCH  16  17
ATOM     17  C   UNL     1     -16.780  17.984 -10.138  1.00  0.00    -0.003 C 
ATOM     18  C   UNL     1     -15.964  19.212 -10.543  1.00  0.00     0.004 C 
ENDBRANCH  16  17
ENDBRANCH  15  16
ENDBRANCH  14  15
ENDBRANCH  13  14
ENDBRANCH  12  13
ENDBRANCH  11  12
ENDBRANCH   1  11
TORSDOF 14
ENDMDL
MODEL 4
REMARK VINA RESULT:    -2.450      2.364      3.100
REMARK INTER + INTRA:          -5.581
REMARK INTER:                  -4.318
REMARK INTRA:                  -1.262
REMARK UNBOUND:                -1.125
REMARK SMILES CCCCCCCCCCCCCCCC(=O)[O-]
REMARK SMILES IDX 9 1 10 2 11 3 12 4 13 5 14 6 15 7 16 8 17 9 18 10 8 11 7 12
REMARK SMILES IDX 6 13 5 14 4 15 3 16 2 17 1 18
REMARK H PARENT
REMARK Flexibility Score: inf
ROOT
ATOM      1  C   UNL     1     -15.941  16.406  -9.867  1.00  0.00     0.000 C 
ENDROOT
BRANCH   1   2
ATOM      2  C   UNL     1     -16.964  16.186 -10.995  1.00  0.00     0.000 C 
BRANCH   2   3
ATOM      3  C   UNL     1     -17.124  14.724 -11.465  1.00  0.00     0.000 C 
BRANCH   3   4
ATOM      4  C   UNL     1     -15.936  14.163 -12.267  1.00  0.00     0.000 C 
BRANCH   4   5
ATOM      5  C   UNL     1     -15.146  13.046 -11.559  1.00  0.00     0.000 C 
BRANCH   5   6
ATOM      6  C   UNL     1     -15.714  12.666 -10.175  1.00  0.00     0.006 C 
BRANCH   6   7
ATOM      7  C   UNL     1     -14.784  13.073  -9.025  1.00  0.00     0.053 C 
BRANCH   7   8
ATOM      8  C   UNL     1     -15.581  13.493  -7.830  1.00  0.00     0.041 C 
ATOM      9  O   UNL     1     -15.000  13.788  -6.753  1.00  0.00    -0.550 OA
ATOM     10  O   UNL     1     -16.968  13.508  -7.891  1.00  0.00    -0.550 OA
ENDBRANCH   7   8
ENDBRANCH   6   7
ENDBRANCH   5   6
ENDBRANCH   4   5
ENDBRANCH   3   4
ENDBRANCH   2   3
ENDBRANCH   1   2
BRANCH   1  11
ATOM     11  C   UNL     1     -16.188  17.705  -9.081  1.00  0.00     0.000 C 
BRANCH  11  12
ATOM     12  C   UNL     1     -17.125  18.673  -9.822  1.00  0.00    -0.000 C 
BRANCH  12  13
ATOM     13  C   UNL     1     -16.383  19.899 -10.382  1.00  0.00    -0.000 C 
BRANCH  13  14
ATOM     14  C   UNL     1     -16.147  19.803 -11.898  1.00  0.00    -0.000 C 
BRANCH  14  15
ATOM     15  C   UNL     1     -16.557  21.084 -12.645  1.00  0.00    -0.000 C 
BRANCH  15  16
ATOM     16  C   UNL     1     -15.424  22.123 -12.711  1.00  0.00    -0.000 C 
BRANCH  16  17
ATOM     17  C   UNL     1     -14.039  21.545 -13.053  1.00  0.00    -0.003 C 
ATOM     18  C   UNL     1     -12.983  21.855 -11.992  1.00  0.00     0.004 C 
ENDBRANCH  16  17
ENDBRANCH  15  16
ENDBRANCH  14  15
ENDBRANCH  13  14
ENDBRANCH  12  13
ENDBRANCH  11  12
ENDBRANCH   1  11
TORSDOF 14
ENDMDL
MODEL 5
REMARK VINA RESULT:    -2.435      2.794      6.479
REMARK INTER + INTRA:          -5.552
REMARK INTER:                  -4.506
REMARK INTRA:                  -1.047
REMARK UNBOUND:                -1.125
REMARK SMILES CCCCCCCCCCCCCCCC(=O)[O-]
REMARK SMILES IDX 9 1 10 2 11 3 12 4 13 5 14 6 15 7 16 8 17 9 18 10 8 11 7 12
REMARK SMILES IDX 6 13 5 14 4 15 3 16 2 17 1 18
REMARK H PARENT
REMARK Flexibility Score: inf
ROOT
ATOM      1  C   UNL     1     -15.633  14.770  -7.043  1.00  0.00     0.000 C 
ENDROOT
BRANCH   1   2
ATOM      2  C   UNL     1     -16.418  16.091  -6.959  1.00  0.00     0.000 C 
BRANCH   2   3
ATOM      3  C   UNL     1     -16.958  16.624  -8.304  1.00  0.00     0.000 C 
BRANCH   3   4
ATOM      4  C   UNL     1     -15.966  17.482  -9.111  1.00  0.00     0.000 C 
BRANCH   4   5
ATOM      5  C   UNL     1     -16.556  18.783  -9.687  1.00  0.00     0.000 C 
BRANCH   5   6
ATOM      6  C   UNL     1     -16.209  19.018 -11.173  1.00  0.00     0.006 C 
BRANCH   6   7
ATOM      7  C   UNL     1     -15.857  20.481 -11.471  1.00  0.00     0.053 C 
BRANCH   7   8
ATOM      8  C   UNL     1     -14.455  20.589 -11.983  1.00  0.00     0.041 C 
ATOM      9  O   UNL     1     -13.834  19.556 -12.351  1.00  0.00    -0.550 OA
ATOM     10  O   UNL     1     -13.816  21.822 -12.007  1.00  0.00    -0.550 OA
ENDBRANCH   7   8
ENDBRANCH   6   7
ENDBRANCH   5   6
ENDBRANCH   4   5
ENDBRANCH   3   4
ENDBRANCH   2   3
ENDBRANCH   1   2
BRANCH   1  11
ATOM     11  C   UNL     1     -16.546  13.538  -7.154  1.00  0.00     0.000 C 
BRANCH  11  12
ATOM     12  C   UNL     1     -16.944  13.229  -8.607  1.00  0.00    -0.000 C 
BRANCH  12  13
ATOM     13  C   UNL     1     -15.724  13.086  -9.534  1.00  0.00    -0.000 C 
BRANCH  13  14
ATOM     14  C   UNL     1     -15.751  14.089 -10.699  1.00  0.00    -0.000 C 
BRANCH  14  15
ATOM     15  C   UNL     1     -16.556  13.576 -11.906  1.00  0.00    -0.000 C 
BRANCH  15  16
ATOM     16  C   UNL     1     -15.667  13.252 -13.120  1.00  0.00    -0.000 C 
BRANCH  16  17
ATOM     17  C   UNL     1     -14.767  12.015 -12.948  1.00  0.00    -0.003 C 
ATOM     18  C   UNL     1     -13.310  12.372 -12.655  1.00  0.00     0.004 C 
ENDBRANCH  16  17
ENDBRANCH  15  16
ENDBRANCH  14  15
ENDBRANCH  13  14
ENDBRANCH  12  13
ENDBRANCH  11  12
ENDBRANCH   1  11
TORSDOF 14
ENDMDL
MODEL 6
REMARK VINA RESULT:    -2.060      3.046      6.772
REMARK INTER + INTRA:          -4.871
REMARK INTER:                  -3.588
REMARK INTRA:                  -1.284
REMARK UNBOUND:                -1.125
REMARK SMILES CCCCCCCCCCCCCCCC(=O)[O-]
REMARK SMILES IDX 9 1 10 2 11 3 12 4 13 5 14 6 15 7 16 8 17 9 18 10 8 11 7 12
REMARK SMILES IDX 6 13 5 14 4 15 3 16 2 17 1 18
REMARK H PARENT
REMARK Flexibility Score: inf
ROOT
ATOM      1  C   UNL     1     -15.736  15.393  -9.554  1.00  0.00     0.000 C 
ENDROOT
BRANCH   1   2
ATOM      2  C   UNL     1     -16.286  16.213  -8.373  1.00  0.00     0.000 C 
BRANCH   2   3
ATOM      3  C   UNL     1     -15.986  17.727  -8.426  1.00  0.00     0.000 C 
BRANCH   3   4
ATOM      4  C   UNL     1     -16.834  18.525  -9.435  1.00  0.00     0.000 C 
BRANCH   4   5
ATOM      5  C   UNL     1     -16.023  19.375 -10.432  1.00  0.00     0.000 C 
BRANCH   5   6
ATOM      6  C   UNL     1     -16.604  19.377 -11.862  1.00  0.00     0.006 C 
BRANCH   6   7
ATOM      7  C   UNL     1     -15.514  19.434 -12.940  1.00  0.00     0.053 C 
BRANCH   7   8
ATOM      8  C   UNL     1     -14.465  20.434 -12.571  1.00  0.00     0.041 C 
ATOM      9  O   UNL     1     -14.736  21.664 -12.563  1.00  0.00    -0.550 OA
ATOM     10  O   UNL     1     -13.173  20.012 -12.285  1.00  0.00    -0.550 OA
ENDBRANCH   7   8
ENDBRANCH   6   7
ENDBRANCH   5   6
ENDBRANCH   4   5
ENDBRANCH   3   4
ENDBRANCH   2   3
ENDBRANCH   1   2
BRANCH   1  11
ATOM     11  C   UNL     1     -16.847  14.788 -10.429  1.00  0.00     0.000 C 
BRANCH  11  12
ATOM     12  C   UNL     1     -17.125  15.625 -11.689  1.00  0.00    -0.000 C 
BRANCH  12  13
ATOM     13  C   UNL     1     -16.280  15.175 -12.893  1.00  0.00    -0.000 C 
BRANCH  13  14
ATOM     14  C   UNL     1     -16.018  13.660 -12.896  1.00  0.00    -0.000 C 
BRANCH  14  15
ATOM     15  C   UNL     1     -14.520  13.316 -12.853  1.00  0.00    -0.000 C 
BRANCH  15  16
ATOM     16  C   UNL     1     -14.234  11.989 -12.127  1.00  0.00    -0.000 C 
BRANCH  16  17
ATOM     17  C   UNL     1     -15.239  11.634 -11.016  1.00  0.00    -0.003 C 
ATOM     18  C   UNL     1     -16.429  10.820 -11.524  1.00  0.00     0.004 C 
ENDBRANCH  16  17
ENDBRANCH  15  16
ENDBRANCH  14  15
ENDBRANCH  13  14
ENDBRANCH  12  13
ENDBRANCH  11  12
ENDBRANCH   1  11
TORSDOF 14
ENDMDL
MODEL 7
REMARK VINA RESULT:    -1.931      1.352      1.861
REMARK INTER + INTRA:          -4.636
REMARK INTER:                  -4.247
REMARK INTRA:                  -0.389
REMARK UNBOUND:                -1.125
REMARK SMILES CCCCCCCCCCCCCCCC(=O)[O-]
REMARK SMILES IDX 9 1 10 2 11 3 12 4 13 5 14 6 15 7 16 8 17 9 18 10 8 11 7 12
REMARK SMILES IDX 6 13 5 14 4 15 3 16 2 17 1 18
REMARK H PARENT
REMARK Flexibility Score: inf
ROOT
ATOM      1  C   UNL     1     -16.462  15.864  -7.154  1.00  0.00     0.000 C 
ENDROOT
BRANCH   1   2
ATOM      2  C   UNL     1     -15.318  14.938  -7.604  1.00  0.00     0.000 C 
BRANCH   2   3
ATOM      3  C   UNL     1     -15.761  13.612  -8.258  1.00  0.00     0.000 C 
BRANCH   3   4
ATOM      4  C   UNL     1     -14.631  12.798  -8.916  1.00  0.00     0.000 C 
BRANCH   4   5
ATOM      5  C   UNL     1     -14.852  12.469 -10.404  1.00  0.00     0.000 C 
BRANCH   5   6
ATOM      6  C   UNL     1     -16.338  12.433 -10.818  1.00  0.00     0.006 C 
BRANCH   6   7
ATOM      7  C   UNL     1     -16.839  13.790 -11.331  1.00  0.00     0.053 C 
BRANCH   7   8
ATOM      8  C   UNL     1     -16.109  14.181 -12.577  1.00  0.00     0.041 C 
ATOM      9  O   UNL     1     -15.314  13.372 -13.125  1.00  0.00    -0.550 OA
ATOM     10  O   UNL     1     -16.267  15.456 -13.104  1.00  0.00    -0.550 OA
ENDBRANCH   7   8
ENDBRANCH   6   7
ENDBRANCH   5   6
ENDBRANCH   4   5
ENDBRANCH   3   4
ENDBRANCH   2   3
ENDBRANCH   1   2
BRANCH   1  11
ATOM     11  C   UNL     1     -16.601  17.115  -8.038  1.00  0.00     0.000 C 
BRANCH  11  12
ATOM     12  C   UNL     1     -15.999  16.915  -9.439  1.00  0.00    -0.000 C 
BRANCH  12  13
ATOM     13  C   UNL     1     -16.673  17.801 -10.502  1.00  0.00    -0.000 C 
BRANCH  13  14
ATOM     14  C   UNL     1     -16.134  19.241 -10.495  1.00  0.00    -0.000 C 
BRANCH  14  15
ATOM     15  C   UNL     1     -15.056  19.476 -11.567  1.00  0.00    -0.000 C 
BRANCH  15  16
ATOM     16  C   UNL     1     -15.359  20.694 -12.459  1.00  0.00    -0.000 C 
BRANCH  16  17
ATOM     17  C   UNL     1     -14.502  21.937 -12.164  1.00  0.00    -0.003 C 
ATOM     18  C   UNL     1     -13.015  21.617 -12.014  1.00  0.00     0.004 C 
ENDBRANCH  16  17
ENDBRANCH  15  16
ENDBRANCH  14  15
ENDBRANCH  13  14
ENDBRANCH  12  13
ENDBRANCH  11  12
ENDBRANCH   1  11
TORSDOF 14
ENDMDL
