MODEL 1
REMARK VINA RESULT:     1.873      0.000      0.000
REMARK INTER + INTRA:           2.881
REMARK INTER:                   4.282
REMARK INTRA:                  -1.401
REMARK UNBOUND:                -1.401
REMARK SMILES CCCCCCCCCCCCCCCCCCCCCCCC(=O)[O-]
REMARK SMILES IDX 13 1 14 2 15 3 16 4 17 5 18 6 19 7 20 8 21 9 22 10 23 11
REMARK SMILES IDX 24 12 25 13 26 14 12 15 11 16 10 17 9 18 8 19 7 20 6 21 5 22
REMARK SMILES IDX 4 23 3 24 2 25 1 26
REMARK H PARENT
REMARK Flexibility Score: inf
ROOT
ATOM      1  C   UNL     1     104.692 105.862 104.795  1.00  0.00     0.000 C 
ENDROOT
BRANCH   1   2
ATOM      2  C   UNL     1     104.611 106.570 103.430  1.00  0.00     0.000 C 
BRANCH   2   3
ATOM      3  C   UNL     1     104.402 105.640 102.220  1.00  0.00     0.000 C 
BRANCH   3   4
ATOM      4  C   UNL     1     104.679 104.164 102.543  1.00  0.00     0.000 C 
BRANCH   4   5
ATOM      5  C   UNL     1     103.372 103.357 102.583  1.00  0.00     0.000 C 
BRANCH   5   6
ATOM      6  C   UNL     1     103.594 101.850 102.365  1.00  0.00     0.000 C 
BRANCH   6   7
ATOM      7  C   UNL     1     103.370 101.359 100.920  1.00  0.00     0.000 C 
BRANCH   7   8
ATOM      8  C   UNL     1     103.394 102.456  99.840  1.00  0.00     0.000 C 
BRANCH   8   9
ATOM      9  C   UNL     1     103.479 101.888  98.413  1.00  0.00     0.000 C 
BRANCH   9  10
ATOM     10  C   UNL     1     103.808 102.965  97.363  1.00  0.00     0.006 C 
BRANCH  10  11
ATOM     11  C   UNL     1     103.343 104.383  97.740  1.00  0.00     0.053 C 
BRANCH  11  12
ATOM     12  C   UNL     1     104.481 105.356  97.776  1.00  0.00     0.041 C 
ATOM     13  O   UNL     1     104.255 106.595  97.790  1.00  0.00    -0.550 OA
ATOM     14  O   UNL     1     105.790 104.894  97.827  1.00  0.00    -0.550 OA
ENDBRANCH  11  12
ENDBRANCH  10  11
ENDBRANCH   9  10
ENDBRANCH   8   9
ENDBRANCH   7   8
ENDBRANCH   6   7
ENDBRANCH   5   6
ENDBRANCH   4   5
ENDBRANCH   3   4
ENDBRANCH   2   3
ENDBRANCH   1   2
BRANCH   1  15
ATOM     15  C   UNL     1     104.412 106.805 105.976  1.00  0.00     0.000 C 
BRANCH  15  16
ATOM     16  C   UNL     1     104.400 106.078 107.334  1.00  0.00     0.000 C 
BRANCH  16  17
ATOM     17  C   UNL     1     104.651 104.558 107.271  1.00  0.00     0.000 C 
BRANCH  17  18
ATOM     18  C   UNL     1     103.387 103.693 107.121  1.00  0.00    -0.000 C 
BRANCH  18  19
ATOM     19  C   UNL     1     103.692 102.188 107.116  1.00  0.00    -0.000 C 
BRANCH  19  20
ATOM     20  C   UNL     1     103.230 101.532 108.427  1.00  0.00    -0.000 C 
BRANCH  20  21
ATOM     21  C   UNL     1     103.234 102.509 109.615  1.00  0.00    -0.000 C 
BRANCH  21  22
ATOM     22  C   UNL     1     103.395 101.849 110.997  1.00  0.00    -0.000 C 
BRANCH  22  23
ATOM     23  C   UNL     1     103.612 102.855 112.148  1.00  0.00    -0.000 C 
BRANCH  23  24
ATOM     24  C   UNL     1     103.478 104.313 111.681  1.00  0.00    -0.000 C 
BRANCH  24  25
ATOM     25  C   UNL     1     104.764 105.099 111.957  1.00  0.00    -0.003 C 
ATOM     26  C   UNL     1     104.464 106.571 112.225  1.00  0.00     0.004 C 
ENDBRANCH  24  25
ENDBRANCH  23  24
ENDBRANCH  22  23
ENDBRANCH  21  22
ENDBRANCH  20  21
ENDBRANCH  19  20
ENDBRANCH  18  19
ENDBRANCH  17  18
ENDBRANCH  16  17
ENDBRANCH  15  16
ENDBRANCH   1  15
TORSDOF 22
ENDMDL
MODEL 2
REMARK VINA RESULT:     2.074      1.551      3.758
REMARK INTER + INTRA:           3.340
REMARK INTER:                   4.856
REMARK INTRA:                  -1.516
REMARK UNBOUND:                -1.401
REMARK SMILES CCCCCCCCCCCCCCCCCCCCCCCC(=O)[O-]
REMARK SMILES IDX 13 1 14 2 15 3 16 4 17 5 18 6 19 7 20 8 21 9 22 10 23 11
REMARK SMILES IDX 24 12 25 13 26 14 12 15 11 16 10 17 9 18 8 19 7 20 6 21 5 22
REMARK SMILES IDX 4 23 3 24 2 25 1 26
REMARK H PARENT
REMARK Flexibility Score: inf
ROOT
ATOM      1  C   UNL     1     103.164 102.363 104.667  1.00  0.00     0.000 C 
ENDROOT
BRANCH   1   2
ATOM      2  C   UNL     1     103.486 101.603 103.368  1.00  0.00     0.000 C 
BRANCH   2   3
ATOM      3  C   UNL     1     103.586 102.476 102.103  1.00  0.00     0.000 C 
BRANCH   3   4
ATOM      4  C   UNL     1     103.326 103.964 102.380  1.00  0.00     0.000 C 
BRANCH   4   5
ATOM      5  C   UNL     1     104.648 104.739 102.494  1.00  0.00     0.000 C 
BRANCH   5   6
ATOM      6  C   UNL     1     104.454 106.264 102.423  1.00  0.00     0.000 C 
BRANCH   6   7
ATOM      7  C   UNL     1     104.501 106.863 101.001  1.00  0.00     0.000 C 
BRANCH   7   8
ATOM      8  C   UNL     1     104.770 105.854  99.870  1.00  0.00     0.000 C 
BRANCH   8   9
ATOM      9  C   UNL     1     104.506 106.440  98.472  1.00  0.00     0.000 C 
BRANCH   9  10
ATOM     10  C   UNL     1     104.117 105.365  97.440  1.00  0.00     0.006 C 
BRANCH  10  11
ATOM     11  C   UNL     1     104.592 103.945  97.793  1.00  0.00     0.053 C 
BRANCH  11  12
ATOM     12  C   UNL     1     103.467 102.957  97.787  1.00  0.00     0.041 C 
ATOM     13  O   UNL     1     103.706 101.722  97.849  1.00  0.00    -0.550 OA
ATOM     14  O   UNL     1     102.151 103.403  97.745  1.00  0.00    -0.550 OA
ENDBRANCH  11  12
ENDBRANCH  10  11
ENDBRANCH   9  10
ENDBRANCH   8   9
ENDBRANCH   7   8
ENDBRANCH   6   7
ENDBRANCH   5   6
ENDBRANCH   4   5
ENDBRANCH   3   4
ENDBRANCH   2   3
ENDBRANCH   1   2
BRANCH   1  15
ATOM     15  C   UNL     1     103.650 101.629 105.927  1.00  0.00     0.000 C 
BRANCH  15  16
ATOM     16  C   UNL     1     103.305 102.379 107.228  1.00  0.00     0.000 C 
BRANCH  16  17
ATOM     17  C   UNL     1     103.220 103.914 107.103  1.00  0.00     0.000 C 
BRANCH  17  18
ATOM     18  C   UNL     1     104.570 104.650 107.173  1.00  0.00    -0.000 C 
BRANCH  18  19
ATOM     19  C   UNL     1     104.422 106.175 107.080  1.00  0.00    -0.000 C 
BRANCH  19  20
ATOM     20  C   UNL     1     104.730 106.839 108.431  1.00  0.00    -0.000 C 
BRANCH  20  21
ATOM     21  C   UNL     1     104.763 105.834 109.594  1.00  0.00    -0.000 C 
BRANCH  21  22
ATOM     22  C   UNL     1     104.723 106.466 110.999  1.00  0.00    -0.000 C 
BRANCH  22  23
ATOM     23  C   UNL     1     104.199 105.514 112.096  1.00  0.00    -0.000 C 
BRANCH  23  24
ATOM     24  C   UNL     1     104.447 104.037 111.756  1.00  0.00    -0.000 C 
BRANCH  24  25
ATOM     25  C   UNL     1     103.253 103.170 112.166  1.00  0.00    -0.003 C 
ATOM     26  C   UNL     1     103.575 101.685 112.028  1.00  0.00     0.004 C 
ENDBRANCH  24  25
ENDBRANCH  23  24
ENDBRANCH  22  23
ENDBRANCH  21  22
ENDBRANCH  20  21
ENDBRANCH  19  20
ENDBRANCH  18  19
ENDBRANCH  17  18
ENDBRANCH  16  17
ENDBRANCH  15  16
ENDBRANCH   1  15
TORSDOF 22
ENDMDL
MODEL 3
REMARK VINA RESULT:     2.371      4.000     10.282
REMARK INTER + INTRA:           4.018
REMARK INTER:                   5.513
REMARK INTRA:                  -1.495
REMARK UNBOUND:                -1.401
REMARK SMILES CCCCCCCCCCCCCCCCCCCCCCCC(=O)[O-]
REMARK SMILES IDX 13 1 14 2 15 3 16 4 17 5 18 6 19 7 20 8 21 9 22 10 23 11
REMARK SMILES IDX 24 12 25 13 26 14 12 15 11 16 10 17 9 18 8 19 7 20 6 21 5 22
REMARK SMILES IDX 4 23 3 24 2 25 1 26
REMARK H PARENT
REMARK Flexibility Score: inf
ROOT
ATOM      1  C   UNL     1     104.759 106.666 103.845  1.00  0.00     0.000 C 
ENDROOT
BRANCH   1   2
ATOM      2  C   UNL     1     104.762 105.539 104.894  1.00  0.00     0.000 C 
BRANCH   2   3
ATOM      3  C   UNL     1     104.613 106.003 106.354  1.00  0.00     0.000 C 
BRANCH   3   4
ATOM      4  C   UNL     1     104.545 104.836 107.350  1.00  0.00     0.000 C 
BRANCH   4   5
ATOM      5  C   UNL     1     103.381 103.893 107.011  1.00  0.00     0.000 C 
BRANCH   5   6
ATOM      6  C   UNL     1     103.778 102.407 107.079  1.00  0.00     0.000 C 
BRANCH   6   7
ATOM      7  C   UNL     1     103.422 101.696 108.402  1.00  0.00     0.000 C 
BRANCH   7   8
ATOM      8  C   UNL     1     103.149 102.627 109.597  1.00  0.00     0.000 C 
BRANCH   8   9
ATOM      9  C   UNL     1     103.393 101.944 110.954  1.00  0.00     0.000 C 
BRANCH   9  10
ATOM     10  C   UNL     1     103.858 102.931 112.041  1.00  0.00     0.006 C 
BRANCH  10  11
ATOM     11  C   UNL     1     103.440 104.391 111.795  1.00  0.00     0.053 C 
BRANCH  11  12
ATOM     12  C   UNL     1     104.577 105.343 111.997  1.00  0.00     0.041 C 
ATOM     13  O   UNL     1     105.761 104.917 112.042  1.00  0.00    -0.550 OA
ATOM     14  O   UNL     1     104.332 106.706 112.105  1.00  0.00    -0.550 OA
ENDBRANCH  11  12
ENDBRANCH  10  11
ENDBRANCH   9  10
ENDBRANCH   8   9
ENDBRANCH   7   8
ENDBRANCH   6   7
ENDBRANCH   5   6
ENDBRANCH   4   5
ENDBRANCH   3   4
ENDBRANCH   2   3
ENDBRANCH   1   2
BRANCH   1  15
ATOM     15  C   UNL     1     104.348 106.181 102.445  1.00  0.00     0.000 C 
BRANCH  15  16
ATOM     16  C   UNL     1     104.526 104.662 102.261  1.00  0.00     0.000 C 
BRANCH  16  17
ATOM     17  C   UNL     1     103.224 103.836 102.292  1.00  0.00     0.000 C 
BRANCH  17  18
ATOM     18  C   UNL     1     103.406 102.341 102.611  1.00  0.00    -0.000 C 
BRANCH  18  19
ATOM     19  C   UNL     1     103.615 101.485 101.354  1.00  0.00    -0.000 C 
BRANCH  19  20
ATOM     20  C   UNL     1     103.211 102.260 100.090  1.00  0.00    -0.000 C 
BRANCH  20  21
ATOM     21  C   UNL     1     103.541 101.500  98.795  1.00  0.00    -0.000 C 
BRANCH  21  22
ATOM     22  C   UNL     1     103.313 102.299  97.498  1.00  0.00    -0.000 C 
BRANCH  22  23
ATOM     23  C   UNL     1     103.189 103.822  97.717  1.00  0.00    -0.000 C 
BRANCH  23  24
ATOM     24  C   UNL     1     104.362 104.599  97.099  1.00  0.00    -0.000 C 
BRANCH  24  25
ATOM     25  C   UNL     1     104.910 105.641  98.080  1.00  0.00    -0.003 C 
ATOM     26  C   UNL     1     104.355 107.029  97.777  1.00  0.00     0.004 C 
ENDBRANCH  24  25
ENDBRANCH  23  24
ENDBRANCH  22  23
ENDBRANCH  21  22
ENDBRANCH  20  21
ENDBRANCH  19  20
ENDBRANCH  18  19
ENDBRANCH  17  18
ENDBRANCH  16  17
ENDBRANCH  15  16
ENDBRANCH   1  15
TORSDOF 22
ENDMDL
MODEL 4
REMARK VINA RESULT:     2.524      4.263     10.835
REMARK INTER + INTRA:           4.370
REMARK INTER:                   5.678
REMARK INTRA:                  -1.309
REMARK UNBOUND:                -1.401
REMARK SMILES CCCCCCCCCCCCCCCCCCCCCCCC(=O)[O-]
REMARK SMILES IDX 13 1 14 2 15 3 16 4 17 5 18 6 19 7 20 8 21 9 22 10 23 11
REMARK SMILES IDX 24 12 25 13 26 14 12 15 11 16 10 17 9 18 8 19 7 20 6 21 5 22
REMARK SMILES IDX 4 23 3 24 2 25 1 26
REMARK H PARENT
REMARK Flexibility Score: inf
ROOT
ATOM      1  C   UNL     1     103.270 101.448 105.564  1.00  0.00     0.000 C 
ENDROOT
BRANCH   1   2
ATOM      2  C   UNL     1     103.570 101.759 107.042  1.00  0.00     0.000 C 
BRANCH   2   3
ATOM      3  C   UNL     1     103.294 103.211 107.475  1.00  0.00     0.000 C 
BRANCH   3   4
ATOM      4  C   UNL     1     104.527 104.118 107.355  1.00  0.00     0.000 C 
BRANCH   4   5
ATOM      5  C   UNL     1     104.144 105.491 106.782  1.00  0.00     0.000 C 
BRANCH   5   6
ATOM      6  C   UNL     1     104.423 106.645 107.761  1.00  0.00     0.000 C 
BRANCH   6   7
ATOM      7  C   UNL     1     105.050 106.224 109.106  1.00  0.00     0.000 C 
BRANCH   7   8
ATOM      8  C   UNL     1     104.425 106.873 110.356  1.00  0.00     0.000 C 
BRANCH   8   9
ATOM      9  C   UNL     1     104.978 106.293 111.669  1.00  0.00     0.000 C 
BRANCH   9  10
ATOM     10  C   UNL     1     104.109 105.151 112.227  1.00  0.00     0.006 C 
BRANCH  10  11
ATOM     11  C   UNL     1     104.371 103.779 111.583  1.00  0.00     0.053 C 
BRANCH  11  12
ATOM     12  C   UNL     1     103.313 102.781 111.935  1.00  0.00     0.041 C 
ATOM     13  O   UNL     1     102.098 103.114 111.926  1.00  0.00    -0.550 OA
ATOM     14  O   UNL     1     103.666 101.473 112.244  1.00  0.00    -0.550 OA
ENDBRANCH  11  12
ENDBRANCH  10  11
ENDBRANCH   9  10
ENDBRANCH   8   9
ENDBRANCH   7   8
ENDBRANCH   6   7
ENDBRANCH   5   6
ENDBRANCH   4   5
ENDBRANCH   3   4
ENDBRANCH   2   3
ENDBRANCH   1   2
BRANCH   1  15
ATOM     15  C   UNL     1     103.302 102.698 104.670  1.00  0.00     0.000 C 
BRANCH  15  16
ATOM     16  C   UNL     1     103.376 102.360 103.169  1.00  0.00     0.000 C 
BRANCH  16  17
ATOM     17  C   UNL     1     103.388 103.574 102.218  1.00  0.00     0.000 C 
BRANCH  17  18
ATOM     18  C   UNL     1     104.656 104.443 102.283  1.00  0.00    -0.000 C 
BRANCH  18  19
ATOM     19  C   UNL     1     104.348 105.932 102.494  1.00  0.00    -0.000 C 
BRANCH  19  20
ATOM     20  C   UNL     1     104.545 106.721 101.190  1.00  0.00    -0.000 C 
BRANCH  20  21
ATOM     21  C   UNL     1     104.646 105.812  99.953  1.00  0.00    -0.000 C 
BRANCH  21  22
ATOM     22  C   UNL     1     104.573 106.546  98.601  1.00  0.00    -0.000 C 
BRANCH  22  23
ATOM     23  C   UNL     1     104.343 105.610  97.395  1.00  0.00    -0.000 C 
BRANCH  23  24
ATOM     24  C   UNL     1     104.630 104.139  97.734  1.00  0.00    -0.000 C 
BRANCH  24  25
ATOM     25  C   UNL     1     103.350 103.301  97.675  1.00  0.00    -0.003 C 
ATOM     26  C   UNL     1     103.662 101.809  97.755  1.00  0.00     0.004 C 
ENDBRANCH  24  25
ENDBRANCH  23  24
ENDBRANCH  22  23
ENDBRANCH  21  22
ENDBRANCH  20  21
ENDBRANCH  19  20
ENDBRANCH  18  19
ENDBRANCH  17  18
ENDBRANCH  16  17
ENDBRANCH  15  16
ENDBRANCH   1  15
TORSDOF 22
ENDMDL
MODEL 5
REMARK VINA RESULT:     2.726      4.208     10.569
REMARK INTER + INTRA:           4.830
REMARK INTER:                   6.406
REMARK INTRA:                  -1.575
REMARK UNBOUND:                -1.401
REMARK SMILES CCCCCCCCCCCCCCCCCCCCCCCC(=O)[O-]
REMARK SMILES IDX 13 1 14 2 15 3 16 4 17 5 18 6 19 7 20 8 21 9 22 10 23 11
REMARK SMILES IDX 24 12 25 13 26 14 12 15 11 16 10 17 9 18 8 19 7 20 6 21 5 22
REMARK SMILES IDX 4 23 3 24 2 25 1 26
REMARK H PARENT
REMARK Flexibility Score: inf
ROOT
ATOM      1  C   UNL     1     103.336 101.481 103.340  1.00  0.00     0.000 C 
ENDROOT
BRANCH   1   2
ATOM      2  C   UNL     1     103.278 102.137 104.732  1.00  0.00     0.000 C 
BRANCH   2   3
ATOM      3  C   UNL     1     103.310 101.158 105.920  1.00  0.00     0.000 C 
BRANCH   3   4
ATOM      4  C   UNL     1     103.644 101.842 107.253  1.00  0.00     0.000 C 
BRANCH   4   5
ATOM      5  C   UNL     1     103.316 103.342 107.196  1.00  0.00     0.000 C 
BRANCH   5   6
ATOM      6  C   UNL     1     104.573 104.225 107.099  1.00  0.00     0.000 C 
BRANCH   6   7
ATOM      7  C   UNL     1     104.302 105.718 106.818  1.00  0.00     0.000 C 
BRANCH   7   8
ATOM      8  C   UNL     1     104.644 106.678 107.973  1.00  0.00     0.000 C 
BRANCH   8   9
ATOM      9  C   UNL     1     104.535 106.011 109.355  1.00  0.00     0.000 C 
BRANCH   9  10
ATOM     10  C   UNL     1     104.610 107.024 110.512  1.00  0.00     0.006 C 
BRANCH  10  11
ATOM     11  C   UNL     1     104.305 106.430 111.898  1.00  0.00     0.053 C 
BRANCH  11  12
ATOM     12  C   UNL     1     104.762 105.008 112.012  1.00  0.00     0.041 C 
ATOM     13  O   UNL     1     105.984 104.744 112.160  1.00  0.00    -0.550 OA
ATOM     14  O   UNL     1     103.833 103.975 111.988  1.00  0.00    -0.550 OA
ENDBRANCH  11  12
ENDBRANCH  10  11
ENDBRANCH   9  10
ENDBRANCH   8   9
ENDBRANCH   7   8
ENDBRANCH   6   7
ENDBRANCH   5   6
ENDBRANCH   4   5
ENDBRANCH   3   4
ENDBRANCH   2   3
ENDBRANCH   1   2
BRANCH   1  15
ATOM     15  C   UNL     1     103.628 102.488 102.215  1.00  0.00     0.000 C 
BRANCH  15  16
ATOM     16  C   UNL     1     103.456 103.952 102.663  1.00  0.00     0.000 C 
BRANCH  16  17
ATOM     17  C   UNL     1     104.710 104.838 102.519  1.00  0.00     0.000 C 
BRANCH  17  18
ATOM     18  C   UNL     1     104.460 106.351 102.648  1.00  0.00    -0.000 C 
BRANCH  18  19
ATOM     19  C   UNL     1     104.533 107.085 101.302  1.00  0.00    -0.000 C 
BRANCH  19  20
ATOM     20  C   UNL     1     104.775 106.095 100.152  1.00  0.00    -0.000 C 
BRANCH  20  21
ATOM     21  C   UNL     1     104.373 106.665  98.781  1.00  0.00    -0.000 C 
BRANCH  21  22
ATOM     22  C   UNL     1     104.781 105.799  97.573  1.00  0.00    -0.000 C 
BRANCH  22  23
ATOM     23  C   UNL     1     104.723 104.281  97.846  1.00  0.00    -0.000 C 
BRANCH  23  24
ATOM     24  C   UNL     1     103.370 103.668  97.451  1.00  0.00    -0.000 C 
BRANCH  24  25
ATOM     25  C   UNL     1     103.117 102.361  98.208  1.00  0.00    -0.003 C 
ATOM     26  C   UNL     1     103.861 101.196  97.562  1.00  0.00     0.004 C 
ENDBRANCH  24  25
ENDBRANCH  23  24
ENDBRANCH  22  23
ENDBRANCH  21  22
ENDBRANCH  20  21
ENDBRANCH  19  20
ENDBRANCH  18  19
ENDBRANCH  17  18
ENDBRANCH  16  17
ENDBRANCH  15  16
ENDBRANCH   1  15
TORSDOF 22
ENDMDL
MODEL 6
REMARK VINA RESULT:     4.080      1.773      3.768
REMARK INTER + INTRA:           7.927
REMARK INTER:                   9.541
REMARK INTRA:                  -1.614
REMARK UNBOUND:                -1.401
REMARK SMILES CCCCCCCCCCCCCCCCCCCCCCCC(=O)[O-]
REMARK SMILES IDX 13 1 14 2 15 3 16 4 17 5 18 6 19 7 20 8 21 9 22 10 23 11
REMARK SMILES IDX 24 12 25 13 26 14 12 15 11 16 10 17 9 18 8 19 7 20 6 21 5 22
REMARK SMILES IDX 4 23 3 24 2 25 1 26
REMARK H PARENT
REMARK Flexibility Score: inf
ROOT
ATOM      1  C   UNL     1     103.921 102.414 102.430  1.00  0.00     0.000 C 
ENDROOT
BRANCH   1   2
ATOM      2  C   UNL     1     103.515 103.886 102.228  1.00  0.00     0.000 C 
BRANCH   2   3
ATOM      3  C   UNL     1     104.660 104.906 102.366  1.00  0.00     0.000 C 
BRANCH   3   4
ATOM      4  C   UNL     1     104.162 106.351 102.511  1.00  0.00     0.000 C 
BRANCH   4   5
ATOM      5  C   UNL     1     104.607 107.207 101.314  1.00  0.00     0.000 C 
BRANCH   5   6
ATOM      6  C   UNL     1     104.918 106.367 100.063  1.00  0.00     0.000 C 
BRANCH   6   7
ATOM      7  C   UNL     1     104.657 107.077  98.718  1.00  0.00     0.000 C 
BRANCH   7   8
ATOM      8  C   UNL     1     104.537 106.148  97.495  1.00  0.00     0.000 C 
BRANCH   8   9
ATOM      9  C   UNL     1     104.308 104.678  97.884  1.00  0.00     0.000 C 
BRANCH   9  10
ATOM     10  C   UNL     1     103.361 103.947  96.914  1.00  0.00     0.006 C 
BRANCH  10  11
ATOM     11  C   UNL     1     102.563 102.796  97.551  1.00  0.00     0.053 C 
BRANCH  11  12
ATOM     12  C   UNL     1     103.455 101.701  98.047  1.00  0.00     0.041 C 
ATOM     13  O   UNL     1     104.312 101.185  97.281  1.00  0.00    -0.550 OA
ATOM     14  O   UNL     1     103.362 101.271  99.365  1.00  0.00    -0.550 OA
ENDBRANCH  11  12
ENDBRANCH  10  11
ENDBRANCH   9  10
ENDBRANCH   8   9
ENDBRANCH   7   8
ENDBRANCH   6   7
ENDBRANCH   5   6
ENDBRANCH   4   5
ENDBRANCH   3   4
ENDBRANCH   2   3
ENDBRANCH   1   2
BRANCH   1  15
ATOM     15  C   UNL     1     103.259 101.774 103.661  1.00  0.00     0.000 C 
BRANCH  15  16
ATOM     16  C   UNL     1     103.136 102.748 104.849  1.00  0.00     0.000 C 
BRANCH  16  17
ATOM     17  C   UNL     1     103.288 102.109 106.244  1.00  0.00     0.000 C 
BRANCH  17  18
ATOM     18  C   UNL     1     103.425 103.107 107.408  1.00  0.00    -0.000 C 
BRANCH  18  19
ATOM     19  C   UNL     1     104.706 103.949 107.322  1.00  0.00    -0.000 C 
BRANCH  19  20
ATOM     20  C   UNL     1     104.377 105.414 106.992  1.00  0.00    -0.000 C 
BRANCH  20  21
ATOM     21  C   UNL     1     104.379 106.319 108.235  1.00  0.00    -0.000 C 
BRANCH  21  22
ATOM     22  C   UNL     1     105.045 105.707 109.483  1.00  0.00    -0.000 C 
BRANCH  22  23
ATOM     23  C   UNL     1     104.371 106.113 110.811  1.00  0.00    -0.000 C 
BRANCH  23  24
ATOM     24  C   UNL     1     104.808 105.221 111.984  1.00  0.00    -0.000 C 
BRANCH  24  25
ATOM     25  C   UNL     1     103.703 104.230 112.362  1.00  0.00    -0.003 C 
ATOM     26  C   UNL     1     103.631 103.076 111.366  1.00  0.00     0.004 C 
ENDBRANCH  24  25
ENDBRANCH  23  24
ENDBRANCH  22  23
ENDBRANCH  21  22
ENDBRANCH  20  21
ENDBRANCH  19  20
ENDBRANCH  18  19
ENDBRANCH  17  18
ENDBRANCH  16  17
ENDBRANCH  15  16
ENDBRANCH   1  15
TORSDOF 22
ENDMDL
MODEL 7
REMARK VINA RESULT:     4.172      1.791      4.046
REMARK INTER + INTRA:           8.135
REMARK INTER:                   9.520
REMARK INTRA:                  -1.385
REMARK UNBOUND:                -1.401
REMARK SMILES CCCCCCCCCCCCCCCCCCCCCCCC(=O)[O-]
REMARK SMILES IDX 13 1 14 2 15 3 16 4 17 5 18 6 19 7 20 8 21 9 22 10 23 11
REMARK SMILES IDX 24 12 25 13 26 14 12 15 11 16 10 17 9 18 8 19 7 20 6 21 5 22
REMARK SMILES IDX 4 23 3 24 2 25 1 26
REMARK H PARENT
REMARK Flexibility Score: inf
ROOT
ATOM      1  C   UNL     1     103.331 101.712 103.560  1.00  0.00     0.000 C 
ENDROOT
BRANCH   1   2
ATOM      2  C   UNL     1     103.631 102.553 102.306  1.00  0.00     0.000 C 
BRANCH   2   3
ATOM      3  C   UNL     1     103.291 101.876 100.965  1.00  0.00     0.000 C 
BRANCH   3   4
ATOM      4  C   UNL     1     103.186 102.871  99.800  1.00  0.00     0.000 C 
BRANCH   4   5
ATOM      5  C   UNL     1     103.367 102.157  98.452  1.00  0.00     0.000 C 
BRANCH   5   6
ATOM      6  C   UNL     1     103.609 103.133  97.287  1.00  0.00     0.000 C 
BRANCH   6   7
ATOM      7  C   UNL     1     104.702 104.193  97.539  1.00  0.00     0.000 C 
BRANCH   7   8
ATOM      8  C   UNL     1     104.262 105.654  97.330  1.00  0.00     0.000 C 
BRANCH   8   9
ATOM      9  C   UNL     1     104.473 106.525  98.581  1.00  0.00     0.000 C 
BRANCH   9  10
ATOM     10  C   UNL     1     104.910 105.705  99.809  1.00  0.00     0.006 C 
BRANCH  10  11
ATOM     11  C   UNL     1     104.027 105.905 101.053  1.00  0.00     0.053 C 
BRANCH  11  12
ATOM     12  C   UNL     1     104.830 105.916 102.317  1.00  0.00     0.041 C 
ATOM     13  O   UNL     1     104.535 106.711 103.248  1.00  0.00    -0.550 OA
ATOM     14  O   UNL     1     105.884 105.026 102.479  1.00  0.00    -0.550 OA
ENDBRANCH  11  12
ENDBRANCH  10  11
ENDBRANCH   9  10
ENDBRANCH   8   9
ENDBRANCH   7   8
ENDBRANCH   6   7
ENDBRANCH   5   6
ENDBRANCH   4   5
ENDBRANCH   3   4
ENDBRANCH   2   3
ENDBRANCH   1   2
BRANCH   1  15
ATOM     15  C   UNL     1     103.065 102.570 104.808  1.00  0.00     0.000 C 
BRANCH  15  16
ATOM     16  C   UNL     1     103.468 101.865 106.117  1.00  0.00     0.000 C 
BRANCH  16  17
ATOM     17  C   UNL     1     103.664 102.793 107.333  1.00  0.00     0.000 C 
BRANCH  17  18
ATOM     18  C   UNL     1     103.391 104.284 107.068  1.00  0.00    -0.000 C 
BRANCH  18  19
ATOM     19  C   UNL     1     104.675 105.123 107.008  1.00  0.00    -0.000 C 
BRANCH  19  20
ATOM     20  C   UNL     1     104.710 106.151 108.149  1.00  0.00    -0.000 C 
BRANCH  20  21
ATOM     21  C   UNL     1     104.746 105.496 109.541  1.00  0.00    -0.000 C 
BRANCH  21  22
ATOM     22  C   UNL     1     104.564 106.469 110.721  1.00  0.00    -0.000 C 
BRANCH  22  23
ATOM     23  C   UNL     1     104.321 105.768 112.075  1.00  0.00    -0.000 C 
BRANCH  23  24
ATOM     24  C   UNL     1     104.593 104.257 112.007  1.00  0.00    -0.000 C 
BRANCH  24  25
ATOM     25  C   UNL     1     103.283 103.462 112.004  1.00  0.00    -0.003 C 
ATOM     26  C   UNL     1     103.549 101.960 111.993  1.00  0.00     0.004 C 
ENDBRANCH  24  25
ENDBRANCH  23  24
ENDBRANCH  22  23
ENDBRANCH  21  22
ENDBRANCH  20  21
ENDBRANCH  19  20
ENDBRANCH  18  19
ENDBRANCH  17  18
ENDBRANCH  16  17
ENDBRANCH  15  16
ENDBRANCH   1  15
TORSDOF 22
ENDMDL
MODEL 8
REMARK VINA RESULT:     4.379      2.868      4.769
REMARK INTER + INTRA:           8.611
REMARK INTER:                  10.359
REMARK INTRA:                  -1.748
REMARK UNBOUND:                -1.401
REMARK SMILES CCCCCCCCCCCCCCCCCCCCCCCC(=O)[O-]
REMARK SMILES IDX 13 1 14 2 15 3 16 4 17 5 18 6 19 7 20 8 21 9 22 10 23 11
REMARK SMILES IDX 24 12 25 13 26 14 12 15 11 16 10 17 9 18 8 19 7 20 6 21 5 22
REMARK SMILES IDX 4 23 3 24 2 25 1 26
REMARK H PARENT
REMARK Flexibility Score: inf
ROOT
ATOM      1  C   UNL     1     104.365 105.867 107.091  1.00  0.00     0.000 C 
ENDROOT
BRANCH   1   2
ATOM      2  C   UNL     1     104.389 104.329 107.156  1.00  0.00     0.000 C 
BRANCH   2   3
ATOM      3  C   UNL     1     103.088 103.673 107.655  1.00  0.00     0.000 C 
BRANCH   3   4
ATOM      4  C   UNL     1     103.234 102.167 107.910  1.00  0.00     0.000 C 
BRANCH   4   5
ATOM      5  C   UNL     1     104.073 101.502 106.808  1.00  0.00     0.000 C 
BRANCH   5   6
ATOM      6  C   UNL     1     103.241 101.128 105.568  1.00  0.00     0.000 C 
BRANCH   6   7
ATOM      7  C   UNL     1     103.299 102.147 104.411  1.00  0.00     0.000 C 
BRANCH   7   8
ATOM      8  C   UNL     1     103.572 101.547 103.019  1.00  0.00     0.000 C 
BRANCH   8   9
ATOM      9  C   UNL     1     103.502 102.594 101.894  1.00  0.00     0.000 C 
BRANCH   9  10
ATOM     10  C   UNL     1     103.431 104.037 102.428  1.00  0.00     0.006 C 
BRANCH  10  11
ATOM     11  C   UNL     1     104.706 104.865 102.191  1.00  0.00     0.053 C 
BRANCH  11  12
ATOM     12  C   UNL     1     104.510 106.309 102.534  1.00  0.00     0.041 C 
ATOM     13  O   UNL     1     104.318 107.157 101.622  1.00  0.00    -0.550 OA
ATOM     14  O   UNL     1     104.510 106.715 103.862  1.00  0.00    -0.550 OA
ENDBRANCH  11  12
ENDBRANCH  10  11
ENDBRANCH   9  10
ENDBRANCH   8   9
ENDBRANCH   7   8
ENDBRANCH   6   7
ENDBRANCH   5   6
ENDBRANCH   4   5
ENDBRANCH   3   4
ENDBRANCH   2   3
ENDBRANCH   1   2
BRANCH   1  15
ATOM     15  C   UNL     1     104.721 106.529 108.432  1.00  0.00     0.000 C 
BRANCH  15  16
ATOM     16  C   UNL     1     104.708 105.539 109.611  1.00  0.00     0.000 C 
BRANCH  16  17
ATOM     17  C   UNL     1     104.502 106.172 111.003  1.00  0.00     0.000 C 
BRANCH  17  18
ATOM     18  C   UNL     1     104.304 105.170 112.154  1.00  0.00    -0.000 C 
BRANCH  18  19
ATOM     19  C   UNL     1     104.333 103.709 111.684  1.00  0.00    -0.000 C 
BRANCH  19  20
ATOM     20  C   UNL     1     103.056 102.970 112.112  1.00  0.00    -0.000 C 
BRANCH  20  21
ATOM     21  C   UNL     1     101.831 103.362 111.268  1.00  0.00    -0.000 C 
BRANCH  21  22
ATOM     22  C   UNL     1     100.656 103.958 112.067  1.00  0.00    -0.000 C 
BRANCH  22  23
ATOM     23  C   UNL     1      99.465 104.398 111.189  1.00  0.00    -0.000 C 
BRANCH  23  24
ATOM     24  C   UNL     1      98.144 104.439 111.974  1.00  0.00    -0.000 C 
BRANCH  24  25
ATOM     25  C   UNL     1      97.024 103.736 111.201  1.00  0.00    -0.003 C 
ATOM     26  C   UNL     1      97.144 102.219 111.312  1.00  0.00     0.004 C 
ENDBRANCH  24  25
ENDBRANCH  23  24
ENDBRANCH  22  23
ENDBRANCH  21  22
ENDBRANCH  20  21
ENDBRANCH  19  20
ENDBRANCH  18  19
ENDBRANCH  17  18
ENDBRANCH  16  17
ENDBRANCH  15  16
ENDBRANCH   1  15
TORSDOF 22
ENDMDL
MODEL 9
REMARK VINA RESULT:     4.388      3.679      9.886
REMARK INTER + INTRA:           8.630
REMARK INTER:                  10.099
REMARK INTRA:                  -1.469
REMARK UNBOUND:                -1.401
REMARK SMILES CCCCCCCCCCCCCCCCCCCCCCCC(=O)[O-]
REMARK SMILES IDX 13 1 14 2 15 3 16 4 17 5 18 6 19 7 20 8 21 9 22 10 23 11
REMARK SMILES IDX 24 12 25 13 26 14 12 15 11 16 10 17 9 18 8 19 7 20 6 21 5 22
REMARK SMILES IDX 4 23 3 24 2 25 1 26
REMARK H PARENT
REMARK Flexibility Score: inf
ROOT
ATOM      1  C   UNL     1     104.334 106.791 101.608  1.00  0.00     0.000 C 
ENDROOT
BRANCH   1   2
ATOM      2  C   UNL     1     104.610 105.966 102.879  1.00  0.00     0.000 C 
BRANCH   2   3
ATOM      3  C   UNL     1     104.692 104.443 102.667  1.00  0.00     0.000 C 
BRANCH   3   4
ATOM      4  C   UNL     1     103.313 103.781 102.531  1.00  0.00     0.000 C 
BRANCH   4   5
ATOM      5  C   UNL     1     103.453 102.277 102.246  1.00  0.00     0.000 C 
BRANCH   5   6
ATOM      6  C   UNL     1     103.442 101.423 103.526  1.00  0.00     0.000 C 
BRANCH   6   7
ATOM      7  C   UNL     1     103.251 102.214 104.838  1.00  0.00     0.000 C 
BRANCH   7   8
ATOM      8  C   UNL     1     103.682 101.478 106.119  1.00  0.00     0.000 C 
BRANCH   8   9
ATOM      9  C   UNL     1     103.352 102.264 107.399  1.00  0.00     0.000 C 
BRANCH   9  10
ATOM     10  C   UNL     1     103.138 103.766 107.136  1.00  0.00     0.006 C 
BRANCH  10  11
ATOM     11  C   UNL     1     104.431 104.554 106.867  1.00  0.00     0.053 C 
BRANCH  11  12
ATOM     12  C   UNL     1     104.422 105.896 107.532  1.00  0.00     0.041 C 
ATOM     13  O   UNL     1     104.088 106.923 106.885  1.00  0.00    -0.550 OA
ATOM     14  O   UNL     1     104.751 106.007 108.877  1.00  0.00    -0.550 OA
ENDBRANCH  11  12
ENDBRANCH  10  11
ENDBRANCH   9  10
ENDBRANCH   8   9
ENDBRANCH   7   8
ENDBRANCH   6   7
ENDBRANCH   5   6
ENDBRANCH   4   5
ENDBRANCH   3   4
ENDBRANCH   2   3
ENDBRANCH   1   2
BRANCH   1  15
ATOM     15  C   UNL     1     104.707 106.045 100.317  1.00  0.00     0.000 C 
BRANCH  15  16
ATOM     16  C   UNL     1     104.696 106.955  99.074  1.00  0.00     0.000 C 
BRANCH  16  17
ATOM     17  C   UNL     1     104.225 106.284  97.768  1.00  0.00     0.000 C 
BRANCH  17  18
ATOM     18  C   UNL     1     104.977 104.996  97.388  1.00  0.00    -0.000 C 
BRANCH  18  19
ATOM     19  C   UNL     1     104.062 103.935  96.759  1.00  0.00    -0.000 C 
BRANCH  19  20
ATOM     20  C   UNL     1     103.694 102.853  97.786  1.00  0.00    -0.000 C 
BRANCH  20  21
ATOM     21  C   UNL     1     102.197 102.850  98.138  1.00  0.00    -0.000 C 
BRANCH  21  22
ATOM     22  C   UNL     1     101.287 103.547  97.109  1.00  0.00    -0.000 C 
BRANCH  22  23
ATOM     23  C   UNL     1      99.949 104.046  97.696  1.00  0.00    -0.000 C 
BRANCH  23  24
ATOM     24  C   UNL     1      98.813 104.025  96.661  1.00  0.00    -0.000 C 
BRANCH  24  25
ATOM     25  C   UNL     1      97.460 103.778  97.335  1.00  0.00    -0.003 C 
ATOM     26  C   UNL     1      96.885 102.421  96.938  1.00  0.00     0.004 C 
ENDBRANCH  24  25
ENDBRANCH  23  24
ENDBRANCH  22  23
ENDBRANCH  21  22
ENDBRANCH  20  21
ENDBRANCH  19  20
ENDBRANCH  18  19
ENDBRANCH  17  18
ENDBRANCH  16  17
ENDBRANCH  15  16
ENDBRANCH   1  15
TORSDOF 22
ENDMDL
