MODEL 1
REMARK VINA RESULT:    -5.781      0.000      0.000
REMARK INTER + INTRA:         -10.991
REMARK INTER:                  -9.836
REMARK INTRA:                  -1.155
REMARK UNBOUND:                -1.155
REMARK SMILES CCCCCCCCCCCCCC(=O)[O-]
REMARK SMILES IDX 8 1 9 2 10 3 11 4 12 5 13 6 14 7 15 8 16 9 7 10 6 11 5 12
REMARK SMILES IDX 4 13 3 14 2 15 1 16
REMARK H PARENT
REMARK Flexibility Score: inf
ROOT
ATOM      1  C   UNL     1       5.036  12.968   0.877  1.00  0.00     0.000 C 
ENDROOT
BRANCH   1   2
ATOM      2  C   UNL     1       3.973  13.422   1.890  1.00  0.00     0.000 C 
BRANCH   2   3
ATOM      3  C   UNL     1       2.936  14.375   1.271  1.00  0.00     0.000 C 
BRANCH   3   4
ATOM      4  C   UNL     1       1.495  13.864   1.433  1.00  0.00     0.000 C 
BRANCH   4   5
ATOM      5  C   UNL     1       0.822  14.379   2.714  1.00  0.00     0.006 C 
BRANCH   5   6
ATOM      6  C   UNL     1      -0.703  14.373   2.572  1.00  0.00     0.053 C 
BRANCH   6   7
ATOM      7  C   UNL     1      -1.353  14.196   3.908  1.00  0.00     0.041 C 
ATOM      8  O   UNL     1      -0.653  14.166   4.954  1.00  0.00    -0.550 OA
ATOM      9  O   UNL     1      -2.727  14.016   3.994  1.00  0.00    -0.550 OA
ENDBRANCH   6   7
ENDBRANCH   5   6
ENDBRANCH   4   5
ENDBRANCH   3   4
ENDBRANCH   2   3
ENDBRANCH   1   2
BRANCH   1  10
ATOM     10  C   UNL     1       6.024  14.091   0.509  1.00  0.00     0.000 C 
BRANCH  10  11
ATOM     11  C   UNL     1       7.474  13.745   0.877  1.00  0.00    -0.000 C 
BRANCH  11  12
ATOM     12  C   UNL     1       8.073  14.719   1.903  1.00  0.00    -0.000 C 
BRANCH  12  13
ATOM     13  C   UNL     1       7.314  14.650   3.233  1.00  0.00    -0.000 C 
BRANCH  13  14
ATOM     14  C   UNL     1       6.897  16.053   3.702  1.00  0.00    -0.000 C 
BRANCH  14  15
ATOM     15  C   UNL     1       5.377  16.268   3.643  1.00  0.00    -0.003 C 
ATOM     16  C   UNL     1       4.642  15.616   4.815  1.00  0.00     0.004 C 
ENDBRANCH  14  15
ENDBRANCH  13  14
ENDBRANCH  12  13
ENDBRANCH  11  12
ENDBRANCH  10  11
ENDBRANCH   1  10
TORSDOF 12
ENDMDL
MODEL 2
REMARK VINA RESULT:    -5.778      1.873      5.046
REMARK INTER + INTRA:         -10.985
REMARK INTER:                  -9.551
REMARK INTRA:                  -1.435
REMARK UNBOUND:                -1.155
REMARK SMILES CCCCCCCCCCCCCC(=O)[O-]
REMARK SMILES IDX 8 1 9 2 10 3 11 4 12 5 13 6 14 7 15 8 16 9 7 10 6 11 5 12
REMARK SMILES IDX 4 13 3 14 2 15 1 16
REMARK H PARENT
REMARK Flexibility Score: inf
ROOT
ATOM      1  C   UNL     1       7.490  13.633   0.620  1.00  0.00     0.000 C 
ENDROOT
BRANCH   1   2
ATOM      2  C   UNL     1       8.153  14.607   1.607  1.00  0.00     0.000 C 
BRANCH   2   3
ATOM      3  C   UNL     1       7.588  14.477   3.032  1.00  0.00     0.000 C 
BRANCH   3   4
ATOM      4  C   UNL     1       7.363  15.842   3.704  1.00  0.00     0.000 C 
BRANCH   4   5
ATOM      5  C   UNL     1       5.887  16.265   3.710  1.00  0.00     0.006 C 
BRANCH   5   6
ATOM      6  C   UNL     1       4.983  15.095   4.110  1.00  0.00     0.053 C 
BRANCH   6   7
ATOM      7  C   UNL     1       3.932  15.549   5.071  1.00  0.00     0.041 C 
ATOM      8  O   UNL     1       2.827  14.949   5.131  1.00  0.00    -0.550 OA
ATOM      9  O   UNL     1       4.153  16.665   5.868  1.00  0.00    -0.550 OA
ENDBRANCH   6   7
ENDBRANCH   5   6
ENDBRANCH   4   5
ENDBRANCH   3   4
ENDBRANCH   2   3
ENDBRANCH   1   2
BRANCH   1  10
ATOM     10  C   UNL     1       5.952  13.669   0.691  1.00  0.00     0.000 C 
BRANCH  10  11
ATOM     11  C   UNL     1       5.369  14.995   0.180  1.00  0.00    -0.000 C 
BRANCH  11  12
ATOM     12  C   UNL     1       3.912  15.208   0.620  1.00  0.00    -0.000 C 
BRANCH  12  13
ATOM     13  C   UNL     1       3.279  13.890   1.081  1.00  0.00    -0.000 C 
BRANCH  13  14
ATOM     14  C   UNL     1       1.754  13.919   0.903  1.00  0.00    -0.000 C 
BRANCH  14  15
ATOM     15  C   UNL     1       1.013  14.253   2.206  1.00  0.00    -0.003 C 
ATOM     16  C   UNL     1      -0.317  13.509   2.338  1.00  0.00     0.004 C 
ENDBRANCH  14  15
ENDBRANCH  13  14
ENDBRANCH  12  13
ENDBRANCH  11  12
ENDBRANCH  10  11
ENDBRANCH   1  10
TORSDOF 12
ENDMDL
MODEL 3
REMARK VINA RESULT:    -5.728      1.051      1.572
REMARK INTER + INTRA:         -10.900
REMARK INTER:                  -9.820
REMARK INTRA:                  -1.081
REMARK UNBOUND:                -1.155
REMARK SMILES CCCCCCCCCCCCCC(=O)[O-]
REMARK SMILES IDX 8 1 9 2 10 3 11 4 12 5 13 6 14 7 15 8 16 9 7 10 6 11 5 12
REMARK SMILES IDX 4 13 3 14 2 15 1 16
REMARK H PARENT
REMARK Flexibility Score: inf
ROOT
ATOM      1  C   UNL     1       3.928  13.078   1.987  1.00  0.00     0.000 C 
ENDROOT
BRANCH   1   2
ATOM      2  C   UNL     1       3.008  14.251   1.615  1.00  0.00     0.000 C 
BRANCH   2   3
ATOM      3  C   UNL     1       1.539  13.822   1.457  1.00  0.00     0.000 C 
BRANCH   3   4
ATOM      4  C   UNL     1       0.608  14.527   2.458  1.00  0.00     0.000 C 
BRANCH   4   5
ATOM      5  C   UNL     1      -0.760  13.839   2.584  1.00  0.00     0.006 C 
BRANCH   5   6
ATOM      6  C   UNL     1      -1.349  14.044   3.983  1.00  0.00     0.053 C 
BRANCH   6   7
ATOM      7  C   UNL     1      -2.812  14.342   3.897  1.00  0.00     0.041 C 
ATOM      8  O   UNL     1      -3.441  14.724   4.918  1.00  0.00    -0.550 OA
ATOM      9  O   UNL     1      -3.492  14.152   2.701  1.00  0.00    -0.550 OA
ENDBRANCH   6   7
ENDBRANCH   5   6
ENDBRANCH   4   5
ENDBRANCH   3   4
ENDBRANCH   2   3
ENDBRANCH   1   2
BRANCH   1  10
ATOM     10  C   UNL     1       5.316  13.180   1.329  1.00  0.00     0.000 C 
BRANCH  10  11
ATOM     11  C   UNL     1       5.918  14.590   1.434  1.00  0.00    -0.000 C 
BRANCH  11  12
ATOM     12  C   UNL     1       7.165  14.635   2.330  1.00  0.00    -0.000 C 
BRANCH  12  13
ATOM     13  C   UNL     1       6.894  15.436   3.609  1.00  0.00    -0.000 C 
BRANCH  13  14
ATOM     14  C   UNL     1       5.493  16.066   3.577  1.00  0.00    -0.000 C 
BRANCH  14  15
ATOM     15  C   UNL     1       4.812  16.062   4.954  1.00  0.00    -0.003 C 
ATOM     16  C   UNL     1       3.438  15.392   4.932  1.00  0.00     0.004 C 
ENDBRANCH  14  15
ENDBRANCH  13  14
ENDBRANCH  12  13
ENDBRANCH  11  12
ENDBRANCH  10  11
ENDBRANCH   1  10
TORSDOF 12
ENDMDL
MODEL 4
REMARK VINA RESULT:    -5.725      5.320      8.177
REMARK INTER + INTRA:         -10.897
REMARK INTER:                  -9.390
REMARK INTRA:                  -1.507
REMARK UNBOUND:                -1.155
REMARK SMILES CCCCCCCCCCCCCC(=O)[O-]
REMARK SMILES IDX 8 1 9 2 10 3 11 4 12 5 13 6 14 7 15 8 16 9 7 10 6 11 5 12
REMARK SMILES IDX 4 13 3 14 2 15 1 16
REMARK H PARENT
REMARK Flexibility Score: inf
ROOT
ATOM      1  C   UNL     1       6.211  16.103   3.502  1.00  0.00     0.000 C 
ENDROOT
BRANCH   1   2
ATOM      2  C   UNL     1       7.283  15.003   3.559  1.00  0.00     0.000 C 
BRANCH   2   3
ATOM      3  C   UNL     1       8.455  15.270   2.598  1.00  0.00     0.000 C 
BRANCH   3   4
ATOM      4  C   UNL     1       8.573  14.199   1.501  1.00  0.00     0.000 C 
BRANCH   4   5
ATOM      5  C   UNL     1       9.661  14.526   0.467  1.00  0.00     0.006 C 
BRANCH   5   6
ATOM      6  C   UNL     1      10.885  15.155   1.140  1.00  0.00     0.053 C 
BRANCH   6   7
ATOM      7  C   UNL     1      11.279  16.416   0.439  1.00  0.00     0.041 C 
ATOM      8  O   UNL     1      11.340  16.449  -0.818  1.00  0.00    -0.550 OA
ATOM      9  O   UNL     1      11.625  17.542   1.175  1.00  0.00    -0.550 OA
ENDBRANCH   6   7
ENDBRANCH   5   6
ENDBRANCH   4   5
ENDBRANCH   3   4
ENDBRANCH   2   3
ENDBRANCH   1   2
BRANCH   1  10
ATOM     10  C   UNL     1       5.050  15.853   4.482  1.00  0.00     0.000 C 
BRANCH  10  11
ATOM     11  C   UNL     1       4.201  14.633   4.093  1.00  0.00    -0.000 C 
BRANCH  11  12
ATOM     12  C   UNL     1       3.055  14.992   3.134  1.00  0.00    -0.000 C 
BRANCH  12  13
ATOM     13  C   UNL     1       3.052  14.068   1.911  1.00  0.00    -0.000 C 
BRANCH  13  14
ATOM     14  C   UNL     1       4.289  13.156   1.907  1.00  0.00    -0.000 C 
BRANCH  14  15
ATOM     15  C   UNL     1       5.166  13.355   0.662  1.00  0.00    -0.003 C 
ATOM     16  C   UNL     1       5.196  14.809   0.187  1.00  0.00     0.004 C 
ENDBRANCH  14  15
ENDBRANCH  13  14
ENDBRANCH  12  13
ENDBRANCH  11  12
ENDBRANCH  10  11
ENDBRANCH   1  10
TORSDOF 12
ENDMDL
MODEL 5
REMARK VINA RESULT:    -5.722      0.880      1.724
REMARK INTER + INTRA:         -10.891
REMARK INTER:                  -9.712
REMARK INTRA:                  -1.179
REMARK UNBOUND:                -1.155
REMARK SMILES CCCCCCCCCCCCCC(=O)[O-]
REMARK SMILES IDX 8 1 9 2 10 3 11 4 12 5 13 6 14 7 15 8 16 9 7 10 6 11 5 12
REMARK SMILES IDX 4 13 3 14 2 15 1 16
REMARK H PARENT
REMARK Flexibility Score: inf
ROOT
ATOM      1  C   UNL     1       6.181  14.221   0.547  1.00  0.00     0.000 C 
ENDROOT
BRANCH   1   2
ATOM      2  C   UNL     1       5.227  13.045   0.809  1.00  0.00     0.000 C 
BRANCH   2   3
ATOM      3  C   UNL     1       4.001  13.454   1.643  1.00  0.00     0.000 C 
BRANCH   3   4
ATOM      4  C   UNL     1       3.020  14.339   0.856  1.00  0.00     0.000 C 
BRANCH   4   5
ATOM      5  C   UNL     1       1.551  13.970   1.111  1.00  0.00     0.006 C 
BRANCH   5   6
ATOM      6  C   UNL     1       1.162  14.242   2.567  1.00  0.00     0.053 C 
BRANCH   6   7
ATOM      7  C   UNL     1      -0.311  14.065   2.758  1.00  0.00     0.041 C 
ATOM      8  O   UNL     1      -0.843  14.336   3.866  1.00  0.00    -0.550 OA
ATOM      9  O   UNL     1      -1.090  13.556   1.727  1.00  0.00    -0.550 OA
ENDBRANCH   6   7
ENDBRANCH   5   6
ENDBRANCH   4   5
ENDBRANCH   3   4
ENDBRANCH   2   3
ENDBRANCH   1   2
BRANCH   1  10
ATOM     10  C   UNL     1       7.644  13.889   0.895  1.00  0.00     0.000 C 
BRANCH  10  11
ATOM     11  C   UNL     1       8.137  14.633   2.146  1.00  0.00    -0.000 C 
BRANCH  11  12
ATOM     12  C   UNL     1       7.082  14.675   3.262  1.00  0.00    -0.000 C 
BRANCH  12  13
ATOM     13  C   UNL     1       6.738  16.122   3.637  1.00  0.00    -0.000 C 
BRANCH  13  14
ATOM     14  C   UNL     1       5.217  16.345   3.632  1.00  0.00    -0.000 C 
BRANCH  14  15
ATOM     15  C   UNL     1       4.596  16.207   5.030  1.00  0.00    -0.003 C 
ATOM     16  C   UNL     1       3.518  15.123   5.093  1.00  0.00     0.004 C 
ENDBRANCH  14  15
ENDBRANCH  13  14
ENDBRANCH  12  13
ENDBRANCH  11  12
ENDBRANCH  10  11
ENDBRANCH   1  10
TORSDOF 12
ENDMDL
MODEL 6
REMARK VINA RESULT:    -5.706      5.073      7.369
REMARK INTER + INTRA:         -10.864
REMARK INTER:                  -9.292
REMARK INTRA:                  -1.572
REMARK UNBOUND:                -1.155
REMARK SMILES CCCCCCCCCCCCCC(=O)[O-]
REMARK SMILES IDX 8 1 9 2 10 3 11 4 12 5 13 6 14 7 15 8 16 9 7 10 6 11 5 12
REMARK SMILES IDX 4 13 3 14 2 15 1 16
REMARK H PARENT
REMARK Flexibility Score: inf
ROOT
ATOM      1  C   UNL     1       5.103  13.087   0.888  1.00  0.00     0.000 C 
ENDROOT
BRANCH   1   2
ATOM      2  C   UNL     1       5.504  14.455   0.313  1.00  0.00     0.000 C 
BRANCH   2   3
ATOM      3  C   UNL     1       6.984  14.791   0.566  1.00  0.00     0.000 C 
BRANCH   3   4
ATOM      4  C   UNL     1       7.885  13.546   0.537  1.00  0.00     0.000 C 
BRANCH   4   5
ATOM      5  C   UNL     1       9.200  13.746   1.305  1.00  0.00     0.006 C 
BRANCH   5   6
ATOM      6  C   UNL     1       9.480  15.234   1.534  1.00  0.00     0.053 C 
BRANCH   6   7
ATOM      7  C   UNL     1      10.741  15.644   0.842  1.00  0.00     0.041 C 
ATOM      8  O   UNL     1      11.166  16.824   0.946  1.00  0.00    -0.550 OA
ATOM      9  O   UNL     1      11.421  14.735   0.042  1.00  0.00    -0.550 OA
ENDBRANCH   6   7
ENDBRANCH   5   6
ENDBRANCH   4   5
ENDBRANCH   3   4
ENDBRANCH   2   3
ENDBRANCH   1   2
BRANCH   1  10
ATOM     10  C   UNL     1       4.145  13.205   2.088  1.00  0.00     0.000 C 
BRANCH  10  11
ATOM     11  C   UNL     1       2.922  14.083   1.782  1.00  0.00    -0.000 C 
BRANCH  11  12
ATOM     12  C   UNL     1       2.471  14.911   2.996  1.00  0.00    -0.000 C 
BRANCH  12  13
ATOM     13  C   UNL     1       3.512  14.851   4.120  1.00  0.00    -0.000 C 
BRANCH  13  14
ATOM     14  C   UNL     1       4.161  16.225   4.344  1.00  0.00    -0.000 C 
BRANCH  14  15
ATOM     15  C   UNL     1       5.360  16.471   3.416  1.00  0.00    -0.003 C 
ATOM     16  C   UNL     1       6.635  15.781   3.902  1.00  0.00     0.004 C 
ENDBRANCH  14  15
ENDBRANCH  13  14
ENDBRANCH  12  13
ENDBRANCH  11  12
ENDBRANCH  10  11
ENDBRANCH   1  10
TORSDOF 12
ENDMDL
MODEL 7
REMARK VINA RESULT:    -5.679      3.266      4.927
REMARK INTER + INTRA:         -10.817
REMARK INTER:                  -9.720
REMARK INTRA:                  -1.097
REMARK UNBOUND:                -1.155
REMARK SMILES CCCCCCCCCCCCCC(=O)[O-]
REMARK SMILES IDX 8 1 9 2 10 3 11 4 12 5 13 6 14 7 15 8 16 9 7 10 6 11 5 12
REMARK SMILES IDX 4 13 3 14 2 15 1 16
REMARK H PARENT
REMARK Flexibility Score: inf
ROOT
ATOM      1  C   UNL     1       4.719  13.461   0.941  1.00  0.00     0.000 C 
ENDROOT
BRANCH   1   2
ATOM      2  C   UNL     1       3.778  13.305   2.145  1.00  0.00     0.000 C 
BRANCH   2   3
ATOM      3  C   UNL     1       2.706  14.407   2.205  1.00  0.00     0.000 C 
BRANCH   3   4
ATOM      4  C   UNL     1       2.667  15.119   3.567  1.00  0.00     0.000 C 
BRANCH   4   5
ATOM      5  C   UNL     1       3.841  14.727   4.477  1.00  0.00     0.006 C 
BRANCH   5   6
ATOM      6  C   UNL     1       4.705  15.947   4.811  1.00  0.00     0.053 C 
BRANCH   6   7
ATOM      7  C   UNL     1       5.719  16.181   3.737  1.00  0.00     0.041 C 
ATOM      8  O   UNL     1       6.925  15.873   3.926  1.00  0.00    -0.550 OA
ATOM      9  O   UNL     1       5.342  16.785   2.544  1.00  0.00    -0.550 OA
ENDBRANCH   6   7
ENDBRANCH   5   6
ENDBRANCH   4   5
ENDBRANCH   3   4
ENDBRANCH   2   3
ENDBRANCH   1   2
BRANCH   1  10
ATOM     10  C   UNL     1       6.205  13.355   1.329  1.00  0.00     0.000 C 
BRANCH  10  11
ATOM     11  C   UNL     1       7.073  14.420   0.642  1.00  0.00    -0.000 C 
BRANCH  11  12
ATOM     12  C   UNL     1       8.521  13.953   0.426  1.00  0.00    -0.000 C 
BRANCH  12  13
ATOM     13  C   UNL     1       9.329  14.050   1.726  1.00  0.00    -0.000 C 
BRANCH  13  14
ATOM     14  C   UNL     1      10.821  14.266   1.432  1.00  0.00    -0.000 C 
BRANCH  14  15
ATOM     15  C   UNL     1      11.063  15.338   0.358  1.00  0.00    -0.003 C 
ATOM     16  C   UNL     1      11.326  16.721   0.953  1.00  0.00     0.004 C 
ENDBRANCH  14  15
ENDBRANCH  13  14
ENDBRANCH  12  13
ENDBRANCH  11  12
ENDBRANCH  10  11
ENDBRANCH   1  10
TORSDOF 12
ENDMDL
MODEL 8
REMARK VINA RESULT:    -5.654      3.005      4.666
REMARK INTER + INTRA:         -10.775
REMARK INTER:                  -9.745
REMARK INTRA:                  -1.030
REMARK UNBOUND:                -1.155
REMARK SMILES CCCCCCCCCCCCCC(=O)[O-]
REMARK SMILES IDX 8 1 9 2 10 3 11 4 12 5 13 6 14 7 15 8 16 9 7 10 6 11 5 12
REMARK SMILES IDX 4 13 3 14 2 15 1 16
REMARK H PARENT
REMARK Flexibility Score: inf
ROOT
ATOM      1  C   UNL     1       5.117  14.297   0.294  1.00  0.00     0.000 C 
ENDROOT
BRANCH   1   2
ATOM      2  C   UNL     1       5.027  12.997   1.107  1.00  0.00     0.000 C 
BRANCH   2   3
ATOM      3  C   UNL     1       3.884  13.022   2.137  1.00  0.00     0.000 C 
BRANCH   3   4
ATOM      4  C   UNL     1       3.022  14.291   2.031  1.00  0.00     0.000 C 
BRANCH   4   5
ATOM      5  C   UNL     1       2.917  15.051   3.361  1.00  0.00     0.006 C 
BRANCH   5   6
ATOM      6  C   UNL     1       4.076  14.686   4.293  1.00  0.00     0.053 C 
BRANCH   6   7
ATOM      7  C   UNL     1       4.784  15.919   4.757  1.00  0.00     0.041 C 
ATOM      8  O   UNL     1       4.227  16.703   5.569  1.00  0.00    -0.550 OA
ATOM      9  O   UNL     1       6.041  16.230   4.254  1.00  0.00    -0.550 OA
ENDBRANCH   6   7
ENDBRANCH   5   6
ENDBRANCH   4   5
ENDBRANCH   3   4
ENDBRANCH   2   3
ENDBRANCH   1   2
BRANCH   1  10
ATOM     10  C   UNL     1       6.492  14.980   0.415  1.00  0.00     0.000 C 
BRANCH  10  11
ATOM     11  C   UNL     1       7.431  14.247   1.384  1.00  0.00    -0.000 C 
BRANCH  11  12
ATOM     12  C   UNL     1       8.766  13.855   0.731  1.00  0.00    -0.000 C 
BRANCH  12  13
ATOM     13  C   UNL     1       9.919  13.950   1.737  1.00  0.00    -0.000 C 
BRANCH  13  14
ATOM     14  C   UNL     1      11.271  14.065   1.015  1.00  0.00    -0.000 C 
BRANCH  14  15
ATOM     15  C   UNL     1      11.386  15.346   0.177  1.00  0.00    -0.003 C 
ATOM     16  C   UNL     1      11.325  16.616   1.027  1.00  0.00     0.004 C 
ENDBRANCH  14  15
ENDBRANCH  13  14
ENDBRANCH  12  13
ENDBRANCH  11  12
ENDBRANCH  10  11
ENDBRANCH   1  10
TORSDOF 12
ENDMDL
MODEL 9
REMARK VINA RESULT:    -5.458      5.453      8.350
REMARK INTER + INTRA:         -10.442
REMARK INTER:                  -9.481
REMARK INTRA:                  -0.961
REMARK UNBOUND:                -1.155
REMARK SMILES CCCCCCCCCCCCCC(=O)[O-]
REMARK SMILES IDX 8 1 9 2 10 3 11 4 12 5 13 6 14 7 15 8 16 9 7 10 6 11 5 12
REMARK SMILES IDX 4 13 3 14 2 15 1 16
REMARK H PARENT
REMARK Flexibility Score: inf
ROOT
ATOM      1  C   UNL     1       6.789  13.831   1.333  1.00  0.00     0.000 C 
ENDROOT
BRANCH   1   2
ATOM      2  C   UNL     1       8.149  13.633   0.646  1.00  0.00     0.000 C 
BRANCH   2   3
ATOM      3  C   UNL     1       9.249  14.524   1.246  1.00  0.00     0.000 C 
BRANCH   3   4
ATOM      4  C   UNL     1      10.572  13.769   1.456  1.00  0.00     0.000 C 
BRANCH   4   5
ATOM      5  C   UNL     1      11.759  14.439   0.749  1.00  0.00     0.006 C 
BRANCH   5   6
ATOM      6  C   UNL     1      11.384  15.840   0.257  1.00  0.00     0.053 C 
BRANCH   6   7
ATOM      7  C   UNL     1      11.392  15.891  -1.237  1.00  0.00     0.041 C 
ATOM      8  O   UNL     1      11.463  16.998  -1.833  1.00  0.00    -0.550 OA
ATOM      9  O   UNL     1      11.271  14.720  -1.974  1.00  0.00    -0.550 OA
ENDBRANCH   6   7
ENDBRANCH   5   6
ENDBRANCH   4   5
ENDBRANCH   3   4
ENDBRANCH   2   3
ENDBRANCH   1   2
BRANCH   1  10
ATOM     10  C   UNL     1       5.678  14.240   0.347  1.00  0.00     0.000 C 
BRANCH  10  11
ATOM     11  C   UNL     1       4.382  13.442   0.555  1.00  0.00    -0.000 C 
BRANCH  11  12
ATOM     12  C   UNL     1       3.946  13.397   2.028  1.00  0.00    -0.000 C 
BRANCH  12  13
ATOM     13  C   UNL     1       2.882  14.462   2.318  1.00  0.00    -0.000 C 
BRANCH  13  14
ATOM     14  C   UNL     1       3.175  15.186   3.642  1.00  0.00    -0.000 C 
BRANCH  14  15
ATOM     15  C   UNL     1       4.561  14.844   4.208  1.00  0.00    -0.003 C 
ATOM     16  C   UNL     1       5.547  16.008   4.100  1.00  0.00     0.004 C 
ENDBRANCH  14  15
ENDBRANCH  13  14
ENDBRANCH  12  13
ENDBRANCH  11  12
ENDBRANCH  10  11
ENDBRANCH   1  10
TORSDOF 12
ENDMDL
