MODEL 1
REMARK VINA RESULT:    -5.232      0.000      0.000
REMARK INTER + INTRA:         -13.733
REMARK INTER:                 -11.348
REMARK INTRA:                  -2.384
REMARK UNBOUND:                -2.384
REMARK SMILES CCCCCCCCCCCCCCCCCCCCCC(=O)[O-]
REMARK SMILES IDX 12 1 11 2 10 3 9 4 8 5 7 6 6 7 5 8 4 9 3 10 2 11 1 12 13 13
REMARK SMILES IDX 14 14 15 15 16 16 17 17 18 18 19 19 20 20 21 21 22 22 23 23
REMARK SMILES IDX 24 24
REMARK H PARENT
REMARK Flexibility Score: inf
ROOT
ATOM      1  C   UNL     1      43.228  36.449  13.138  1.00  0.00     0.000 C 
ENDROOT
BRANCH   1   2
ATOM      2  C   UNL     1      42.883  36.231  11.655  1.00  0.00     0.000 C 
BRANCH   2   3
ATOM      3  C   UNL     1      42.246  37.467  11.004  1.00  0.00     0.000 C 
BRANCH   3   4
ATOM      4  C   UNL     1      41.287  37.056   9.876  1.00  0.00    -0.000 C 
BRANCH   4   5
ATOM      5  C   UNL     1      40.879  35.574   9.947  1.00  0.00    -0.000 C 
BRANCH   5   6
ATOM      6  C   UNL     1      39.358  35.317  10.016  1.00  0.00    -0.000 C 
BRANCH   6   7
ATOM      7  C   UNL     1      38.841  34.779  11.363  1.00  0.00    -0.000 C 
BRANCH   7   8
ATOM      8  C   UNL     1      39.554  35.407  12.572  1.00  0.00    -0.000 C 
BRANCH   8   9
ATOM      9  C   UNL     1      38.959  36.769  12.977  1.00  0.00    -0.000 C 
BRANCH   9  10
ATOM     10  C   UNL     1      39.848  37.624  13.898  1.00  0.00    -0.000 C 
BRANCH  10  11
ATOM     11  C   UNL     1      40.014  39.066  13.402  1.00  0.00    -0.003 C 
ATOM     12  C   UNL     1      39.256  39.289  12.096  1.00  0.00     0.004 C 
ENDBRANCH  10  11
ENDBRANCH   9  10
ENDBRANCH   8   9
ENDBRANCH   7   8
ENDBRANCH   6   7
ENDBRANCH   5   6
ENDBRANCH   4   5
ENDBRANCH   3   4
ENDBRANCH   2   3
ENDBRANCH   1   2
BRANCH   1  13
ATOM     13  C   UNL     1      44.606  35.879  13.514  1.00  0.00     0.000 C 
BRANCH  13  14
ATOM     14  C   UNL     1      45.348  35.288  12.303  1.00  0.00     0.000 C 
BRANCH  14  15
ATOM     15  C   UNL     1      46.876  35.308  12.483  1.00  0.00     0.000 C 
BRANCH  15  16
ATOM     16  C   UNL     1      47.572  34.149  11.752  1.00  0.00     0.000 C 
BRANCH  16  17
ATOM     17  C   UNL     1      48.811  33.630  12.505  1.00  0.00     0.000 C 
BRANCH  17  18
ATOM     18  C   UNL     1      48.889  34.153  13.947  1.00  0.00     0.000 C 
BRANCH  18  19
ATOM     19  C   UNL     1      48.480  33.094  14.982  1.00  0.00     0.000 C 
BRANCH  19  20
ATOM     20  C   UNL     1      47.962  33.754  16.269  1.00  0.00     0.006 C 
BRANCH  20  21
ATOM     21  C   UNL     1      48.143  32.855  17.499  1.00  0.00     0.053 C 
BRANCH  21  22
ATOM     22  C   UNL     1      49.540  32.323  17.601  1.00  0.00     0.041 C 
ATOM     23  O   UNL     1      50.456  33.038  18.088  1.00  0.00    -0.550 OA
ATOM     24  O   UNL     1      49.821  31.021  17.204  1.00  0.00    -0.550 OA
ENDBRANCH  21  22
ENDBRANCH  20  21
ENDBRANCH  19  20
ENDBRANCH  18  19
ENDBRANCH  17  18
ENDBRANCH  16  17
ENDBRANCH  15  16
ENDBRANCH  14  15
ENDBRANCH  13  14
ENDBRANCH   1  13
TORSDOF 20
ENDMDL
MODEL 2
REMARK VINA RESULT:    -5.164      8.361     13.452
REMARK INTER + INTRA:         -13.586
REMARK INTER:                 -10.352
REMARK INTRA:                  -3.234
REMARK UNBOUND:                -2.384
REMARK SMILES CCCCCCCCCCCCCCCCCCCCCC(=O)[O-]
REMARK SMILES IDX 12 1 11 2 10 3 9 4 8 5 7 6 6 7 5 8 4 9 3 10 2 11 1 12 13 13
REMARK SMILES IDX 14 14 15 15 16 16 17 17 18 18 19 19 20 20 21 21 22 22 23 23
REMARK SMILES IDX 24 24
REMARK H PARENT
REMARK Flexibility Score: inf
ROOT
ATOM      1  C   UNL     1      48.654  26.318  19.129  1.00  0.00     0.000 C 
ENDROOT
BRANCH   1   2
ATOM      2  C   UNL     1      48.531  26.122  20.650  1.00  0.00     0.000 C 
BRANCH   2   3
ATOM      3  C   UNL     1      49.281  24.879  21.152  1.00  0.00     0.000 C 
BRANCH   3   4
ATOM      4  C   UNL     1      50.034  25.188  22.455  1.00  0.00    -0.000 C 
BRANCH   4   5
ATOM      5  C   UNL     1      50.341  26.686  22.630  1.00  0.00    -0.000 C 
BRANCH   5   6
ATOM      6  C   UNL     1      51.731  27.132  22.130  1.00  0.00    -0.000 C 
BRANCH   6   7
ATOM      7  C   UNL     1      52.676  25.993  21.706  1.00  0.00    -0.000 C 
BRANCH   7   8
ATOM      8  C   UNL     1      52.791  25.847  20.179  1.00  0.00    -0.000 C 
BRANCH   8   9
ATOM      9  C   UNL     1      52.225  27.061  19.418  1.00  0.00    -0.000 C 
BRANCH   9  10
ATOM     10  C   UNL     1      52.956  27.412  18.110  1.00  0.00    -0.000 C 
BRANCH  10  11
ATOM     11  C   UNL     1      53.402  28.878  18.046  1.00  0.00    -0.003 C 
ATOM     12  C   UNL     1      54.875  28.989  17.657  1.00  0.00     0.004 C 
ENDBRANCH  10  11
ENDBRANCH   9  10
ENDBRANCH   8   9
ENDBRANCH   7   8
ENDBRANCH   6   7
ENDBRANCH   5   6
ENDBRANCH   4   5
ENDBRANCH   3   4
ENDBRANCH   2   3
ENDBRANCH   1   2
BRANCH   1  13
ATOM     13  C   UNL     1      49.213  25.075  18.417  1.00  0.00     0.000 C 
BRANCH  13  14
ATOM     14  C   UNL     1      49.562  25.349  16.944  1.00  0.00     0.000 C 
BRANCH  14  15
ATOM     15  C   UNL     1      48.342  25.806  16.126  1.00  0.00     0.000 C 
BRANCH  15  16
ATOM     16  C   UNL     1      48.634  27.052  15.274  1.00  0.00     0.000 C 
BRANCH  16  17
ATOM     17  C   UNL     1      49.999  27.687  15.598  1.00  0.00     0.000 C 
BRANCH  17  18
ATOM     18  C   UNL     1      49.884  29.167  15.994  1.00  0.00     0.000 C 
BRANCH  18  19
ATOM     19  C   UNL     1      48.913  29.391  17.162  1.00  0.00     0.000 C 
BRANCH  19  20
ATOM     20  C   UNL     1      47.919  30.519  16.842  1.00  0.00     0.006 C 
BRANCH  20  21
ATOM     21  C   UNL     1      48.058  31.708  17.801  1.00  0.00     0.053 C 
BRANCH  21  22
ATOM     22  C   UNL     1      49.123  32.663  17.355  1.00  0.00     0.041 C 
ATOM     23  O   UNL     1      48.869  33.531  16.478  1.00  0.00    -0.550 OA
ATOM     24  O   UNL     1      50.382  32.627  17.943  1.00  0.00    -0.550 OA
ENDBRANCH  21  22
ENDBRANCH  20  21
ENDBRANCH  19  20
ENDBRANCH  18  19
ENDBRANCH  17  18
ENDBRANCH  16  17
ENDBRANCH  15  16
ENDBRANCH  14  15
ENDBRANCH  13  14
ENDBRANCH   1  13
TORSDOF 20
ENDMDL
MODEL 3
REMARK VINA RESULT:    -5.058      6.736     12.624
REMARK INTER + INTRA:         -13.355
REMARK INTER:                 -10.794
REMARK INTRA:                  -2.561
REMARK UNBOUND:                -2.384
REMARK SMILES CCCCCCCCCCCCCCCCCCCCCC(=O)[O-]
REMARK SMILES IDX 12 1 11 2 10 3 9 4 8 5 7 6 6 7 5 8 4 9 3 10 2 11 1 12 13 13
REMARK SMILES IDX 14 14 15 15 16 16 17 17 18 18 19 19 20 20 21 21 22 22 23 23
REMARK SMILES IDX 24 24
REMARK H PARENT
REMARK Flexibility Score: inf
ROOT
ATOM      1  C   UNL     1      49.329  26.734  16.504  1.00  0.00     0.000 C 
ENDROOT
BRANCH   1   2
ATOM      2  C   UNL     1      48.757  25.831  17.609  1.00  0.00     0.000 C 
BRANCH   2   3
ATOM      3  C   UNL     1      48.526  26.579  18.930  1.00  0.00     0.000 C 
BRANCH   3   4
ATOM      4  C   UNL     1      48.477  25.598  20.111  1.00  0.00    -0.000 C 
BRANCH   4   5
ATOM      5  C   UNL     1      48.299  26.301  21.468  1.00  0.00    -0.000 C 
BRANCH   5   6
ATOM      6  C   UNL     1      49.403  26.009  22.506  1.00  0.00    -0.000 C 
BRANCH   6   7
ATOM      7  C   UNL     1      50.489  27.092  22.637  1.00  0.00    -0.000 C 
BRANCH   7   8
ATOM      8  C   UNL     1      51.910  26.545  22.418  1.00  0.00    -0.000 C 
BRANCH   8   9
ATOM      9  C   UNL     1      52.569  27.086  21.135  1.00  0.00    -0.000 C 
BRANCH   9  10
ATOM     10  C   UNL     1      52.114  26.409  19.830  1.00  0.00    -0.000 C 
BRANCH  10  11
ATOM     11  C   UNL     1      52.362  27.274  18.588  1.00  0.00    -0.003 C 
ATOM     12  C   UNL     1      53.242  28.476  18.920  1.00  0.00     0.004 C 
ENDBRANCH  10  11
ENDBRANCH   9  10
ENDBRANCH   8   9
ENDBRANCH   7   8
ENDBRANCH   6   7
ENDBRANCH   5   6
ENDBRANCH   4   5
ENDBRANCH   3   4
ENDBRANCH   2   3
ENDBRANCH   1   2
BRANCH   1  13
ATOM     13  C   UNL     1      48.242  27.559  15.794  1.00  0.00     0.000 C 
BRANCH  13  14
ATOM     14  C   UNL     1      48.506  29.073  15.875  1.00  0.00     0.000 C 
BRANCH  14  15
ATOM     15  C   UNL     1      49.996  29.399  16.080  1.00  0.00     0.000 C 
BRANCH  15  16
ATOM     16  C   UNL     1      50.213  30.647  16.950  1.00  0.00     0.000 C 
BRANCH  16  17
ATOM     17  C   UNL     1      48.910  31.427  17.207  1.00  0.00     0.000 C 
BRANCH  17  18
ATOM     18  C   UNL     1      49.165  32.835  17.766  1.00  0.00     0.000 C 
BRANCH  18  19
ATOM     19  C   UNL     1      48.823  33.941  16.756  1.00  0.00     0.000 C 
BRANCH  19  20
ATOM     20  C   UNL     1      48.024  33.375  15.572  1.00  0.00     0.006 C 
BRANCH  20  21
ATOM     21  C   UNL     1      48.517  33.916  14.224  1.00  0.00     0.053 C 
BRANCH  21  22
ATOM     22  C   UNL     1      48.627  32.833  13.194  1.00  0.00     0.041 C 
ATOM     23  O   UNL     1      48.865  31.647  13.546  1.00  0.00    -0.550 OA
ATOM     24  O   UNL     1      48.419  33.125  11.852  1.00  0.00    -0.550 OA
ENDBRANCH  21  22
ENDBRANCH  20  21
ENDBRANCH  19  20
ENDBRANCH  18  19
ENDBRANCH  17  18
ENDBRANCH  16  17
ENDBRANCH  15  16
ENDBRANCH  14  15
ENDBRANCH  13  14
ENDBRANCH   1  13
TORSDOF 20
ENDMDL
MODEL 4
REMARK VINA RESULT:    -4.984      3.846      9.343
REMARK INTER + INTRA:         -13.195
REMARK INTER:                 -11.128
REMARK INTRA:                  -2.067
REMARK UNBOUND:                -2.384
REMARK SMILES CCCCCCCCCCCCCCCCCCCCCC(=O)[O-]
REMARK SMILES IDX 12 1 11 2 10 3 9 4 8 5 7 6 6 7 5 8 4 9 3 10 2 11 1 12 13 13
REMARK SMILES IDX 14 14 15 15 16 16 17 17 18 18 19 19 20 20 21 21 22 22 23 23
REMARK SMILES IDX 24 24
REMARK H PARENT
REMARK Flexibility Score: inf
ROOT
ATOM      1  C   UNL     1      43.610  36.276  12.025  1.00  0.00     0.000 C 
ENDROOT
BRANCH   1   2
ATOM      2  C   UNL     1      44.360  36.275  13.368  1.00  0.00     0.000 C 
BRANCH   2   3
ATOM      3  C   UNL     1      45.466  35.212  13.432  1.00  0.00     0.000 C 
BRANCH   3   4
ATOM      4  C   UNL     1      46.632  35.582  12.503  1.00  0.00    -0.000 C 
BRANCH   4   5
ATOM      5  C   UNL     1      47.678  34.460  12.377  1.00  0.00    -0.000 C 
BRANCH   5   6
ATOM      6  C   UNL     1      48.690  34.375  13.539  1.00  0.00    -0.000 C 
BRANCH   6   7
ATOM      7  C   UNL     1      48.415  33.268  14.574  1.00  0.00    -0.000 C 
BRANCH   7   8
ATOM      8  C   UNL     1      47.818  33.809  15.884  1.00  0.00    -0.000 C 
BRANCH   8   9
ATOM      9  C   UNL     1      48.866  33.951  17.005  1.00  0.00    -0.000 C 
BRANCH   9  10
ATOM     10  C   UNL     1      49.137  32.669  17.812  1.00  0.00    -0.000 C 
BRANCH  10  11
ATOM     11  C   UNL     1      47.951  31.695  17.808  1.00  0.00    -0.003 C 
ATOM     12  C   UNL     1      48.324  30.377  17.134  1.00  0.00     0.004 C 
ENDBRANCH  10  11
ENDBRANCH   9  10
ENDBRANCH   8   9
ENDBRANCH   7   8
ENDBRANCH   6   7
ENDBRANCH   5   6
ENDBRANCH   4   5
ENDBRANCH   3   4
ENDBRANCH   2   3
ENDBRANCH   1   2
BRANCH   1  13
ATOM     13  C   UNL     1      43.380  37.695  11.478  1.00  0.00     0.000 C 
BRANCH  13  14
ATOM     14  C   UNL     1      42.330  37.729  10.354  1.00  0.00     0.000 C 
BRANCH  14  15
ATOM     15  C   UNL     1      41.392  38.943  10.464  1.00  0.00     0.000 C 
BRANCH  15  16
ATOM     16  C   UNL     1      41.789  39.895  11.604  1.00  0.00     0.000 C 
BRANCH  16  17
ATOM     17  C   UNL     1      40.675  40.062  12.655  1.00  0.00     0.000 C 
BRANCH  17  18
ATOM     18  C   UNL     1      39.806  38.803  12.800  1.00  0.00     0.000 C 
BRANCH  18  19
ATOM     19  C   UNL     1      40.434  37.757  13.734  1.00  0.00     0.000 C 
BRANCH  19  20
ATOM     20  C   UNL     1      39.790  36.378  13.524  1.00  0.00     0.006 C 
BRANCH  20  21
ATOM     21  C   UNL     1      40.033  35.830  12.112  1.00  0.00     0.053 C 
BRANCH  21  22
ATOM     22  C   UNL     1      39.138  34.668  11.803  1.00  0.00     0.041 C 
ATOM     23  O   UNL     1      38.421  34.679  10.767  1.00  0.00    -0.550 OA
ATOM     24  O   UNL     1      39.133  33.553  12.633  1.00  0.00    -0.550 OA
ENDBRANCH  21  22
ENDBRANCH  20  21
ENDBRANCH  19  20
ENDBRANCH  18  19
ENDBRANCH  17  18
ENDBRANCH  16  17
ENDBRANCH  15  16
ENDBRANCH  14  15
ENDBRANCH  13  14
ENDBRANCH   1  13
TORSDOF 20
ENDMDL
MODEL 5
REMARK VINA RESULT:    -4.974      7.623     11.826
REMARK INTER + INTRA:         -13.175
REMARK INTER:                 -10.284
REMARK INTRA:                  -2.891
REMARK UNBOUND:                -2.384
REMARK SMILES CCCCCCCCCCCCCCCCCCCCCC(=O)[O-]
REMARK SMILES IDX 12 1 11 2 10 3 9 4 8 5 7 6 6 7 5 8 4 9 3 10 2 11 1 12 13 13
REMARK SMILES IDX 14 14 15 15 16 16 17 17 18 18 19 19 20 20 21 21 22 22 23 23
REMARK SMILES IDX 24 24
REMARK H PARENT
REMARK Flexibility Score: inf
ROOT
ATOM      1  C   UNL     1      49.026  26.210  19.336  1.00  0.00     0.000 C 
ENDROOT
BRANCH   1   2
ATOM      2  C   UNL     1      49.571  24.902  18.739  1.00  0.00     0.000 C 
BRANCH   2   3
ATOM      3  C   UNL     1      49.664  24.940  17.207  1.00  0.00     0.000 C 
BRANCH   3   4
ATOM      4  C   UNL     1      48.436  25.641  16.604  1.00  0.00    -0.000 C 
BRANCH   4   5
ATOM      5  C   UNL     1      48.805  26.665  15.516  1.00  0.00    -0.000 C 
BRANCH   5   6
ATOM      6  C   UNL     1      49.266  28.041  16.042  1.00  0.00    -0.000 C 
BRANCH   6   7
ATOM      7  C   UNL     1      48.216  28.822  16.853  1.00  0.00    -0.000 C 
BRANCH   7   8
ATOM      8  C   UNL     1      47.419  29.821  15.996  1.00  0.00    -0.000 C 
BRANCH   8   9
ATOM      9  C   UNL     1      47.934  31.267  16.128  1.00  0.00    -0.000 C 
BRANCH   9  10
ATOM     10  C   UNL     1      48.742  31.560  17.405  1.00  0.00    -0.000 C 
BRANCH  10  11
ATOM     11  C   UNL     1      49.324  32.979  17.434  1.00  0.00    -0.003 C 
ATOM     12  C   UNL     1      48.655  33.869  16.388  1.00  0.00     0.004 C 
ENDBRANCH  10  11
ENDBRANCH   9  10
ENDBRANCH   8   9
ENDBRANCH   7   8
ENDBRANCH   6   7
ENDBRANCH   5   6
ENDBRANCH   4   5
ENDBRANCH   3   4
ENDBRANCH   2   3
ENDBRANCH   1   2
BRANCH   1  13
ATOM     13  C   UNL     1      48.154  25.974  20.581  1.00  0.00     0.000 C 
BRANCH  13  14
ATOM     14  C   UNL     1      48.992  25.691  21.840  1.00  0.00     0.000 C 
BRANCH  14  15
ATOM     15  C   UNL     1      49.481  26.982  22.520  1.00  0.00     0.000 C 
BRANCH  15  16
ATOM     16  C   UNL     1      51.015  27.082  22.562  1.00  0.00     0.000 C 
BRANCH  16  17
ATOM     17  C   UNL     1      51.704  25.711  22.441  1.00  0.00     0.000 C 
BRANCH  17  18
ATOM     18  C   UNL     1      52.653  25.630  21.236  1.00  0.00     0.000 C 
BRANCH  18  19
ATOM     19  C   UNL     1      52.640  26.910  20.387  1.00  0.00     0.000 C 
BRANCH  19  20
ATOM     20  C   UNL     1      52.735  26.578  18.890  1.00  0.00     0.006 C 
BRANCH  20  21
ATOM     21  C   UNL     1      52.475  27.803  18.003  1.00  0.00     0.053 C 
BRANCH  21  22
ATOM     22  C   UNL     1      53.728  28.285  17.338  1.00  0.00     0.041 C 
ATOM     23  O   UNL     1      53.905  28.093  16.105  1.00  0.00    -0.550 OA
ATOM     24  O   UNL     1      54.677  28.990  18.068  1.00  0.00    -0.550 OA
ENDBRANCH  21  22
ENDBRANCH  20  21
ENDBRANCH  19  20
ENDBRANCH  18  19
ENDBRANCH  17  18
ENDBRANCH  16  17
ENDBRANCH  15  16
ENDBRANCH  14  15
ENDBRANCH  13  14
ENDBRANCH   1  13
TORSDOF 20
ENDMDL
MODEL 6
REMARK VINA RESULT:    -4.974      6.707     11.271
REMARK INTER + INTRA:         -13.175
REMARK INTER:                 -10.897
REMARK INTRA:                  -2.278
REMARK UNBOUND:                -2.384
REMARK SMILES CCCCCCCCCCCCCCCCCCCCCC(=O)[O-]
REMARK SMILES IDX 12 1 11 2 10 3 9 4 8 5 7 6 6 7 5 8 4 9 3 10 2 11 1 12 13 13
REMARK SMILES IDX 14 14 15 15 16 16 17 17 18 18 19 19 20 20 21 21 22 22 23 23
REMARK SMILES IDX 24 24
REMARK H PARENT
REMARK Flexibility Score: inf
ROOT
ATOM      1  C   UNL     1      48.726  25.259  19.126  1.00  0.00     0.000 C 
ENDROOT
BRANCH   1   2
ATOM      2  C   UNL     1      48.937  26.674  18.564  1.00  0.00     0.000 C 
BRANCH   2   3
ATOM      3  C   UNL     1      49.143  26.686  17.042  1.00  0.00     0.000 C 
BRANCH   3   4
ATOM      4  C   UNL     1      48.479  27.920  16.412  1.00  0.00    -0.000 C 
BRANCH   4   5
ATOM      5  C   UNL     1      48.120  29.001  17.445  1.00  0.00    -0.000 C 
BRANCH   5   6
ATOM      6  C   UNL     1      47.765  30.381  16.853  1.00  0.00    -0.000 C 
BRANCH   6   7
ATOM      7  C   UNL     1      47.926  31.573  17.814  1.00  0.00    -0.000 C 
BRANCH   7   8
ATOM      8  C   UNL     1      49.156  32.440  17.493  1.00  0.00    -0.000 C 
BRANCH   8   9
ATOM      9  C   UNL     1      48.782  33.811  16.896  1.00  0.00    -0.000 C 
BRANCH   9  10
ATOM     10  C   UNL     1      47.812  33.762  15.703  1.00  0.00    -0.000 C 
BRANCH  10  11
ATOM     11  C   UNL     1      48.529  33.773  14.346  1.00  0.00    -0.003 C 
ATOM     12  C   UNL     1      48.644  32.362  13.773  1.00  0.00     0.004 C 
ENDBRANCH  10  11
ENDBRANCH   9  10
ENDBRANCH   8   9
ENDBRANCH   7   8
ENDBRANCH   6   7
ENDBRANCH   5   6
ENDBRANCH   4   5
ENDBRANCH   3   4
ENDBRANCH   2   3
ENDBRANCH   1   2
BRANCH   1  13
ATOM     13  C   UNL     1      48.449  25.259  20.639  1.00  0.00     0.000 C 
BRANCH  13  14
ATOM     14  C   UNL     1      48.172  26.670  21.186  1.00  0.00     0.000 C 
BRANCH  14  15
ATOM     15  C   UNL     1      48.949  26.960  22.482  1.00  0.00     0.000 C 
BRANCH  15  16
ATOM     16  C   UNL     1      50.313  26.253  22.523  1.00  0.00     0.000 C 
BRANCH  16  17
ATOM     17  C   UNL     1      51.493  27.240  22.588  1.00  0.00     0.000 C 
BRANCH  17  18
ATOM     18  C   UNL     1      52.671  26.813  21.700  1.00  0.00     0.000 C 
BRANCH  18  19
ATOM     19  C   UNL     1      52.214  26.148  20.393  1.00  0.00     0.000 C 
BRANCH  19  20
ATOM     20  C   UNL     1      52.482  27.064  19.188  1.00  0.00     0.006 C 
BRANCH  20  21
ATOM     21  C   UNL     1      53.982  27.256  18.924  1.00  0.00     0.053 C 
BRANCH  21  22
ATOM     22  C   UNL     1      54.256  28.508  18.149  1.00  0.00     0.041 C 
ATOM     23  O   UNL     1      53.301  29.207  17.716  1.00  0.00    -0.550 OA
ATOM     24  O   UNL     1      55.565  28.929  17.946  1.00  0.00    -0.550 OA
ENDBRANCH  21  22
ENDBRANCH  20  21
ENDBRANCH  19  20
ENDBRANCH  18  19
ENDBRANCH  17  18
ENDBRANCH  16  17
ENDBRANCH  15  16
ENDBRANCH  14  15
ENDBRANCH  13  14
ENDBRANCH   1  13
TORSDOF 20
ENDMDL
MODEL 7
REMARK VINA RESULT:    -4.974      6.352     10.501
REMARK INTER + INTRA:         -13.174
REMARK INTER:                 -11.042
REMARK INTRA:                  -2.132
REMARK UNBOUND:                -2.384
REMARK SMILES CCCCCCCCCCCCCCCCCCCCCC(=O)[O-]
REMARK SMILES IDX 12 1 11 2 10 3 9 4 8 5 7 6 6 7 5 8 4 9 3 10 2 11 1 12 13 13
REMARK SMILES IDX 14 14 15 15 16 16 17 17 18 18 19 19 20 20 21 21 22 22 23 23
REMARK SMILES IDX 24 24
REMARK H PARENT
REMARK Flexibility Score: inf
ROOT
ATOM      1  C   UNL     1      51.041  28.835  17.000  1.00  0.00     0.000 C 
ENDROOT
BRANCH   1   2
ATOM      2  C   UNL     1      49.738  28.957  16.193  1.00  0.00     0.000 C 
BRANCH   2   3
ATOM      3  C   UNL     1      48.491  29.051  17.085  1.00  0.00     0.000 C 
BRANCH   3   4
ATOM      4  C   UNL     1      47.738  30.366  16.832  1.00  0.00    -0.000 C 
BRANCH   4   5
ATOM      5  C   UNL     1      48.057  31.449  17.877  1.00  0.00    -0.000 C 
BRANCH   5   6
ATOM      6  C   UNL     1      49.238  32.377  17.520  1.00  0.00    -0.000 C 
BRANCH   6   7
ATOM      7  C   UNL     1      48.849  33.799  17.078  1.00  0.00    -0.000 C 
BRANCH   7   8
ATOM      8  C   UNL     1      47.814  33.810  15.940  1.00  0.00    -0.000 C 
BRANCH   8   9
ATOM      9  C   UNL     1      48.362  33.220  14.626  1.00  0.00    -0.000 C 
BRANCH   9  10
ATOM     10  C   UNL     1      48.335  34.175  13.419  1.00  0.00    -0.000 C 
BRANCH  10  11
ATOM     11  C   UNL     1      48.929  33.552  12.149  1.00  0.00    -0.003 C 
ATOM     12  C   UNL     1      47.933  33.604  10.993  1.00  0.00     0.004 C 
ENDBRANCH  10  11
ENDBRANCH   9  10
ENDBRANCH   8   9
ENDBRANCH   7   8
ENDBRANCH   6   7
ENDBRANCH   5   6
ENDBRANCH   4   5
ENDBRANCH   3   4
ENDBRANCH   2   3
ENDBRANCH   1   2
BRANCH   1  13
ATOM     13  C   UNL     1      51.674  27.437  16.892  1.00  0.00     0.000 C 
BRANCH  13  14
ATOM     14  C   UNL     1      51.538  26.627  18.192  1.00  0.00     0.000 C 
BRANCH  14  15
ATOM     15  C   UNL     1      50.935  25.232  17.954  1.00  0.00     0.000 C 
BRANCH  15  16
ATOM     16  C   UNL     1      49.841  24.879  18.974  1.00  0.00     0.000 C 
BRANCH  16  17
ATOM     17  C   UNL     1      48.553  25.698  18.772  1.00  0.00     0.000 C 
BRANCH  17  18
ATOM     18  C   UNL     1      48.284  26.672  19.930  1.00  0.00     0.000 C 
BRANCH  18  19
ATOM     19  C   UNL     1      48.300  25.978  21.300  1.00  0.00     0.000 C 
BRANCH  19  20
ATOM     20  C   UNL     1      49.263  26.688  22.264  1.00  0.00     0.006 C 
BRANCH  20  21
ATOM     21  C   UNL     1      50.462  25.808  22.643  1.00  0.00     0.053 C 
BRANCH  21  22
ATOM     22  C   UNL     1      51.743  26.331  22.068  1.00  0.00     0.041 C 
ATOM     23  O   UNL     1      52.073  27.534  22.248  1.00  0.00    -0.550 OA
ATOM     24  O   UNL     1      52.595  25.479  21.376  1.00  0.00    -0.550 OA
ENDBRANCH  21  22
ENDBRANCH  20  21
ENDBRANCH  19  20
ENDBRANCH  18  19
ENDBRANCH  17  18
ENDBRANCH  16  17
ENDBRANCH  15  16
ENDBRANCH  14  15
ENDBRANCH  13  14
ENDBRANCH   1  13
TORSDOF 20
ENDMDL
MODEL 8
REMARK VINA RESULT:    -4.970      6.268     12.159
REMARK INTER + INTRA:         -13.166
REMARK INTER:                 -11.245
REMARK INTRA:                  -1.921
REMARK UNBOUND:                -2.384
REMARK SMILES CCCCCCCCCCCCCCCCCCCCCC(=O)[O-]
REMARK SMILES IDX 12 1 11 2 10 3 9 4 8 5 7 6 6 7 5 8 4 9 3 10 2 11 1 12 13 13
REMARK SMILES IDX 14 14 15 15 16 16 17 17 18 18 19 19 20 20 21 21 22 22 23 23
REMARK SMILES IDX 24 24
REMARK H PARENT
REMARK Flexibility Score: inf
ROOT
ATOM      1  C   UNL     1      50.747  29.450  16.291  1.00  0.00     0.000 C 
ENDROOT
BRANCH   1   2
ATOM      2  C   UNL     1      50.614  28.004  15.785  1.00  0.00     0.000 C 
BRANCH   2   3
ATOM      3  C   UNL     1      50.978  26.963  16.854  1.00  0.00     0.000 C 
BRANCH   3   4
ATOM      4  C   UNL     1      50.049  27.083  18.071  1.00  0.00    -0.000 C 
BRANCH   4   5
ATOM      5  C   UNL     1      48.765  26.247  17.931  1.00  0.00    -0.000 C 
BRANCH   5   6
ATOM      6  C   UNL     1      48.572  25.159  19.008  1.00  0.00    -0.000 C 
BRANCH   6   7
ATOM      7  C   UNL     1      48.237  25.680  20.418  1.00  0.00    -0.000 C 
BRANCH   7   8
ATOM      8  C   UNL     1      49.188  25.137  21.498  1.00  0.00    -0.000 C 
BRANCH   8   9
ATOM      9  C   UNL     1      50.606  25.730  21.400  1.00  0.00    -0.000 C 
BRANCH   9  10
ATOM     10  C   UNL     1      50.993  26.692  22.537  1.00  0.00    -0.000 C 
BRANCH  10  11
ATOM     11  C   UNL     1      52.286  27.467  22.252  1.00  0.00    -0.003 C 
ATOM     12  C   UNL     1      52.780  27.211  20.830  1.00  0.00     0.004 C 
ENDBRANCH  10  11
ENDBRANCH   9  10
ENDBRANCH   8   9
ENDBRANCH   7   8
ENDBRANCH   6   7
ENDBRANCH   5   6
ENDBRANCH   4   5
ENDBRANCH   3   4
ENDBRANCH   2   3
ENDBRANCH   1   2
BRANCH   1  13
ATOM     13  C   UNL     1      49.513  30.307  15.963  1.00  0.00     0.000 C 
BRANCH  13  14
ATOM     14  C   UNL     1      48.409  30.179  17.026  1.00  0.00     0.000 C 
BRANCH  14  15
ATOM     15  C   UNL     1      48.146  31.505  17.761  1.00  0.00     0.000 C 
BRANCH  15  16
ATOM     16  C   UNL     1      49.365  32.441  17.745  1.00  0.00     0.000 C 
BRANCH  16  17
ATOM     17  C   UNL     1      49.060  33.805  17.099  1.00  0.00     0.000 C 
BRANCH  17  18
ATOM     18  C   UNL     1      47.611  33.911  16.598  1.00  0.00     0.000 C 
BRANCH  18  19
ATOM     19  C   UNL     1      47.465  33.503  15.124  1.00  0.00     0.000 C 
BRANCH  19  20
ATOM     20  C   UNL     1      48.617  34.070  14.280  1.00  0.00     0.006 C 
BRANCH  20  21
ATOM     21  C   UNL     1      48.148  34.546  12.899  1.00  0.00     0.053 C 
BRANCH  21  22
ATOM     22  C   UNL     1      48.804  33.778  11.792  1.00  0.00     0.041 C 
ATOM     23  O   UNL     1      48.104  33.248  10.888  1.00  0.00    -0.550 OA
ATOM     24  O   UNL     1      50.189  33.689  11.732  1.00  0.00    -0.550 OA
ENDBRANCH  21  22
ENDBRANCH  20  21
ENDBRANCH  19  20
ENDBRANCH  18  19
ENDBRANCH  17  18
ENDBRANCH  16  17
ENDBRANCH  15  16
ENDBRANCH  14  15
ENDBRANCH  13  14
ENDBRANCH   1  13
TORSDOF 20
ENDMDL
MODEL 9
REMARK VINA RESULT:    -4.894      7.739     12.592
REMARK INTER + INTRA:         -13.001
REMARK INTER:                  -9.520
REMARK INTRA:                  -3.481
REMARK UNBOUND:                -2.384
REMARK SMILES CCCCCCCCCCCCCCCCCCCCCC(=O)[O-]
REMARK SMILES IDX 12 1 11 2 10 3 9 4 8 5 7 6 6 7 5 8 4 9 3 10 2 11 1 12 13 13
REMARK SMILES IDX 14 14 15 15 16 16 17 17 18 18 19 19 20 20 21 21 22 22 23 23
REMARK SMILES IDX 24 24
REMARK H PARENT
REMARK Flexibility Score: inf
ROOT
ATOM      1  C   UNL     1      51.651  28.816  17.035  1.00  0.00     0.000 C 
ENDROOT
BRANCH   1   2
ATOM      2  C   UNL     1      53.109  28.965  17.499  1.00  0.00     0.000 C 
BRANCH   2   3
ATOM      3  C   UNL     1      53.337  28.439  18.923  1.00  0.00     0.000 C 
BRANCH   3   4
ATOM      4  C   UNL     1      53.269  26.904  18.954  1.00  0.00    -0.000 C 
BRANCH   4   5
ATOM      5  C   UNL     1      52.132  26.373  19.844  1.00  0.00    -0.000 C 
BRANCH   5   6
ATOM      6  C   UNL     1      51.014  25.617  19.095  1.00  0.00    -0.000 C 
BRANCH   6   7
ATOM      7  C   UNL     1      49.679  26.374  18.966  1.00  0.00    -0.000 C 
BRANCH   7   8
ATOM      8  C   UNL     1      48.461  25.505  19.326  1.00  0.00    -0.000 C 
BRANCH   8   9
ATOM      9  C   UNL     1      48.107  25.563  20.824  1.00  0.00    -0.000 C 
BRANCH   9  10
ATOM     10  C   UNL     1      48.282  26.941  21.485  1.00  0.00    -0.000 C 
BRANCH  10  11
ATOM     11  C   UNL     1      49.300  26.931  22.633  1.00  0.00    -0.003 C 
ATOM     12  C   UNL     1      50.053  25.603  22.689  1.00  0.00     0.004 C 
ENDBRANCH  10  11
ENDBRANCH   9  10
ENDBRANCH   8   9
ENDBRANCH   7   8
ENDBRANCH   6   7
ENDBRANCH   5   6
ENDBRANCH   4   5
ENDBRANCH   3   4
ENDBRANCH   2   3
ENDBRANCH   1   2
BRANCH   1  13
ATOM     13  C   UNL     1      51.539  28.233  15.615  1.00  0.00     0.000 C 
BRANCH  13  14
ATOM     14  C   UNL     1      51.562  26.695  15.608  1.00  0.00     0.000 C 
BRANCH  14  15
ATOM     15  C   UNL     1      50.176  26.089  15.331  1.00  0.00     0.000 C 
BRANCH  15  16
ATOM     16  C   UNL     1      49.174  27.126  14.797  1.00  0.00     0.000 C 
BRANCH  16  17
ATOM     17  C   UNL     1      48.032  27.415  15.789  1.00  0.00     0.000 C 
BRANCH  17  18
ATOM     18  C   UNL     1      47.778  28.918  15.977  1.00  0.00     0.000 C 
BRANCH  18  19
ATOM     19  C   UNL     1      48.022  29.382  17.421  1.00  0.00     0.000 C 
BRANCH  19  20
ATOM     20  C   UNL     1      47.925  30.912  17.530  1.00  0.00     0.006 C 
BRANCH  20  21
ATOM     21  C   UNL     1      48.971  31.626  16.664  1.00  0.00     0.053 C 
BRANCH  21  22
ATOM     22  C   UNL     1      48.638  33.073  16.465  1.00  0.00     0.041 C 
ATOM     23  O   UNL     1      48.937  33.919  17.350  1.00  0.00    -0.550 OA
ATOM     24  O   UNL     1      48.041  33.494  15.283  1.00  0.00    -0.550 OA
ENDBRANCH  21  22
ENDBRANCH  20  21
ENDBRANCH  19  20
ENDBRANCH  18  19
ENDBRANCH  17  18
ENDBRANCH  16  17
ENDBRANCH  15  16
ENDBRANCH  14  15
ENDBRANCH  13  14
ENDBRANCH   1  13
TORSDOF 20
ENDMDL
