MODEL 1
REMARK VINA RESULT:    17.713      0.000      0.000
REMARK INTER + INTRA:          28.978
REMARK INTER:                  29.103
REMARK INTRA:                  -0.125
REMARK UNBOUND:                -0.125
REMARK SMILES C[C@@H]1O[C@@H](OC[C@H]2O[C@H](Oc3c(-c4ccc(O)c(O)c4)oc4cc(O)cc(O)c4c3=O)[C@@H](O)[C@@H](O)[C@H]2O)[C@@H](O)[C@@H](O)[C@@H]1O
REMARK SMILES IDX 7 1 36 2 34 3 32 4 9 5 8 6 6 7 5 8 4 9 1 10 2 11 42 12 3 13
REMARK SMILES IDX 40 14 38 15 43 16 41 18 39 20 37 22 35 24 10 26 11 27 12 28
REMARK SMILES IDX 30 29 21 30 29 31 31 32 22 33 27 34 23 35 26 36 24 37 13 38
REMARK SMILES IDX 20 39 14 40 18 41 15 42 16 43 19 44 17 46 28 48 25 50 33 52
REMARK H PARENT 43 17 41 19 39 21 37 23 35 25 19 45 17 47 28 49 25 51 33 53
REMARK Flexibility Score: inf
ROOT
ATOM      1  C   UNL     1      75.126  39.717  24.579  1.00  0.00     0.180 C 
ATOM      2  C   UNL     1      76.443  39.157  24.002  1.00  0.00     0.177 C 
ATOM      3  C   UNL     1      76.245  38.871  22.503  1.00  0.00     0.180 C 
ATOM      4  C   UNL     1      75.675  40.107  21.780  1.00  0.00     0.214 C 
ATOM      5  C   UNL     1      74.454  40.664  22.538  1.00  0.00     0.339 C 
ATOM      6  O   UNL     1      74.753  40.911  23.905  1.00  0.00    -0.332 OA
ENDROOT
BRANCH   1   7
ATOM      7  C   UNL     1      75.232  40.013  26.079  1.00  0.00     0.198 C 
BRANCH   7   8
ATOM      8  O   UNL     1      75.726  38.876  26.762  1.00  0.00    -0.347 OA
BRANCH   8   9
ATOM      9  C   UNL     1      76.189  39.244  28.052  1.00  0.00     0.281 C 
ATOM     10  C   UNL     1      78.270  36.290  28.766  1.00  0.00     0.041 C 
ATOM     11  C   UNL     1      76.988  37.085  28.514  1.00  0.00     0.150 C 
ATOM     12  C   UNL     1      75.934  36.821  29.617  1.00  0.00     0.174 C 
ATOM     13  O   UNL     1      77.312  38.464  28.436  1.00  0.00    -0.344 OA
ATOM     14  C   UNL     1      74.671  37.664  29.356  1.00  0.00     0.179 C 
ATOM     15  C   UNL     1      75.053  39.135  29.089  1.00  0.00     0.202 C 
BRANCH  12  16
ATOM     16  O   UNL     1      76.444  37.059  30.907  1.00  0.00    -0.388 OA
ATOM     17  H   UNL     1      77.015  37.867  30.871  1.00  0.00     0.211 HD
ENDBRANCH  12  16
BRANCH  14  18
ATOM     18  O   UNL     1      73.983  37.123  28.255  1.00  0.00    -0.387 OA
ATOM     19  H   UNL     1      73.079  36.868  28.568  1.00  0.00     0.211 HD
ENDBRANCH  14  18
BRANCH  15  20
ATOM     20  O   UNL     1      73.937  39.857  28.643  1.00  0.00    -0.385 OA
ATOM     21  H   UNL     1      74.268  40.729  28.302  1.00  0.00     0.211 HD
ENDBRANCH  15  20
ENDBRANCH   8   9
ENDBRANCH   7   8
ENDBRANCH   1   7
BRANCH   2  22
ATOM     22  O   UNL     1      77.487  40.086  24.174  1.00  0.00    -0.387 OA
ATOM     23  H   UNL     1      77.992  40.125  23.321  1.00  0.00     0.211 HD
ENDBRANCH   2  22
BRANCH   3  24
ATOM     24  O   UNL     1      77.459  38.487  21.910  1.00  0.00    -0.387 OA
ATOM     25  H   UNL     1      77.434  38.813  20.971  1.00  0.00     0.211 HD
ENDBRANCH   3  24
BRANCH   5  26
ATOM     26  O   UNL     1      73.332  39.783  22.420  1.00  0.00    -0.454 OA
BRANCH  26  27
ATOM     27  C   UNL     1      72.244  40.039  21.575  1.00  0.00     0.214 A 
ATOM     28  C   UNL     1      72.387  39.912  20.180  1.00  0.00     0.180 A 
ATOM     29  C   UNL     1      70.994  40.405  22.099  1.00  0.00     0.239 A 
ATOM     30  O   UNL     1      71.335  40.102  19.388  1.00  0.00    -0.452 OA
ATOM     31  C   UNL     1      69.904  40.600  21.226  1.00  0.00     0.111 A 
ATOM     32  O   UNL     1      70.863  40.559  23.345  1.00  0.00    -0.285 OA
ATOM     33  C   UNL     1      70.131  40.431  19.841  1.00  0.00     0.146 A 
ATOM     34  C   UNL     1      68.608  40.949  21.676  1.00  0.00     0.134 A 
ATOM     35  C   UNL     1      69.086  40.608  18.930  1.00  0.00     0.094 A 
ATOM     36  C   UNL     1      67.572  41.121  20.744  1.00  0.00     0.093 A 
ATOM     37  C   UNL     1      67.806  40.952  19.378  1.00  0.00     0.123 A 
BRANCH  28  38
ATOM     38  C   UNL     1      73.670  39.520  19.560  1.00  0.00     0.025 A 
ATOM     39  C   UNL     1      74.523  40.476  18.981  1.00  0.00     0.062 A 
ATOM     40  C   UNL     1      74.038  38.166  19.531  1.00  0.00     0.016 A 
ATOM     41  C   UNL     1      75.755  40.092  18.435  1.00  0.00     0.158 A 
ATOM     42  C   UNL     1      75.258  37.778  18.974  1.00  0.00     0.051 A 
ATOM     43  C   UNL     1      76.124  38.737  18.431  1.00  0.00     0.157 A 
BRANCH  41  44
ATOM     44  O   UNL     1      76.596  41.072  17.908  1.00  0.00    -0.504 OA
ATOM     45  H   UNL     1      77.517  41.248  18.285  1.00  0.00     0.293 HD
ENDBRANCH  41  44
BRANCH  43  46
ATOM     46  O   UNL     1      77.347  38.347  17.884  1.00  0.00    -0.504 OA
ATOM     47  H   UNL     1      78.226  38.705  18.240  1.00  0.00     0.293 HD
ENDBRANCH  43  46
ENDBRANCH  28  38
BRANCH  34  48
ATOM     48  O   UNL     1      68.342  41.124  23.035  1.00  0.00    -0.507 OA
ATOM     49  H   UNL     1      68.788  40.553  23.742  1.00  0.00     0.293 HD
ENDBRANCH  34  48
BRANCH  37  50
ATOM     50  O   UNL     1      66.760  41.124  18.474  1.00  0.00    -0.508 OA
ATOM     51  H   UNL     1      65.793  40.995  18.751  1.00  0.00     0.293 HD
ENDBRANCH  37  50
ENDBRANCH  26  27
ENDBRANCH   5  26
BRANCH   4  52
ATOM     52  O   UNL     1      76.650  41.117  21.683  1.00  0.00    -0.384 OA
ATOM     53  H   UNL     1      76.530  41.713  22.465  1.00  0.00     0.211 HD
ENDBRANCH   4  52
TORSDOF 16
ENDMDL
