MODEL 1
REMARK VINA RESULT:    -5.224      0.000      0.000
REMARK INTER + INTRA:          -9.811
REMARK INTER:                  -8.277
REMARK INTRA:                  -1.534
REMARK UNBOUND:                -1.534
REMARK SMILES CCCCCCCCCCCC(=O)[O-]
REMARK SMILES IDX 7 1 8 2 9 3 10 4 11 5 12 6 13 7 14 8 6 9 5 10 4 11 3 12 2 13
REMARK SMILES IDX 1 14
REMARK H PARENT
REMARK Flexibility Score: inf
ROOT
ATOM      1  C   UNL     1     221.348  -7.891  23.849  1.00  0.00     0.000 C 
ENDROOT
BRANCH   1   2
ATOM      2  C   UNL     1     221.636  -8.579  25.193  1.00  0.00     0.000 C 
BRANCH   2   3
ATOM      3  C   UNL     1     221.011  -9.980  25.284  1.00  0.00     0.000 C 
BRANCH   3   4
ATOM      4  C   UNL     1     220.472 -10.430  23.918  1.00  0.00     0.006 C 
BRANCH   4   5
ATOM      5  C   UNL     1     218.947 -10.602  23.923  1.00  0.00     0.053 C 
BRANCH   5   6
ATOM      6  C   UNL     1     218.321 -10.051  22.679  1.00  0.00     0.041 C 
ATOM      7  O   UNL     1     217.068 -10.019  22.562  1.00  0.00    -0.550 OA
ATOM      8  O   UNL     1     219.121  -9.540  21.664  1.00  0.00    -0.550 OA
ENDBRANCH   5   6
ENDBRANCH   4   5
ENDBRANCH   3   4
ENDBRANCH   2   3
ENDBRANCH   1   2
BRANCH   1   9
ATOM      9  C   UNL     1     220.761  -6.480  24.021  1.00  0.00     0.000 C 
BRANCH   9  10
ATOM     10  C   UNL     1     219.611  -6.434  25.041  1.00  0.00    -0.000 C 
BRANCH  10  11
ATOM     11  C   UNL     1     218.234  -6.851  24.486  1.00  0.00    -0.000 C 
BRANCH  11  12
ATOM     12  C   UNL     1     217.409  -7.776  25.404  1.00  0.00    -0.000 C 
BRANCH  12  13
ATOM     13  C   UNL     1     218.039  -8.048  26.781  1.00  0.00    -0.003 C 
ATOM     14  C   UNL     1     217.255  -9.070  27.603  1.00  0.00     0.004 C 
ENDBRANCH  12  13
ENDBRANCH  11  12
ENDBRANCH  10  11
ENDBRANCH   9  10
ENDBRANCH   1   9
TORSDOF 10
ENDMDL
MODEL 2
REMARK VINA RESULT:    -5.212      3.014      4.881
REMARK INTER + INTRA:          -9.793
REMARK INTER:                  -8.320
REMARK INTRA:                  -1.473
REMARK UNBOUND:                -1.534
REMARK SMILES CCCCCCCCCCCC(=O)[O-]
REMARK SMILES IDX 7 1 8 2 9 3 10 4 11 5 12 6 13 7 14 8 6 9 5 10 4 11 3 12 2 13
REMARK SMILES IDX 1 14
REMARK H PARENT
REMARK Flexibility Score: inf
ROOT
ATOM      1  C   UNL     1     219.683  -6.495  24.874  1.00  0.00     0.000 C 
ENDROOT
BRANCH   1   2
ATOM      2  C   UNL     1     218.261  -6.868  24.425  1.00  0.00     0.000 C 
BRANCH   2   3
ATOM      3  C   UNL     1     217.519  -7.720  25.467  1.00  0.00     0.000 C 
BRANCH   3   4
ATOM      4  C   UNL     1     218.446  -8.089  26.635  1.00  0.00     0.006 C 
BRANCH   4   5
ATOM      5  C   UNL     1     217.684  -8.739  27.798  1.00  0.00     0.053 C 
BRANCH   5   6
ATOM      6  C   UNL     1     218.205  -8.283  29.127  1.00  0.00     0.041 C 
ATOM      7  O   UNL     1     218.312  -9.100  30.079  1.00  0.00    -0.550 OA
ATOM      8  O   UNL     1     218.603  -6.963  29.303  1.00  0.00    -0.550 OA
ENDBRANCH   5   6
ENDBRANCH   4   5
ENDBRANCH   3   4
ENDBRANCH   2   3
ENDBRANCH   1   2
BRANCH   1   9
ATOM      9  C   UNL     1     220.752  -6.889  23.840  1.00  0.00     0.000 C 
BRANCH   9  10
ATOM     10  C   UNL     1     221.570  -8.119  24.271  1.00  0.00    -0.000 C 
BRANCH  10  11
ATOM     11  C   UNL     1     221.226  -9.422  23.520  1.00  0.00    -0.000 C 
BRANCH  11  12
ATOM     12  C   UNL     1     220.238 -10.356  24.247  1.00  0.00    -0.000 C 
BRANCH  12  13
ATOM     13  C   UNL     1     218.916 -10.607  23.500  1.00  0.00    -0.003 C 
ATOM     14  C   UNL     1     218.776  -9.759  22.237  1.00  0.00     0.004 C 
ENDBRANCH  12  13
ENDBRANCH  11  12
ENDBRANCH  10  11
ENDBRANCH   9  10
ENDBRANCH   1   9
TORSDOF 10
ENDMDL
MODEL 3
REMARK VINA RESULT:    -5.212      1.127      2.215
REMARK INTER + INTRA:          -9.793
REMARK INTER:                  -8.370
REMARK INTRA:                  -1.422
REMARK UNBOUND:                -1.534
REMARK SMILES CCCCCCCCCCCC(=O)[O-]
REMARK SMILES IDX 7 1 8 2 9 3 10 4 11 5 12 6 13 7 14 8 6 9 5 10 4 11 3 12 2 13
REMARK SMILES IDX 1 14
REMARK H PARENT
REMARK Flexibility Score: inf
ROOT
ATOM      1  C   UNL     1     219.713  -6.488  24.860  1.00  0.00     0.000 C 
ENDROOT
BRANCH   1   2
ATOM      2  C   UNL     1     220.865  -6.988  23.973  1.00  0.00     0.000 C 
BRANCH   2   3
ATOM      3  C   UNL     1     221.600  -8.190  24.586  1.00  0.00     0.000 C 
BRANCH   3   4
ATOM      4  C   UNL     1     221.332  -9.468  23.776  1.00  0.00     0.006 C 
BRANCH   4   5
ATOM      5  C   UNL     1     220.107 -10.236  24.293  1.00  0.00     0.053 C 
BRANCH   5   6
ATOM      6  C   UNL     1     219.022 -10.310  23.263  1.00  0.00     0.041 C 
ATOM      7  O   UNL     1     219.152  -9.714  22.162  1.00  0.00    -0.550 OA
ATOM      8  O   UNL     1     217.881 -11.065  23.507  1.00  0.00    -0.550 OA
ENDBRANCH   5   6
ENDBRANCH   4   5
ENDBRANCH   3   4
ENDBRANCH   2   3
ENDBRANCH   1   2
BRANCH   1   9
ATOM      9  C   UNL     1     218.330  -6.866  24.301  1.00  0.00     0.000 C 
BRANCH   9  10
ATOM     10  C   UNL     1     217.480  -7.660  25.307  1.00  0.00    -0.000 C 
BRANCH  10  11
ATOM     11  C   UNL     1     217.940  -7.550  26.776  1.00  0.00    -0.000 C 
BRANCH  11  12
ATOM     12  C   UNL     1     217.705  -8.811  27.632  1.00  0.00    -0.000 C 
BRANCH  12  13
ATOM     13  C   UNL     1     218.834  -9.139  28.624  1.00  0.00    -0.003 C 
ATOM     14  C   UNL     1     220.215  -9.151  27.970  1.00  0.00     0.004 C 
ENDBRANCH  12  13
ENDBRANCH  11  12
ENDBRANCH  10  11
ENDBRANCH   9  10
ENDBRANCH   1   9
TORSDOF 10
ENDMDL
MODEL 4
REMARK VINA RESULT:    -5.167      2.943      4.554
REMARK INTER + INTRA:          -9.722
REMARK INTER:                  -8.475
REMARK INTRA:                  -1.248
REMARK UNBOUND:                -1.534
REMARK SMILES CCCCCCCCCCCC(=O)[O-]
REMARK SMILES IDX 7 1 8 2 9 3 10 4 11 5 12 6 13 7 14 8 6 9 5 10 4 11 3 12 2 13
REMARK SMILES IDX 1 14
REMARK H PARENT
REMARK Flexibility Score: inf
ROOT
ATOM      1  C   UNL     1     220.348  -6.591  24.061  1.00  0.00     0.000 C 
ENDROOT
BRANCH   1   2
ATOM      2  C   UNL     1     219.536  -6.557  25.366  1.00  0.00     0.000 C 
BRANCH   2   3
ATOM      3  C   UNL     1     218.182  -7.274  25.236  1.00  0.00     0.000 C 
BRANCH   3   4
ATOM      4  C   UNL     1     218.225  -8.653  25.912  1.00  0.00     0.006 C 
BRANCH   4   5
ATOM      5  C   UNL     1     217.309  -8.726  27.141  1.00  0.00     0.053 C 
BRANCH   5   6
ATOM      6  C   UNL     1     218.070  -8.524  28.415  1.00  0.00     0.041 C 
ATOM      7  O   UNL     1     218.396  -7.365  28.780  1.00  0.00    -0.550 OA
ATOM      8  O   UNL     1     218.388  -9.614  29.216  1.00  0.00    -0.550 OA
ENDBRANCH   5   6
ENDBRANCH   4   5
ENDBRANCH   3   4
ENDBRANCH   2   3
ENDBRANCH   1   2
BRANCH   1   9
ATOM      9  C   UNL     1     221.378  -7.733  24.036  1.00  0.00     0.000 C 
BRANCH   9  10
ATOM     10  C   UNL     1     221.120  -8.741  22.903  1.00  0.00    -0.000 C 
BRANCH  10  11
ATOM     11  C   UNL     1     220.049  -8.308  21.880  1.00  0.00    -0.000 C 
BRANCH  11  12
ATOM     12  C   UNL     1     219.077  -9.421  21.439  1.00  0.00    -0.000 C 
BRANCH  12  13
ATOM     13  C   UNL     1     217.881  -9.646  22.379  1.00  0.00    -0.003 C 
ATOM     14  C   UNL     1     217.884 -11.030  23.026  1.00  0.00     0.004 C 
ENDBRANCH  12  13
ENDBRANCH  11  12
ENDBRANCH  10  11
ENDBRANCH   9  10
ENDBRANCH   1   9
TORSDOF 10
ENDMDL
MODEL 5
REMARK VINA RESULT:    -5.161      1.613      2.895
REMARK INTER + INTRA:          -9.711
REMARK INTER:                  -8.216
REMARK INTRA:                  -1.495
REMARK UNBOUND:                -1.534
REMARK SMILES CCCCCCCCCCCC(=O)[O-]
REMARK SMILES IDX 7 1 8 2 9 3 10 4 11 5 12 6 13 7 14 8 6 9 5 10 4 11 3 12 2 13
REMARK SMILES IDX 1 14
REMARK H PARENT
REMARK Flexibility Score: inf
ROOT
ATOM      1  C   UNL     1     217.935 -10.047  23.872  1.00  0.00     0.000 C 
ENDROOT
BRANCH   1   2
ATOM      2  C   UNL     1     219.364 -10.611  23.815  1.00  0.00     0.000 C 
BRANCH   2   3
ATOM      3  C   UNL     1     220.336  -9.846  24.728  1.00  0.00     0.000 C 
BRANCH   3   4
ATOM      4  C   UNL     1     221.595  -9.423  23.956  1.00  0.00     0.006 C 
BRANCH   4   5
ATOM      5  C   UNL     1     221.333  -8.230  23.026  1.00  0.00     0.053 C 
BRANCH   5   6
ATOM      6  C   UNL     1     221.538  -8.592  21.587  1.00  0.00     0.041 C 
ATOM      7  O   UNL     1     220.559  -8.941  20.877  1.00  0.00    -0.550 OA
ATOM      8  O   UNL     1     222.804  -8.509  21.022  1.00  0.00    -0.550 OA
ENDBRANCH   5   6
ENDBRANCH   4   5
ENDBRANCH   3   4
ENDBRANCH   2   3
ENDBRANCH   1   2
BRANCH   1   9
ATOM      9  C   UNL     1     217.702  -8.923  22.847  1.00  0.00     0.000 C 
BRANCH   9  10
ATOM     10  C   UNL     1     217.622  -7.532  23.499  1.00  0.00    -0.000 C 
BRANCH  10  11
ATOM     11  C   UNL     1     217.431  -7.542  25.029  1.00  0.00    -0.000 C 
BRANCH  11  12
ATOM     12  C   UNL     1     218.566  -6.880  25.836  1.00  0.00    -0.000 C 
BRANCH  12  13
ATOM     13  C   UNL     1     218.686  -7.355  27.294  1.00  0.00    -0.003 C 
ATOM     14  C   UNL     1     217.874  -8.618  27.578  1.00  0.00     0.004 C 
ENDBRANCH  12  13
ENDBRANCH  11  12
ENDBRANCH  10  11
ENDBRANCH   9  10
ENDBRANCH   1   9
TORSDOF 10
ENDMDL
MODEL 6
REMARK VINA RESULT:    -5.145      2.102      3.313
REMARK INTER + INTRA:          -9.687
REMARK INTER:                  -8.262
REMARK INTRA:                  -1.424
REMARK UNBOUND:                -1.534
REMARK SMILES CCCCCCCCCCCC(=O)[O-]
REMARK SMILES IDX 7 1 8 2 9 3 10 4 11 5 12 6 13 7 14 8 6 9 5 10 4 11 3 12 2 13
REMARK SMILES IDX 1 14
REMARK H PARENT
REMARK Flexibility Score: inf
ROOT
ATOM      1  C   UNL     1     218.158  -8.232  22.780  1.00  0.00     0.000 C 
ENDROOT
BRANCH   1   2
ATOM      2  C   UNL     1     217.627  -9.667  22.919  1.00  0.00     0.000 C 
BRANCH   2   3
ATOM      3  C   UNL     1     218.647 -10.612  23.574  1.00  0.00     0.000 C 
BRANCH   3   4
ATOM      4  C   UNL     1     220.039  -9.965  23.626  1.00  0.00     0.006 C 
BRANCH   4   5
ATOM      5  C   UNL     1     220.620  -9.950  25.047  1.00  0.00     0.053 C 
BRANCH   5   6
ATOM      6  C   UNL     1     221.660  -8.886  25.212  1.00  0.00     0.041 C 
ATOM      7  O   UNL     1     221.866  -8.054  24.289  1.00  0.00    -0.550 OA
ATOM      8  O   UNL     1     222.379  -8.791  26.397  1.00  0.00    -0.550 OA
ENDBRANCH   5   6
ENDBRANCH   4   5
ENDBRANCH   3   4
ENDBRANCH   2   3
ENDBRANCH   1   2
BRANCH   1   9
ATOM      9  C   UNL     1     217.537  -7.269  23.807  1.00  0.00     0.000 C 
BRANCH   9  10
ATOM     10  C   UNL     1     218.554  -6.780  24.853  1.00  0.00    -0.000 C 
BRANCH  10  11
ATOM     11  C   UNL     1     218.224  -7.170  26.309  1.00  0.00    -0.000 C 
BRANCH  11  12
ATOM     12  C   UNL     1     217.461  -8.499  26.475  1.00  0.00    -0.000 C 
BRANCH  12  13
ATOM     13  C   UNL     1     217.463  -9.072  27.903  1.00  0.00    -0.003 C 
ATOM     14  C   UNL     1     218.815  -8.930  28.600  1.00  0.00     0.004 C 
ENDBRANCH  12  13
ENDBRANCH  11  12
ENDBRANCH  10  11
ENDBRANCH   9  10
ENDBRANCH   1   9
TORSDOF 10
ENDMDL
MODEL 7
REMARK VINA RESULT:    -5.095      2.758      4.788
REMARK INTER + INTRA:          -9.607
REMARK INTER:                  -8.047
REMARK INTRA:                  -1.560
REMARK UNBOUND:                -1.534
REMARK SMILES CCCCCCCCCCCC(=O)[O-]
REMARK SMILES IDX 7 1 8 2 9 3 10 4 11 5 12 6 13 7 14 8 6 9 5 10 4 11 3 12 2 13
REMARK SMILES IDX 1 14
REMARK H PARENT
REMARK Flexibility Score: inf
ROOT
ATOM      1  C   UNL     1     217.586  -9.254  23.077  1.00  0.00     0.000 C 
ENDROOT
BRANCH   1   2
ATOM      2  C   UNL     1     217.527  -7.763  23.449  1.00  0.00     0.000 C 
BRANCH   2   3
ATOM      3  C   UNL     1     217.812  -7.516  24.939  1.00  0.00     0.000 C 
BRANCH   3   4
ATOM      4  C   UNL     1     217.840  -8.840  25.718  1.00  0.00     0.006 C 
BRANCH   4   5
ATOM      5  C   UNL     1     217.497  -8.647  27.202  1.00  0.00     0.053 C 
BRANCH   5   6
ATOM      6  C   UNL     1     218.662  -8.112  27.977  1.00  0.00     0.041 C 
ATOM      7  O   UNL     1     219.812  -8.596  27.807  1.00  0.00    -0.550 OA
ATOM      8  O   UNL     1     218.484  -7.055  28.861  1.00  0.00    -0.550 OA
ENDBRANCH   5   6
ENDBRANCH   4   5
ENDBRANCH   3   4
ENDBRANCH   2   3
ENDBRANCH   1   2
BRANCH   1   9
ATOM      9  C   UNL     1     218.572  -9.539  21.930  1.00  0.00     0.000 C 
BRANCH   9  10
ATOM     10  C   UNL     1     219.469  -8.332  21.605  1.00  0.00    -0.000 C 
BRANCH  10  11
ATOM     11  C   UNL     1     220.913  -8.435  22.137  1.00  0.00    -0.000 C 
BRANCH  11  12
ATOM     12  C   UNL     1     221.230  -7.536  23.350  1.00  0.00    -0.000 C 
BRANCH  12  13
ATOM     13  C   UNL     1     221.498  -8.291  24.662  1.00  0.00    -0.003 C 
ATOM     14  C   UNL     1     221.263  -9.796  24.542  1.00  0.00     0.004 C 
ENDBRANCH  12  13
ENDBRANCH  11  12
ENDBRANCH  10  11
ENDBRANCH   9  10
ENDBRANCH   1   9
TORSDOF 10
ENDMDL
MODEL 8
REMARK VINA RESULT:    -5.066      3.225      5.095
REMARK INTER + INTRA:          -9.562
REMARK INTER:                  -8.190
REMARK INTRA:                  -1.372
REMARK UNBOUND:                -1.534
REMARK SMILES CCCCCCCCCCCC(=O)[O-]
REMARK SMILES IDX 7 1 8 2 9 3 10 4 11 5 12 6 13 7 14 8 6 9 5 10 4 11 3 12 2 13
REMARK SMILES IDX 1 14
REMARK H PARENT
REMARK Flexibility Score: inf
ROOT
ATOM      1  C   UNL     1     218.636  -6.837  24.927  1.00  0.00     0.000 C 
ENDROOT
BRANCH   1   2
ATOM      2  C   UNL     1     218.283  -7.239  26.368  1.00  0.00     0.000 C 
BRANCH   2   3
ATOM      3  C   UNL     1     217.470  -8.542  26.434  1.00  0.00     0.000 C 
BRANCH   3   4
ATOM      4  C   UNL     1     217.546  -9.165  27.836  1.00  0.00     0.006 C 
BRANCH   4   5
ATOM      5  C   UNL     1     218.609  -8.491  28.714  1.00  0.00     0.053 C 
BRANCH   5   6
ATOM      6  C   UNL     1     219.315  -9.481  29.590  1.00  0.00     0.041 C 
ATOM      7  O   UNL     1     220.449  -9.918  29.263  1.00  0.00    -0.550 OA
ATOM      8  O   UNL     1     218.735  -9.893  30.783  1.00  0.00    -0.550 OA
ENDBRANCH   5   6
ENDBRANCH   4   5
ENDBRANCH   3   4
ENDBRANCH   2   3
ENDBRANCH   1   2
BRANCH   1   9
ATOM      9  C   UNL     1     217.609  -7.347  23.902  1.00  0.00     0.000 C 
BRANCH   9  10
ATOM     10  C   UNL     1     218.250  -8.201  22.794  1.00  0.00    -0.000 C 
BRANCH  10  11
ATOM     11  C   UNL     1     217.910  -9.704  22.855  1.00  0.00    -0.000 C 
BRANCH  11  12
ATOM     12  C   UNL     1     218.880 -10.562  23.693  1.00  0.00    -0.000 C 
BRANCH  12  13
ATOM     13  C   UNL     1     220.318 -10.021  23.772  1.00  0.00    -0.003 C 
ATOM     14  C   UNL     1     220.808  -9.842  25.208  1.00  0.00     0.004 C 
ENDBRANCH  12  13
ENDBRANCH  11  12
ENDBRANCH  10  11
ENDBRANCH   9  10
ENDBRANCH   1   9
TORSDOF 10
ENDMDL
MODEL 9
REMARK VINA RESULT:    -4.998      1.774      3.495
REMARK INTER + INTRA:          -9.454
REMARK INTER:                  -8.094
REMARK INTRA:                  -1.360
REMARK UNBOUND:                -1.534
REMARK SMILES CCCCCCCCCCCC(=O)[O-]
REMARK SMILES IDX 7 1 8 2 9 3 10 4 11 5 12 6 13 7 14 8 6 9 5 10 4 11 3 12 2 13
REMARK SMILES IDX 1 14
REMARK H PARENT
REMARK Flexibility Score: inf
ROOT
ATOM      1  C   UNL     1     217.925  -7.530  25.007  1.00  0.00     0.000 C 
ENDROOT
BRANCH   1   2
ATOM      2  C   UNL     1     219.008  -6.477  25.291  1.00  0.00     0.000 C 
BRANCH   2   3
ATOM      3  C   UNL     1     220.431  -7.043  25.156  1.00  0.00     0.000 C 
BRANCH   3   4
ATOM      4  C   UNL     1     220.865  -7.088  23.684  1.00  0.00     0.006 C 
BRANCH   4   5
ATOM      5  C   UNL     1     221.616  -8.383  23.339  1.00  0.00     0.053 C 
BRANCH   5   6
ATOM      6  C   UNL     1     220.720  -9.581  23.415  1.00  0.00     0.041 C 
ATOM      7  O   UNL     1     220.929 -10.474  24.278  1.00  0.00    -0.550 OA
ATOM      8  O   UNL     1     219.636  -9.695  22.554  1.00  0.00    -0.550 OA
ENDBRANCH   5   6
ENDBRANCH   4   5
ENDBRANCH   3   4
ENDBRANCH   2   3
ENDBRANCH   1   2
BRANCH   1   9
ATOM      9  C   UNL     1     218.095  -8.798  25.862  1.00  0.00     0.000 C 
BRANCH   9  10
ATOM     10  C   UNL     1     217.183  -8.807  27.100  1.00  0.00    -0.000 C 
BRANCH  10  11
ATOM     11  C   UNL     1     217.911  -9.034  28.441  1.00  0.00    -0.000 C 
BRANCH  11  12
ATOM     12  C   UNL     1     218.599  -7.787  29.032  1.00  0.00    -0.000 C 
BRANCH  12  13
ATOM     13  C   UNL     1     220.106  -7.682  28.742  1.00  0.00    -0.003 C 
ATOM     14  C   UNL     1     220.765  -9.042  28.512  1.00  0.00     0.004 C 
ENDBRANCH  12  13
ENDBRANCH  11  12
ENDBRANCH  10  11
ENDBRANCH   9  10
ENDBRANCH   1   9
TORSDOF 10
ENDMDL
