MODEL 1
REMARK VINA RESULT:    -3.750      0.000      0.000
REMARK INTER + INTRA:         -15.135
REMARK INTER:                  -9.449
REMARK INTRA:                  -5.686
REMARK UNBOUND:                -5.686
REMARK SMILES CCCCCCCCCCCCCCCCCCCCCCCCCCCC(=O)[O-]
REMARK SMILES IDX 15 1 16 2 17 3 18 4 19 5 20 6 21 7 22 8 23 9 24 10 25 11
REMARK SMILES IDX 26 12 27 13 28 14 29 15 30 16 14 17 13 18 12 19 11 20 10 21
REMARK SMILES IDX 9 22 8 23 7 24 6 25 5 26 4 27 3 28 2 29 1 30
REMARK H PARENT
REMARK Flexibility Score: inf
ROOT
ATOM      1  C   UNL     1      13.747 -21.037 -39.084  1.00  0.00     0.000 C 
ENDROOT
BRANCH   1   2
ATOM      2  C   UNL     1      13.775 -19.559 -39.505  1.00  0.00     0.000 C 
BRANCH   2   3
ATOM      3  C   UNL     1      12.903 -18.678 -38.595  1.00  0.00     0.000 C 
BRANCH   3   4
ATOM      4  C   UNL     1      12.346 -19.448 -37.390  1.00  0.00     0.000 C 
BRANCH   4   5
ATOM      5  C   UNL     1      10.809 -19.397 -37.364  1.00  0.00     0.000 C 
BRANCH   5   6
ATOM      6  C   UNL     1      10.175 -19.828 -38.694  1.00  0.00     0.000 C 
BRANCH   6   7
ATOM      7  C   UNL     1       8.953 -18.980 -39.078  1.00  0.00     0.000 C 
BRANCH   7   8
ATOM      8  C   UNL     1       8.874 -17.713 -38.213  1.00  0.00     0.000 C 
BRANCH   8   9
ATOM      9  C   UNL     1       7.431 -17.213 -38.015  1.00  0.00     0.000 C 
BRANCH   9  10
ATOM     10  C   UNL     1       6.353 -18.309 -38.089  1.00  0.00     0.000 C 
BRANCH  10  11
ATOM     11  C   UNL     1       5.323 -18.211 -36.954  1.00  0.00     0.000 C 
BRANCH  11  12
ATOM     12  C   UNL     1       6.000 -17.825 -35.630  1.00  0.00     0.006 C 
BRANCH  12  13
ATOM     13  C   UNL     1       5.052 -17.075 -34.683  1.00  0.00     0.053 C 
BRANCH  13  14
ATOM     14  C   UNL     1       5.459 -15.644 -34.504  1.00  0.00     0.041 C 
ATOM     15  O   UNL     1       5.614 -15.169 -33.349  1.00  0.00    -0.550 OA
ATOM     16  O   UNL     1       5.698 -14.843 -35.614  1.00  0.00    -0.550 OA
ENDBRANCH  13  14
ENDBRANCH  12  13
ENDBRANCH  11  12
ENDBRANCH  10  11
ENDBRANCH   9  10
ENDBRANCH   8   9
ENDBRANCH   7   8
ENDBRANCH   6   7
ENDBRANCH   5   6
ENDBRANCH   4   5
ENDBRANCH   3   4
ENDBRANCH   2   3
ENDBRANCH   1   2
BRANCH   1  17
ATOM     17  C   UNL     1      13.073 -21.945 -40.136  1.00  0.00     0.000 C 
BRANCH  17  18
ATOM     18  C   UNL     1      12.313 -23.144 -39.534  1.00  0.00     0.000 C 
BRANCH  18  19
ATOM     19  C   UNL     1      12.426 -23.297 -38.005  1.00  0.00     0.000 C 
BRANCH  19  20
ATOM     20  C   UNL     1      11.133 -22.993 -37.217  1.00  0.00     0.000 C 
BRANCH  20  21
ATOM     21  C   UNL     1      10.492 -24.219 -36.540  1.00  0.00     0.000 C 
BRANCH  21  22
ATOM     22  C   UNL     1       9.559 -23.834 -35.380  1.00  0.00    -0.000 C 
BRANCH  22  23
ATOM     23  C   UNL     1       9.711 -22.358 -34.976  1.00  0.00    -0.000 C 
BRANCH  23  24
ATOM     24  C   UNL     1       8.348 -21.667 -34.802  1.00  0.00    -0.000 C 
BRANCH  24  25
ATOM     25  C   UNL     1       7.807 -21.057 -36.110  1.00  0.00    -0.000 C 
BRANCH  25  26
ATOM     26  C   UNL     1       6.667 -21.849 -36.778  1.00  0.00    -0.000 C 
BRANCH  26  27
ATOM     27  C   UNL     1       6.846 -22.003 -38.297  1.00  0.00    -0.000 C 
BRANCH  27  28
ATOM     28  C   UNL     1       7.508 -23.345 -38.636  1.00  0.00    -0.000 C 
BRANCH  28  29
ATOM     29  C   UNL     1       8.599 -23.168 -39.702  1.00  0.00    -0.003 C 
ATOM     30  C   UNL     1       8.162 -22.177 -40.774  1.00  0.00     0.004 C 
ENDBRANCH  28  29
ENDBRANCH  27  28
ENDBRANCH  26  27
ENDBRANCH  25  26
ENDBRANCH  24  25
ENDBRANCH  23  24
ENDBRANCH  22  23
ENDBRANCH  21  22
ENDBRANCH  20  21
ENDBRANCH  19  20
ENDBRANCH  18  19
ENDBRANCH  17  18
ENDBRANCH   1  17
TORSDOF 26
ENDMDL
MODEL 2
REMARK VINA RESULT:    -3.597      1.502      4.763
REMARK INTER + INTRA:         -14.750
REMARK INTER:                  -9.559
REMARK INTRA:                  -5.191
REMARK UNBOUND:                -5.686
REMARK SMILES CCCCCCCCCCCCCCCCCCCCCCCCCCCC(=O)[O-]
REMARK SMILES IDX 15 1 16 2 17 3 18 4 19 5 20 6 21 7 22 8 23 9 24 10 25 11
REMARK SMILES IDX 26 12 27 13 28 14 29 15 30 16 14 17 13 18 12 19 11 20 10 21
REMARK SMILES IDX 9 22 8 23 7 24 6 25 5 26 4 27 3 28 2 29 1 30
REMARK H PARENT
REMARK Flexibility Score: inf
ROOT
ATOM      1  C   UNL     1       8.316 -22.174 -35.003  1.00  0.00     0.000 C 
ENDROOT
BRANCH   1   2
ATOM      2  C   UNL     1       8.259 -20.728 -35.523  1.00  0.00     0.000 C 
BRANCH   2   3
ATOM      3  C   UNL     1       7.126 -20.521 -36.543  1.00  0.00     0.000 C 
BRANCH   3   4
ATOM      4  C   UNL     1       6.258 -21.775 -36.720  1.00  0.00     0.000 C 
BRANCH   4   5
ATOM      5  C   UNL     1       5.121 -21.522 -37.724  1.00  0.00     0.000 C 
BRANCH   5   6
ATOM      6  C   UNL     1       5.631 -21.163 -39.126  1.00  0.00     0.000 C 
BRANCH   6   7
ATOM      7  C   UNL     1       5.153 -19.782 -39.602  1.00  0.00     0.000 C 
BRANCH   7   8
ATOM      8  C   UNL     1       4.203 -19.149 -38.575  1.00  0.00     0.000 C 
BRANCH   8   9
ATOM      9  C   UNL     1       4.594 -17.705 -38.208  1.00  0.00     0.000 C 
BRANCH   9  10
ATOM     10  C   UNL     1       6.110 -17.455 -38.107  1.00  0.00     0.000 C 
BRANCH  10  11
ATOM     11  C   UNL     1       6.516 -16.769 -36.794  1.00  0.00     0.000 C 
BRANCH  11  12
ATOM     12  C   UNL     1       5.718 -17.336 -35.610  1.00  0.00     0.006 C 
BRANCH  12  13
ATOM     13  C   UNL     1       5.192 -16.236 -34.677  1.00  0.00     0.053 C 
BRANCH  13  14
ATOM     14  C   UNL     1       4.234 -15.322 -35.378  1.00  0.00     0.041 C 
ATOM     15  O   UNL     1       3.072 -15.717 -35.661  1.00  0.00    -0.550 OA
ATOM     16  O   UNL     1       4.613 -14.022 -35.693  1.00  0.00    -0.550 OA
ENDBRANCH  13  14
ENDBRANCH  12  13
ENDBRANCH  11  12
ENDBRANCH  10  11
ENDBRANCH   9  10
ENDBRANCH   8   9
ENDBRANCH   7   8
ENDBRANCH   6   7
ENDBRANCH   5   6
ENDBRANCH   4   5
ENDBRANCH   3   4
ENDBRANCH   2   3
ENDBRANCH   1   2
BRANCH   1  17
ATOM     17  C   UNL     1       9.761 -22.700 -34.859  1.00  0.00     0.000 C 
BRANCH  17  18
ATOM     18  C   UNL     1      10.116 -23.833 -35.844  1.00  0.00     0.000 C 
BRANCH  18  19
ATOM     19  C   UNL     1       8.994 -24.236 -36.819  1.00  0.00     0.000 C 
BRANCH  19  20
ATOM     20  C   UNL     1       9.327 -24.055 -38.316  1.00  0.00     0.000 C 
BRANCH  20  21
ATOM     21  C   UNL     1       9.083 -22.636 -38.861  1.00  0.00     0.000 C 
BRANCH  21  22
ATOM     22  C   UNL     1      10.381 -21.824 -38.998  1.00  0.00    -0.000 C 
BRANCH  22  23
ATOM     23  C   UNL     1      10.162 -20.325 -38.733  1.00  0.00    -0.000 C 
BRANCH  23  24
ATOM     24  C   UNL     1      11.111 -19.789 -37.646  1.00  0.00    -0.000 C 
BRANCH  24  25
ATOM     25  C   UNL     1      12.094 -20.854 -37.123  1.00  0.00    -0.000 C 
BRANCH  25  26
ATOM     26  C   UNL     1      13.583 -20.469 -37.213  1.00  0.00    -0.000 C 
BRANCH  26  27
ATOM     27  C   UNL     1      14.345 -21.250 -38.296  1.00  0.00    -0.000 C 
BRANCH  27  28
ATOM     28  C   UNL     1      14.177 -22.762 -38.098  1.00  0.00    -0.000 C 
BRANCH  28  29
ATOM     29  C   UNL     1      13.832 -23.457 -39.423  1.00  0.00    -0.003 C 
ATOM     30  C   UNL     1      12.852 -24.603 -39.202  1.00  0.00     0.004 C 
ENDBRANCH  28  29
ENDBRANCH  27  28
ENDBRANCH  26  27
ENDBRANCH  25  26
ENDBRANCH  24  25
ENDBRANCH  23  24
ENDBRANCH  22  23
ENDBRANCH  21  22
ENDBRANCH  20  21
ENDBRANCH  19  20
ENDBRANCH  18  19
ENDBRANCH  17  18
ENDBRANCH   1  17
TORSDOF 26
ENDMDL
MODEL 3
REMARK VINA RESULT:    -3.572      2.050      5.245
REMARK INTER + INTRA:         -14.687
REMARK INTER:                  -9.273
REMARK INTRA:                  -5.414
REMARK UNBOUND:                -5.686
REMARK SMILES CCCCCCCCCCCCCCCCCCCCCCCCCCCC(=O)[O-]
REMARK SMILES IDX 15 1 16 2 17 3 18 4 19 5 20 6 21 7 22 8 23 9 24 10 25 11
REMARK SMILES IDX 26 12 27 13 28 14 29 15 30 16 14 17 13 18 12 19 11 20 10 21
REMARK SMILES IDX 9 22 8 23 7 24 6 25 5 26 4 27 3 28 2 29 1 30
REMARK H PARENT
REMARK Flexibility Score: inf
ROOT
ATOM      1  C   UNL     1       9.359 -22.350 -38.916  1.00  0.00     0.000 C 
ENDROOT
BRANCH   1   2
ATOM      2  C   UNL     1       8.467 -23.602 -38.935  1.00  0.00     0.000 C 
BRANCH   2   3
ATOM      3  C   UNL     1       8.719 -24.514 -37.722  1.00  0.00     0.000 C 
BRANCH   3   4
ATOM      4  C   UNL     1       9.934 -24.070 -36.895  1.00  0.00     0.000 C 
BRANCH   4   5
ATOM      5  C   UNL     1       9.585 -23.994 -35.399  1.00  0.00     0.000 C 
BRANCH   5   6
ATOM      6  C   UNL     1       9.596 -22.558 -34.856  1.00  0.00     0.000 C 
BRANCH   6   7
ATOM      7  C   UNL     1       8.202 -21.912 -34.838  1.00  0.00     0.000 C 
BRANCH   7   8
ATOM      8  C   UNL     1       8.203 -20.590 -35.620  1.00  0.00     0.000 C 
BRANCH   8   9
ATOM      9  C   UNL     1       7.122 -20.542 -36.716  1.00  0.00     0.000 C 
BRANCH   9  10
ATOM     10  C   UNL     1       6.219 -21.787 -36.785  1.00  0.00     0.000 C 
BRANCH  10  11
ATOM     11  C   UNL     1       4.988 -21.583 -37.681  1.00  0.00     0.000 C 
BRANCH  11  12
ATOM     12  C   UNL     1       5.094 -20.267 -38.467  1.00  0.00     0.006 C 
BRANCH  12  13
ATOM     13  C   UNL     1       3.773 -19.485 -38.481  1.00  0.00     0.053 C 
BRANCH  13  14
ATOM     14  C   UNL     1       3.820 -18.295 -37.570  1.00  0.00     0.041 C 
ATOM     15  O   UNL     1       4.926 -17.842 -37.176  1.00  0.00    -0.550 OA
ATOM     16  O   UNL     1       2.642 -17.669 -37.181  1.00  0.00    -0.550 OA
ENDBRANCH  13  14
ENDBRANCH  12  13
ENDBRANCH  11  12
ENDBRANCH  10  11
ENDBRANCH   9  10
ENDBRANCH   8   9
ENDBRANCH   7   8
ENDBRANCH   6   7
ENDBRANCH   5   6
ENDBRANCH   4   5
ENDBRANCH   3   4
ENDBRANCH   2   3
ENDBRANCH   1   2
BRANCH   1  17
ATOM     17  C   UNL     1       9.030 -21.365 -40.059  1.00  0.00     0.000 C 
BRANCH  17  18
ATOM     18  C   UNL     1      10.078 -21.344 -41.190  1.00  0.00     0.000 C 
BRANCH  18  19
ATOM     19  C   UNL     1      11.527 -21.076 -40.741  1.00  0.00     0.000 C 
BRANCH  19  20
ATOM     20  C   UNL     1      12.540 -22.189 -41.086  1.00  0.00     0.000 C 
BRANCH  20  21
ATOM     21  C   UNL     1      12.641 -23.311 -40.036  1.00  0.00     0.000 C 
BRANCH  21  22
ATOM     22  C   UNL     1      14.055 -23.443 -39.446  1.00  0.00    -0.000 C 
BRANCH  22  23
ATOM     23  C   UNL     1      14.978 -22.294 -39.884  1.00  0.00    -0.000 C 
BRANCH  23  24
ATOM     24  C   UNL     1      15.617 -21.580 -38.679  1.00  0.00    -0.000 C 
BRANCH  24  25
ATOM     25  C   UNL     1      14.720 -21.586 -37.427  1.00  0.00    -0.000 C 
BRANCH  25  26
ATOM     26  C   UNL     1      13.679 -20.452 -37.364  1.00  0.00    -0.000 C 
BRANCH  26  27
ATOM     27  C   UNL     1      12.245 -20.959 -37.138  1.00  0.00    -0.000 C 
BRANCH  27  28
ATOM     28  C   UNL     1      11.292 -19.791 -36.853  1.00  0.00    -0.000 C 
BRANCH  28  29
ATOM     29  C   UNL     1      11.379 -18.725 -37.955  1.00  0.00    -0.003 C 
ATOM     30  C   UNL     1       9.998 -18.190 -38.311  1.00  0.00     0.004 C 
ENDBRANCH  28  29
ENDBRANCH  27  28
ENDBRANCH  26  27
ENDBRANCH  25  26
ENDBRANCH  24  25
ENDBRANCH  23  24
ENDBRANCH  22  23
ENDBRANCH  21  22
ENDBRANCH  20  21
ENDBRANCH  19  20
ENDBRANCH  18  19
ENDBRANCH  17  18
ENDBRANCH   1  17
TORSDOF 26
ENDMDL
MODEL 4
REMARK VINA RESULT:    -3.540      3.527      6.635
REMARK INTER + INTRA:         -14.606
REMARK INTER:                  -8.664
REMARK INTRA:                  -5.941
REMARK UNBOUND:                -5.686
REMARK SMILES CCCCCCCCCCCCCCCCCCCCCCCCCCCC(=O)[O-]
REMARK SMILES IDX 15 1 16 2 17 3 18 4 19 5 20 6 21 7 22 8 23 9 24 10 25 11
REMARK SMILES IDX 26 12 27 13 28 14 29 15 30 16 14 17 13 18 12 19 11 20 10 21
REMARK SMILES IDX 9 22 8 23 7 24 6 25 5 26 4 27 3 28 2 29 1 30
REMARK H PARENT
REMARK Flexibility Score: inf
ROOT
ATOM      1  C   UNL     1       7.957 -22.325 -35.257  1.00  0.00     0.000 C 
ENDROOT
BRANCH   1   2
ATOM      2  C   UNL     1       8.485 -20.893 -35.440  1.00  0.00     0.000 C 
BRANCH   2   3
ATOM      3  C   UNL     1      10.008 -20.806 -35.246  1.00  0.00     0.000 C 
BRANCH   3   4
ATOM      4  C   UNL     1      10.715 -20.143 -36.437  1.00  0.00     0.000 C 
BRANCH   4   5
ATOM      5  C   UNL     1       9.698 -19.670 -37.489  1.00  0.00     0.000 C 
BRANCH   5   6
ATOM      6  C   UNL     1      10.021 -18.277 -38.048  1.00  0.00     0.000 C 
BRANCH   6   7
ATOM      7  C   UNL     1      10.018 -18.231 -39.583  1.00  0.00     0.000 C 
BRANCH   7   8
ATOM      8  C   UNL     1       9.233 -19.417 -40.163  1.00  0.00     0.000 C 
BRANCH   8   9
ATOM      9  C   UNL     1      10.021 -20.190 -41.236  1.00  0.00     0.000 C 
BRANCH   9  10
ATOM     10  C   UNL     1      11.545 -20.214 -41.023  1.00  0.00     0.000 C 
BRANCH  10  11
ATOM     11  C   UNL     1      12.030 -21.489 -40.317  1.00  0.00     0.000 C 
BRANCH  11  12
ATOM     12  C   UNL     1      13.214 -21.185 -39.387  1.00  0.00     0.006 C 
BRANCH  12  13
ATOM     13  C   UNL     1      13.192 -22.040 -38.112  1.00  0.00     0.053 C 
BRANCH  13  14
ATOM     14  C   UNL     1      14.541 -22.615 -37.803  1.00  0.00     0.041 C 
ATOM     15  O   UNL     1      15.307 -22.032 -36.991  1.00  0.00    -0.550 OA
ATOM     16  O   UNL     1      14.941 -23.810 -38.387  1.00  0.00    -0.550 OA
ENDBRANCH  13  14
ENDBRANCH  12  13
ENDBRANCH  11  12
ENDBRANCH  10  11
ENDBRANCH   9  10
ENDBRANCH   8   9
ENDBRANCH   7   8
ENDBRANCH   6   7
ENDBRANCH   5   6
ENDBRANCH   4   5
ENDBRANCH   3   4
ENDBRANCH   2   3
ENDBRANCH   1   2
BRANCH   1  17
ATOM     17  C   UNL     1       9.077 -23.387 -35.319  1.00  0.00     0.000 C 
BRANCH  17  18
ATOM     18  C   UNL     1       9.095 -24.203 -36.627  1.00  0.00     0.000 C 
BRANCH  18  19
ATOM     19  C   UNL     1       9.888 -23.573 -37.787  1.00  0.00     0.000 C 
BRANCH  19  20
ATOM     20  C   UNL     1       9.030 -23.003 -38.938  1.00  0.00     0.000 C 
BRANCH  20  21
ATOM     21  C   UNL     1       7.510 -23.106 -38.715  1.00  0.00     0.000 C 
BRANCH  21  22
ATOM     22  C   UNL     1       6.804 -21.744 -38.818  1.00  0.00    -0.000 C 
BRANCH  22  23
ATOM     23  C   UNL     1       5.576 -21.653 -37.897  1.00  0.00    -0.000 C 
BRANCH  23  24
ATOM     24  C   UNL     1       5.168 -20.194 -37.626  1.00  0.00    -0.000 C 
BRANCH  24  25
ATOM     25  C   UNL     1       6.296 -19.186 -37.918  1.00  0.00    -0.000 C 
BRANCH  25  26
ATOM     26  C   UNL     1       5.936 -18.078 -38.926  1.00  0.00    -0.000 C 
BRANCH  26  27
ATOM     27  C   UNL     1       6.426 -16.686 -38.496  1.00  0.00    -0.000 C 
BRANCH  27  28
ATOM     28  C   UNL     1       6.850 -16.688 -37.021  1.00  0.00    -0.000 C 
BRANCH  28  29
ATOM     29  C   UNL     1       5.711 -16.193 -36.119  1.00  0.00    -0.003 C 
ATOM     30  C   UNL     1       5.547 -17.092 -34.899  1.00  0.00     0.004 C 
ENDBRANCH  28  29
ENDBRANCH  27  28
ENDBRANCH  26  27
ENDBRANCH  25  26
ENDBRANCH  24  25
ENDBRANCH  23  24
ENDBRANCH  22  23
ENDBRANCH  21  22
ENDBRANCH  20  21
ENDBRANCH  19  20
ENDBRANCH  18  19
ENDBRANCH  17  18
ENDBRANCH   1  17
TORSDOF 26
ENDMDL
MODEL 5
REMARK VINA RESULT:    -3.539      1.970      3.729
REMARK INTER + INTRA:         -14.604
REMARK INTER:                  -8.823
REMARK INTRA:                  -5.782
REMARK UNBOUND:                -5.686
REMARK SMILES CCCCCCCCCCCCCCCCCCCCCCCCCCCC(=O)[O-]
REMARK SMILES IDX 15 1 16 2 17 3 18 4 19 5 20 6 21 7 22 8 23 9 24 10 25 11
REMARK SMILES IDX 26 12 27 13 28 14 29 15 30 16 14 17 13 18 12 19 11 20 10 21
REMARK SMILES IDX 9 22 8 23 7 24 6 25 5 26 4 27 3 28 2 29 1 30
REMARK H PARENT
REMARK Flexibility Score: inf
ROOT
ATOM      1  C   UNL     1      12.329 -22.542 -40.697  1.00  0.00     0.000 C 
ENDROOT
BRANCH   1   2
ATOM      2  C   UNL     1      13.845 -22.293 -40.623  1.00  0.00     0.000 C 
BRANCH   2   3
ATOM      3  C   UNL     1      14.516 -23.113 -39.509  1.00  0.00     0.000 C 
BRANCH   3   4
ATOM      4  C   UNL     1      13.943 -22.798 -38.120  1.00  0.00     0.000 C 
BRANCH   4   5
ATOM      5  C   UNL     1      14.722 -21.656 -37.448  1.00  0.00     0.000 C 
BRANCH   5   6
ATOM      6  C   UNL     1      13.876 -20.390 -37.251  1.00  0.00     0.000 C 
BRANCH   6   7
ATOM      7  C   UNL     1      12.372 -20.640 -37.437  1.00  0.00     0.000 C 
BRANCH   7   8
ATOM      8  C   UNL     1      11.563 -19.380 -37.094  1.00  0.00     0.000 C 
BRANCH   8   9
ATOM      9  C   UNL     1      11.075 -18.623 -38.343  1.00  0.00     0.000 C 
BRANCH   9  10
ATOM     10  C   UNL     1       9.698 -17.952 -38.193  1.00  0.00     0.000 C 
BRANCH  10  11
ATOM     11  C   UNL     1       8.879 -17.972 -39.493  1.00  0.00     0.000 C 
BRANCH  11  12
ATOM     12  C   UNL     1       7.640 -18.868 -39.347  1.00  0.00     0.006 C 
BRANCH  12  13
ATOM     13  C   UNL     1       6.331 -18.101 -39.585  1.00  0.00     0.053 C 
BRANCH  13  14
ATOM     14  C   UNL     1       5.624 -17.792 -38.300  1.00  0.00     0.041 C 
ATOM     15  O   UNL     1       4.411 -17.454 -38.310  1.00  0.00    -0.550 OA
ATOM     16  O   UNL     1       6.296 -17.907 -37.089  1.00  0.00    -0.550 OA
ENDBRANCH  13  14
ENDBRANCH  12  13
ENDBRANCH  11  12
ENDBRANCH  10  11
ENDBRANCH   9  10
ENDBRANCH   8   9
ENDBRANCH   7   8
ENDBRANCH   6   7
ENDBRANCH   5   6
ENDBRANCH   4   5
ENDBRANCH   3   4
ENDBRANCH   2   3
ENDBRANCH   1   2
BRANCH   1  17
ATOM     17  C   UNL     1      11.557 -21.349 -41.301  1.00  0.00     0.000 C 
BRANCH  17  18
ATOM     18  C   UNL     1      10.102 -21.229 -40.803  1.00  0.00     0.000 C 
BRANCH  18  19
ATOM     19  C   UNL     1       9.803 -21.924 -39.461  1.00  0.00     0.000 C 
BRANCH  19  20
ATOM     20  C   UNL     1       8.763 -23.063 -39.527  1.00  0.00     0.000 C 
BRANCH  20  21
ATOM     21  C   UNL     1       8.998 -24.205 -38.521  1.00  0.00     0.000 C 
BRANCH  21  22
ATOM     22  C   UNL     1      10.488 -24.418 -38.206  1.00  0.00    -0.000 C 
BRANCH  22  23
ATOM     23  C   UNL     1      10.806 -24.206 -36.717  1.00  0.00    -0.000 C 
BRANCH  23  24
ATOM     24  C   UNL     1       9.541 -24.280 -35.844  1.00  0.00    -0.000 C 
BRANCH  24  25
ATOM     25  C   UNL     1       9.520 -23.228 -34.718  1.00  0.00    -0.000 C 
BRANCH  25  26
ATOM     26  C   UNL     1       9.723 -21.773 -35.180  1.00  0.00    -0.000 C 
BRANCH  26  27
ATOM     27  C   UNL     1       8.424 -20.951 -35.178  1.00  0.00    -0.000 C 
BRANCH  27  28
ATOM     28  C   UNL     1       7.764 -20.970 -36.563  1.00  0.00    -0.000 C 
BRANCH  28  29
ATOM     29  C   UNL     1       6.623 -21.995 -36.616  1.00  0.00    -0.003 C 
ATOM     30  C   UNL     1       5.457 -21.477 -37.450  1.00  0.00     0.004 C 
ENDBRANCH  28  29
ENDBRANCH  27  28
ENDBRANCH  26  27
ENDBRANCH  25  26
ENDBRANCH  24  25
ENDBRANCH  23  24
ENDBRANCH  22  23
ENDBRANCH  21  22
ENDBRANCH  20  21
ENDBRANCH  19  20
ENDBRANCH  18  19
ENDBRANCH  17  18
ENDBRANCH   1  17
TORSDOF 26
ENDMDL
MODEL 6
REMARK VINA RESULT:    -3.530      1.285      4.718
REMARK INTER + INTRA:         -14.581
REMARK INTER:                  -9.415
REMARK INTRA:                  -5.165
REMARK UNBOUND:                -5.686
REMARK SMILES CCCCCCCCCCCCCCCCCCCCCCCCCCCC(=O)[O-]
REMARK SMILES IDX 15 1 16 2 17 3 18 4 19 5 20 6 21 7 22 8 23 9 24 10 25 11
REMARK SMILES IDX 26 12 27 13 28 14 29 15 30 16 14 17 13 18 12 19 11 20 10 21
REMARK SMILES IDX 9 22 8 23 7 24 6 25 5 26 4 27 3 28 2 29 1 30
REMARK H PARENT
REMARK Flexibility Score: inf
ROOT
ATOM      1  C   UNL     1       8.261 -21.768 -34.800  1.00  0.00     0.000 C 
ENDROOT
BRANCH   1   2
ATOM      2  C   UNL     1       7.851 -20.975 -36.052  1.00  0.00     0.000 C 
BRANCH   2   3
ATOM      3  C   UNL     1       6.674 -21.631 -36.795  1.00  0.00     0.000 C 
BRANCH   3   4
ATOM      4  C   UNL     1       6.004 -20.676 -37.793  1.00  0.00     0.000 C 
BRANCH   4   5
ATOM      5  C   UNL     1       7.004 -19.631 -38.315  1.00  0.00     0.000 C 
BRANCH   5   6
ATOM      6  C   UNL     1       6.586 -19.026 -39.662  1.00  0.00     0.000 C 
BRANCH   6   7
ATOM      7  C   UNL     1       6.454 -17.496 -39.616  1.00  0.00     0.000 C 
BRANCH   7   8
ATOM      8  C   UNL     1       7.447 -16.891 -38.613  1.00  0.00     0.000 C 
BRANCH   8   9
ATOM      9  C   UNL     1       6.753 -16.197 -37.426  1.00  0.00     0.000 C 
BRANCH   9  10
ATOM     10  C   UNL     1       5.219 -16.324 -37.414  1.00  0.00     0.000 C 
BRANCH  10  11
ATOM     11  C   UNL     1       4.712 -17.336 -36.375  1.00  0.00     0.000 C 
BRANCH  11  12
ATOM     12  C   UNL     1       5.742 -17.531 -35.251  1.00  0.00     0.006 C 
BRANCH  12  13
ATOM     13  C   UNL     1       5.189 -17.134 -33.875  1.00  0.00     0.053 C 
BRANCH  13  14
ATOM     14  C   UNL     1       5.084 -15.647 -33.724  1.00  0.00     0.041 C 
ATOM     15  O   UNL     1       5.915 -14.892 -34.294  1.00  0.00    -0.550 OA
ATOM     16  O   UNL     1       4.051 -15.093 -32.978  1.00  0.00    -0.550 OA
ENDBRANCH  13  14
ENDBRANCH  12  13
ENDBRANCH  11  12
ENDBRANCH  10  11
ENDBRANCH   9  10
ENDBRANCH   8   9
ENDBRANCH   7   8
ENDBRANCH   6   7
ENDBRANCH   5   6
ENDBRANCH   4   5
ENDBRANCH   3   4
ENDBRANCH   2   3
ENDBRANCH   1   2
BRANCH   1  17
ATOM     17  C   UNL     1       9.676 -22.375 -34.915  1.00  0.00     0.000 C 
BRANCH  17  18
ATOM     18  C   UNL     1       9.687 -23.873 -35.285  1.00  0.00     0.000 C 
BRANCH  18  19
ATOM     19  C   UNL     1       9.791 -24.179 -36.791  1.00  0.00     0.000 C 
BRANCH  19  20
ATOM     20  C   UNL     1      11.117 -23.755 -37.459  1.00  0.00     0.000 C 
BRANCH  20  21
ATOM     21  C   UNL     1      10.958 -23.122 -38.854  1.00  0.00     0.000 C 
BRANCH  21  22
ATOM     22  C   UNL     1       9.912 -21.996 -38.876  1.00  0.00    -0.000 C 
BRANCH  22  23
ATOM     23  C   UNL     1       9.951 -21.189 -40.185  1.00  0.00    -0.000 C 
BRANCH  23  24
ATOM     24  C   UNL     1      11.273 -21.393 -40.946  1.00  0.00    -0.000 C 
BRANCH  24  25
ATOM     25  C   UNL     1      12.226 -20.187 -40.839  1.00  0.00    -0.000 C 
BRANCH  25  26
ATOM     26  C   UNL     1      13.212 -20.237 -39.657  1.00  0.00    -0.000 C 
BRANCH  26  27
ATOM     27  C   UNL     1      12.926 -19.173 -38.584  1.00  0.00    -0.000 C 
BRANCH  27  28
ATOM     28  C   UNL     1      12.738 -19.823 -37.207  1.00  0.00    -0.000 C 
BRANCH  28  29
ATOM     29  C   UNL     1      11.341 -19.528 -36.644  1.00  0.00    -0.003 C 
ATOM     30  C   UNL     1      10.568 -18.586 -37.560  1.00  0.00     0.004 C 
ENDBRANCH  28  29
ENDBRANCH  27  28
ENDBRANCH  26  27
ENDBRANCH  25  26
ENDBRANCH  24  25
ENDBRANCH  23  24
ENDBRANCH  22  23
ENDBRANCH  21  22
ENDBRANCH  20  21
ENDBRANCH  19  20
ENDBRANCH  18  19
ENDBRANCH  17  18
ENDBRANCH   1  17
TORSDOF 26
ENDMDL
MODEL 7
REMARK VINA RESULT:    -3.526      1.386      3.959
REMARK INTER + INTRA:         -14.571
REMARK INTER:                  -8.536
REMARK INTRA:                  -6.035
REMARK UNBOUND:                -5.686
REMARK SMILES CCCCCCCCCCCCCCCCCCCCCCCCCCCC(=O)[O-]
REMARK SMILES IDX 15 1 16 2 17 3 18 4 19 5 20 6 21 7 22 8 23 9 24 10 25 11
REMARK SMILES IDX 26 12 27 13 28 14 29 15 30 16 14 17 13 18 12 19 11 20 10 21
REMARK SMILES IDX 9 22 8 23 7 24 6 25 5 26 4 27 3 28 2 29 1 30
REMARK H PARENT
REMARK Flexibility Score: inf
ROOT
ATOM      1  C   UNL     1       8.626 -24.371 -37.623  1.00  0.00     0.000 C 
ENDROOT
BRANCH   1   2
ATOM      2  C   UNL     1       9.833 -24.272 -36.676  1.00  0.00     0.000 C 
BRANCH   2   3
ATOM      3  C   UNL     1       9.415 -23.927 -35.236  1.00  0.00     0.000 C 
BRANCH   3   4
ATOM      4  C   UNL     1       9.680 -22.457 -34.883  1.00  0.00     0.000 C 
BRANCH   4   5
ATOM      5  C   UNL     1       8.365 -21.664 -34.798  1.00  0.00     0.000 C 
BRANCH   5   6
ATOM      6  C   UNL     1       7.975 -21.010 -36.131  1.00  0.00     0.000 C 
BRANCH   6   7
ATOM      7  C   UNL     1       6.575 -21.421 -36.614  1.00  0.00     0.000 C 
BRANCH   7   8
ATOM      8  C   UNL     1       6.256 -20.779 -37.972  1.00  0.00     0.000 C 
BRANCH   8   9
ATOM      9  C   UNL     1       4.821 -20.229 -38.052  1.00  0.00     0.000 C 
BRANCH   9  10
ATOM     10  C   UNL     1       4.713 -18.695 -37.968  1.00  0.00     0.000 C 
BRANCH  10  11
ATOM     11  C   UNL     1       6.080 -17.997 -38.017  1.00  0.00     0.000 C 
BRANCH  11  12
ATOM     12  C   UNL     1       6.282 -17.099 -36.787  1.00  0.00     0.006 C 
BRANCH  12  13
ATOM     13  C   UNL     1       6.028 -17.845 -35.469  1.00  0.00     0.053 C 
BRANCH  13  14
ATOM     14  C   UNL     1       5.093 -17.091 -34.573  1.00  0.00     0.041 C 
ATOM     15  O   UNL     1       5.355 -16.964 -33.347  1.00  0.00    -0.550 OA
ATOM     16  O   UNL     1       3.948 -16.502 -35.095  1.00  0.00    -0.550 OA
ENDBRANCH  13  14
ENDBRANCH  12  13
ENDBRANCH  11  12
ENDBRANCH  10  11
ENDBRANCH   9  10
ENDBRANCH   8   9
ENDBRANCH   7   8
ENDBRANCH   6   7
ENDBRANCH   5   6
ENDBRANCH   4   5
ENDBRANCH   3   4
ENDBRANCH   2   3
ENDBRANCH   1   2
BRANCH   1  17
ATOM     17  C   UNL     1       8.881 -23.691 -38.987  1.00  0.00     0.000 C 
BRANCH  17  18
ATOM     18  C   UNL     1       9.750 -22.420 -38.900  1.00  0.00     0.000 C 
BRANCH  18  19
ATOM     19  C   UNL     1      11.022 -22.430 -39.770  1.00  0.00     0.000 C 
BRANCH  19  20
ATOM     20  C   UNL     1      12.254 -21.744 -39.142  1.00  0.00     0.000 C 
BRANCH  20  21
ATOM     21  C   UNL     1      12.224 -21.658 -37.604  1.00  0.00     0.000 C 
BRANCH  21  22
ATOM     22  C   UNL     1      12.574 -20.253 -37.085  1.00  0.00    -0.000 C 
BRANCH  22  23
ATOM     23  C   UNL     1      11.327 -19.464 -36.654  1.00  0.00    -0.000 C 
BRANCH  23  24
ATOM     24  C   UNL     1      10.905 -18.433 -37.717  1.00  0.00    -0.000 C 
BRANCH  24  25
ATOM     25  C   UNL     1       9.582 -18.796 -38.419  1.00  0.00    -0.000 C 
BRANCH  25  26
ATOM     26  C   UNL     1       9.672 -18.928 -39.951  1.00  0.00    -0.000 C 
BRANCH  26  27
ATOM     27  C   UNL     1       8.296 -19.018 -40.632  1.00  0.00    -0.000 C 
BRANCH  27  28
ATOM     28  C   UNL     1       8.284 -20.124 -41.695  1.00  0.00    -0.000 C 
BRANCH  28  29
ATOM     29  C   UNL     1       7.284 -21.230 -41.330  1.00  0.00    -0.003 C 
ATOM     30  C   UNL     1       5.882 -20.884 -41.819  1.00  0.00     0.004 C 
ENDBRANCH  28  29
ENDBRANCH  27  28
ENDBRANCH  26  27
ENDBRANCH  25  26
ENDBRANCH  24  25
ENDBRANCH  23  24
ENDBRANCH  22  23
ENDBRANCH  21  22
ENDBRANCH  20  21
ENDBRANCH  19  20
ENDBRANCH  18  19
ENDBRANCH  17  18
ENDBRANCH   1  17
TORSDOF 26
ENDMDL
MODEL 8
REMARK VINA RESULT:    -3.504      1.973      5.244
REMARK INTER + INTRA:         -14.515
REMARK INTER:                  -8.946
REMARK INTRA:                  -5.569
REMARK UNBOUND:                -5.686
REMARK SMILES CCCCCCCCCCCCCCCCCCCCCCCCCCCC(=O)[O-]
REMARK SMILES IDX 15 1 16 2 17 3 18 4 19 5 20 6 21 7 22 8 23 9 24 10 25 11
REMARK SMILES IDX 26 12 27 13 28 14 29 15 30 16 14 17 13 18 12 19 11 20 10 21
REMARK SMILES IDX 9 22 8 23 7 24 6 25 5 26 4 27 3 28 2 29 1 30
REMARK H PARENT
REMARK Flexibility Score: inf
ROOT
ATOM      1  C   UNL     1       9.508 -24.377 -38.027  1.00  0.00     0.000 C 
ENDROOT
BRANCH   1   2
ATOM      2  C   UNL     1       9.012 -24.320 -36.572  1.00  0.00     0.000 C 
BRANCH   2   3
ATOM      3  C   UNL     1      10.120 -23.884 -35.598  1.00  0.00     0.000 C 
BRANCH   3   4
ATOM      4  C   UNL     1       9.770 -22.588 -34.852  1.00  0.00     0.000 C 
BRANCH   4   5
ATOM      5  C   UNL     1       8.315 -22.170 -35.124  1.00  0.00     0.000 C 
BRANCH   5   6
ATOM      6  C   UNL     1       8.182 -20.694 -35.521  1.00  0.00     0.000 C 
BRANCH   6   7
ATOM      7  C   UNL     1       6.921 -20.407 -36.351  1.00  0.00     0.000 C 
BRANCH   7   8
ATOM      8  C   UNL     1       6.210 -21.714 -36.733  1.00  0.00     0.000 C 
BRANCH   8   9
ATOM      9  C   UNL     1       5.122 -21.513 -37.804  1.00  0.00     0.000 C 
BRANCH   9  10
ATOM     10  C   UNL     1       5.163 -20.150 -38.516  1.00  0.00     0.000 C 
BRANCH  10  11
ATOM     11  C   UNL     1       5.988 -20.178 -39.812  1.00  0.00     0.000 C 
BRANCH  11  12
ATOM     12  C   UNL     1       6.960 -18.990 -39.870  1.00  0.00     0.006 C 
BRANCH  12  13
ATOM     13  C   UNL     1       6.427 -17.760 -39.122  1.00  0.00     0.053 C 
BRANCH  13  14
ATOM     14  C   UNL     1       7.431 -17.221 -38.148  1.00  0.00     0.041 C 
ATOM     15  O   UNL     1       7.047 -16.623 -37.109  1.00  0.00    -0.550 OA
ATOM     16  O   UNL     1       8.790 -17.407 -38.373  1.00  0.00    -0.550 OA
ENDBRANCH  13  14
ENDBRANCH  12  13
ENDBRANCH  11  12
ENDBRANCH  10  11
ENDBRANCH   9  10
ENDBRANCH   8   9
ENDBRANCH   7   8
ENDBRANCH   6   7
ENDBRANCH   5   6
ENDBRANCH   4   5
ENDBRANCH   3   4
ENDBRANCH   2   3
ENDBRANCH   1   2
BRANCH   1  17
ATOM     17  C   UNL     1       8.663 -23.503 -38.979  1.00  0.00     0.000 C 
BRANCH  17  18
ATOM     18  C   UNL     1       9.070 -22.015 -38.990  1.00  0.00     0.000 C 
BRANCH  18  19
ATOM     19  C   UNL     1      10.514 -21.722 -38.542  1.00  0.00     0.000 C 
BRANCH  19  20
ATOM     20  C   UNL     1      10.781 -20.271 -38.089  1.00  0.00     0.000 C 
BRANCH  20  21
ATOM     21  C   UNL     1      11.765 -20.137 -36.912  1.00  0.00     0.000 C 
BRANCH  21  22
ATOM     22  C   UNL     1      13.183 -19.754 -37.368  1.00  0.00    -0.000 C 
BRANCH  22  23
ATOM     23  C   UNL     1      14.180 -20.913 -37.207  1.00  0.00    -0.000 C 
BRANCH  23  24
ATOM     24  C   UNL     1      14.790 -21.337 -38.555  1.00  0.00    -0.000 C 
BRANCH  24  25
ATOM     25  C   UNL     1      14.302 -20.477 -39.737  1.00  0.00    -0.000 C 
BRANCH  25  26
ATOM     26  C   UNL     1      13.405 -21.211 -40.752  1.00  0.00    -0.000 C 
BRANCH  26  27
ATOM     27  C   UNL     1      13.798 -22.684 -40.953  1.00  0.00    -0.000 C 
BRANCH  27  28
ATOM     28  C   UNL     1      12.580 -23.602 -40.787  1.00  0.00    -0.000 C 
BRANCH  28  29
ATOM     29  C   UNL     1      12.856 -24.703 -39.754  1.00  0.00    -0.003 C 
ATOM     30  C   UNL     1      14.350 -24.843 -39.487  1.00  0.00     0.004 C 
ENDBRANCH  28  29
ENDBRANCH  27  28
ENDBRANCH  26  27
ENDBRANCH  25  26
ENDBRANCH  24  25
ENDBRANCH  23  24
ENDBRANCH  22  23
ENDBRANCH  21  22
ENDBRANCH  20  21
ENDBRANCH  19  20
ENDBRANCH  18  19
ENDBRANCH  17  18
ENDBRANCH   1  17
TORSDOF 26
ENDMDL
MODEL 9
REMARK VINA RESULT:    -3.485      3.293      7.181
REMARK INTER + INTRA:         -14.468
REMARK INTER:                  -9.768
REMARK INTRA:                  -4.700
REMARK UNBOUND:                -5.686
REMARK SMILES CCCCCCCCCCCCCCCCCCCCCCCCCCCC(=O)[O-]
REMARK SMILES IDX 15 1 16 2 17 3 18 4 19 5 20 6 21 7 22 8 23 9 24 10 25 11
REMARK SMILES IDX 26 12 27 13 28 14 29 15 30 16 14 17 13 18 12 19 11 20 10 21
REMARK SMILES IDX 9 22 8 23 7 24 6 25 5 26 4 27 3 28 2 29 1 30
REMARK H PARENT
REMARK Flexibility Score: inf
ROOT
ATOM      1  C   UNL     1       9.754 -22.537 -34.876  1.00  0.00     0.000 C 
ENDROOT
BRANCH   1   2
ATOM      2  C   UNL     1       9.483 -23.935 -35.454  1.00  0.00     0.000 C 
BRANCH   2   3
ATOM      3  C   UNL     1       9.993 -24.076 -36.899  1.00  0.00     0.000 C 
BRANCH   3   4
ATOM      4  C   UNL     1       8.893 -24.528 -37.869  1.00  0.00     0.000 C 
BRANCH   4   5
ATOM      5  C   UNL     1       9.235 -24.131 -39.315  1.00  0.00     0.000 C 
BRANCH   5   6
ATOM      6  C   UNL     1       9.813 -22.714 -39.425  1.00  0.00     0.000 C 
BRANCH   6   7
ATOM      7  C   UNL     1       8.762 -21.666 -39.820  1.00  0.00     0.000 C 
BRANCH   7   8
ATOM      8  C   UNL     1       9.422 -20.306 -40.093  1.00  0.00     0.000 C 
BRANCH   8   9
ATOM      9  C   UNL     1      10.696 -20.080 -39.258  1.00  0.00     0.000 C 
BRANCH   9  10
ATOM     10  C   UNL     1      10.509 -19.169 -38.031  1.00  0.00     0.000 C 
BRANCH  10  11
ATOM     11  C   UNL     1      11.210 -19.708 -36.775  1.00  0.00     0.000 C 
BRANCH  11  12
ATOM     12  C   UNL     1      12.181 -20.843 -37.133  1.00  0.00     0.006 C 
BRANCH  12  13
ATOM     13  C   UNL     1      13.646 -20.385 -37.124  1.00  0.00     0.053 C 
BRANCH  13  14
ATOM     14  C   UNL     1      14.444 -21.048 -38.206  1.00  0.00     0.041 C 
ATOM     15  O   UNL     1      15.314 -21.910 -37.914  1.00  0.00    -0.550 OA
ATOM     16  O   UNL     1      14.205 -20.737 -39.539  1.00  0.00    -0.550 OA
ENDBRANCH  13  14
ENDBRANCH  12  13
ENDBRANCH  11  12
ENDBRANCH  10  11
ENDBRANCH   9  10
ENDBRANCH   8   9
ENDBRANCH   7   8
ENDBRANCH   6   7
ENDBRANCH   5   6
ENDBRANCH   4   5
ENDBRANCH   3   4
ENDBRANCH   2   3
ENDBRANCH   1   2
BRANCH   1  17
ATOM     17  C   UNL     1       8.487 -21.656 -34.825  1.00  0.00     0.000 C 
BRANCH  17  18
ATOM     18  C   UNL     1       7.887 -21.339 -36.210  1.00  0.00     0.000 C 
BRANCH  18  19
ATOM     19  C   UNL     1       6.524 -21.994 -36.504  1.00  0.00     0.000 C 
BRANCH  19  20
ATOM     20  C   UNL     1       5.942 -21.702 -37.904  1.00  0.00     0.000 C 
BRANCH  20  21
ATOM     21  C   UNL     1       4.608 -20.932 -37.896  1.00  0.00     0.000 C 
BRANCH  21  22
ATOM     22  C   UNL     1       4.788 -19.434 -38.193  1.00  0.00    -0.000 C 
BRANCH  22  23
ATOM     23  C   UNL     1       6.211 -19.101 -38.669  1.00  0.00    -0.000 C 
BRANCH  23  24
ATOM     24  C   UNL     1       6.941 -18.166 -37.688  1.00  0.00    -0.000 C 
BRANCH  24  25
ATOM     25  C   UNL     1       6.136 -17.890 -36.403  1.00  0.00    -0.000 C 
BRANCH  25  26
ATOM     26  C   UNL     1       5.863 -16.403 -36.110  1.00  0.00    -0.000 C 
BRANCH  26  27
ATOM     27  C   UNL     1       4.374 -16.094 -35.886  1.00  0.00    -0.000 C 
BRANCH  27  28
ATOM     28  C   UNL     1       4.153 -15.435 -34.519  1.00  0.00    -0.000 C 
BRANCH  28  29
ATOM     29  C   UNL     1       5.324 -15.726 -33.570  1.00  0.00    -0.003 C 
ATOM     30  C   UNL     1       4.936 -16.763 -32.522  1.00  0.00     0.004 C 
ENDBRANCH  28  29
ENDBRANCH  27  28
ENDBRANCH  26  27
ENDBRANCH  25  26
ENDBRANCH  24  25
ENDBRANCH  23  24
ENDBRANCH  22  23
ENDBRANCH  21  22
ENDBRANCH  20  21
ENDBRANCH  19  20
ENDBRANCH  18  19
ENDBRANCH  17  18
ENDBRANCH   1  17
TORSDOF 26
ENDMDL
