MODEL 1
REMARK VINA RESULT:    10.337      0.000      0.000
REMARK INTER + INTRA:          11.877
REMARK INTER:                  12.150
REMARK INTRA:                  -0.273
REMARK UNBOUND:                -0.273
REMARK SMILES O=c1cc(-c2ccc(O)c(O)c2)oc2cc(O)cc(O)c12
REMARK SMILES IDX 4 1 3 2 2 3 1 4 21 5 19 6 18 7 16 8 15 9 14 10 13 11 5 12
REMARK SMILES IDX 6 13 7 14 8 15 12 16 10 17 9 18 11 20 20 22 17 24
REMARK H PARENT 9 19 11 21 20 23 17 25
REMARK Flexibility Score: inf
ROOT
ATOM      1  C   UNL     1      22.892  76.457  10.018  1.00  0.00     0.138 A 
ATOM      2  C   UNL     1      22.222  75.348  10.553  1.00  0.00     0.100 A 
ATOM      3  C   UNL     1      20.834  75.385  10.700  1.00  0.00     0.197 A 
ATOM      4  O   UNL     1      20.255  74.353  11.125  1.00  0.00    -0.289 OA
ATOM      5  C   UNL     1      20.119  76.552  10.337  1.00  0.00     0.107 A 
ATOM      6  C   UNL     1      18.709  76.718  10.481  1.00  0.00     0.134 A 
ATOM      7  C   UNL     1      18.096  77.873   9.980  1.00  0.00     0.093 A 
ATOM      8  C   UNL     1      18.850  78.894   9.395  1.00  0.00     0.123 A 
ATOM      9  C   UNL     1      20.233  78.765   9.300  1.00  0.00     0.094 A 
ATOM     10  C   UNL     1      20.870  77.609   9.759  1.00  0.00     0.146 A 
ATOM     11  O   UNL     1      22.190  77.519   9.635  1.00  0.00    -0.456 OA
ENDROOT
BRANCH   1  12
ATOM     12  C   UNL     1      24.366  76.471   9.841  1.00  0.00     0.021 A 
ATOM     13  C   UNL     1      25.243  76.515  10.941  1.00  0.00     0.016 A 
ATOM     14  C   UNL     1      26.626  76.539  10.745  1.00  0.00     0.051 A 
ATOM     15  C   UNL     1      27.157  76.526   9.449  1.00  0.00     0.157 A 
ATOM     16  C   UNL     1      24.908  76.472   8.543  1.00  0.00     0.062 A 
ATOM     17  C   UNL     1      26.293  76.495   8.344  1.00  0.00     0.158 A 
BRANCH  15  18
ATOM     18  O   UNL     1      28.538  76.547   9.258  1.00  0.00    -0.504 OA
ATOM     19  H   UNL     1      29.034  75.747   8.882  1.00  0.00     0.293 HD
ENDBRANCH  15  18
BRANCH  17  20
ATOM     20  O   UNL     1      26.789  76.485   7.040  1.00  0.00    -0.504 OA
ATOM     21  H   UNL     1      27.645  76.001   6.794  1.00  0.00     0.293 HD
ENDBRANCH  17  20
ENDBRANCH   1  12
BRANCH   6  22
ATOM     22  O   UNL     1      17.876  75.798  11.125  1.00  0.00    -0.507 OA
ATOM     23  H   UNL     1      18.187  74.942  11.556  1.00  0.00     0.293 HD
ENDBRANCH   6  22
BRANCH   8  24
ATOM     24  O   UNL     1      18.233  80.046   8.914  1.00  0.00    -0.508 OA
ATOM     25  H   UNL     1      17.486  80.002   8.231  1.00  0.00     0.293 HD
ENDBRANCH   8  24
TORSDOF 5
ENDMDL
MODEL 2
REMARK VINA RESULT:    11.029      1.354      2.666
REMARK INTER + INTRA:          12.690
REMARK INTER:                  12.954
REMARK INTRA:                  -0.265
REMARK UNBOUND:                -0.273
REMARK SMILES O=c1cc(-c2ccc(O)c(O)c2)oc2cc(O)cc(O)c12
REMARK SMILES IDX 4 1 3 2 2 3 1 4 21 5 19 6 18 7 16 8 15 9 14 10 13 11 5 12
REMARK SMILES IDX 6 13 7 14 8 15 12 16 10 17 9 18 11 20 20 22 17 24
REMARK H PARENT 9 19 11 21 20 23 17 25
REMARK Flexibility Score: inf
ROOT
ATOM      1  C   UNL     1      22.777  76.844  10.258  1.00  0.00     0.138 A 
ATOM      2  C   UNL     1      22.236  78.124  10.445  1.00  0.00     0.100 A 
ATOM      3  C   UNL     1      20.873  78.265  10.711  1.00  0.00     0.197 A 
ATOM      4  O   UNL     1      20.429  79.421  10.936  1.00  0.00    -0.289 OA
ATOM      5  C   UNL     1      20.043  77.119  10.758  1.00  0.00     0.107 A 
ATOM      6  C   UNL     1      18.633  77.146  10.980  1.00  0.00     0.134 A 
ATOM      7  C   UNL     1      17.935  75.941  11.121  1.00  0.00     0.093 A 
ATOM      8  C   UNL     1      18.584  74.711  10.988  1.00  0.00     0.123 A 
ATOM      9  C   UNL     1      19.950  74.675  10.716  1.00  0.00     0.094 A 
ATOM     10  C   UNL     1      20.681  75.860  10.605  1.00  0.00     0.146 A 
ATOM     11  O   UNL     1      21.985  75.782  10.361  1.00  0.00    -0.456 OA
ENDROOT
BRANCH   1  12
ATOM     12  C   UNL     1      24.219  76.637   9.972  1.00  0.00     0.021 A 
ATOM     13  C   UNL     1      25.179  76.595  11.001  1.00  0.00     0.016 A 
ATOM     14  C   UNL     1      26.531  76.409  10.702  1.00  0.00     0.051 A 
ATOM     15  C   UNL     1      26.949  76.269   9.372  1.00  0.00     0.157 A 
ATOM     16  C   UNL     1      24.649  76.509   8.639  1.00  0.00     0.062 A 
ATOM     17  C   UNL     1      26.002  76.321   8.337  1.00  0.00     0.158 A 
BRANCH  15  18
ATOM     18  O   UNL     1      28.298  76.081   9.078  1.00  0.00    -0.504 OA
ATOM     19  H   UNL     1      28.944  76.861   9.023  1.00  0.00     0.293 HD
ENDBRANCH  15  18
BRANCH  17  20
ATOM     20  O   UNL     1      26.386  76.189   7.002  1.00  0.00    -0.504 OA
ATOM     21  H   UNL     1      25.994  75.475   6.398  1.00  0.00     0.293 HD
ENDBRANCH  17  20
ENDBRANCH   1  12
BRANCH   6  22
ATOM     22  O   UNL     1      17.875  78.319  11.044  1.00  0.00    -0.507 OA
ATOM     23  H   UNL     1      17.488  78.710  11.890  1.00  0.00     0.293 HD
ENDBRANCH   6  22
BRANCH   8  24
ATOM     24  O   UNL     1      17.877  73.517  11.114  1.00  0.00    -0.508 OA
ATOM     25  H   UNL     1      17.395  73.101  10.326  1.00  0.00     0.293 HD
ENDBRANCH   8  24
TORSDOF 5
ENDMDL
MODEL 3
REMARK VINA RESULT:    11.221     13.046     14.266
REMARK INTER + INTRA:          12.916
REMARK INTER:                  13.210
REMARK INTRA:                  -0.295
REMARK UNBOUND:                -0.273
REMARK SMILES O=c1cc(-c2ccc(O)c(O)c2)oc2cc(O)cc(O)c12
REMARK SMILES IDX 4 1 3 2 2 3 1 4 21 5 19 6 18 7 16 8 15 9 14 10 13 11 5 12
REMARK SMILES IDX 6 13 7 14 8 15 12 16 10 17 9 18 11 20 20 22 17 24
REMARK H PARENT 9 19 11 21 20 23 17 25
REMARK Flexibility Score: inf
ROOT
ATOM      1  C   UNL     1      28.496  64.989   4.728  1.00  0.00     0.138 A 
ATOM      2  C   UNL     1      28.365  65.115   3.338  1.00  0.00     0.100 A 
ATOM      3  C   UNL     1      27.092  65.143   2.764  1.00  0.00     0.197 A 
ATOM      4  O   UNL     1      27.006  65.321   1.522  1.00  0.00    -0.289 OA
ATOM      5  C   UNL     1      25.947  65.011   3.586  1.00  0.00     0.107 A 
ATOM      6  C   UNL     1      24.603  64.984   3.107  1.00  0.00     0.134 A 
ATOM      7  C   UNL     1      23.545  64.966   4.024  1.00  0.00     0.093 A 
ATOM      8  C   UNL     1      23.784  64.913   5.400  1.00  0.00     0.123 A 
ATOM      9  C   UNL     1      25.093  64.883   5.874  1.00  0.00     0.094 A 
ATOM     10  C   UNL     1      26.170  64.936   4.986  1.00  0.00     0.146 A 
ATOM     11  O   UNL     1      27.403  64.921   5.481  1.00  0.00    -0.456 OA
ENDROOT
BRANCH   1  12
ATOM     12  C   UNL     1      29.825  64.953   5.390  1.00  0.00     0.021 A 
ATOM     13  C   UNL     1      29.954  64.970   6.791  1.00  0.00     0.016 A 
ATOM     14  C   UNL     1      31.217  64.946   7.387  1.00  0.00     0.051 A 
ATOM     15  C   UNL     1      32.373  64.912   6.596  1.00  0.00     0.157 A 
ATOM     16  C   UNL     1      30.990  64.932   4.602  1.00  0.00     0.062 A 
ATOM     17  C   UNL     1      32.256  64.907   5.197  1.00  0.00     0.158 A 
BRANCH  15  18
ATOM     18  O   UNL     1      33.631  64.886   7.194  1.00  0.00    -0.504 OA
ATOM     19  H   UNL     1      34.420  65.382   6.794  1.00  0.00     0.293 HD
ENDBRANCH  15  18
BRANCH  17  20
ATOM     20  O   UNL     1      33.387  64.876   4.380  1.00  0.00    -0.504 OA
ATOM     21  H   UNL     1      33.333  65.041   3.381  1.00  0.00     0.293 HD
ENDBRANCH  17  20
ENDBRANCH   1  12
BRANCH   6  22
ATOM     22  O   UNL     1      24.257  64.949   1.753  1.00  0.00    -0.507 OA
ATOM     23  H   UNL     1      24.892  65.128   0.991  1.00  0.00     0.293 HD
ENDBRANCH   6  22
BRANCH   8  24
ATOM     24  O   UNL     1      22.725  64.879   6.304  1.00  0.00    -0.508 OA
ATOM     25  H   UNL     1      22.496  64.039   6.821  1.00  0.00     0.293 HD
ENDBRANCH   8  24
TORSDOF 5
ENDMDL
MODEL 4
REMARK VINA RESULT:    12.804     13.835     16.579
REMARK INTER + INTRA:          14.776
REMARK INTER:                  15.070
REMARK INTRA:                  -0.294
REMARK UNBOUND:                -0.273
REMARK SMILES O=c1cc(-c2ccc(O)c(O)c2)oc2cc(O)cc(O)c12
REMARK SMILES IDX 4 1 3 2 2 3 1 4 21 5 19 6 18 7 16 8 15 9 14 10 13 11 5 12
REMARK SMILES IDX 6 13 7 14 8 15 12 16 10 17 9 18 11 20 20 22 17 24
REMARK H PARENT 9 19 11 21 20 23 17 25
REMARK Flexibility Score: inf
ROOT
ATOM      1  C   UNL     1      32.339  65.939   5.485  1.00  0.00     0.138 A 
ATOM      2  C   UNL     1      33.388  65.248   4.862  1.00  0.00     0.100 A 
ATOM      3  C   UNL     1      34.709  65.554   5.194  1.00  0.00     0.197 A 
ATOM      4  O   UNL     1      35.626  64.875   4.665  1.00  0.00    -0.289 OA
ATOM      5  C   UNL     1      34.979  66.580   6.132  1.00  0.00     0.107 A 
ATOM      6  C   UNL     1      36.286  67.005   6.516  1.00  0.00     0.134 A 
ATOM      7  C   UNL     1      36.430  67.950   7.540  1.00  0.00     0.093 A 
ATOM      8  C   UNL     1      35.314  68.528   8.150  1.00  0.00     0.123 A 
ATOM      9  C   UNL     1      34.034  68.159   7.743  1.00  0.00     0.094 A 
ATOM     10  C   UNL     1      33.857  67.194   6.750  1.00  0.00     0.146 A 
ATOM     11  O   UNL     1      32.619  66.859   6.401  1.00  0.00    -0.456 OA
ENDROOT
BRANCH   1  12
ATOM     12  C   UNL     1      30.916  65.654   5.168  1.00  0.00     0.021 A 
ATOM     13  C   UNL     1      30.467  65.516   3.841  1.00  0.00     0.016 A 
ATOM     14  C   UNL     1      29.120  65.259   3.572  1.00  0.00     0.051 A 
ATOM     15  C   UNL     1      28.199  65.141   4.620  1.00  0.00     0.157 A 
ATOM     16  C   UNL     1      29.982  65.547   6.214  1.00  0.00     0.062 A 
ATOM     17  C   UNL     1      28.633  65.288   5.947  1.00  0.00     0.158 A 
BRANCH  15  18
ATOM     18  O   UNL     1      26.857  64.882   4.348  1.00  0.00    -0.504 OA
ATOM     19  H   UNL     1      26.466  65.020   3.423  1.00  0.00     0.293 HD
ENDBRANCH  15  18
BRANCH  17  20
ATOM     20  O   UNL     1      27.741  65.181   7.014  1.00  0.00    -0.504 OA
ATOM     21  H   UNL     1      26.858  64.690   6.929  1.00  0.00     0.293 HD
ENDBRANCH  17  20
ENDBRANCH   1  12
BRANCH   6  22
ATOM     22  O   UNL     1      37.463  66.554   5.913  1.00  0.00    -0.507 OA
ATOM     23  H   UNL     1      37.661  65.592   5.684  1.00  0.00     0.293 HD
ENDBRANCH   6  22
BRANCH   8  24
ATOM     24  O   UNL     1      35.467  69.479   9.157  1.00  0.00    -0.508 OA
ATOM     25  H   UNL     1      34.671  69.851   9.660  1.00  0.00     0.293 HD
ENDBRANCH   8  24
TORSDOF 5
ENDMDL
