MODEL 1
REMARK VINA RESULT:    -3.431      0.000      0.000
REMARK INTER + INTRA:          -7.575
REMARK INTER:                  -5.838
REMARK INTRA:                  -1.737
REMARK UNBOUND:                -1.737
REMARK SMILES CCCCCCCCCCCCCC(=O)[O-]
REMARK SMILES IDX 8 1 9 2 10 3 11 4 12 5 13 6 14 7 15 8 16 9 7 10 6 11 5 12
REMARK SMILES IDX 4 13 3 14 2 15 1 16
REMARK H PARENT
REMARK Flexibility Score: inf
ROOT
ATOM      1  C   UNL     1     -19.720  44.424  -8.551  1.00  0.00     0.000 C 
ENDROOT
BRANCH   1   2
ATOM      2  C   UNL     1     -18.710  44.682  -7.424  1.00  0.00     0.000 C 
BRANCH   2   3
ATOM      3  C   UNL     1     -17.866  43.441  -7.081  1.00  0.00     0.000 C 
BRANCH   3   4
ATOM      4  C   UNL     1     -16.676  43.702  -6.135  1.00  0.00     0.000 C 
BRANCH   4   5
ATOM      5  C   UNL     1     -16.733  42.952  -4.788  1.00  0.00     0.006 C 
BRANCH   5   6
ATOM      6  C   UNL     1     -18.054  42.210  -4.530  1.00  0.00     0.053 C 
BRANCH   6   7
ATOM      7  C   UNL     1     -18.911  42.921  -3.529  1.00  0.00     0.041 C 
ATOM      8  O   UNL     1     -19.465  42.278  -2.599  1.00  0.00    -0.550 OA
ATOM      9  O   UNL     1     -19.072  44.298  -3.604  1.00  0.00    -0.550 OA
ENDBRANCH   6   7
ENDBRANCH   5   6
ENDBRANCH   4   5
ENDBRANCH   3   4
ENDBRANCH   2   3
ENDBRANCH   1   2
BRANCH   1  10
ATOM     10  C   UNL     1     -19.248  43.278  -9.457  1.00  0.00     0.000 C 
BRANCH  10  11
ATOM     11  C   UNL     1     -18.386  43.763 -10.636  1.00  0.00    -0.000 C 
BRANCH  11  12
ATOM     12  C   UNL     1     -16.958  43.181 -10.685  1.00  0.00    -0.000 C 
BRANCH  12  13
ATOM     13  C   UNL     1     -15.841  44.170 -10.310  1.00  0.00    -0.000 C 
BRANCH  13  14
ATOM     14  C   UNL     1     -16.366  45.593 -10.054  1.00  0.00    -0.000 C 
BRANCH  14  15
ATOM     15  C   UNL     1     -15.591  46.316  -8.944  1.00  0.00    -0.003 C 
ATOM     16  C   UNL     1     -14.413  45.498  -8.417  1.00  0.00     0.004 C 
ENDBRANCH  14  15
ENDBRANCH  13  14
ENDBRANCH  12  13
ENDBRANCH  11  12
ENDBRANCH  10  11
ENDBRANCH   1  10
TORSDOF 12
ENDMDL
MODEL 2
REMARK VINA RESULT:    -3.252      2.452      5.431
REMARK INTER + INTRA:          -7.270
REMARK INTER:                  -5.623
REMARK INTRA:                  -1.647
REMARK UNBOUND:                -1.737
REMARK SMILES CCCCCCCCCCCCCC(=O)[O-]
REMARK SMILES IDX 8 1 9 2 10 3 11 4 12 5 13 6 14 7 15 8 16 9 7 10 6 11 5 12
REMARK SMILES IDX 4 13 3 14 2 15 1 16
REMARK H PARENT
REMARK Flexibility Score: inf
ROOT
ATOM      1  C   UNL     1     -19.421  43.469  -9.325  1.00  0.00     0.000 C 
ENDROOT
BRANCH   1   2
ATOM      2  C   UNL     1     -19.433  44.159 -10.696  1.00  0.00     0.000 C 
BRANCH   2   3
ATOM      3  C   UNL     1     -18.044  44.663 -11.125  1.00  0.00     0.000 C 
BRANCH   3   4
ATOM      4  C   UNL     1     -16.858  43.811 -10.628  1.00  0.00     0.000 C 
BRANCH   4   5
ATOM      5  C   UNL     1     -15.728  44.602  -9.937  1.00  0.00     0.006 C 
BRANCH   5   6
ATOM      6  C   UNL     1     -16.145  45.989  -9.424  1.00  0.00     0.053 C 
BRANCH   6   7
ATOM      7  C   UNL     1     -15.301  46.439  -8.272  1.00  0.00     0.041 C 
ATOM      8  O   UNL     1     -14.897  45.605  -7.420  1.00  0.00    -0.550 OA
ATOM      9  O   UNL     1     -14.932  47.773  -8.158  1.00  0.00    -0.550 OA
ENDBRANCH   6   7
ENDBRANCH   5   6
ENDBRANCH   4   5
ENDBRANCH   3   4
ENDBRANCH   2   3
ENDBRANCH   1   2
BRANCH   1  10
ATOM     10  C   UNL     1     -19.833  44.448  -8.216  1.00  0.00     0.000 C 
BRANCH  10  11
ATOM     11  C   UNL     1     -18.726  44.670  -7.171  1.00  0.00    -0.000 C 
BRANCH  11  12
ATOM     12  C   UNL     1     -17.777  43.472  -6.958  1.00  0.00    -0.000 C 
BRANCH  12  13
ATOM     13  C   UNL     1     -17.131  43.395  -5.564  1.00  0.00    -0.000 C 
BRANCH  13  14
ATOM     14  C   UNL     1     -17.566  42.148  -4.776  1.00  0.00    -0.000 C 
BRANCH  14  15
ATOM     15  C   UNL     1     -18.762  42.422  -3.853  1.00  0.00    -0.003 C 
ATOM     16  C   UNL     1     -18.791  43.859  -3.335  1.00  0.00     0.004 C 
ENDBRANCH  14  15
ENDBRANCH  13  14
ENDBRANCH  12  13
ENDBRANCH  11  12
ENDBRANCH  10  11
ENDBRANCH   1  10
TORSDOF 12
ENDMDL
MODEL 3
REMARK VINA RESULT:    -3.215      1.143      3.293
REMARK INTER + INTRA:          -7.207
REMARK INTER:                  -5.925
REMARK INTRA:                  -1.282
REMARK UNBOUND:                -1.737
REMARK SMILES CCCCCCCCCCCCCC(=O)[O-]
REMARK SMILES IDX 8 1 9 2 10 3 11 4 12 5 13 6 14 7 15 8 16 9 7 10 6 11 5 12
REMARK SMILES IDX 4 13 3 14 2 15 1 16
REMARK H PARENT
REMARK Flexibility Score: inf
ROOT
ATOM      1  C   UNL     1     -14.254  45.120  -9.205  1.00  0.00     0.000 C 
ENDROOT
BRANCH   1   2
ATOM      2  C   UNL     1     -15.006  45.278  -7.876  1.00  0.00     0.000 C 
BRANCH   2   3
ATOM      3  C   UNL     1     -16.143  44.256  -7.705  1.00  0.00     0.000 C 
BRANCH   3   4
ATOM      4  C   UNL     1     -16.239  43.613  -6.306  1.00  0.00     0.000 C 
BRANCH   4   5
ATOM      5  C   UNL     1     -17.661  43.210  -5.867  1.00  0.00     0.006 C 
BRANCH   5   6
ATOM      6  C   UNL     1     -17.722  42.450  -4.532  1.00  0.00     0.053 C 
BRANCH   6   7
ATOM      7  C   UNL     1     -18.742  43.031  -3.602  1.00  0.00     0.041 C 
ATOM      8  O   UNL     1     -19.019  44.258  -3.653  1.00  0.00    -0.550 OA
ATOM      9  O   UNL     1     -19.411  42.211  -2.702  1.00  0.00    -0.550 OA
ENDBRANCH   6   7
ENDBRANCH   5   6
ENDBRANCH   4   5
ENDBRANCH   3   4
ENDBRANCH   2   3
ENDBRANCH   1   2
BRANCH   1  10
ATOM     10  C   UNL     1     -15.236  45.051 -10.384  1.00  0.00     0.000 C 
BRANCH  10  11
ATOM     11  C   UNL     1     -15.926  46.397 -10.669  1.00  0.00    -0.000 C 
BRANCH  11  12
ATOM     12  C   UNL     1     -17.444  46.311 -10.931  1.00  0.00    -0.000 C 
BRANCH  12  13
ATOM     13  C   UNL     1     -18.018  44.884 -10.961  1.00  0.00    -0.000 C 
BRANCH  13  14
ATOM     14  C   UNL     1     -19.420  44.794 -10.335  1.00  0.00    -0.000 C 
BRANCH  14  15
ATOM     15  C   UNL     1     -19.518  43.696  -9.265  1.00  0.00    -0.003 C 
ATOM     16  C   UNL     1     -18.775  42.420  -9.659  1.00  0.00     0.004 C 
ENDBRANCH  14  15
ENDBRANCH  13  14
ENDBRANCH  12  13
ENDBRANCH  11  12
ENDBRANCH  10  11
ENDBRANCH   1  10
TORSDOF 12
ENDMDL
MODEL 4
REMARK VINA RESULT:    -3.120      2.872      5.718
REMARK INTER + INTRA:          -7.045
REMARK INTER:                  -5.469
REMARK INTRA:                  -1.576
REMARK UNBOUND:                -1.737
REMARK SMILES CCCCCCCCCCCCCC(=O)[O-]
REMARK SMILES IDX 8 1 9 2 10 3 11 4 12 5 13 6 14 7 15 8 16 9 7 10 6 11 5 12
REMARK SMILES IDX 4 13 3 14 2 15 1 16
REMARK H PARENT
REMARK Flexibility Score: inf
ROOT
ATOM      1  C   UNL     1     -19.200  43.660  -9.162  1.00  0.00     0.000 C 
ENDROOT
BRANCH   1   2
ATOM      2  C   UNL     1     -18.419  44.050 -10.424  1.00  0.00     0.000 C 
BRANCH   2   3
ATOM      3  C   UNL     1     -17.055  43.345 -10.525  1.00  0.00     0.000 C 
BRANCH   3   4
ATOM      4  C   UNL     1     -15.887  44.081  -9.837  1.00  0.00     0.000 C 
BRANCH   4   5
ATOM      5  C   UNL     1     -16.035  45.614  -9.754  1.00  0.00     0.006 C 
BRANCH   5   6
ATOM      6  C   UNL     1     -15.794  46.201  -8.355  1.00  0.00     0.053 C 
BRANCH   6   7
ATOM      7  C   UNL     1     -14.999  47.469  -8.407  1.00  0.00     0.041 C 
ATOM      8  O   UNL     1     -14.510  47.865  -9.497  1.00  0.00    -0.550 OA
ATOM      9  O   UNL     1     -14.826  48.230  -7.258  1.00  0.00    -0.550 OA
ENDBRANCH   6   7
ENDBRANCH   5   6
ENDBRANCH   4   5
ENDBRANCH   3   4
ENDBRANCH   2   3
ENDBRANCH   1   2
BRANCH   1  10
ATOM     10  C   UNL     1     -19.297  44.846  -8.191  1.00  0.00     0.000 C 
BRANCH  10  11
ATOM     11  C   UNL     1     -18.778  44.510  -6.781  1.00  0.00    -0.000 C 
BRANCH  11  12
ATOM     12  C   UNL     1     -17.792  43.326  -6.712  1.00  0.00    -0.000 C 
BRANCH  12  13
ATOM     13  C   UNL     1     -16.677  43.471  -5.662  1.00  0.00    -0.000 C 
BRANCH  13  14
ATOM     14  C   UNL     1     -17.194  43.323  -4.221  1.00  0.00    -0.000 C 
BRANCH  14  15
ATOM     15  C   UNL     1     -18.184  42.159  -4.067  1.00  0.00    -0.003 C 
ATOM     16  C   UNL     1     -19.371  42.509  -3.171  1.00  0.00     0.004 C 
ENDBRANCH  14  15
ENDBRANCH  13  14
ENDBRANCH  12  13
ENDBRANCH  11  12
ENDBRANCH  10  11
ENDBRANCH   1  10
TORSDOF 12
ENDMDL
MODEL 5
REMARK VINA RESULT:    -3.112      2.575      5.985
REMARK INTER + INTRA:          -7.032
REMARK INTER:                  -5.846
REMARK INTRA:                  -1.186
REMARK UNBOUND:                -1.737
REMARK SMILES CCCCCCCCCCCCCC(=O)[O-]
REMARK SMILES IDX 8 1 9 2 10 3 11 4 12 5 13 6 14 7 15 8 16 9 7 10 6 11 5 12
REMARK SMILES IDX 4 13 3 14 2 15 1 16
REMARK H PARENT
REMARK Flexibility Score: inf
ROOT
ATOM      1  C   UNL     1     -14.984  44.640  -8.340  1.00  0.00     0.000 C 
ENDROOT
BRANCH   1   2
ATOM      2  C   UNL     1     -15.587  45.952  -8.860  1.00  0.00     0.000 C 
BRANCH   2   3
ATOM      3  C   UNL     1     -16.012  45.873 -10.336  1.00  0.00     0.000 C 
BRANCH   3   4
ATOM      4  C   UNL     1     -15.734  44.521 -11.024  1.00  0.00     0.000 C 
BRANCH   4   5
ATOM      5  C   UNL     1     -16.948  43.575 -11.125  1.00  0.00     0.006 C 
BRANCH   5   6
ATOM      6  C   UNL     1     -18.302  44.248 -10.849  1.00  0.00     0.053 C 
BRANCH   6   7
ATOM      7  C   UNL     1     -19.340  43.262 -10.411  1.00  0.00     0.041 C 
ATOM      8  O   UNL     1     -20.508  43.325 -10.878  1.00  0.00    -0.550 OA
ATOM      9  O   UNL     1     -19.011  42.255  -9.514  1.00  0.00    -0.550 OA
ENDBRANCH   6   7
ENDBRANCH   5   6
ENDBRANCH   4   5
ENDBRANCH   3   4
ENDBRANCH   2   3
ENDBRANCH   1   2
BRANCH   1  10
ATOM     10  C   UNL     1     -15.660  44.208  -7.030  1.00  0.00     0.000 C 
BRANCH  10  11
ATOM     11  C   UNL     1     -17.183  44.033  -7.171  1.00  0.00    -0.000 C 
BRANCH  11  12
ATOM     12  C   UNL     1     -17.836  43.117  -6.116  1.00  0.00    -0.000 C 
BRANCH  12  13
ATOM     13  C   UNL     1     -16.885  42.612  -5.017  1.00  0.00    -0.000 C 
BRANCH  13  14
ATOM     14  C   UNL     1     -17.262  43.130  -3.619  1.00  0.00    -0.000 C 
BRANCH  14  15
ATOM     15  C   UNL     1     -18.748  43.501  -3.509  1.00  0.00    -0.003 C 
ATOM     16  C   UNL     1     -19.578  42.414  -2.826  1.00  0.00     0.004 C 
ENDBRANCH  14  15
ENDBRANCH  13  14
ENDBRANCH  12  13
ENDBRANCH  11  12
ENDBRANCH  10  11
ENDBRANCH   1  10
TORSDOF 12
ENDMDL
MODEL 6
REMARK VINA RESULT:    -3.062      2.858      5.607
REMARK INTER + INTRA:          -6.948
REMARK INTER:                  -5.642
REMARK INTRA:                  -1.306
REMARK UNBOUND:                -1.737
REMARK SMILES CCCCCCCCCCCCCC(=O)[O-]
REMARK SMILES IDX 8 1 9 2 10 3 11 4 12 5 13 6 14 7 15 8 16 9 7 10 6 11 5 12
REMARK SMILES IDX 4 13 3 14 2 15 1 16
REMARK H PARENT
REMARK Flexibility Score: inf
ROOT
ATOM      1  C   UNL     1     -18.883  44.428 -10.087  1.00  0.00     0.000 C 
ENDROOT
BRANCH   1   2
ATOM      2  C   UNL     1     -17.521  45.132 -10.032  1.00  0.00     0.000 C 
BRANCH   2   3
ATOM      3  C   UNL     1     -16.347  44.151  -9.859  1.00  0.00     0.000 C 
BRANCH   3   4
ATOM      4  C   UNL     1     -15.348  44.519  -8.742  1.00  0.00     0.000 C 
BRANCH   4   5
ATOM      5  C   UNL     1     -15.548  45.915  -8.118  1.00  0.00     0.006 C 
BRANCH   5   6
ATOM      6  C   UNL     1     -14.242  46.669  -7.819  1.00  0.00     0.053 C 
BRANCH   6   7
ATOM      7  C   UNL     1     -14.498  48.054  -7.309  1.00  0.00     0.041 C 
ATOM      8  O   UNL     1     -14.859  48.963  -8.101  1.00  0.00    -0.550 OA
ATOM      9  O   UNL     1     -14.369  48.332  -5.955  1.00  0.00    -0.550 OA
ENDBRANCH   6   7
ENDBRANCH   5   6
ENDBRANCH   4   5
ENDBRANCH   3   4
ENDBRANCH   2   3
ENDBRANCH   1   2
BRANCH   1  10
ATOM     10  C   UNL     1     -19.270  43.875  -8.708  1.00  0.00     0.000 C 
BRANCH  10  11
ATOM     11  C   UNL     1     -19.097  44.906  -7.579  1.00  0.00    -0.000 C 
BRANCH  11  12
ATOM     12  C   UNL     1     -18.849  44.308  -6.179  1.00  0.00    -0.000 C 
BRANCH  12  13
ATOM     13  C   UNL     1     -17.641  43.359  -6.083  1.00  0.00    -0.000 C 
BRANCH  13  14
ATOM     14  C   UNL     1     -17.497  42.718  -4.692  1.00  0.00    -0.000 C 
BRANCH  14  15
ATOM     15  C   UNL     1     -18.383  43.397  -3.637  1.00  0.00    -0.003 C 
ATOM     16  C   UNL     1     -19.413  42.445  -3.031  1.00  0.00     0.004 C 
ENDBRANCH  14  15
ENDBRANCH  13  14
ENDBRANCH  12  13
ENDBRANCH  11  12
ENDBRANCH  10  11
ENDBRANCH   1  10
TORSDOF 12
ENDMDL
MODEL 7
REMARK VINA RESULT:    -2.989      2.823      5.574
REMARK INTER + INTRA:          -6.824
REMARK INTER:                  -5.556
REMARK INTRA:                  -1.268
REMARK UNBOUND:                -1.737
REMARK SMILES CCCCCCCCCCCCCC(=O)[O-]
REMARK SMILES IDX 8 1 9 2 10 3 11 4 12 5 13 6 14 7 15 8 16 9 7 10 6 11 5 12
REMARK SMILES IDX 4 13 3 14 2 15 1 16
REMARK H PARENT
REMARK Flexibility Score: inf
ROOT
ATOM      1  C   UNL     1     -17.591  43.100 -10.254  1.00  0.00     0.000 C 
ENDROOT
BRANCH   1   2
ATOM      2  C   UNL     1     -17.634  44.501 -10.878  1.00  0.00     0.000 C 
BRANCH   2   3
ATOM      3  C   UNL     1     -16.371  45.329 -10.581  1.00  0.00     0.000 C 
BRANCH   3   4
ATOM      4  C   UNL     1     -15.503  44.802  -9.419  1.00  0.00     0.000 C 
BRANCH   4   5
ATOM      5  C   UNL     1     -15.293  45.793  -8.257  1.00  0.00     0.006 C 
BRANCH   5   6
ATOM      6  C   UNL     1     -15.037  47.243  -8.697  1.00  0.00     0.053 C 
BRANCH   6   7
ATOM      7  C   UNL     1     -14.691  48.128  -7.540  1.00  0.00     0.041 C 
ATOM      8  O   UNL     1     -14.161  47.641  -6.507  1.00  0.00    -0.550 OA
ATOM      9  O   UNL     1     -14.923  49.495  -7.615  1.00  0.00    -0.550 OA
ENDBRANCH   6   7
ENDBRANCH   5   6
ENDBRANCH   4   5
ENDBRANCH   3   4
ENDBRANCH   2   3
ENDBRANCH   1   2
BRANCH   1  10
ATOM     10  C   UNL     1     -18.776  42.887  -9.302  1.00  0.00     0.000 C 
BRANCH  10  11
ATOM     11  C   UNL     1     -19.368  44.208  -8.778  1.00  0.00    -0.000 C 
BRANCH  11  12
ATOM     12  C   UNL     1     -18.856  44.649  -7.391  1.00  0.00    -0.000 C 
BRANCH  12  13
ATOM     13  C   UNL     1     -18.040  43.589  -6.633  1.00  0.00    -0.000 C 
BRANCH  13  14
ATOM     14  C   UNL     1     -18.215  43.681  -5.107  1.00  0.00    -0.000 C 
BRANCH  14  15
ATOM     15  C   UNL     1     -18.295  42.301  -4.439  1.00  0.00    -0.003 C 
ATOM     16  C   UNL     1     -19.192  42.295  -3.202  1.00  0.00     0.004 C 
ENDBRANCH  14  15
ENDBRANCH  13  14
ENDBRANCH  12  13
ENDBRANCH  11  12
ENDBRANCH  10  11
ENDBRANCH   1  10
TORSDOF 12
ENDMDL
MODEL 8
REMARK VINA RESULT:    -2.922      1.255      2.291
REMARK INTER + INTRA:          -6.709
REMARK INTER:                  -5.240
REMARK INTRA:                  -1.470
REMARK UNBOUND:                -1.737
REMARK SMILES CCCCCCCCCCCCCC(=O)[O-]
REMARK SMILES IDX 8 1 9 2 10 3 11 4 12 5 13 6 14 7 15 8 16 9 7 10 6 11 5 12
REMARK SMILES IDX 4 13 3 14 2 15 1 16
REMARK H PARENT
REMARK Flexibility Score: inf
ROOT
ATOM      1  C   UNL     1     -18.077  43.247 -10.507  1.00  0.00     0.000 C 
ENDROOT
BRANCH   1   2
ATOM      2  C   UNL     1     -18.909  42.943  -9.253  1.00  0.00     0.000 C 
BRANCH   2   3
ATOM      3  C   UNL     1     -19.475  44.210  -8.587  1.00  0.00     0.000 C 
BRANCH   3   4
ATOM      4  C   UNL     1     -18.769  44.632  -7.283  1.00  0.00     0.000 C 
BRANCH   4   5
ATOM      5  C   UNL     1     -17.659  43.677  -6.799  1.00  0.00     0.006 C 
BRANCH   5   6
ATOM      6  C   UNL     1     -18.078  42.745  -5.652  1.00  0.00     0.053 C 
BRANCH   6   7
ATOM      7  C   UNL     1     -17.915  43.393  -4.312  1.00  0.00     0.041 C 
ATOM      8  O   UNL     1     -18.872  44.027  -3.795  1.00  0.00    -0.550 OA
ATOM      9  O   UNL     1     -16.717  43.271  -3.621  1.00  0.00    -0.550 OA
ENDBRANCH   6   7
ENDBRANCH   5   6
ENDBRANCH   4   5
ENDBRANCH   3   4
ENDBRANCH   2   3
ENDBRANCH   1   2
BRANCH   1  10
ATOM     10  C   UNL     1     -18.096  44.750 -10.824  1.00  0.00     0.000 C 
BRANCH  10  11
ATOM     11  C   UNL     1     -16.764  45.448 -10.498  1.00  0.00    -0.000 C 
BRANCH  11  12
ATOM     12  C   UNL     1     -15.641  44.515 -10.001  1.00  0.00    -0.000 C 
BRANCH  12  13
ATOM     13  C   UNL     1     -14.777  45.088  -8.864  1.00  0.00    -0.000 C 
BRANCH  13  14
ATOM     14  C   UNL     1     -15.432  46.292  -8.167  1.00  0.00    -0.000 C 
BRANCH  14  15
ATOM     15  C   UNL     1     -14.653  47.597  -8.390  1.00  0.00    -0.003 C 
ATOM     16  C   UNL     1     -14.703  48.528  -7.179  1.00  0.00     0.004 C 
ENDBRANCH  14  15
ENDBRANCH  13  14
ENDBRANCH  12  13
ENDBRANCH  11  12
ENDBRANCH  10  11
ENDBRANCH   1  10
TORSDOF 12
ENDMDL
MODEL 9
REMARK VINA RESULT:    -2.912      3.935      7.119
REMARK INTER + INTRA:          -6.692
REMARK INTER:                  -5.949
REMARK INTRA:                  -0.743
REMARK UNBOUND:                -1.737
REMARK SMILES CCCCCCCCCCCCCC(=O)[O-]
REMARK SMILES IDX 8 1 9 2 10 3 11 4 12 5 13 6 14 7 15 8 16 9 7 10 6 11 5 12
REMARK SMILES IDX 4 13 3 14 2 15 1 16
REMARK H PARENT
REMARK Flexibility Score: inf
ROOT
ATOM      1  C   UNL     1     -15.948  45.643  -8.529  1.00  0.00     0.000 C 
ENDROOT
BRANCH   1   2
ATOM      2  C   UNL     1     -16.839  45.888  -9.754  1.00  0.00     0.000 C 
BRANCH   2   3
ATOM      3  C   UNL     1     -16.129  46.685 -10.862  1.00  0.00     0.000 C 
BRANCH   3   4
ATOM      4  C   UNL     1     -14.779  47.309 -10.454  1.00  0.00     0.000 C 
BRANCH   4   5
ATOM      5  C   UNL     1     -14.796  48.838 -10.256  1.00  0.00     0.006 C 
BRANCH   5   6
ATOM      6  C   UNL     1     -14.723  49.290  -8.789  1.00  0.00     0.053 C 
BRANCH   6   7
ATOM      7  C   UNL     1     -14.659  50.780  -8.662  1.00  0.00     0.041 C 
ATOM      8  O   UNL     1     -14.041  51.463  -9.521  1.00  0.00    -0.550 OA
ATOM      9  O   UNL     1     -15.310  51.419  -7.615  1.00  0.00    -0.550 OA
ENDBRANCH   6   7
ENDBRANCH   5   6
ENDBRANCH   4   5
ENDBRANCH   3   4
ENDBRANCH   2   3
ENDBRANCH   1   2
BRANCH   1  10
ATOM     10  C   UNL     1     -16.227  44.264  -7.915  1.00  0.00     0.000 C 
BRANCH  10  11
ATOM     11  C   UNL     1     -17.724  44.013  -7.659  1.00  0.00    -0.000 C 
BRANCH  11  12
ATOM     12  C   UNL     1     -18.068  43.490  -6.250  1.00  0.00    -0.000 C 
BRANCH  12  13
ATOM     13  C   UNL     1     -16.854  43.202  -5.350  1.00  0.00    -0.000 C 
BRANCH  13  14
ATOM     14  C   UNL     1     -17.213  43.186  -3.854  1.00  0.00    -0.000 C 
BRANCH  14  15
ATOM     15  C   UNL     1     -18.681  43.557  -3.597  1.00  0.00    -0.003 C 
ATOM     16  C   UNL     1     -19.465  42.430  -2.926  1.00  0.00     0.004 C 
ENDBRANCH  14  15
ENDBRANCH  13  14
ENDBRANCH  12  13
ENDBRANCH  11  12
ENDBRANCH  10  11
ENDBRANCH   1  10
TORSDOF 12
ENDMDL
