MODEL 1
REMARK VINA RESULT:    -6.761      0.000      0.000
REMARK INTER + INTRA:         -11.950
REMARK INTER:                  -9.923
REMARK INTRA:                  -2.027
REMARK UNBOUND:                -2.027
REMARK SMILES O=c1c(O[C@H]2O[C@H](CO)[C@H](O)[C@H](O)[C@H]2O)c(-c2ccc(O)c(O)c2)oc2cc(O)cc(O)c12
REMARK SMILES IDX 4 1 3 2 16 3 25 4 2 5 26 6 1 7 33 8 27 9 31 10 28 11 30 12
REMARK SMILES IDX 17 13 18 14 19 15 20 16 24 17 22 18 21 19 23 21 32 23 29 25
REMARK SMILES IDX 5 27 14 28 6 29 12 30 7 31 10 32 15 33 13 35 8 37 9 38 11 40
REMARK H PARENT 21 20 23 22 32 24 29 26 15 34 13 36 9 39 11 41
REMARK Flexibility Score: inf
ROOT
ATOM      1  O   UNL     1     169.297 166.574 185.732  1.00  0.00    -0.454 OA
ENDROOT
BRANCH   1   2
ATOM      2  C   UNL     1     168.887 167.369 186.822  1.00  0.00     0.214 A 
ATOM      3  C   UNL     1     169.851 168.196 187.437  1.00  0.00     0.180 A 
ATOM      4  O   UNL     1     169.528 168.927 188.498  1.00  0.00    -0.452 OA
ATOM      5  C   UNL     1     167.576 167.364 187.354  1.00  0.00     0.239 A 
ATOM      6  C   UNL     1     168.312 168.953 189.024  1.00  0.00     0.146 A 
ATOM      7  O   UNL     1     166.684 166.635 186.845  1.00  0.00    -0.285 OA
ATOM      8  C   UNL     1     167.272 168.173 188.470  1.00  0.00     0.111 A 
ATOM      9  C   UNL     1     168.071 169.764 190.137  1.00  0.00     0.094 A 
ATOM     10  C   UNL     1     165.983 168.231 189.057  1.00  0.00     0.134 A 
ATOM     11  C   UNL     1     166.798 169.816 190.711  1.00  0.00     0.123 A 
ATOM     12  C   UNL     1     165.761 169.053 190.171  1.00  0.00     0.093 A 
BRANCH   3  13
ATOM     13  C   UNL     1     171.246 168.260 186.949  1.00  0.00     0.025 A 
ATOM     14  C   UNL     1     171.641 169.320 186.119  1.00  0.00     0.016 A 
ATOM     15  C   UNL     1     172.953 169.396 185.645  1.00  0.00     0.051 A 
ATOM     16  C   UNL     1     173.885 168.409 185.981  1.00  0.00     0.157 A 
ATOM     17  C   UNL     1     172.176 167.254 187.263  1.00  0.00     0.062 A 
ATOM     18  C   UNL     1     173.494 167.329 186.792  1.00  0.00     0.158 A 
BRANCH  16  19
ATOM     19  O   UNL     1     175.189 168.514 185.498  1.00  0.00    -0.504 OA
ATOM     20  H   UNL     1     175.996 168.355 186.089  1.00  0.00     0.293 HD
ENDBRANCH  16  19
BRANCH  18  21
ATOM     21  O   UNL     1     174.413 166.335 187.123  1.00  0.00    -0.504 OA
ATOM     22  H   UNL     1     175.398 166.427 186.904  1.00  0.00     0.293 HD
ENDBRANCH  18  21
ENDBRANCH   3  13
BRANCH  10  23
ATOM     23  O   UNL     1     164.924 167.481 188.542  1.00  0.00    -0.507 OA
ATOM     24  H   UNL     1     163.965 167.803 188.600  1.00  0.00     0.293 HD
ENDBRANCH  10  23
BRANCH  11  25
ATOM     25  O   UNL     1     166.552 170.623 191.820  1.00  0.00    -0.508 OA
ATOM     26  H   UNL     1     167.261 170.785 192.526  1.00  0.00     0.293 HD
ENDBRANCH  11  25
ENDBRANCH   1   2
BRANCH   1  27
ATOM     27  C   UNL     1     169.050 166.805 184.340  1.00  0.00     0.339 C 
ATOM     28  C   UNL     1     168.405 165.560 183.701  1.00  0.00     0.214 C 
ATOM     29  O   UNL     1     170.234 167.180 183.650  1.00  0.00    -0.332 OA
ATOM     30  C   UNL     1     169.419 164.400 183.631  1.00  0.00     0.180 C 
ATOM     31  C   UNL     1     171.226 166.169 183.728  1.00  0.00     0.179 C 
ATOM     32  C   UNL     1     170.754 164.873 183.024  1.00  0.00     0.177 C 
BRANCH  28  33
ATOM     33  O   UNL     1     167.286 165.179 184.461  1.00  0.00    -0.384 OA
ATOM     34  H   UNL     1     166.792 166.009 184.685  1.00  0.00     0.211 HD
ENDBRANCH  28  33
BRANCH  30  35
ATOM     35  O   UNL     1     168.902 163.346 182.858  1.00  0.00    -0.387 OA
ATOM     36  H   UNL     1     169.667 162.943 182.370  1.00  0.00     0.211 HD
ENDBRANCH  30  35
BRANCH  31  37
ATOM     37  C   UNL     1     172.527 166.697 183.107  1.00  0.00     0.191 C 
BRANCH  37  38
ATOM     38  O   UNL     1     172.265 167.303 181.869  1.00  0.00    -0.394 OA
ATOM     39  H   UNL     1     172.613 166.689 181.171  1.00  0.00     0.210 HD
ENDBRANCH  37  38
ENDBRANCH  31  37
BRANCH  32  40
ATOM     40  O   UNL     1     170.651 165.036 181.628  1.00  0.00    -0.387 OA
ATOM     41  H   UNL     1     170.042 164.336 181.279  1.00  0.00     0.211 HD
ENDBRANCH  32  40
ENDBRANCH   1  27
TORSDOF 12
ENDMDL
MODEL 2
REMARK VINA RESULT:    -6.350      7.834     13.192
REMARK INTER + INTRA:         -11.347
REMARK INTER:                  -9.907
REMARK INTRA:                  -1.440
REMARK UNBOUND:                -2.027
REMARK SMILES O=c1c(O[C@H]2O[C@H](CO)[C@H](O)[C@H](O)[C@H]2O)c(-c2ccc(O)c(O)c2)oc2cc(O)cc(O)c12
REMARK SMILES IDX 4 1 3 2 16 3 25 4 2 5 26 6 1 7 33 8 27 9 31 10 28 11 30 12
REMARK SMILES IDX 17 13 18 14 19 15 20 16 24 17 22 18 21 19 23 21 32 23 29 25
REMARK SMILES IDX 5 27 14 28 6 29 12 30 7 31 10 32 15 33 13 35 8 37 9 38 11 40
REMARK H PARENT 21 20 23 22 32 24 29 26 15 34 13 36 9 39 11 41
REMARK Flexibility Score: inf
ROOT
ATOM      1  O   UNL     1     164.765 176.969 190.814  1.00  0.00    -0.454 OA
ENDROOT
BRANCH   1   2
ATOM      2  C   UNL     1     165.814 176.032 190.901  1.00  0.00     0.214 A 
ATOM      3  C   UNL     1     165.980 175.334 192.116  1.00  0.00     0.180 A 
ATOM      4  O   UNL     1     166.983 174.477 192.266  1.00  0.00    -0.452 OA
ATOM      5  C   UNL     1     166.729 175.772 189.853  1.00  0.00     0.239 A 
ATOM      6  C   UNL     1     167.859 174.203 191.309  1.00  0.00     0.146 A 
ATOM      7  O   UNL     1     166.628 176.377 188.753  1.00  0.00    -0.285 OA
ATOM      8  C   UNL     1     167.768 174.837 190.049  1.00  0.00     0.111 A 
ATOM      9  C   UNL     1     168.875 173.278 191.563  1.00  0.00     0.094 A 
ATOM     10  C   UNL     1     168.720 174.515 189.049  1.00  0.00     0.134 A 
ATOM     11  C   UNL     1     169.810 172.965 190.573  1.00  0.00     0.123 A 
ATOM     12  C   UNL     1     169.730 173.581 189.323  1.00  0.00     0.093 A 
BRANCH   3  13
ATOM     13  C   UNL     1     165.072 175.547 193.264  1.00  0.00     0.025 A 
ATOM     14  C   UNL     1     165.495 176.336 194.345  1.00  0.00     0.016 A 
ATOM     15  C   UNL     1     164.654 176.544 195.440  1.00  0.00     0.051 A 
ATOM     16  C   UNL     1     163.385 175.958 195.479  1.00  0.00     0.157 A 
ATOM     17  C   UNL     1     163.808 174.935 193.317  1.00  0.00     0.062 A 
ATOM     18  C   UNL     1     162.960 175.145 194.414  1.00  0.00     0.158 A 
BRANCH  16  19
ATOM     19  O   UNL     1     162.564 176.188 196.583  1.00  0.00    -0.504 OA
ATOM     20  H   UNL     1     161.603 175.870 196.614  1.00  0.00     0.293 HD
ENDBRANCH  16  19
BRANCH  18  21
ATOM     21  O   UNL     1     161.701 174.547 194.449  1.00  0.00    -0.504 OA
ATOM     22  H   UNL     1     161.587 173.544 194.367  1.00  0.00     0.293 HD
ENDBRANCH  18  21
ENDBRANCH   3  13
BRANCH  10  23
ATOM     23  O   UNL     1     168.668 175.112 187.788  1.00  0.00    -0.507 OA
ATOM     24  H   UNL     1     167.808 175.156 187.254  1.00  0.00     0.293 HD
ENDBRANCH  10  23
BRANCH  11  25
ATOM     25  O   UNL     1     170.824 172.042 190.820  1.00  0.00    -0.508 OA
ATOM     26  H   UNL     1     171.615 172.270 191.412  1.00  0.00     0.293 HD
ENDBRANCH  11  25
ENDBRANCH   1   2
BRANCH   1  27
ATOM     27  C   UNL     1     163.914 177.227 189.690  1.00  0.00     0.339 C 
ATOM     28  C   UNL     1     164.043 178.698 189.252  1.00  0.00     0.214 C 
ATOM     29  O   UNL     1     162.561 176.890 189.966  1.00  0.00    -0.332 OA
ATOM     30  C   UNL     1     163.424 179.635 190.310  1.00  0.00     0.180 C 
ATOM     31  C   UNL     1     162.046 177.645 191.051  1.00  0.00     0.179 C 
ATOM     32  C   UNL     1     162.016 179.155 190.711  1.00  0.00     0.177 C 
BRANCH  28  33
ATOM     33  O   UNL     1     165.401 179.008 189.069  1.00  0.00    -0.384 OA
ATOM     34  H   UNL     1     165.865 178.786 189.917  1.00  0.00     0.211 HD
ENDBRANCH  28  33
BRANCH  30  35
ATOM     35  O   UNL     1     163.347 180.948 189.815  1.00  0.00    -0.387 OA
ATOM     36  H   UNL     1     162.861 180.904 188.951  1.00  0.00     0.211 HD
ENDBRANCH  30  35
BRANCH  31  37
ATOM     37  C   UNL     1     160.645 177.124 191.401  1.00  0.00     0.191 C 
BRANCH  37  38
ATOM     38  O   UNL     1     159.950 176.774 190.234  1.00  0.00    -0.394 OA
ATOM     39  H   UNL     1     159.115 176.322 190.524  1.00  0.00     0.210 HD
ENDBRANCH  37  38
ENDBRANCH  31  37
BRANCH  32  40
ATOM     40  O   UNL     1     161.070 179.453 189.710  1.00  0.00    -0.387 OA
ATOM     41  H   UNL     1     160.763 180.387 189.842  1.00  0.00     0.211 HD
ENDBRANCH  32  40
ENDBRANCH   1  27
TORSDOF 12
ENDMDL
MODEL 3
REMARK VINA RESULT:    -6.242      7.035     10.672
REMARK INTER + INTRA:         -11.189
REMARK INTER:                 -10.453
REMARK INTRA:                  -0.735
REMARK UNBOUND:                -2.027
REMARK SMILES O=c1c(O[C@H]2O[C@H](CO)[C@H](O)[C@H](O)[C@H]2O)c(-c2ccc(O)c(O)c2)oc2cc(O)cc(O)c12
REMARK SMILES IDX 4 1 3 2 16 3 25 4 2 5 26 6 1 7 33 8 27 9 31 10 28 11 30 12
REMARK SMILES IDX 17 13 18 14 19 15 20 16 24 17 22 18 21 19 23 21 32 23 29 25
REMARK SMILES IDX 5 27 14 28 6 29 12 30 7 31 10 32 15 33 13 35 8 37 9 38 11 40
REMARK H PARENT 21 20 23 22 32 24 29 26 15 34 13 36 9 39 11 41
REMARK Flexibility Score: inf
ROOT
ATOM      1  O   UNL     1     165.329 173.527 190.767  1.00  0.00    -0.454 OA
ENDROOT
BRANCH   1   2
ATOM      2  C   UNL     1     164.586 174.721 190.655  1.00  0.00     0.214 A 
ATOM      3  C   UNL     1     164.398 175.494 191.820  1.00  0.00     0.180 A 
ATOM      4  O   UNL     1     163.665 176.601 191.779  1.00  0.00    -0.452 OA
ATOM      5  C   UNL     1     163.993 175.171 189.452  1.00  0.00     0.239 A 
ATOM      6  C   UNL     1     163.096 177.059 190.672  1.00  0.00     0.146 A 
ATOM      7  O   UNL     1     164.125 174.510 188.389  1.00  0.00    -0.285 OA
ATOM      8  C   UNL     1     163.239 176.365 189.450  1.00  0.00     0.111 A 
ATOM      9  C   UNL     1     162.350 178.240 190.732  1.00  0.00     0.094 A 
ATOM     10  C   UNL     1     162.620 176.888 188.287  1.00  0.00     0.134 A 
ATOM     11  C   UNL     1     161.743 178.751 189.581  1.00  0.00     0.123 A 
ATOM     12  C   UNL     1     161.879 178.076 188.366  1.00  0.00     0.093 A 
BRANCH   3  13
ATOM     13  C   UNL     1     164.979 175.096 193.120  1.00  0.00     0.025 A 
ATOM     14  C   UNL     1     164.192 175.164 194.280  1.00  0.00     0.016 A 
ATOM     15  C   UNL     1     164.724 174.796 195.518  1.00  0.00     0.051 A 
ATOM     16  C   UNL     1     166.051 174.368 195.619  1.00  0.00     0.157 A 
ATOM     17  C   UNL     1     166.321 174.692 193.227  1.00  0.00     0.062 A 
ATOM     18  C   UNL     1     166.857 174.319 194.468  1.00  0.00     0.158 A 
BRANCH  16  19
ATOM     19  O   UNL     1     166.554 174.001 196.867  1.00  0.00    -0.504 OA
ATOM     20  H   UNL     1     165.948 173.804 197.654  1.00  0.00     0.293 HD
ENDBRANCH  16  19
BRANCH  18  21
ATOM     21  O   UNL     1     168.184 173.904 194.560  1.00  0.00    -0.504 OA
ATOM     22  H   UNL     1     168.531 173.410 195.374  1.00  0.00     0.293 HD
ENDBRANCH  18  21
ENDBRANCH   3  13
BRANCH  10  23
ATOM     23  O   UNL     1     162.737 176.240 187.056  1.00  0.00    -0.507 OA
ATOM     24  H   UNL     1     162.156 175.446 186.814  1.00  0.00     0.293 HD
ENDBRANCH  10  23
BRANCH  11  25
ATOM     25  O   UNL     1     160.999 179.928 189.634  1.00  0.00    -0.508 OA
ATOM     26  H   UNL     1     160.034 179.932 189.945  1.00  0.00     0.293 HD
ENDBRANCH  11  25
ENDBRANCH   1   2
BRANCH   1  27
ATOM     27  C   UNL     1     166.025 172.830 189.726  1.00  0.00     0.339 C 
ATOM     28  C   UNL     1     165.812 171.311 189.868  1.00  0.00     0.214 C 
ATOM     29  O   UNL     1     167.408 173.155 189.709  1.00  0.00    -0.332 OA
ATOM     30  C   UNL     1     166.540 170.777 191.119  1.00  0.00     0.180 C 
ATOM     31  C   UNL     1     168.041 172.807 190.930  1.00  0.00     0.179 C 
ATOM     32  C   UNL     1     167.998 171.276 191.160  1.00  0.00     0.177 C 
BRANCH  28  33
ATOM     33  O   UNL     1     164.435 171.045 189.961  1.00  0.00    -0.384 OA
ATOM     34  H   UNL     1     164.017 171.832 190.399  1.00  0.00     0.211 HD
ENDBRANCH  28  33
BRANCH  30  35
ATOM     35  O   UNL     1     166.527 169.372 191.128  1.00  0.00    -0.387 OA
ATOM     36  H   UNL     1     167.323 169.078 191.644  1.00  0.00     0.211 HD
ENDBRANCH  30  35
BRANCH  31  37
ATOM     37  C   UNL     1     169.485 173.326 190.910  1.00  0.00     0.191 C 
BRANCH  37  38
ATOM     38  O   UNL     1     169.952 173.518 192.219  1.00  0.00    -0.394 OA
ATOM     39  H   UNL     1     170.733 172.917 192.335  1.00  0.00     0.210 HD
ENDBRANCH  37  38
ENDBRANCH  31  37
BRANCH  32  40
ATOM     40  O   UNL     1     168.803 170.580 190.237  1.00  0.00    -0.387 OA
ATOM     41  H   UNL     1     169.113 169.742 190.667  1.00  0.00     0.211 HD
ENDBRANCH  32  40
ENDBRANCH   1  27
TORSDOF 12
ENDMDL
MODEL 4
REMARK VINA RESULT:    -6.235      5.644     12.057
REMARK INTER + INTRA:         -11.179
REMARK INTER:                  -9.488
REMARK INTRA:                  -1.691
REMARK UNBOUND:                -2.027
REMARK SMILES O=c1c(O[C@H]2O[C@H](CO)[C@H](O)[C@H](O)[C@H]2O)c(-c2ccc(O)c(O)c2)oc2cc(O)cc(O)c12
REMARK SMILES IDX 4 1 3 2 16 3 25 4 2 5 26 6 1 7 33 8 27 9 31 10 28 11 30 12
REMARK SMILES IDX 17 13 18 14 19 15 20 16 24 17 22 18 21 19 23 21 32 23 29 25
REMARK SMILES IDX 5 27 14 28 6 29 12 30 7 31 10 32 15 33 13 35 8 37 9 38 11 40
REMARK H PARENT 21 20 23 22 32 24 29 26 15 34 13 36 9 39 11 41
REMARK Flexibility Score: inf
ROOT
ATOM      1  O   UNL     1     165.171 173.144 192.420  1.00  0.00    -0.454 OA
ENDROOT
BRANCH   1   2
ATOM      2  C   UNL     1     165.098 172.508 191.164  1.00  0.00     0.214 A 
ATOM      3  C   UNL     1     164.164 172.998 190.227  1.00  0.00     0.180 A 
ATOM      4  O   UNL     1     164.021 172.404 189.048  1.00  0.00    -0.452 OA
ATOM      5  C   UNL     1     165.883 171.388 190.800  1.00  0.00     0.239 A 
ATOM      6  C   UNL     1     164.738 171.356 188.667  1.00  0.00     0.146 A 
ATOM      7  O   UNL     1     166.723 170.908 191.606  1.00  0.00    -0.285 OA
ATOM      8  C   UNL     1     165.712 170.801 189.527  1.00  0.00     0.111 A 
ATOM      9  C   UNL     1     164.518 170.807 187.401  1.00  0.00     0.094 A 
ATOM     10  C   UNL     1     166.463 169.683 189.083  1.00  0.00     0.134 A 
ATOM     11  C   UNL     1     165.262 169.706 186.969  1.00  0.00     0.123 A 
ATOM     12  C   UNL     1     166.229 169.149 187.808  1.00  0.00     0.093 A 
BRANCH   3  13
ATOM     13  C   UNL     1     163.300 174.162 190.526  1.00  0.00     0.025 A 
ATOM     14  C   UNL     1     163.609 175.414 189.974  1.00  0.00     0.016 A 
ATOM     15  C   UNL     1     162.808 176.525 190.248  1.00  0.00     0.051 A 
ATOM     16  C   UNL     1     161.696 176.405 191.086  1.00  0.00     0.157 A 
ATOM     17  C   UNL     1     162.198 174.049 191.391  1.00  0.00     0.062 A 
ATOM     18  C   UNL     1     161.390 175.162 191.665  1.00  0.00     0.158 A 
BRANCH  16  19
ATOM     19  O   UNL     1     160.910 177.530 191.337  1.00  0.00    -0.504 OA
ATOM     20  H   UNL     1     161.317 178.434 191.546  1.00  0.00     0.293 HD
ENDBRANCH  16  19
BRANCH  18  21
ATOM     21  O   UNL     1     160.290 175.035 192.512  1.00  0.00    -0.504 OA
ATOM     22  H   UNL     1     159.347 174.949 192.149  1.00  0.00     0.293 HD
ENDBRANCH  18  21
ENDBRANCH   3  13
BRANCH  10  23
ATOM     23  O   UNL     1     167.438 169.103 189.896  1.00  0.00    -0.507 OA
ATOM     24  H   UNL     1     167.500 168.099 190.022  1.00  0.00     0.293 HD
ENDBRANCH  10  23
BRANCH  11  25
ATOM     25  O   UNL     1     165.048 169.155 185.707  1.00  0.00    -0.508 OA
ATOM     26  H   UNL     1     165.819 168.927 185.090  1.00  0.00     0.293 HD
ENDBRANCH  11  25
ENDBRANCH   1   2
BRANCH   1  27
ATOM     27  C   UNL     1     165.871 174.351 192.749  1.00  0.00     0.339 C 
ATOM     28  C   UNL     1     167.071 174.037 193.662  1.00  0.00     0.214 C 
ATOM     29  O   UNL     1     165.010 175.312 193.344  1.00  0.00    -0.332 OA
ATOM     30  C   UNL     1     166.588 173.588 195.057  1.00  0.00     0.180 C 
ATOM     31  C   UNL     1     164.440 174.827 194.550  1.00  0.00     0.179 C 
ATOM     32  C   UNL     1     165.534 174.564 195.614  1.00  0.00     0.177 C 
BRANCH  28  33
ATOM     33  O   UNL     1     167.848 173.027 193.071  1.00  0.00    -0.384 OA
ATOM     34  H   UNL     1     167.259 172.237 192.959  1.00  0.00     0.211 HD
ENDBRANCH  28  33
BRANCH  30  35
ATOM     35  O   UNL     1     167.672 173.512 195.948  1.00  0.00    -0.387 OA
ATOM     36  H   UNL     1     167.698 174.370 196.447  1.00  0.00     0.211 HD
ENDBRANCH  30  35
BRANCH  31  37
ATOM     37  C   UNL     1     163.404 175.841 195.056  1.00  0.00     0.191 C 
BRANCH  37  38
ATOM     38  O   UNL     1     163.223 175.702 196.440  1.00  0.00    -0.394 OA
ATOM     39  H   UNL     1     163.344 176.605 196.835  1.00  0.00     0.210 HD
ENDBRANCH  37  38
ENDBRANCH  31  37
BRANCH  32  40
ATOM     40  O   UNL     1     166.131 175.758 196.065  1.00  0.00    -0.387 OA
ATOM     41  H   UNL     1     165.504 176.505 195.886  1.00  0.00     0.211 HD
ENDBRANCH  32  40
ENDBRANCH   1  27
TORSDOF 12
ENDMDL
MODEL 5
REMARK VINA RESULT:    -6.135      2.197      7.846
REMARK INTER + INTRA:         -11.032
REMARK INTER:                  -9.065
REMARK INTRA:                  -1.967
REMARK UNBOUND:                -2.027
REMARK SMILES O=c1c(O[C@H]2O[C@H](CO)[C@H](O)[C@H](O)[C@H]2O)c(-c2ccc(O)c(O)c2)oc2cc(O)cc(O)c12
REMARK SMILES IDX 4 1 3 2 16 3 25 4 2 5 26 6 1 7 33 8 27 9 31 10 28 11 30 12
REMARK SMILES IDX 17 13 18 14 19 15 20 16 24 17 22 18 21 19 23 21 32 23 29 25
REMARK SMILES IDX 5 27 14 28 6 29 12 30 7 31 10 32 15 33 13 35 8 37 9 38 11 40
REMARK H PARENT 21 20 23 22 32 24 29 26 15 34 13 36 9 39 11 41
REMARK Flexibility Score: inf
ROOT
ATOM      1  O   UNL     1     170.174 169.043 187.645  1.00  0.00    -0.454 OA
ENDROOT
BRANCH   1   2
ATOM      2  C   UNL     1     169.759 168.218 186.580  1.00  0.00     0.214 A 
ATOM      3  C   UNL     1     168.377 167.987 186.421  1.00  0.00     0.180 A 
ATOM      4  O   UNL     1     167.937 167.178 185.464  1.00  0.00    -0.452 OA
ATOM      5  C   UNL     1     170.649 167.584 185.680  1.00  0.00     0.239 A 
ATOM      6  C   UNL     1     168.736 166.569 184.599  1.00  0.00     0.146 A 
ATOM      7  O   UNL     1     171.892 167.751 185.787  1.00  0.00    -0.285 OA
ATOM      8  C   UNL     1     170.136 166.749 184.663  1.00  0.00     0.111 A 
ATOM      9  C   UNL     1     168.174 165.744 183.621  1.00  0.00     0.094 A 
ATOM     10  C   UNL     1     170.958 166.084 183.719  1.00  0.00     0.134 A 
ATOM     11  C   UNL     1     168.989 165.091 182.693  1.00  0.00     0.123 A 
ATOM     12  C   UNL     1     170.374 165.263 182.743  1.00  0.00     0.093 A 
BRANCH   3  13
ATOM     13  C   UNL     1     167.377 168.607 187.319  1.00  0.00     0.025 A 
ATOM     14  C   UNL     1     166.701 169.765 186.907  1.00  0.00     0.016 A 
ATOM     15  C   UNL     1     165.756 170.367 187.743  1.00  0.00     0.051 A 
ATOM     16  C   UNL     1     165.483 169.829 189.004  1.00  0.00     0.157 A 
ATOM     17  C   UNL     1     167.122 168.084 188.598  1.00  0.00     0.062 A 
ATOM     18  C   UNL     1     166.172 168.683 189.437  1.00  0.00     0.158 A 
BRANCH  16  19
ATOM     19  O   UNL     1     164.531 170.447 189.814  1.00  0.00    -0.504 OA
ATOM     20  H   UNL     1     163.574 170.582 189.512  1.00  0.00     0.293 HD
ENDBRANCH  16  19
BRANCH  18  21
ATOM     21  O   UNL     1     165.914 168.146 190.698  1.00  0.00    -0.504 OA
ATOM     22  H   UNL     1     165.892 168.727 191.528  1.00  0.00     0.293 HD
ENDBRANCH  18  21
ENDBRANCH   3  13
BRANCH  10  23
ATOM     23  O   UNL     1     172.345 166.235 183.741  1.00  0.00    -0.507 OA
ATOM     24  H   UNL     1     172.890 166.040 184.573  1.00  0.00     0.293 HD
ENDBRANCH  10  23
BRANCH  11  25
ATOM     25  O   UNL     1     168.435 164.268 181.715  1.00  0.00    -0.508 OA
ATOM     26  H   UNL     1     169.010 163.653 181.151  1.00  0.00     0.293 HD
ENDBRANCH  11  25
ENDBRANCH   1   2
BRANCH   1  27
ATOM     27  C   UNL     1     170.294 170.471 187.650  1.00  0.00     0.339 C 
ATOM     28  C   UNL     1     171.738 170.883 187.996  1.00  0.00     0.214 C 
ATOM     29  O   UNL     1     169.362 171.074 188.536  1.00  0.00    -0.332 OA
ATOM     30  C   UNL     1     172.056 170.556 189.469  1.00  0.00     0.180 C 
ATOM     31  C   UNL     1     169.558 170.642 189.873  1.00  0.00     0.179 C 
ATOM     32  C   UNL     1     170.946 171.083 190.400  1.00  0.00     0.177 C 
BRANCH  28  33
ATOM     33  O   UNL     1     172.627 170.202 187.148  1.00  0.00    -0.384 OA
ATOM     34  H   UNL     1     172.943 170.857 186.473  1.00  0.00     0.211 HD
ENDBRANCH  28  33
BRANCH  30  35
ATOM     35  O   UNL     1     173.286 171.124 189.841  1.00  0.00    -0.387 OA
ATOM     36  H   UNL     1     173.650 170.570 190.579  1.00  0.00     0.211 HD
ENDBRANCH  30  35
BRANCH  31  37
ATOM     37  C   UNL     1     168.428 171.200 190.749  1.00  0.00     0.191 C 
BRANCH  37  38
ATOM     38  O   UNL     1     167.952 172.409 190.220  1.00  0.00    -0.394 OA
ATOM     39  H   UNL     1     168.177 172.405 189.253  1.00  0.00     0.210 HD
ENDBRANCH  37  38
ENDBRANCH  31  37
BRANCH  32  40
ATOM     40  O   UNL     1     171.033 172.480 190.558  1.00  0.00    -0.387 OA
ATOM     41  H   UNL     1     171.239 172.672 191.509  1.00  0.00     0.211 HD
ENDBRANCH  32  40
ENDBRANCH   1  27
TORSDOF 12
ENDMDL
MODEL 6
REMARK VINA RESULT:    -6.081      6.289     11.389
REMARK INTER + INTRA:         -10.952
REMARK INTER:                  -9.578
REMARK INTRA:                  -1.374
REMARK UNBOUND:                -2.027
REMARK SMILES O=c1c(O[C@H]2O[C@H](CO)[C@H](O)[C@H](O)[C@H]2O)c(-c2ccc(O)c(O)c2)oc2cc(O)cc(O)c12
REMARK SMILES IDX 4 1 3 2 16 3 25 4 2 5 26 6 1 7 33 8 27 9 31 10 28 11 30 12
REMARK SMILES IDX 17 13 18 14 19 15 20 16 24 17 22 18 21 19 23 21 32 23 29 25
REMARK SMILES IDX 5 27 14 28 6 29 12 30 7 31 10 32 15 33 13 35 8 37 9 38 11 40
REMARK H PARENT 21 20 23 22 32 24 29 26 15 34 13 36 9 39 11 41
REMARK Flexibility Score: inf
ROOT
ATOM      1  O   UNL     1     164.781 173.548 192.336  1.00  0.00    -0.454 OA
ENDROOT
BRANCH   1   2
ATOM      2  C   UNL     1     164.054 173.739 191.144  1.00  0.00     0.214 A 
ATOM      3  C   UNL     1     164.405 172.960 190.022  1.00  0.00     0.180 A 
ATOM      4  O   UNL     1     163.783 173.136 188.861  1.00  0.00    -0.452 OA
ATOM      5  C   UNL     1     163.014 174.688 190.998  1.00  0.00     0.239 A 
ATOM      6  C   UNL     1     162.803 174.011 188.684  1.00  0.00     0.146 A 
ATOM      7  O   UNL     1     162.672 175.415 191.968  1.00  0.00    -0.285 OA
ATOM      8  C   UNL     1     162.367 174.828 189.751  1.00  0.00     0.111 A 
ATOM      9  C   UNL     1     162.206 174.115 187.424  1.00  0.00     0.094 A 
ATOM     10  C   UNL     1     161.313 175.749 189.525  1.00  0.00     0.134 A 
ATOM     11  C   UNL     1     161.167 175.024 187.208  1.00  0.00     0.123 A 
ATOM     12  C   UNL     1     160.725 175.836 188.254  1.00  0.00     0.093 A 
BRANCH   3  13
ATOM     13  C   UNL     1     165.481 171.947 190.085  1.00  0.00     0.025 A 
ATOM     14  C   UNL     1     166.794 172.310 189.749  1.00  0.00     0.016 A 
ATOM     15  C   UNL     1     167.823 171.367 189.797  1.00  0.00     0.051 A 
ATOM     16  C   UNL     1     167.555 170.046 190.169  1.00  0.00     0.157 A 
ATOM     17  C   UNL     1     165.208 170.612 190.430  1.00  0.00     0.062 A 
ATOM     18  C   UNL     1     166.240 169.664 190.484  1.00  0.00     0.158 A 
BRANCH  16  19
ATOM     19  O   UNL     1     168.603 169.127 190.214  1.00  0.00    -0.504 OA
ATOM     20  H   UNL     1     168.572 168.304 190.803  1.00  0.00     0.293 HD
ENDBRANCH  16  19
BRANCH  18  21
ATOM     21  O   UNL     1     165.961 168.347 190.844  1.00  0.00    -0.504 OA
ATOM     22  H   UNL     1     165.103 168.097 191.324  1.00  0.00     0.293 HD
ENDBRANCH  18  21
ENDBRANCH   3  13
BRANCH  10  23
ATOM     23  O   UNL     1     160.845 176.573 190.549  1.00  0.00    -0.507 OA
ATOM     24  H   UNL     1     161.156 176.461 191.508  1.00  0.00     0.293 HD
ENDBRANCH  10  23
BRANCH  11  25
ATOM     25  O   UNL     1     160.568 175.132 185.954  1.00  0.00    -0.508 OA
ATOM     26  H   UNL     1     159.859 174.475 185.648  1.00  0.00     0.293 HD
ENDBRANCH  11  25
ENDBRANCH   1   2
BRANCH   1  27
ATOM     27  C   UNL     1     165.781 174.407 192.898  1.00  0.00     0.339 C 
ATOM     28  C   UNL     1     166.771 173.588 193.748  1.00  0.00     0.214 C 
ATOM     29  O   UNL     1     165.202 175.460 193.658  1.00  0.00    -0.332 OA
ATOM     30  C   UNL     1     166.083 173.062 195.025  1.00  0.00     0.180 C 
ATOM     31  C   UNL     1     164.434 174.961 194.741  1.00  0.00     0.179 C 
ATOM     32  C   UNL     1     165.326 174.194 195.747  1.00  0.00     0.177 C 
BRANCH  28  33
ATOM     33  O   UNL     1     167.255 172.514 192.983  1.00  0.00    -0.384 OA
ATOM     34  H   UNL     1     166.797 171.696 193.309  1.00  0.00     0.211 HD
ENDBRANCH  28  33
BRANCH  30  35
ATOM     35  O   UNL     1     167.033 172.505 195.897  1.00  0.00    -0.387 OA
ATOM     36  H   UNL     1     167.420 171.714 195.438  1.00  0.00     0.211 HD
ENDBRANCH  30  35
BRANCH  31  37
ATOM     37  C   UNL     1     163.709 176.132 195.420  1.00  0.00     0.191 C 
BRANCH  37  38
ATOM     38  O   UNL     1     163.364 175.793 196.737  1.00  0.00    -0.394 OA
ATOM     39  H   UNL     1     163.826 176.442 197.329  1.00  0.00     0.210 HD
ENDBRANCH  37  38
ENDBRANCH  31  37
BRANCH  32  40
ATOM     40  O   UNL     1     166.216 175.051 196.426  1.00  0.00    -0.387 OA
ATOM     41  H   UNL     1     165.698 175.819 196.778  1.00  0.00     0.211 HD
ENDBRANCH  32  40
ENDBRANCH   1  27
TORSDOF 12
ENDMDL
MODEL 7
REMARK VINA RESULT:    -6.036      5.069      8.488
REMARK INTER + INTRA:         -10.886
REMARK INTER:                  -9.045
REMARK INTRA:                  -1.841
REMARK UNBOUND:                -2.027
REMARK SMILES O=c1c(O[C@H]2O[C@H](CO)[C@H](O)[C@H](O)[C@H]2O)c(-c2ccc(O)c(O)c2)oc2cc(O)cc(O)c12
REMARK SMILES IDX 4 1 3 2 16 3 25 4 2 5 26 6 1 7 33 8 27 9 31 10 28 11 30 12
REMARK SMILES IDX 17 13 18 14 19 15 20 16 24 17 22 18 21 19 23 21 32 23 29 25
REMARK SMILES IDX 5 27 14 28 6 29 12 30 7 31 10 32 15 33 13 35 8 37 9 38 11 40
REMARK H PARENT 21 20 23 22 32 24 29 26 15 34 13 36 9 39 11 41
REMARK Flexibility Score: inf
ROOT
ATOM      1  O   UNL     1     164.836 172.696 189.700  1.00  0.00    -0.454 OA
ENDROOT
BRANCH   1   2
ATOM      2  C   UNL     1     165.244 172.866 191.039  1.00  0.00     0.214 A 
ATOM      3  C   UNL     1     166.134 171.918 191.585  1.00  0.00     0.180 A 
ATOM      4  O   UNL     1     166.510 172.005 192.856  1.00  0.00    -0.452 OA
ATOM      5  C   UNL     1     164.789 173.913 191.876  1.00  0.00     0.239 A 
ATOM      6  C   UNL     1     166.111 172.971 193.671  1.00  0.00     0.146 A 
ATOM      7  O   UNL     1     163.986 174.778 191.436  1.00  0.00    -0.285 OA
ATOM      8  C   UNL     1     165.232 173.979 193.215  1.00  0.00     0.111 A 
ATOM      9  C   UNL     1     166.571 172.980 194.991  1.00  0.00     0.094 A 
ATOM     10  C   UNL     1     164.830 174.999 194.114  1.00  0.00     0.134 A 
ATOM     11  C   UNL     1     166.172 173.988 195.872  1.00  0.00     0.123 A 
ATOM     12  C   UNL     1     165.306 174.991 195.433  1.00  0.00     0.093 A 
BRANCH   3  13
ATOM     13  C   UNL     1     166.656 170.789 190.784  1.00  0.00     0.025 A 
ATOM     14  C   UNL     1     168.003 170.785 190.388  1.00  0.00     0.016 A 
ATOM     15  C   UNL     1     168.513 169.731 189.628  1.00  0.00     0.051 A 
ATOM     16  C   UNL     1     167.685 168.673 189.240  1.00  0.00     0.157 A 
ATOM     17  C   UNL     1     165.818 169.740 190.370  1.00  0.00     0.062 A 
ATOM     18  C   UNL     1     166.329 168.678 189.609  1.00  0.00     0.158 A 
BRANCH  16  19
ATOM     19  O   UNL     1     168.223 167.631 188.486  1.00  0.00    -0.504 OA
ATOM     20  H   UNL     1     168.349 167.701 187.483  1.00  0.00     0.293 HD
ENDBRANCH  16  19
BRANCH  18  21
ATOM     21  O   UNL     1     165.493 167.633 189.218  1.00  0.00    -0.504 OA
ATOM     22  H   UNL     1     164.789 167.254 189.841  1.00  0.00     0.293 HD
ENDBRANCH  18  21
ENDBRANCH   3  13
BRANCH  10  23
ATOM     23  O   UNL     1     163.966 176.017 193.707  1.00  0.00    -0.507 OA
ATOM     24  H   UNL     1     164.277 176.978 193.625  1.00  0.00     0.293 HD
ENDBRANCH  10  23
BRANCH  11  25
ATOM     25  O   UNL     1     166.628 174.002 197.189  1.00  0.00    -0.508 OA
ATOM     26  H   UNL     1     166.748 173.145 197.718  1.00  0.00     0.293 HD
ENDBRANCH  11  25
ENDBRANCH   1   2
BRANCH   1  27
ATOM     27  C   UNL     1     165.458 173.226 188.523  1.00  0.00     0.339 C 
ATOM     28  C   UNL     1     164.476 174.144 187.770  1.00  0.00     0.214 C 
ATOM     29  O   UNL     1     165.947 172.195 187.677  1.00  0.00    -0.332 OA
ATOM     30  C   UNL     1     163.329 173.320 187.151  1.00  0.00     0.180 C 
ATOM     31  C   UNL     1     164.903 171.339 187.239  1.00  0.00     0.179 C 
ATOM     32  C   UNL     1     163.881 172.111 186.370  1.00  0.00     0.177 C 
BRANCH  28  33
ATOM     33  O   UNL     1     163.958 175.097 188.664  1.00  0.00    -0.384 OA
ATOM     34  H   UNL     1     164.033 175.981 188.221  1.00  0.00     0.211 HD
ENDBRANCH  28  33
BRANCH  30  35
ATOM     35  O   UNL     1     162.560 174.121 186.291  1.00  0.00    -0.387 OA
ATOM     36  H   UNL     1     163.033 174.990 186.204  1.00  0.00     0.211 HD
ENDBRANCH  30  35
BRANCH  31  37
ATOM     37  C   UNL     1     165.513 170.161 186.467  1.00  0.00     0.191 C 
BRANCH  37  38
ATOM     38  O   UNL     1     164.712 169.018 186.609  1.00  0.00    -0.394 OA
ATOM     39  H   UNL     1     165.291 168.237 186.408  1.00  0.00     0.210 HD
ENDBRANCH  37  38
ENDBRANCH  31  37
BRANCH  32  40
ATOM     40  O   UNL     1     164.431 172.510 185.135  1.00  0.00    -0.387 OA
ATOM     41  H   UNL     1     164.771 173.437 185.232  1.00  0.00     0.211 HD
ENDBRANCH  32  40
ENDBRANCH   1  27
TORSDOF 12
ENDMDL
MODEL 8
REMARK VINA RESULT:    -5.945      6.219     12.564
REMARK INTER + INTRA:         -10.753
REMARK INTER:                  -8.830
REMARK INTRA:                  -1.923
REMARK UNBOUND:                -2.027
REMARK SMILES O=c1c(O[C@H]2O[C@H](CO)[C@H](O)[C@H](O)[C@H]2O)c(-c2ccc(O)c(O)c2)oc2cc(O)cc(O)c12
REMARK SMILES IDX 4 1 3 2 16 3 25 4 2 5 26 6 1 7 33 8 27 9 31 10 28 11 30 12
REMARK SMILES IDX 17 13 18 14 19 15 20 16 24 17 22 18 21 19 23 21 32 23 29 25
REMARK SMILES IDX 5 27 14 28 6 29 12 30 7 31 10 32 15 33 13 35 8 37 9 38 11 40
REMARK H PARENT 21 20 23 22 32 24 29 26 15 34 13 36 9 39 11 41
REMARK Flexibility Score: inf
ROOT
ATOM      1  O   UNL     1     165.799 174.201 192.839  1.00  0.00    -0.454 OA
ENDROOT
BRANCH   1   2
ATOM      2  C   UNL     1     166.405 173.870 191.610  1.00  0.00     0.214 A 
ATOM      3  C   UNL     1     165.632 173.993 190.437  1.00  0.00     0.180 A 
ATOM      4  O   UNL     1     166.140 173.647 189.259  1.00  0.00    -0.452 OA
ATOM      5  C   UNL     1     167.732 173.392 191.488  1.00  0.00     0.239 A 
ATOM      6  C   UNL     1     167.378 173.199 189.101  1.00  0.00     0.146 A 
ATOM      7  O   UNL     1     168.458 173.256 192.508  1.00  0.00    -0.285 OA
ATOM      8  C   UNL     1     168.238 173.056 190.213  1.00  0.00     0.111 A 
ATOM      9  C   UNL     1     167.821 172.869 187.817  1.00  0.00     0.094 A 
ATOM     10  C   UNL     1     169.556 172.578 190.005  1.00  0.00     0.134 A 
ATOM     11  C   UNL     1     169.122 172.399 187.618  1.00  0.00     0.123 A 
ATOM     12  C   UNL     1     169.983 172.256 188.708  1.00  0.00     0.093 A 
BRANCH   3  13
ATOM     13  C   UNL     1     164.236 174.481 190.473  1.00  0.00     0.025 A 
ATOM     14  C   UNL     1     163.960 175.818 190.148  1.00  0.00     0.016 A 
ATOM     15  C   UNL     1     162.649 176.298 190.181  1.00  0.00     0.051 A 
ATOM     16  C   UNL     1     161.596 175.455 190.550  1.00  0.00     0.157 A 
ATOM     17  C   UNL     1     163.181 173.642 190.871  1.00  0.00     0.062 A 
ATOM     18  C   UNL     1     161.863 174.120 190.901  1.00  0.00     0.158 A 
BRANCH  16  19
ATOM     19  O   UNL     1     160.297 175.960 190.568  1.00  0.00    -0.504 OA
ATOM     20  H   UNL     1     159.484 175.355 190.540  1.00  0.00     0.293 HD
ENDBRANCH  16  19
BRANCH  18  21
ATOM     21  O   UNL     1     160.821 173.275 191.281  1.00  0.00    -0.504 OA
ATOM     22  H   UNL     1     160.903 172.657 192.080  1.00  0.00     0.293 HD
ENDBRANCH  18  21
ENDBRANCH   3  13
BRANCH  10  23
ATOM     23  O   UNL     1     170.443 172.424 191.072  1.00  0.00    -0.507 OA
ATOM     24  H   UNL     1     170.130 172.112 191.984  1.00  0.00     0.293 HD
ENDBRANCH  10  23
BRANCH  11  25
ATOM     25  O   UNL     1     169.571 172.070 186.341  1.00  0.00    -0.508 OA
ATOM     26  H   UNL     1     169.064 172.357 185.511  1.00  0.00     0.293 HD
ENDBRANCH  11  25
ENDBRANCH   1   2
BRANCH   1  27
ATOM     27  C   UNL     1     165.763 175.484 193.478  1.00  0.00     0.339 C 
ATOM     28  C   UNL     1     166.378 175.394 194.888  1.00  0.00     0.214 C 
ATOM     29  O   UNL     1     164.444 176.010 193.526  1.00  0.00    -0.332 OA
ATOM     30  C   UNL     1     165.467 174.572 195.824  1.00  0.00     0.180 C 
ATOM     31  C   UNL     1     163.570 175.163 194.256  1.00  0.00     0.179 C 
ATOM     32  C   UNL     1     164.008 175.060 195.737  1.00  0.00     0.177 C 
BRANCH  28  33
ATOM     33  O   UNL     1     167.646 174.795 194.800  1.00  0.00    -0.384 OA
ATOM     34  H   UNL     1     167.615 173.971 195.352  1.00  0.00     0.211 HD
ENDBRANCH  28  33
BRANCH  30  35
ATOM     35  O   UNL     1     165.916 174.673 197.152  1.00  0.00    -0.387 OA
ATOM     36  H   UNL     1     166.413 175.528 197.226  1.00  0.00     0.211 HD
ENDBRANCH  30  35
BRANCH  31  37
ATOM     37  C   UNL     1     162.137 175.701 194.135  1.00  0.00     0.191 C 
BRANCH  37  38
ATOM     38  O   UNL     1     161.416 175.433 195.309  1.00  0.00    -0.394 OA
ATOM     39  H   UNL     1     161.220 174.460 195.307  1.00  0.00     0.210 HD
ENDBRANCH  37  38
ENDBRANCH  31  37
BRANCH  32  40
ATOM     40  O   UNL     1     163.834 176.276 196.427  1.00  0.00    -0.387 OA
ATOM     41  H   UNL     1     162.931 176.627 196.215  1.00  0.00     0.211 HD
ENDBRANCH  32  40
ENDBRANCH   1  27
TORSDOF 12
ENDMDL
MODEL 9
REMARK VINA RESULT:    -5.926      1.939      6.842
REMARK INTER + INTRA:         -10.726
REMARK INTER:                  -8.704
REMARK INTRA:                  -2.022
REMARK UNBOUND:                -2.027
REMARK SMILES O=c1c(O[C@H]2O[C@H](CO)[C@H](O)[C@H](O)[C@H]2O)c(-c2ccc(O)c(O)c2)oc2cc(O)cc(O)c12
REMARK SMILES IDX 4 1 3 2 16 3 25 4 2 5 26 6 1 7 33 8 27 9 31 10 28 11 30 12
REMARK SMILES IDX 17 13 18 14 19 15 20 16 24 17 22 18 21 19 23 21 32 23 29 25
REMARK SMILES IDX 5 27 14 28 6 29 12 30 7 31 10 32 15 33 13 35 8 37 9 38 11 40
REMARK H PARENT 21 20 23 22 32 24 29 26 15 34 13 36 9 39 11 41
REMARK Flexibility Score: inf
ROOT
ATOM      1  O   UNL     1     168.081 168.683 187.476  1.00  0.00    -0.454 OA
ENDROOT
BRANCH   1   2
ATOM      2  C   UNL     1     168.871 168.120 186.452  1.00  0.00     0.214 A 
ATOM      3  C   UNL     1     170.141 168.685 186.212  1.00  0.00     0.180 A 
ATOM      4  O   UNL     1     170.904 168.225 185.227  1.00  0.00    -0.452 OA
ATOM      5  C   UNL     1     168.453 167.045 185.633  1.00  0.00     0.239 A 
ATOM      6  C   UNL     1     170.552 167.217 184.440  1.00  0.00     0.146 A 
ATOM      7  O   UNL     1     167.324 166.515 185.803  1.00  0.00    -0.285 OA
ATOM      8  C   UNL     1     169.306 166.574 184.612  1.00  0.00     0.111 A 
ATOM      9  C   UNL     1     171.431 166.801 183.437  1.00  0.00     0.094 A 
ATOM     10  C   UNL     1     168.966 165.497 183.754  1.00  0.00     0.134 A 
ATOM     11  C   UNL     1     171.090 165.739 182.595  1.00  0.00     0.123 A 
ATOM     12  C   UNL     1     169.863 165.092 182.755  1.00  0.00     0.093 A 
BRANCH   3  13
ATOM     13  C   UNL     1     170.656 169.814 187.018  1.00  0.00     0.025 A 
ATOM     14  C   UNL     1     170.274 171.125 186.696  1.00  0.00     0.016 A 
ATOM     15  C   UNL     1     170.753 172.204 187.443  1.00  0.00     0.051 A 
ATOM     16  C   UNL     1     171.630 171.992 188.511  1.00  0.00     0.157 A 
ATOM     17  C   UNL     1     171.559 169.604 188.074  1.00  0.00     0.062 A 
ATOM     18  C   UNL     1     172.039 170.685 188.827  1.00  0.00     0.158 A 
BRANCH  16  19
ATOM     19  O   UNL     1     172.087 173.088 189.242  1.00  0.00    -0.504 OA
ATOM     20  H   UNL     1     172.171 174.010 188.833  1.00  0.00     0.293 HD
ENDBRANCH  16  19
BRANCH  18  21
ATOM     21  O   UNL     1     172.921 170.464 189.883  1.00  0.00    -0.504 OA
ATOM     22  H   UNL     1     173.084 169.535 190.255  1.00  0.00     0.293 HD
ENDBRANCH  18  21
ENDBRANCH   3  13
BRANCH  10  23
ATOM     23  O   UNL     1     167.748 164.828 183.888  1.00  0.00    -0.507 OA
ATOM     24  H   UNL     1     167.404 164.521 184.791  1.00  0.00     0.293 HD
ENDBRANCH  10  23
BRANCH  11  25
ATOM     25  O   UNL     1     171.963 165.318 181.593  1.00  0.00    -0.508 OA
ATOM     26  H   UNL     1     172.889 164.967 181.810  1.00  0.00     0.293 HD
ENDBRANCH  11  25
ENDBRANCH   1   2
BRANCH   1  27
ATOM     27  C   UNL     1     167.880 168.178 188.802  1.00  0.00     0.339 C 
ATOM     28  C   UNL     1     166.374 168.019 189.088  1.00  0.00     0.214 C 
ATOM     29  O   UNL     1     168.503 169.001 189.778  1.00  0.00    -0.332 OA
ATOM     30  C   UNL     1     165.694 169.399 189.192  1.00  0.00     0.180 C 
ATOM     31  C   UNL     1     167.983 170.321 189.758  1.00  0.00     0.179 C 
ATOM     32  C   UNL     1     166.481 170.330 190.136  1.00  0.00     0.177 C 
BRANCH  28  33
ATOM     33  O   UNL     1     165.786 167.267 188.057  1.00  0.00    -0.384 OA
ATOM     34  H   UNL     1     164.982 166.830 188.440  1.00  0.00     0.211 HD
ENDBRANCH  28  33
BRANCH  30  35
ATOM     35  O   UNL     1     164.378 169.260 189.664  1.00  0.00    -0.387 OA
ATOM     36  H   UNL     1     164.056 168.369 189.369  1.00  0.00     0.211 HD
ENDBRANCH  30  35
BRANCH  31  37
ATOM     37  C   UNL     1     168.803 171.196 190.717  1.00  0.00     0.191 C 
BRANCH  37  38
ATOM     38  O   UNL     1     167.989 172.183 191.292  1.00  0.00    -0.394 OA
ATOM     39  H   UNL     1     167.252 171.709 191.760  1.00  0.00     0.210 HD
ENDBRANCH  37  38
ENDBRANCH  31  37
BRANCH  32  40
ATOM     40  O   UNL     1     166.272 169.983 191.485  1.00  0.00    -0.387 OA
ATOM     41  H   UNL     1     165.816 170.741 191.933  1.00  0.00     0.211 HD
ENDBRANCH  32  40
ENDBRANCH   1  27
TORSDOF 12
ENDMDL
