MODEL 1
REMARK VINA RESULT:    -4.086      0.000      0.000
REMARK INTER + INTRA:          -4.517
REMARK INTER:                  -4.325
REMARK INTRA:                  -0.192
REMARK UNBOUND:                -0.192
REMARK SMILES CC1=CC[C@@H](C(C)C)C=C1
REMARK SMILES IDX 1 1 2 2 3 3 4 4 5 5 9 6 10 7 6 8 7 9 8 10
REMARK H PARENT
REMARK Flexibility Score: inf
ROOT
ATOM      1  C   UNL     1     140.289 136.624 135.475  1.00  0.00     0.044 C 
ATOM      2  C   UNL     1     139.874 135.786 134.302  1.00  0.00    -0.055 C 
ATOM      3  C   UNL     1     140.441 135.976 133.100  1.00  0.00    -0.023 C 
ATOM      4  C   UNL     1     140.082 135.091 131.936  1.00  0.00     0.035 C 
ATOM      5  C   UNL     1     138.583 134.710 131.980  1.00  0.00     0.018 C 
ATOM      6  C   UNL     1     138.197 134.257 133.374  1.00  0.00    -0.023 C 
ATOM      7  C   UNL     1     138.774 134.806 134.449  1.00  0.00    -0.001 C 
ENDROOT
BRANCH   5   8
ATOM      8  C   UNL     1     138.203 133.691 130.865  1.00  0.00    -0.010 C 
ATOM      9  C   UNL     1     139.390 133.279 129.975  1.00  0.00     0.008 C 
ATOM     10  C   UNL     1     137.529 132.442 131.455  1.00  0.00     0.008 C 
ENDBRANCH   5   8
TORSDOF 1
ENDMDL
MODEL 2
REMARK VINA RESULT:    -4.078      4.049      5.019
REMARK INTER + INTRA:          -4.508
REMARK INTER:                  -4.316
REMARK INTRA:                  -0.191
REMARK UNBOUND:                -0.192
REMARK SMILES CC1=CC[C@@H](C(C)C)C=C1
REMARK SMILES IDX 1 1 2 2 3 3 4 4 5 5 9 6 10 7 6 8 7 9 8 10
REMARK H PARENT
REMARK Flexibility Score: inf
ROOT
ATOM      1  C   UNL     1     137.062 140.265 135.222  1.00  0.00     0.044 C 
ATOM      2  C   UNL     1     137.953 139.859 134.086  1.00  0.00    -0.055 C 
ATOM      3  C   UNL     1     137.846 140.464 132.893  1.00  0.00    -0.023 C 
ATOM      4  C   UNL     1     138.784 140.112 131.769  1.00  0.00     0.035 C 
ATOM      5  C   UNL     1     139.121 138.602 131.790  1.00  0.00     0.018 C 
ATOM      6  C   UNL     1     139.485 138.164 133.195  1.00  0.00    -0.023 C 
ATOM      7  C   UNL     1     138.892 138.727 134.255  1.00  0.00    -0.001 C 
ENDROOT
BRANCH   5   8
ATOM      8  C   UNL     1     140.191 138.224 130.723  1.00  0.00    -0.010 C 
ATOM      9  C   UNL     1     140.530 139.372 129.756  1.00  0.00     0.008 C 
ATOM     10  C   UNL     1     141.474 137.693 131.381  1.00  0.00     0.008 C 
ENDBRANCH   5   8
TORSDOF 1
ENDMDL
MODEL 3
REMARK VINA RESULT:    -4.027      1.485      4.072
REMARK INTER + INTRA:          -4.454
REMARK INTER:                  -4.274
REMARK INTRA:                  -0.180
REMARK UNBOUND:                -0.192
REMARK SMILES CC1=CC[C@@H](C(C)C)C=C1
REMARK SMILES IDX 1 1 2 2 3 3 4 4 5 5 9 6 10 7 6 8 7 9 8 10
REMARK H PARENT
REMARK Flexibility Score: inf
ROOT
ATOM      1  C   UNL     1     137.718 132.209 131.231  1.00  0.00     0.044 C 
ATOM      2  C   UNL     1     138.350 133.553 131.439  1.00  0.00    -0.055 C 
ATOM      3  C   UNL     1     139.005 134.155 130.434  1.00  0.00    -0.023 C 
ATOM      4  C   UNL     1     139.580 135.535 130.614  1.00  0.00     0.035 C 
ATOM      5  C   UNL     1     140.128 135.717 132.050  1.00  0.00     0.018 C 
ATOM      6  C   UNL     1     139.116 135.222 133.064  1.00  0.00    -0.023 C 
ATOM      7  C   UNL     1     138.329 134.177 132.782  1.00  0.00    -0.001 C 
ENDROOT
BRANCH   5   8
ATOM      8  C   UNL     1     140.612 137.174 132.313  1.00  0.00    -0.010 C 
ATOM      9  C   UNL     1     141.447 137.764 131.162  1.00  0.00     0.008 C 
ATOM     10  C   UNL     1     139.434 138.104 132.641  1.00  0.00     0.008 C 
ENDBRANCH   5   8
TORSDOF 1
ENDMDL
MODEL 4
REMARK VINA RESULT:    -4.013      3.567      5.117
REMARK INTER + INTRA:          -4.440
REMARK INTER:                  -4.258
REMARK INTRA:                  -0.182
REMARK UNBOUND:                -0.192
REMARK SMILES CC1=CC[C@@H](C(C)C)C=C1
REMARK SMILES IDX 1 1 2 2 3 3 4 4 5 5 9 6 10 7 6 8 7 9 8 10
REMARK H PARENT
REMARK Flexibility Score: inf
ROOT
ATOM      1  C   UNL     1     132.206 136.102 131.260  1.00  0.00     0.044 C 
ATOM      2  C   UNL     1     133.532 135.443 131.500  1.00  0.00    -0.055 C 
ATOM      3  C   UNL     1     134.133 134.756 130.515  1.00  0.00    -0.023 C 
ATOM      4  C   UNL     1     135.497 134.153 130.726  1.00  0.00     0.035 C 
ATOM      5  C   UNL     1     135.646 133.629 132.174  1.00  0.00     0.018 C 
ATOM      6  C   UNL     1     135.160 134.670 133.162  1.00  0.00    -0.023 C 
ATOM      7  C   UNL     1     134.138 135.475 132.850  1.00  0.00    -0.001 C 
ENDROOT
BRANCH   5   8
ATOM      8  C   UNL     1     137.088 133.116 132.467  1.00  0.00    -0.010 C 
ATOM      9  C   UNL     1     137.710 132.325 131.302  1.00  0.00     0.008 C 
ATOM     10  C   UNL     1     138.018 134.268 132.879  1.00  0.00     0.008 C 
ENDBRANCH   5   8
TORSDOF 1
ENDMDL
MODEL 5
REMARK VINA RESULT:    -4.009      4.710      5.796
REMARK INTER + INTRA:          -4.435
REMARK INTER:                  -4.250
REMARK INTRA:                  -0.185
REMARK UNBOUND:                -0.192
REMARK SMILES CC1=CC[C@@H](C(C)C)C=C1
REMARK SMILES IDX 1 1 2 2 3 3 4 4 5 5 9 6 10 7 6 8 7 9 8 10
REMARK H PARENT
REMARK Flexibility Score: inf
ROOT
ATOM      1  C   UNL     1     141.509 137.703 131.245  1.00  0.00     0.044 C 
ATOM      2  C   UNL     1     140.182 138.359 131.486  1.00  0.00    -0.055 C 
ATOM      3  C   UNL     1     139.567 139.025 130.496  1.00  0.00    -0.023 C 
ATOM      4  C   UNL     1     138.202 139.624 130.709  1.00  0.00     0.035 C 
ATOM      5  C   UNL     1     138.064 140.174 132.149  1.00  0.00     0.018 C 
ATOM      6  C   UNL     1     138.566 139.153 133.151  1.00  0.00    -0.023 C 
ATOM      7  C   UNL     1     139.589 138.348 132.843  1.00  0.00    -0.001 C 
ENDROOT
BRANCH   5   8
ATOM      8  C   UNL     1     136.623 140.683 132.447  1.00  0.00    -0.010 C 
ATOM      9  C   UNL     1     135.912 141.278 131.218  1.00  0.00     0.008 C 
ATOM     10  C   UNL     1     135.758 139.579 133.074  1.00  0.00     0.008 C 
ENDBRANCH   5   8
TORSDOF 1
ENDMDL
MODEL 6
REMARK VINA RESULT:    -4.008      4.040      5.031
REMARK INTER + INTRA:          -4.434
REMARK INTER:                  -4.242
REMARK INTRA:                  -0.192
REMARK UNBOUND:                -0.192
REMARK SMILES CC1=CC[C@@H](C(C)C)C=C1
REMARK SMILES IDX 1 1 2 2 3 3 4 4 5 5 9 6 10 7 6 8 7 9 8 10
REMARK H PARENT
REMARK Flexibility Score: inf
ROOT
ATOM      1  C   UNL     1     136.716 133.346 135.430  1.00  0.00     0.044 C 
ATOM      2  C   UNL     1     135.833 133.812 134.310  1.00  0.00    -0.055 C 
ATOM      3  C   UNL     1     135.965 133.288 133.082  1.00  0.00    -0.023 C 
ATOM      4  C   UNL     1     135.035 133.698 131.971  1.00  0.00     0.035 C 
ATOM      5  C   UNL     1     134.673 135.198 132.086  1.00  0.00     0.018 C 
ATOM      6  C   UNL     1     134.284 135.537 133.511  1.00  0.00    -0.023 C 
ATOM      7  C   UNL     1     134.872 134.916 134.540  1.00  0.00    -0.001 C 
ENDROOT
BRANCH   5   8
ATOM      8  C   UNL     1     133.610 135.628 131.031  1.00  0.00    -0.010 C 
ATOM      9  C   UNL     1     133.123 134.472 130.139  1.00  0.00     0.008 C 
ATOM     10  C   UNL     1     132.412 136.323 131.696  1.00  0.00     0.008 C 
ENDBRANCH   5   8
TORSDOF 1
ENDMDL
MODEL 7
REMARK VINA RESULT:    -4.000      4.177      5.285
REMARK INTER + INTRA:          -4.425
REMARK INTER:                  -4.282
REMARK INTRA:                  -0.144
REMARK UNBOUND:                -0.192
REMARK SMILES CC1=CC[C@@H](C(C)C)C=C1
REMARK SMILES IDX 1 1 2 2 3 3 4 4 5 5 9 6 10 7 6 8 7 9 8 10
REMARK H PARENT
REMARK Flexibility Score: inf
ROOT
ATOM      1  C   UNL     1     136.103 141.144 131.477  1.00  0.00     0.044 C 
ATOM      2  C   UNL     1     137.325 140.289 131.634  1.00  0.00    -0.055 C 
ATOM      3  C   UNL     1     137.780 139.565 130.600  1.00  0.00    -0.023 C 
ATOM      4  C   UNL     1     139.047 138.760 130.728  1.00  0.00     0.035 C 
ATOM      5  C   UNL     1     139.172 138.158 132.147  1.00  0.00     0.018 C 
ATOM      6  C   UNL     1     138.883 139.216 133.194  1.00  0.00    -0.023 C 
ATOM      7  C   UNL     1     137.980 140.175 132.957  1.00  0.00    -0.001 C 
ENDROOT
BRANCH   5   8
ATOM      8  C   UNL     1     140.532 137.429 132.358  1.00  0.00    -0.010 C 
ATOM      9  C   UNL     1     140.396 135.903 132.510  1.00  0.00     0.008 C 
ATOM     10  C   UNL     1     141.525 137.760 131.233  1.00  0.00     0.008 C 
ENDBRANCH   5   8
TORSDOF 1
ENDMDL
MODEL 8
REMARK VINA RESULT:    -3.995      5.959      6.511
REMARK INTER + INTRA:          -4.421
REMARK INTER:                  -4.234
REMARK INTRA:                  -0.186
REMARK UNBOUND:                -0.192
REMARK SMILES CC1=CC[C@@H](C(C)C)C=C1
REMARK SMILES IDX 1 1 2 2 3 3 4 4 5 5 9 6 10 7 6 8 7 9 8 10
REMARK H PARENT
REMARK Flexibility Score: inf
ROOT
ATOM      1  C   UNL     1     136.204 141.466 131.268  1.00  0.00     0.044 C 
ATOM      2  C   UNL     1     135.504 140.160 131.498  1.00  0.00    -0.055 C 
ATOM      3  C   UNL     1     134.817 139.576 130.502  1.00  0.00    -0.023 C 
ATOM      4  C   UNL     1     134.173 138.230 130.704  1.00  0.00     0.035 C 
ATOM      5  C   UNL     1     133.620 138.098 132.143  1.00  0.00     0.018 C 
ATOM      6  C   UNL     1     134.658 138.556 133.149  1.00  0.00    -0.023 C 
ATOM      7  C   UNL     1     135.497 139.555 132.849  1.00  0.00    -0.001 C 
ENDROOT
BRANCH   5   8
ATOM      8  C   UNL     1     133.063 136.672 132.429  1.00  0.00    -0.010 C 
ATOM      9  C   UNL     1     132.512 135.962 131.179  1.00  0.00     0.008 C 
ATOM     10  C   UNL     1     134.115 135.788 133.117  1.00  0.00     0.008 C 
ENDBRANCH   5   8
TORSDOF 1
ENDMDL
MODEL 9
REMARK VINA RESULT:    -3.992      3.989      5.462
REMARK INTER + INTRA:          -4.417
REMARK INTER:                  -4.270
REMARK INTRA:                  -0.147
REMARK UNBOUND:                -0.192
REMARK SMILES CC1=CC[C@@H](C(C)C)C=C1
REMARK SMILES IDX 1 1 2 2 3 3 4 4 5 5 9 6 10 7 6 8 7 9 8 10
REMARK H PARENT
REMARK Flexibility Score: inf
ROOT
ATOM      1  C   UNL     1     137.752 132.632 131.295  1.00  0.00     0.044 C 
ATOM      2  C   UNL     1     136.517 133.468 131.462  1.00  0.00    -0.055 C 
ATOM      3  C   UNL     1     136.117 134.288 130.477  1.00  0.00    -0.023 C 
ATOM      4  C   UNL     1     134.840 135.075 130.609  1.00  0.00     0.035 C 
ATOM      5  C   UNL     1     134.631 135.539 132.070  1.00  0.00     0.018 C 
ATOM      6  C   UNL     1     134.867 134.386 133.026  1.00  0.00    -0.023 C 
ATOM      7  C   UNL     1     135.787 133.455 132.751  1.00  0.00    -0.001 C 
ENDROOT
BRANCH   5   8
ATOM      8  C   UNL     1     133.257 136.244 132.272  1.00  0.00    -0.010 C 
ATOM      9  C   UNL     1     133.363 137.774 132.408  1.00  0.00     0.008 C 
ATOM     10  C   UNL     1     132.273 135.882 131.149  1.00  0.00     0.008 C 
ENDBRANCH   5   8
TORSDOF 1
ENDMDL
