MODEL 1
REMARK VINA RESULT:    -5.118      0.000      0.000
REMARK INTER + INTRA:          -5.630
REMARK INTER:                  -5.567
REMARK INTRA:                  -0.063
REMARK UNBOUND:                -0.063
REMARK SMILES COc1cc2ccc(=O)oc2cc1O
REMARK SMILES IDX 3 1 13 2 12 3 11 4 5 5 4 6 6 7 7 8 8 9 9 10 10 11 2 12 1 13
REMARK SMILES IDX 14 14
REMARK H PARENT 14 15
REMARK Flexibility Score: inf
ROOT
ATOM      1  C   UNL     1      18.064   7.860 -21.400  1.00  0.00     0.161 A 
ATOM      2  C   UNL     1      17.867   7.073 -22.545  1.00  0.00     0.161 A 
ATOM      3  C   UNL     1      18.937   6.363 -23.109  1.00  0.00     0.098 A 
ATOM      4  C   UNL     1      20.208   6.433 -22.535  1.00  0.00     0.142 A 
ATOM      5  C   UNL     1      20.416   7.222 -21.384  1.00  0.00     0.022 A 
ATOM      6  C   UNL     1      19.346   7.932 -20.819  1.00  0.00     0.062 A 
ATOM      7  C   UNL     1      21.699   7.272 -20.832  1.00  0.00     0.019 A 
ATOM      8  C   UNL     1      22.730   6.547 -21.430  1.00  0.00     0.094 A 
ATOM      9  C   UNL     1      22.451   5.786 -22.570  1.00  0.00     0.336 A 
ATOM     10  O   UNL     1      23.368   5.125 -23.124  1.00  0.00    -0.246 OA
ATOM     11  O   UNL     1      21.220   5.756 -23.074  1.00  0.00    -0.423 OA
ENDROOT
BRANCH   1  12
ATOM     12  O   UNL     1      16.964   8.554 -20.871  1.00  0.00    -0.493 OA
ATOM     13  C   UNL     1      16.377   8.286 -19.602  1.00  0.00     0.278 C 
ENDBRANCH   1  12
BRANCH   2  14
ATOM     14  O   UNL     1      16.599   7.002 -23.121  1.00  0.00    -0.504 OA
ATOM     15  H   UNL     1      16.395   7.441 -24.011  1.00  0.00     0.293 HD
ENDBRANCH   2  14
TORSDOF 2
ENDMDL
MODEL 2
REMARK VINA RESULT:    -4.887     20.642     22.350
REMARK INTER + INTRA:          -5.379
REMARK INTER:                  -5.325
REMARK INTRA:                  -0.054
REMARK UNBOUND:                -0.063
REMARK SMILES COc1cc2ccc(=O)oc2cc1O
REMARK SMILES IDX 3 1 13 2 12 3 11 4 5 5 4 6 6 7 7 8 8 9 9 10 10 11 2 12 1 13
REMARK SMILES IDX 14 14
REMARK H PARENT 14 15
REMARK Flexibility Score: inf
ROOT
ATOM      1  C   UNL     1       7.935  -6.511  -6.886  1.00  0.00     0.161 A 
ATOM      2  C   UNL     1       8.229  -7.843  -7.216  1.00  0.00     0.161 A 
ATOM      3  C   UNL     1       8.417  -8.216  -8.556  1.00  0.00     0.098 A 
ATOM      4  C   UNL     1       8.313  -7.264  -9.572  1.00  0.00     0.142 A 
ATOM      5  C   UNL     1       8.018  -5.922  -9.250  1.00  0.00     0.022 A 
ATOM      6  C   UNL     1       7.830  -5.548  -7.911  1.00  0.00     0.062 A 
ATOM      7  C   UNL     1       7.921  -4.992 -10.289  1.00  0.00     0.019 A 
ATOM      8  C   UNL     1       8.117  -5.413 -11.604  1.00  0.00     0.094 A 
ATOM      9  C   UNL     1       8.407  -6.760 -11.849  1.00  0.00     0.336 A 
ATOM     10  O   UNL     1       8.587  -7.159 -13.030  1.00  0.00    -0.246 OA
ATOM     11  O   UNL     1       8.493  -7.624 -10.841  1.00  0.00    -0.423 OA
ENDROOT
BRANCH   1  12
ATOM     12  O   UNL     1       7.754  -6.183  -5.533  1.00  0.00    -0.493 OA
ATOM     13  C   UNL     1       8.358  -5.068  -4.886  1.00  0.00     0.278 C 
ENDBRANCH   1  12
BRANCH   2  14
ATOM     14  O   UNL     1       8.332  -8.795  -6.203  1.00  0.00    -0.504 OA
ATOM     15  H   UNL     1       9.121  -9.429  -6.149  1.00  0.00     0.293 HD
ENDBRANCH   2  14
TORSDOF 2
ENDMDL
MODEL 3
REMARK VINA RESULT:    -4.860     20.139     21.636
REMARK INTER + INTRA:          -5.349
REMARK INTER:                  -5.299
REMARK INTRA:                  -0.051
REMARK UNBOUND:                -0.063
REMARK SMILES COc1cc2ccc(=O)oc2cc1O
REMARK SMILES IDX 3 1 13 2 12 3 11 4 5 5 4 6 6 7 7 8 8 9 9 10 10 11 2 12 1 13
REMARK SMILES IDX 14 14
REMARK H PARENT 14 15
REMARK Flexibility Score: inf
ROOT
ATOM      1  C   UNL     1       7.982  -5.760  -7.113  1.00  0.00     0.161 A 
ATOM      2  C   UNL     1       7.341  -5.285  -8.268  1.00  0.00     0.161 A 
ATOM      3  C   UNL     1       7.865  -5.573  -9.537  1.00  0.00     0.098 A 
ATOM      4  C   UNL     1       9.029  -6.336  -9.662  1.00  0.00     0.142 A 
ATOM      5  C   UNL     1       9.679  -6.817  -8.506  1.00  0.00     0.022 A 
ATOM      6  C   UNL     1       9.157  -6.530  -7.237  1.00  0.00     0.062 A 
ATOM      7  C   UNL     1      10.842  -7.578  -8.663  1.00  0.00     0.019 A 
ATOM      8  C   UNL     1      11.322  -7.837  -9.947  1.00  0.00     0.094 A 
ATOM      9  C   UNL     1      10.624  -7.327 -11.047  1.00  0.00     0.336 A 
ATOM     10  O   UNL     1      11.042  -7.551 -12.214  1.00  0.00    -0.246 OA
ATOM     11  O   UNL     1       9.520  -6.606 -10.869  1.00  0.00    -0.423 OA
ENDROOT
BRANCH   1  12
ATOM     12  O   UNL     1       7.423  -5.446  -5.864  1.00  0.00    -0.493 OA
ATOM     13  C   UNL     1       8.177  -5.096  -4.709  1.00  0.00     0.278 C 
ENDBRANCH   1  12
BRANCH   2  14
ATOM     14  O   UNL     1       6.180  -4.523  -8.146  1.00  0.00    -0.504 OA
ATOM     15  H   UNL     1       6.046  -3.673  -8.680  1.00  0.00     0.293 HD
ENDBRANCH   2  14
TORSDOF 2
ENDMDL
MODEL 4
REMARK VINA RESULT:    -4.856      1.442      5.418
REMARK INTER + INTRA:          -5.344
REMARK INTER:                  -5.281
REMARK INTRA:                  -0.063
REMARK UNBOUND:                -0.063
REMARK SMILES COc1cc2ccc(=O)oc2cc1O
REMARK SMILES IDX 3 1 13 2 12 3 11 4 5 5 4 6 6 7 7 8 8 9 9 10 10 11 2 12 1 13
REMARK SMILES IDX 14 14
REMARK H PARENT 14 15
REMARK Flexibility Score: inf
ROOT
ATOM      1  C   UNL     1      22.395   6.573 -22.102  1.00  0.00     0.161 A 
ATOM      2  C   UNL     1      22.250   6.600 -20.706  1.00  0.00     0.161 A 
ATOM      3  C   UNL     1      21.031   6.984 -20.128  1.00  0.00     0.098 A 
ATOM      4  C   UNL     1      19.950   7.342 -20.937  1.00  0.00     0.142 A 
ATOM      5  C   UNL     1      20.087   7.317 -22.341  1.00  0.00     0.022 A 
ATOM      6  C   UNL     1      21.305   6.934 -22.920  1.00  0.00     0.062 A 
ATOM      7  C   UNL     1      18.987   7.681 -23.125  1.00  0.00     0.019 A 
ATOM      8  C   UNL     1      17.797   8.054 -22.502  1.00  0.00     0.094 A 
ATOM      9  C   UNL     1      17.734   8.054 -21.104  1.00  0.00     0.336 A 
ATOM     10  O   UNL     1      16.667   8.389 -20.523  1.00  0.00    -0.246 OA
ATOM     11  O   UNL     1      18.796   7.704 -20.383  1.00  0.00    -0.423 OA
ENDROOT
BRANCH   1  12
ATOM     12  O   UNL     1      23.633   6.183 -22.636  1.00  0.00    -0.493 OA
ATOM     13  C   UNL     1      23.926   4.878 -23.124  1.00  0.00     0.278 C 
ENDBRANCH   1  12
BRANCH   2  14
ATOM     14  O   UNL     1      23.327   6.244 -19.896  1.00  0.00    -0.504 OA
ATOM     15  H   UNL     1      24.224   5.984 -20.290  1.00  0.00     0.293 HD
ENDBRANCH   2  14
TORSDOF 2
ENDMDL
MODEL 5
REMARK VINA RESULT:    -4.850      1.597      4.859
REMARK INTER + INTRA:          -5.338
REMARK INTER:                  -5.292
REMARK INTRA:                  -0.046
REMARK UNBOUND:                -0.063
REMARK SMILES COc1cc2ccc(=O)oc2cc1O
REMARK SMILES IDX 3 1 13 2 12 3 11 4 5 5 4 6 6 7 7 8 8 9 9 10 10 11 2 12 1 13
REMARK SMILES IDX 14 14
REMARK H PARENT 14 15
REMARK Flexibility Score: inf
ROOT
ATOM      1  C   UNL     1      22.636   6.731 -20.459  1.00  0.00     0.161 A 
ATOM      2  C   UNL     1      22.620   6.043 -21.682  1.00  0.00     0.161 A 
ATOM      3  C   UNL     1      21.450   6.001 -22.456  1.00  0.00     0.098 A 
ATOM      4  C   UNL     1      20.291   6.644 -22.015  1.00  0.00     0.142 A 
ATOM      5  C   UNL     1      20.298   7.338 -20.786  1.00  0.00     0.022 A 
ATOM      6  C   UNL     1      21.467   7.381 -20.012  1.00  0.00     0.062 A 
ATOM      7  C   UNL     1      19.123   7.972 -20.372  1.00  0.00     0.019 A 
ATOM      8  C   UNL     1      17.987   7.902 -21.178  1.00  0.00     0.094 A 
ATOM      9  C   UNL     1      18.054   7.196 -22.384  1.00  0.00     0.336 A 
ATOM     10  O   UNL     1      17.038   7.120 -23.125  1.00  0.00    -0.246 OA
ATOM     11  O   UNL     1      19.185   6.601 -22.754  1.00  0.00    -0.423 OA
ENDROOT
BRANCH   1  12
ATOM     12  O   UNL     1      23.828   6.746 -19.717  1.00  0.00    -0.493 OA
ATOM     13  C   UNL     1      24.125   7.682 -18.687  1.00  0.00     0.278 C 
ENDBRANCH   1  12
BRANCH   2  14
ATOM     14  O   UNL     1      23.775   5.399 -22.124  1.00  0.00    -0.504 OA
ATOM     15  H   UNL     1      23.732   4.533 -22.648  1.00  0.00     0.293 HD
ENDBRANCH   2  14
TORSDOF 2
ENDMDL
MODEL 6
REMARK VINA RESULT:    -4.835     21.036     22.378
REMARK INTER + INTRA:          -5.322
REMARK INTER:                  -5.268
REMARK INTRA:                  -0.053
REMARK UNBOUND:                -0.063
REMARK SMILES COc1cc2ccc(=O)oc2cc1O
REMARK SMILES IDX 3 1 13 2 12 3 11 4 5 5 4 6 6 7 7 8 8 9 9 10 10 11 2 12 1 13
REMARK SMILES IDX 14 14
REMARK H PARENT 14 15
REMARK Flexibility Score: inf
ROOT
ATOM      1  C   UNL     1       8.308  -6.490  -6.662  1.00  0.00     0.161 A 
ATOM      2  C   UNL     1       7.896  -7.790  -6.995  1.00  0.00     0.161 A 
ATOM      3  C   UNL     1       8.579  -8.519  -7.980  1.00  0.00     0.098 A 
ATOM      4  C   UNL     1       9.677  -7.957  -8.637  1.00  0.00     0.142 A 
ATOM      5  C   UNL     1      10.097  -6.651  -8.308  1.00  0.00     0.022 A 
ATOM      6  C   UNL     1       9.415  -5.921  -7.324  1.00  0.00     0.062 A 
ATOM      7  C   UNL     1      11.199  -6.115  -8.983  1.00  0.00     0.019 A 
ATOM      8  C   UNL     1      11.844  -6.881  -9.954  1.00  0.00     0.094 A 
ATOM      9  C   UNL     1      11.371  -8.169 -10.227  1.00  0.00     0.336 A 
ATOM     10  O   UNL     1      11.941  -8.875 -11.100  1.00  0.00    -0.246 OA
ATOM     11  O   UNL     1      10.321  -8.654  -9.570  1.00  0.00    -0.423 OA
ENDROOT
BRANCH   1  12
ATOM     12  O   UNL     1       7.594  -5.798  -5.671  1.00  0.00    -0.493 OA
ATOM     13  C   UNL     1       8.194  -5.087  -4.593  1.00  0.00     0.278 C 
ENDBRANCH   1  12
BRANCH   2  14
ATOM     14  O   UNL     1       6.801  -8.353  -6.341  1.00  0.00    -0.504 OA
ATOM     15  H   UNL     1       6.327  -7.869  -5.587  1.00  0.00     0.293 HD
ENDBRANCH   2  14
TORSDOF 2
ENDMDL
MODEL 7
REMARK VINA RESULT:    -4.811      8.006      9.466
REMARK INTER + INTRA:          -5.295
REMARK INTER:                  -5.235
REMARK INTRA:                  -0.061
REMARK UNBOUND:                -0.063
REMARK SMILES COc1cc2ccc(=O)oc2cc1O
REMARK SMILES IDX 3 1 13 2 12 3 11 4 5 5 4 6 6 7 7 8 8 9 9 10 10 11 2 12 1 13
REMARK SMILES IDX 14 14
REMARK H PARENT 14 15
REMARK Flexibility Score: inf
ROOT
ATOM      1  C   UNL     1      10.753   3.644 -19.751  1.00  0.00     0.161 A 
ATOM      2  C   UNL     1      11.765   3.110 -18.938  1.00  0.00     0.161 A 
ATOM      3  C   UNL     1      12.657   3.960 -18.268  1.00  0.00     0.098 A 
ATOM      4  C   UNL     1      12.545   5.346 -18.403  1.00  0.00     0.142 A 
ATOM      5  C   UNL     1      11.530   5.891 -19.218  1.00  0.00     0.022 A 
ATOM      6  C   UNL     1      10.638   5.042 -19.889  1.00  0.00     0.062 A 
ATOM      7  C   UNL     1      11.443   7.282 -19.334  1.00  0.00     0.019 A 
ATOM      8  C   UNL     1      12.354   8.084 -18.646  1.00  0.00     0.094 A 
ATOM      9  C   UNL     1      13.334   7.473 -17.856  1.00  0.00     0.336 A 
ATOM     10  O   UNL     1      14.165   8.180 -17.228  1.00  0.00    -0.246 OA
ATOM     11  O   UNL     1      13.394   6.147 -17.764  1.00  0.00    -0.423 OA
ENDROOT
BRANCH   1  12
ATOM     12  O   UNL     1       9.883   2.755 -20.404  1.00  0.00    -0.493 OA
ATOM     13  C   UNL     1       8.476   2.705 -20.194  1.00  0.00     0.278 C 
ENDBRANCH   1  12
BRANCH   2  14
ATOM     14  O   UNL     1      11.880   1.727 -18.802  1.00  0.00    -0.504 OA
ATOM     15  H   UNL     1      11.858   1.280 -17.893  1.00  0.00     0.293 HD
ENDBRANCH   2  14
TORSDOF 2
ENDMDL
MODEL 8
REMARK VINA RESULT:    -4.779      9.843     10.129
REMARK INTER + INTRA:          -5.261
REMARK INTER:                  -5.196
REMARK INTRA:                  -0.065
REMARK UNBOUND:                -0.063
REMARK SMILES COc1cc2ccc(=O)oc2cc1O
REMARK SMILES IDX 3 1 13 2 12 3 11 4 5 5 4 6 6 7 7 8 8 9 9 10 10 11 2 12 1 13
REMARK SMILES IDX 14 14
REMARK H PARENT 14 15
REMARK Flexibility Score: inf
ROOT
ATOM      1  C   UNL     1      18.130  -1.516 -15.379  1.00  0.00     0.161 A 
ATOM      2  C   UNL     1      18.884  -0.342 -15.531  1.00  0.00     0.161 A 
ATOM      3  C   UNL     1      19.639  -0.132 -16.695  1.00  0.00     0.098 A 
ATOM      4  C   UNL     1      19.647  -1.089 -17.712  1.00  0.00     0.142 A 
ATOM      5  C   UNL     1      18.892  -2.273 -17.566  1.00  0.00     0.022 A 
ATOM      6  C   UNL     1      18.137  -2.484 -16.404  1.00  0.00     0.062 A 
ATOM      7  C   UNL     1      18.920  -3.213 -18.601  1.00  0.00     0.019 A 
ATOM      8  C   UNL     1      19.686  -2.956 -19.738  1.00  0.00     0.094 A 
ATOM      9  C   UNL     1      20.409  -1.761 -19.813  1.00  0.00     0.336 A 
ATOM     10  O   UNL     1      21.107  -1.512 -20.831  1.00  0.00    -0.246 OA
ATOM     11  O   UNL     1      20.365  -0.884 -18.813  1.00  0.00    -0.423 OA
ENDROOT
BRANCH   1  12
ATOM     12  O   UNL     1      17.390  -1.684 -14.197  1.00  0.00    -0.493 OA
ATOM     13  C   UNL     1      15.986  -1.473 -14.089  1.00  0.00     0.278 C 
ENDBRANCH   1  12
BRANCH   2  14
ATOM     14  O   UNL     1      18.878   0.616 -14.518  1.00  0.00    -0.504 OA
ATOM     15  H   UNL     1      18.014   0.944 -14.103  1.00  0.00     0.293 HD
ENDBRANCH   2  14
TORSDOF 2
ENDMDL
MODEL 9
REMARK VINA RESULT:    -4.773     20.471     22.375
REMARK INTER + INTRA:          -5.254
REMARK INTER:                  -5.192
REMARK INTRA:                  -0.062
REMARK UNBOUND:                -0.063
REMARK SMILES COc1cc2ccc(=O)oc2cc1O
REMARK SMILES IDX 3 1 13 2 12 3 11 4 5 5 4 6 6 7 7 8 8 9 9 10 10 11 2 12 1 13
REMARK SMILES IDX 14 14
REMARK H PARENT 14 15
REMARK Flexibility Score: inf
ROOT
ATOM      1  C   UNL     1       8.110  -6.890 -10.952  1.00  0.00     0.161 A 
ATOM      2  C   UNL     1       8.088  -5.505 -10.730  1.00  0.00     0.161 A 
ATOM      3  C   UNL     1       8.036  -4.998  -9.423  1.00  0.00     0.098 A 
ATOM      4  C   UNL     1       8.007  -5.868  -8.331  1.00  0.00     0.142 A 
ATOM      5  C   UNL     1       8.028  -7.263  -8.545  1.00  0.00     0.022 A 
ATOM      6  C   UNL     1       8.080  -7.771  -9.851  1.00  0.00     0.062 A 
ATOM      7  C   UNL     1       7.998  -8.109  -7.432  1.00  0.00     0.019 A 
ATOM      8  C   UNL     1       7.947  -7.555  -6.153  1.00  0.00     0.094 A 
ATOM      9  C   UNL     1       7.928  -6.163  -6.017  1.00  0.00     0.336 A 
ATOM     10  O   UNL     1       7.883  -5.644  -4.871  1.00  0.00    -0.246 OA
ATOM     11  O   UNL     1       7.958  -5.381  -7.094  1.00  0.00    -0.423 OA
ENDROOT
BRANCH   1  12
ATOM     12  O   UNL     1       8.161  -7.353 -12.277  1.00  0.00    -0.493 OA
ATOM     13  C   UNL     1       9.245  -8.091 -12.831  1.00  0.00     0.278 C 
ENDBRANCH   1  12
BRANCH   2  14
ATOM     14  O   UNL     1       8.117  -4.634 -11.819  1.00  0.00    -0.504 OA
ATOM     15  H   UNL     1       8.972  -4.454 -12.331  1.00  0.00     0.293 HD
ENDBRANCH   2  14
TORSDOF 2
ENDMDL
