MODEL 1
REMARK VINA RESULT:    -5.145      0.000      0.000
REMARK INTER + INTRA:          -6.384
REMARK INTER:                  -6.198
REMARK INTRA:                  -0.186
REMARK UNBOUND:                -0.186
REMARK SMILES O=c1c(O)c(-c2ccc(O)c(O)c2)oc2cc(O)cc(O)c12
REMARK SMILES IDX 5 1 3 2 2 3 1 4 22 5 20 6 19 7 17 8 16 9 15 10 14 11 6 12
REMARK SMILES IDX 7 13 8 14 9 15 13 16 11 17 10 18 12 20 4 22 21 24 18 26
REMARK H PARENT 10 19 12 21 4 23 21 25 18 27
REMARK Flexibility Score: inf
ROOT
ATOM      1  C   UNL     1       7.986  10.386   7.284  1.00  0.00     0.180 A 
ATOM      2  C   UNL     1       8.186  11.740   7.602  1.00  0.00     0.208 A 
ATOM      3  C   UNL     1       7.070  12.548   7.874  1.00  0.00     0.238 A 
ATOM      4  O   UNL     1       7.259  13.746   8.210  1.00  0.00    -0.285 OA
ATOM      5  C   UNL     1       5.768  11.995   7.808  1.00  0.00     0.111 A 
ATOM      6  C   UNL     1       4.564  12.730   8.026  1.00  0.00     0.134 A 
ATOM      7  C   UNL     1       3.339  12.053   8.065  1.00  0.00     0.093 A 
ATOM      8  C   UNL     1       3.267  10.681   7.830  1.00  0.00     0.123 A 
ATOM      9  C   UNL     1       4.432   9.962   7.558  1.00  0.00     0.094 A 
ATOM     10  C   UNL     1       5.673  10.604   7.549  1.00  0.00     0.146 A 
ATOM     11  O   UNL     1       6.758   9.882   7.295  1.00  0.00    -0.452 OA
ENDROOT
BRANCH   1  12
ATOM     12  C   UNL     1       9.111   9.478   6.961  1.00  0.00     0.025 A 
ATOM     13  C   UNL     1       9.477   8.430   7.824  1.00  0.00     0.016 A 
ATOM     14  C   UNL     1      10.557   7.600   7.510  1.00  0.00     0.051 A 
ATOM     15  C   UNL     1      11.294   7.814   6.338  1.00  0.00     0.157 A 
ATOM     16  C   UNL     1       9.867   9.700   5.798  1.00  0.00     0.062 A 
ATOM     17  C   UNL     1      10.949   8.871   5.480  1.00  0.00     0.158 A 
BRANCH  15  18
ATOM     18  O   UNL     1      12.370   6.983   6.026  1.00  0.00    -0.504 OA
ATOM     19  H   UNL     1      13.315   7.208   6.315  1.00  0.00     0.293 HD
ENDBRANCH  15  18
BRANCH  17  20
ATOM     20  O   UNL     1      11.667   9.114   4.310  1.00  0.00    -0.504 OA
ATOM     21  H   UNL     1      12.655   8.903   4.231  1.00  0.00     0.293 HD
ENDBRANCH  17  20
ENDBRANCH   1  12
BRANCH   2  22
ATOM     22  O   UNL     1       9.481  12.260   7.681  1.00  0.00    -0.502 OA
ATOM     23  H   UNL     1       9.666  13.255   7.718  1.00  0.00     0.293 HD
ENDBRANCH   2  22
BRANCH   6  24
ATOM     24  O   UNL     1       4.514  14.119   8.179  1.00  0.00    -0.507 OA
ATOM     25  H   UNL     1       3.676  14.675   8.102  1.00  0.00     0.293 HD
ENDBRANCH   6  24
BRANCH   8  26
ATOM     26  O   UNL     1       2.029  10.042   7.862  1.00  0.00    -0.508 OA
ATOM     27  H   UNL     1       1.875   9.213   8.424  1.00  0.00     0.293 HD
ENDBRANCH   8  26
TORSDOF 6
ENDMDL
MODEL 2
REMARK VINA RESULT:    -5.018      2.327      3.001
REMARK INTER + INTRA:          -6.231
REMARK INTER:                  -5.928
REMARK INTRA:                  -0.303
REMARK UNBOUND:                -0.186
REMARK SMILES O=c1c(O)c(-c2ccc(O)c(O)c2)oc2cc(O)cc(O)c12
REMARK SMILES IDX 5 1 3 2 2 3 1 4 22 5 20 6 19 7 17 8 16 9 15 10 14 11 6 12
REMARK SMILES IDX 7 13 8 14 9 15 13 16 11 17 10 18 12 20 4 22 21 24 18 26
REMARK H PARENT 10 19 12 21 4 23 21 25 18 27
REMARK Flexibility Score: inf
ROOT
ATOM      1  C   UNL     1       7.676  11.439   8.014  1.00  0.00     0.180 A 
ATOM      2  C   UNL     1       8.141  11.661   9.321  1.00  0.00     0.208 A 
ATOM      3  C   UNL     1       7.639  12.753  10.047  1.00  0.00     0.238 A 
ATOM      4  O   UNL     1       8.019  12.915  11.236  1.00  0.00    -0.285 OA
ATOM      5  C   UNL     1       6.692  13.619   9.449  1.00  0.00     0.111 A 
ATOM      6  C   UNL     1       6.146  14.780  10.077  1.00  0.00     0.134 A 
ATOM      7  C   UNL     1       5.118  15.489   9.443  1.00  0.00     0.093 A 
ATOM      8  C   UNL     1       4.663  15.121   8.179  1.00  0.00     0.123 A 
ATOM      9  C   UNL     1       5.231  14.023   7.530  1.00  0.00     0.094 A 
ATOM     10  C   UNL     1       6.232  13.274   8.153  1.00  0.00     0.146 A 
ATOM     11  O   UNL     1       6.739  12.231   7.506  1.00  0.00    -0.452 OA
ENDROOT
BRANCH   1  12
ATOM     12  C   UNL     1       8.176  10.323   7.177  1.00  0.00     0.025 A 
ATOM     13  C   UNL     1       7.478   9.107   7.088  1.00  0.00     0.016 A 
ATOM     14  C   UNL     1       7.982   8.059   6.312  1.00  0.00     0.051 A 
ATOM     15  C   UNL     1       9.194   8.207   5.626  1.00  0.00     0.157 A 
ATOM     16  C   UNL     1       9.401  10.458   6.505  1.00  0.00     0.062 A 
ATOM     17  C   UNL     1       9.908   9.412   5.726  1.00  0.00     0.158 A 
BRANCH  15  18
ATOM     18  O   UNL     1       9.693   7.160   4.850  1.00  0.00    -0.504 OA
ATOM     19  H   UNL     1      10.176   6.374   5.269  1.00  0.00     0.293 HD
ENDBRANCH  15  18
BRANCH  17  20
ATOM     20  O   UNL     1      11.122   9.589   5.062  1.00  0.00    -0.504 OA
ATOM     21  H   UNL     1      11.195   9.537   4.053  1.00  0.00     0.293 HD
ENDBRANCH  17  20
ENDBRANCH   1  12
BRANCH   2  22
ATOM     22  O   UNL     1       9.061  10.781   9.899  1.00  0.00    -0.502 OA
ATOM     23  H   UNL     1       8.895   9.784   9.959  1.00  0.00     0.293 HD
ENDBRANCH   2  22
BRANCH   6  24
ATOM     24  O   UNL     1       6.594  15.289  11.299  1.00  0.00    -0.507 OA
ATOM     25  H   UNL     1       7.430  15.841  11.420  1.00  0.00     0.293 HD
ENDBRANCH   6  24
BRANCH   8  26
ATOM     26  O   UNL     1       3.649  15.859   7.571  1.00  0.00    -0.508 OA
ATOM     27  H   UNL     1       3.542  15.881   6.563  1.00  0.00     0.293 HD
ENDBRANCH   8  26
TORSDOF 6
ENDMDL
MODEL 3
REMARK VINA RESULT:    -4.904      1.553      7.047
REMARK INTER + INTRA:          -6.093
REMARK INTER:                  -5.804
REMARK INTRA:                  -0.290
REMARK UNBOUND:                -0.186
REMARK SMILES O=c1c(O)c(-c2ccc(O)c(O)c2)oc2cc(O)cc(O)c12
REMARK SMILES IDX 5 1 3 2 2 3 1 4 22 5 20 6 19 7 17 8 16 9 15 10 14 11 6 12
REMARK SMILES IDX 7 13 8 14 9 15 13 16 11 17 10 18 12 20 4 22 21 24 18 26
REMARK H PARENT 10 19 12 21 4 23 21 25 18 27
REMARK Flexibility Score: inf
ROOT
ATOM      1  C   UNL     1       7.549  10.694   7.834  1.00  0.00     0.180 A 
ATOM      2  C   UNL     1       7.874   9.979   9.000  1.00  0.00     0.208 A 
ATOM      3  C   UNL     1       8.914   9.038   8.955  1.00  0.00     0.238 A 
ATOM      4  O   UNL     1       9.237   8.442  10.015  1.00  0.00    -0.285 OA
ATOM      5  C   UNL     1       9.605   8.811   7.740  1.00  0.00     0.111 A 
ATOM      6  C   UNL     1      10.650   7.853   7.569  1.00  0.00     0.134 A 
ATOM      7  C   UNL     1      11.352   7.805   6.358  1.00  0.00     0.093 A 
ATOM      8  C   UNL     1      11.005   8.633   5.292  1.00  0.00     0.123 A 
ATOM      9  C   UNL     1       9.947   9.533   5.428  1.00  0.00     0.094 A 
ATOM     10  C   UNL     1       9.252   9.629   6.636  1.00  0.00     0.146 A 
ATOM     11  O   UNL     1       8.258  10.505   6.728  1.00  0.00    -0.452 OA
ENDROOT
BRANCH   1  12
ATOM     12  C   UNL     1       6.447  11.684   7.797  1.00  0.00     0.025 A 
ATOM     13  C   UNL     1       6.700  13.062   7.904  1.00  0.00     0.016 A 
ATOM     14  C   UNL     1       5.643  13.977   7.891  1.00  0.00     0.051 A 
ATOM     15  C   UNL     1       4.320  13.527   7.783  1.00  0.00     0.157 A 
ATOM     16  C   UNL     1       5.119  11.238   7.711  1.00  0.00     0.062 A 
ATOM     17  C   UNL     1       4.058  12.150   7.696  1.00  0.00     0.158 A 
BRANCH  15  18
ATOM     18  O   UNL     1       3.268  14.443   7.769  1.00  0.00    -0.504 OA
ATOM     19  H   UNL     1       2.760  14.680   8.612  1.00  0.00     0.293 HD
ENDBRANCH  15  18
BRANCH  17  20
ATOM     20  O   UNL     1       2.753  11.670   7.596  1.00  0.00    -0.504 OA
ATOM     21  H   UNL     1       1.958  12.197   7.939  1.00  0.00     0.293 HD
ENDBRANCH  17  20
ENDBRANCH   1  12
BRANCH   2  22
ATOM     22  O   UNL     1       7.192  10.235  10.193  1.00  0.00    -0.502 OA
ATOM     23  H   UNL     1       6.278   9.848  10.391  1.00  0.00     0.293 HD
ENDBRANCH   2  22
BRANCH   6  24
ATOM     24  O   UNL     1      11.015   6.915   8.539  1.00  0.00    -0.507 OA
ATOM     25  H   UNL     1      11.109   5.924   8.373  1.00  0.00     0.293 HD
ENDBRANCH   6  24
BRANCH   8  26
ATOM     26  O   UNL     1      11.716   8.547   4.096  1.00  0.00    -0.508 OA
ATOM     27  H   UNL     1      12.412   7.826   3.945  1.00  0.00     0.293 HD
ENDBRANCH   8  26
TORSDOF 6
ENDMDL
MODEL 4
REMARK VINA RESULT:    -4.592      2.003      6.996
REMARK INTER + INTRA:          -5.717
REMARK INTER:                  -5.383
REMARK INTRA:                  -0.335
REMARK UNBOUND:                -0.186
REMARK SMILES O=c1c(O)c(-c2ccc(O)c(O)c2)oc2cc(O)cc(O)c12
REMARK SMILES IDX 5 1 3 2 2 3 1 4 22 5 20 6 19 7 17 8 16 9 15 10 14 11 6 12
REMARK SMILES IDX 7 13 8 14 9 15 13 16 11 17 10 18 12 20 4 22 21 24 18 26
REMARK H PARENT 10 19 12 21 4 23 21 25 18 27
REMARK Flexibility Score: inf
ROOT
ATOM      1  C   UNL     1       7.240  10.995   7.718  1.00  0.00     0.180 A 
ATOM      2  C   UNL     1       6.506   9.798   7.793  1.00  0.00     0.208 A 
ATOM      3  C   UNL     1       7.005   8.651   7.156  1.00  0.00     0.238 A 
ATOM      4  O   UNL     1       6.371   7.570   7.272  1.00  0.00    -0.285 OA
ATOM      5  C   UNL     1       8.223   8.720   6.437  1.00  0.00     0.111 A 
ATOM      6  C   UNL     1       8.803   7.630   5.719  1.00  0.00     0.134 A 
ATOM      7  C   UNL     1      10.076   7.775   5.154  1.00  0.00     0.093 A 
ATOM      8  C   UNL     1      10.761   8.986   5.223  1.00  0.00     0.123 A 
ATOM      9  C   UNL     1      10.178  10.077   5.871  1.00  0.00     0.094 A 
ATOM     10  C   UNL     1       8.925   9.952   6.477  1.00  0.00     0.146 A 
ATOM     11  O   UNL     1       8.410  11.010   7.091  1.00  0.00    -0.452 OA
ENDROOT
BRANCH   1  12
ATOM     12  C   UNL     1       6.765  12.251   8.343  1.00  0.00     0.025 A 
ATOM     13  C   UNL     1       5.929  13.143   7.649  1.00  0.00     0.016 A 
ATOM     14  C   UNL     1       5.514  14.334   8.250  1.00  0.00     0.051 A 
ATOM     15  C   UNL     1       5.937  14.658   9.546  1.00  0.00     0.157 A 
ATOM     16  C   UNL     1       7.204  12.591   9.633  1.00  0.00     0.062 A 
ATOM     17  C   UNL     1       6.790  13.782  10.238  1.00  0.00     0.158 A 
BRANCH  15  18
ATOM     18  O   UNL     1       5.519  15.846  10.143  1.00  0.00    -0.504 OA
ATOM     19  H   UNL     1       4.679  15.889  10.708  1.00  0.00     0.293 HD
ENDBRANCH  15  18
BRANCH  17  20
ATOM     20  O   UNL     1       7.236  14.078  11.526  1.00  0.00    -0.504 OA
ATOM     21  H   UNL     1       6.691  14.644  12.167  1.00  0.00     0.293 HD
ENDBRANCH  17  20
ENDBRANCH   1  12
BRANCH   2  22
ATOM     22  O   UNL     1       5.317   9.748   8.526  1.00  0.00    -0.502 OA
ATOM     23  H   UNL     1       5.301   9.601   9.527  1.00  0.00     0.293 HD
ENDBRANCH   2  22
BRANCH   6  24
ATOM     24  O   UNL     1       8.163   6.405   5.511  1.00  0.00    -0.507 OA
ATOM     25  H   UNL     1       8.634   5.515   5.448  1.00  0.00     0.293 HD
ENDBRANCH   6  24
BRANCH   8  26
ATOM     26  O   UNL     1      12.020   9.099   4.635  1.00  0.00    -0.508 OA
ATOM     27  H   UNL     1      12.326   8.457   3.913  1.00  0.00     0.293 HD
ENDBRANCH   8  26
TORSDOF 6
ENDMDL
MODEL 5
REMARK VINA RESULT:    -4.521      3.416      6.785
REMARK INTER + INTRA:          -5.632
REMARK INTER:                  -5.316
REMARK INTRA:                  -0.316
REMARK UNBOUND:                -0.186
REMARK SMILES O=c1c(O)c(-c2ccc(O)c(O)c2)oc2cc(O)cc(O)c12
REMARK SMILES IDX 5 1 3 2 2 3 1 4 22 5 20 6 19 7 17 8 16 9 15 10 14 11 6 12
REMARK SMILES IDX 7 13 8 14 9 15 13 16 11 17 10 18 12 20 4 22 21 24 18 26
REMARK H PARENT 10 19 12 21 4 23 21 25 18 27
REMARK Flexibility Score: inf
ROOT
ATOM      1  C   UNL     1      12.721   8.538   4.476  1.00  0.00     0.180 A 
ATOM      2  C   UNL     1      12.655   7.212   4.936  1.00  0.00     0.208 A 
ATOM      3  C   UNL     1      11.627   6.847   5.819  1.00  0.00     0.238 A 
ATOM      4  O   UNL     1      11.541   5.646   6.185  1.00  0.00    -0.285 OA
ATOM      5  C   UNL     1      10.688   7.817   6.245  1.00  0.00     0.111 A 
ATOM      6  C   UNL     1       9.628   7.569   7.169  1.00  0.00     0.134 A 
ATOM      7  C   UNL     1       8.680   8.569   7.417  1.00  0.00     0.093 A 
ATOM      8  C   UNL     1       8.788   9.827   6.827  1.00  0.00     0.123 A 
ATOM      9  C   UNL     1       9.854  10.100   5.967  1.00  0.00     0.094 A 
ATOM     10  C   UNL     1      10.795   9.111   5.672  1.00  0.00     0.146 A 
ATOM     11  O   UNL     1      11.788   9.408   4.841  1.00  0.00    -0.452 OA
ENDROOT
BRANCH   1  12
ATOM     12  C   UNL     1      13.791   9.004   3.563  1.00  0.00     0.025 A 
ATOM     13  C   UNL     1      13.611   9.011   2.169  1.00  0.00     0.016 A 
ATOM     14  C   UNL     1      14.643   9.432   1.325  1.00  0.00     0.051 A 
ATOM     15  C   UNL     1      15.871   9.839   1.861  1.00  0.00     0.157 A 
ATOM     16  C   UNL     1      15.032   9.393   4.093  1.00  0.00     0.062 A 
ATOM     17  C   UNL     1      16.067   9.816   3.252  1.00  0.00     0.158 A 
BRANCH  15  18
ATOM     18  O   UNL     1      16.898  10.261   1.017  1.00  0.00    -0.504 OA
ATOM     19  H   UNL     1      17.752  10.667   1.381  1.00  0.00     0.293 HD
ENDBRANCH  15  18
BRANCH  17  20
ATOM     20  O   UNL     1      17.281  10.208   3.816  1.00  0.00    -0.504 OA
ATOM     21  H   UNL     1      17.602  11.168   3.787  1.00  0.00     0.293 HD
ENDBRANCH  17  20
ENDBRANCH   1  12
BRANCH   2  22
ATOM     22  O   UNL     1      13.581   6.265   4.486  1.00  0.00    -0.502 OA
ATOM     23  H   UNL     1      13.414   5.269   4.552  1.00  0.00     0.293 HD
ENDBRANCH   2  22
BRANCH   6  24
ATOM     24  O   UNL     1       9.481   6.377   7.885  1.00  0.00    -0.507 OA
ATOM     25  H   UNL     1      10.217   5.925   8.404  1.00  0.00     0.293 HD
ENDBRANCH   6  24
BRANCH   8  26
ATOM     26  O   UNL     1       7.834  10.803   7.109  1.00  0.00    -0.508 OA
ATOM     27  H   UNL     1       7.528  10.985   8.058  1.00  0.00     0.293 HD
ENDBRANCH   8  26
TORSDOF 6
ENDMDL
MODEL 6
REMARK VINA RESULT:    -4.480      2.420      7.074
REMARK INTER + INTRA:          -5.582
REMARK INTER:                  -5.344
REMARK INTRA:                  -0.238
REMARK UNBOUND:                -0.186
REMARK SMILES O=c1c(O)c(-c2ccc(O)c(O)c2)oc2cc(O)cc(O)c12
REMARK SMILES IDX 5 1 3 2 2 3 1 4 22 5 20 6 19 7 17 8 16 9 15 10 14 11 6 12
REMARK SMILES IDX 7 13 8 14 9 15 13 16 11 17 10 18 12 20 4 22 21 24 18 26
REMARK H PARENT 10 19 12 21 4 23 21 25 18 27
REMARK Flexibility Score: inf
ROOT
ATOM      1  C   UNL     1       5.576  12.951   8.117  1.00  0.00     0.180 A 
ATOM      2  C   UNL     1       6.240  13.495   9.230  1.00  0.00     0.208 A 
ATOM      3  C   UNL     1       7.385  12.851   9.723  1.00  0.00     0.238 A 
ATOM      4  O   UNL     1       8.006  13.373  10.685  1.00  0.00    -0.285 OA
ATOM      5  C   UNL     1       7.843  11.660   9.107  1.00  0.00     0.111 A 
ATOM      6  C   UNL     1       8.969  10.902   9.548  1.00  0.00     0.134 A 
ATOM      7  C   UNL     1       9.410   9.813   8.785  1.00  0.00     0.093 A 
ATOM      8  C   UNL     1       8.728   9.416   7.637  1.00  0.00     0.123 A 
ATOM      9  C   UNL     1       7.590  10.115   7.229  1.00  0.00     0.094 A 
ATOM     10  C   UNL     1       7.149  11.227   7.949  1.00  0.00     0.146 A 
ATOM     11  O   UNL     1       6.068  11.870   7.522  1.00  0.00    -0.452 OA
ENDROOT
BRANCH   1  12
ATOM     12  C   UNL     1       4.348  13.559   7.555  1.00  0.00     0.025 A 
ATOM     13  C   UNL     1       3.093  12.944   7.704  1.00  0.00     0.016 A 
ATOM     14  C   UNL     1       1.951  13.525   7.145  1.00  0.00     0.051 A 
ATOM     15  C   UNL     1       2.048  14.719   6.419  1.00  0.00     0.157 A 
ATOM     16  C   UNL     1       4.443  14.745   6.808  1.00  0.00     0.062 A 
ATOM     17  C   UNL     1       3.302  15.329   6.247  1.00  0.00     0.158 A 
BRANCH  15  18
ATOM     18  O   UNL     1       0.907  15.296   5.864  1.00  0.00    -0.504 OA
ATOM     19  H   UNL     1       0.660  15.154   4.891  1.00  0.00     0.293 HD
ENDBRANCH  15  18
BRANCH  17  20
ATOM     20  O   UNL     1       3.434  16.514   5.524  1.00  0.00    -0.504 OA
ATOM     21  H   UNL     1       4.272  17.081   5.568  1.00  0.00     0.293 HD
ENDBRANCH  17  20
ENDBRANCH   1  12
BRANCH   2  22
ATOM     22  O   UNL     1       5.783  14.683   9.808  1.00  0.00    -0.502 OA
ATOM     23  H   UNL     1       6.117  15.014  10.705  1.00  0.00     0.293 HD
ENDBRANCH   2  22
BRANCH   6  24
ATOM     24  O   UNL     1       9.667  11.157  10.732  1.00  0.00    -0.507 OA
ATOM     25  H   UNL     1       9.601  10.597  11.569  1.00  0.00     0.293 HD
ENDBRANCH   6  24
BRANCH   8  26
ATOM     26  O   UNL     1       9.186   8.318   6.910  1.00  0.00    -0.508 OA
ATOM     27  H   UNL     1       9.168   7.382   7.298  1.00  0.00     0.293 HD
ENDBRANCH   8  26
TORSDOF 6
ENDMDL
MODEL 7
REMARK VINA RESULT:    -4.470      3.279      4.668
REMARK INTER + INTRA:          -5.570
REMARK INTER:                  -5.244
REMARK INTRA:                  -0.326
REMARK UNBOUND:                -0.186
REMARK SMILES O=c1c(O)c(-c2ccc(O)c(O)c2)oc2cc(O)cc(O)c12
REMARK SMILES IDX 5 1 3 2 2 3 1 4 22 5 20 6 19 7 17 8 16 9 15 10 14 11 6 12
REMARK SMILES IDX 7 13 8 14 9 15 13 16 11 17 10 18 12 20 4 22 21 24 18 26
REMARK H PARENT 10 19 12 21 4 23 21 25 18 27
REMARK Flexibility Score: inf
ROOT
ATOM      1  C   UNL     1       7.529  12.108   8.934  1.00  0.00     0.180 A 
ATOM      2  C   UNL     1       6.540  13.073   8.675  1.00  0.00     0.208 A 
ATOM      3  C   UNL     1       6.279  14.057   9.642  1.00  0.00     0.238 A 
ATOM      4  O   UNL     1       5.431  14.950   9.382  1.00  0.00    -0.285 OA
ATOM      5  C   UNL     1       6.997  14.054  10.862  1.00  0.00     0.111 A 
ATOM      6  C   UNL     1       6.787  14.979  11.928  1.00  0.00     0.134 A 
ATOM      7  C   UNL     1       7.645  14.964  13.035  1.00  0.00     0.093 A 
ATOM      8  C   UNL     1       8.662  14.017  13.144  1.00  0.00     0.123 A 
ATOM      9  C   UNL     1       8.840  13.070  12.135  1.00  0.00     0.094 A 
ATOM     10  C   UNL     1       8.023  13.084  11.002  1.00  0.00     0.146 A 
ATOM     11  O   UNL     1       8.231  12.171  10.059  1.00  0.00    -0.452 OA
ENDROOT
BRANCH   1  12
ATOM     12  C   UNL     1       7.843  11.024   7.974  1.00  0.00     0.025 A 
ATOM     13  C   UNL     1       7.089   9.839   7.938  1.00  0.00     0.016 A 
ATOM     14  C   UNL     1       7.419   8.819   7.040  1.00  0.00     0.051 A 
ATOM     15  C   UNL     1       8.513   8.964   6.177  1.00  0.00     0.157 A 
ATOM     16  C   UNL     1       8.952  11.155   7.122  1.00  0.00     0.062 A 
ATOM     17  C   UNL     1       9.285  10.137   6.222  1.00  0.00     0.158 A 
BRANCH  15  18
ATOM     18  O   UNL     1       8.839   7.946   5.282  1.00  0.00    -0.504 OA
ATOM     19  H   UNL     1       9.090   7.018   5.602  1.00  0.00     0.293 HD
ENDBRANCH  15  18
BRANCH  17  20
ATOM     20  O   UNL     1      10.385  10.309   5.382  1.00  0.00    -0.504 OA
ATOM     21  H   UNL     1      11.143  10.941   5.611  1.00  0.00     0.293 HD
ENDBRANCH  17  20
ENDBRANCH   1  12
BRANCH   2  22
ATOM     22  O   UNL     1       5.857  13.070   7.455  1.00  0.00    -0.502 OA
ATOM     23  H   UNL     1       6.335  12.992   6.566  1.00  0.00     0.293 HD
ENDBRANCH   2  22
BRANCH   6  24
ATOM     24  O   UNL     1       5.742  15.907  11.962  1.00  0.00    -0.507 OA
ATOM     25  H   UNL     1       4.828  15.757  11.562  1.00  0.00     0.293 HD
ENDBRANCH   6  24
BRANCH   8  26
ATOM     26  O   UNL     1       9.488  14.022  14.267  1.00  0.00    -0.508 OA
ATOM     27  H   UNL     1      10.243  13.355  14.372  1.00  0.00     0.293 HD
ENDBRANCH   8  26
TORSDOF 6
ENDMDL
MODEL 8
REMARK VINA RESULT:    -4.463      3.569      9.007
REMARK INTER + INTRA:          -5.562
REMARK INTER:                  -5.236
REMARK INTRA:                  -0.326
REMARK UNBOUND:                -0.186
REMARK SMILES O=c1c(O)c(-c2ccc(O)c(O)c2)oc2cc(O)cc(O)c12
REMARK SMILES IDX 5 1 3 2 2 3 1 4 22 5 20 6 19 7 17 8 16 9 15 10 14 11 6 12
REMARK SMILES IDX 7 13 8 14 9 15 13 16 11 17 10 18 12 20 4 22 21 24 18 26
REMARK H PARENT 10 19 12 21 4 23 21 25 18 27
REMARK Flexibility Score: inf
ROOT
ATOM      1  C   UNL     1      11.666   8.530   4.613  1.00  0.00     0.180 A 
ATOM      2  C   UNL     1      11.351   7.639   3.572  1.00  0.00     0.208 A 
ATOM      3  C   UNL     1      12.278   7.445   2.537  1.00  0.00     0.238 A 
ATOM      4  O   UNL     1      12.014   6.606   1.637  1.00  0.00    -0.285 OA
ATOM      5  C   UNL     1      13.502   8.158   2.545  1.00  0.00     0.111 A 
ATOM      6  C   UNL     1      14.498   8.069   1.527  1.00  0.00     0.134 A 
ATOM      7  C   UNL     1      15.727   8.718   1.704  1.00  0.00     0.093 A 
ATOM      8  C   UNL     1      15.971   9.503   2.829  1.00  0.00     0.123 A 
ATOM      9  C   UNL     1      14.982   9.645   3.804  1.00  0.00     0.094 A 
ATOM     10  C   UNL     1      13.760   8.980   3.672  1.00  0.00     0.146 A 
ATOM     11  O   UNL     1      12.849   9.133   4.627  1.00  0.00    -0.452 OA
ENDROOT
BRANCH   1  12
ATOM     12  C   UNL     1      10.729   8.806   5.727  1.00  0.00     0.025 A 
ATOM     13  C   UNL     1       9.827   9.882   5.673  1.00  0.00     0.016 A 
ATOM     14  C   UNL     1       8.968  10.137   6.746  1.00  0.00     0.051 A 
ATOM     15  C   UNL     1       9.008   9.331   7.891  1.00  0.00     0.157 A 
ATOM     16  C   UNL     1      10.780   8.014   6.885  1.00  0.00     0.062 A 
ATOM     17  C   UNL     1       9.921   8.266   7.961  1.00  0.00     0.158 A 
BRANCH  15  18
ATOM     18  O   UNL     1       8.149   9.587   8.959  1.00  0.00    -0.504 OA
ATOM     19  H   UNL     1       8.281  10.388   9.566  1.00  0.00     0.293 HD
ENDBRANCH  15  18
BRANCH  17  20
ATOM     20  O   UNL     1       9.991   7.449   9.089  1.00  0.00    -0.504 OA
ATOM     21  H   UNL     1       9.268   7.448   9.799  1.00  0.00     0.293 HD
ENDBRANCH  17  20
ENDBRANCH   1  12
BRANCH   2  22
ATOM     22  O   UNL     1      10.146   6.931   3.595  1.00  0.00    -0.502 OA
ATOM     23  H   UNL     1       9.345   7.238   4.133  1.00  0.00     0.293 HD
ENDBRANCH   2  22
BRANCH   6  24
ATOM     24  O   UNL     1      14.322   7.386   0.320  1.00  0.00    -0.507 OA
ATOM     25  H   UNL     1      13.476   6.907   0.050  1.00  0.00     0.293 HD
ENDBRANCH   6  24
BRANCH   8  26
ATOM     26  O   UNL     1      17.200  10.147   2.965  1.00  0.00    -0.508 OA
ATOM     27  H   UNL     1      18.073   9.661   2.796  1.00  0.00     0.293 HD
ENDBRANCH   8  26
TORSDOF 6
ENDMDL
MODEL 9
REMARK VINA RESULT:    -4.441      3.469      4.699
REMARK INTER + INTRA:          -5.536
REMARK INTER:                  -5.255
REMARK INTRA:                  -0.281
REMARK UNBOUND:                -0.186
REMARK SMILES O=c1c(O)c(-c2ccc(O)c(O)c2)oc2cc(O)cc(O)c12
REMARK SMILES IDX 5 1 3 2 2 3 1 4 22 5 20 6 19 7 17 8 16 9 15 10 14 11 6 12
REMARK SMILES IDX 7 13 8 14 9 15 13 16 11 17 10 18 12 20 4 22 21 24 18 26
REMARK H PARENT 10 19 12 21 4 23 21 25 18 27
REMARK Flexibility Score: inf
ROOT
ATOM      1  C   UNL     1       9.147   9.649   8.504  1.00  0.00     0.180 A 
ATOM      2  C   UNL     1       8.996  10.991   8.893  1.00  0.00     0.208 A 
ATOM      3  C   UNL     1       8.840  11.292  10.256  1.00  0.00     0.238 A 
ATOM      4  O   UNL     1       8.760  12.499  10.603  1.00  0.00    -0.285 OA
ATOM      5  C   UNL     1       8.819  10.245  11.209  1.00  0.00     0.111 A 
ATOM      6  C   UNL     1       8.627  10.431  12.612  1.00  0.00     0.134 A 
ATOM      7  C   UNL     1       8.756   9.338  13.478  1.00  0.00     0.093 A 
ATOM      8  C   UNL     1       9.004   8.057  12.988  1.00  0.00     0.123 A 
ATOM      9  C   UNL     1       9.135   7.854  11.613  1.00  0.00     0.094 A 
ATOM     10  C   UNL     1       9.049   8.931  10.728  1.00  0.00     0.146 A 
ATOM     11  O   UNL     1       9.189   8.696   9.428  1.00  0.00    -0.452 OA
ENDROOT
BRANCH   1  12
ATOM     12  C   UNL     1       9.291   9.251   7.084  1.00  0.00     0.025 A 
ATOM     13  C   UNL     1       8.221   8.685   6.371  1.00  0.00     0.016 A 
ATOM     14  C   UNL     1       8.387   8.294   5.039  1.00  0.00     0.051 A 
ATOM     15  C   UNL     1       9.627   8.452   4.406  1.00  0.00     0.157 A 
ATOM     16  C   UNL     1      10.537   9.387   6.451  1.00  0.00     0.062 A 
ATOM     17  C   UNL     1      10.708   8.998   5.118  1.00  0.00     0.158 A 
BRANCH  15  18
ATOM     18  O   UNL     1       9.789   8.064   3.076  1.00  0.00    -0.504 OA
ATOM     19  H   UNL     1      10.592   8.357   2.532  1.00  0.00     0.293 HD
ENDBRANCH  15  18
BRANCH  17  20
ATOM     20  O   UNL     1      11.956   9.161   4.519  1.00  0.00    -0.504 OA
ATOM     21  H   UNL     1      12.093   9.048   3.521  1.00  0.00     0.293 HD
ENDBRANCH  17  20
ENDBRANCH   1  12
BRANCH   2  22
ATOM     22  O   UNL     1       9.041  12.009   7.937  1.00  0.00    -0.502 OA
ATOM     23  H   UNL     1       8.405  12.043   7.150  1.00  0.00     0.293 HD
ENDBRANCH   2  22
BRANCH   6  24
ATOM     24  O   UNL     1       8.283  11.653  13.197  1.00  0.00    -0.507 OA
ATOM     25  H   UNL     1       8.373  11.864  14.180  1.00  0.00     0.293 HD
ENDBRANCH   6  24
BRANCH   8  26
ATOM     26  O   UNL     1       9.111   6.990  13.877  1.00  0.00    -0.508 OA
ATOM     27  H   UNL     1       8.757   6.069  13.644  1.00  0.00     0.293 HD
ENDBRANCH   8  26
TORSDOF 6
ENDMDL
