MODEL 1
REMARK VINA RESULT:    -5.378      0.000      0.000
REMARK INTER + INTRA:          -6.312
REMARK INTER:                  -6.164
REMARK INTRA:                  -0.147
REMARK UNBOUND:                -0.147
REMARK SMILES O=C([O-])C=Cc1ccc(O)cc1
REMARK SMILES IDX 6 1 7 2 12 3 8 4 11 5 9 6 5 7 4 8 2 9 1 10 3 11 10 12
REMARK H PARENT 10 13
REMARK Flexibility Score: inf
ROOT
ATOM      1  C   UNL     1     -32.801  -3.341 -18.679  1.00  0.00    -0.025 A 
ATOM      2  C   UNL     1     -31.481  -2.856 -18.582  1.00  0.00     0.012 A 
ATOM      3  C   UNL     1     -33.413  -3.393 -19.943  1.00  0.00     0.012 A 
ATOM      4  C   UNL     1     -30.804  -2.413 -19.723  1.00  0.00     0.047 A 
ATOM      5  C   UNL     1     -32.734  -2.949 -21.082  1.00  0.00     0.047 A 
ATOM      6  C   UNL     1     -31.430  -2.457 -20.976  1.00  0.00     0.115 A 
ENDROOT
BRANCH   1   7
ATOM      7  C   UNL     1     -33.560  -3.834 -17.502  1.00  0.00     0.010 C 
ATOM      8  C   UNL     1     -34.896  -3.824 -17.421  1.00  0.00     0.025 C 
BRANCH   8   9
ATOM      9  C   UNL     1     -35.607  -4.333 -16.237  1.00  0.00     0.064 C 
ATOM     10  O   UNL     1     -35.921  -3.540 -15.311  1.00  0.00    -0.545 OA
ATOM     11  O   UNL     1     -35.938  -5.680 -16.122  1.00  0.00    -0.545 OA
ENDBRANCH   8   9
ENDBRANCH   1   7
BRANCH   6  12
ATOM     12  O   UNL     1     -30.765  -2.017 -22.119  1.00  0.00    -0.508 OA
ATOM     13  H   UNL     1     -30.034  -2.568 -22.550  1.00  0.00     0.293 HD
ENDBRANCH   6  12
TORSDOF 3
ENDMDL
MODEL 2
REMARK VINA RESULT:    -5.194      3.615      4.570
REMARK INTER + INTRA:          -6.101
REMARK INTER:                  -5.950
REMARK INTRA:                  -0.151
REMARK UNBOUND:                -0.147
REMARK SMILES O=C([O-])C=Cc1ccc(O)cc1
REMARK SMILES IDX 6 1 7 2 12 3 8 4 11 5 9 6 5 7 4 8 2 9 1 10 3 11 10 12
REMARK H PARENT 10 13
REMARK Flexibility Score: inf
ROOT
ATOM      1  C   UNL     1     -35.853  -5.270 -16.599  1.00  0.00    -0.025 A 
ATOM      2  C   UNL     1     -35.409  -3.935 -16.513  1.00  0.00     0.012 A 
ATOM      3  C   UNL     1     -36.103  -5.819 -17.869  1.00  0.00     0.012 A 
ATOM      4  C   UNL     1     -35.246  -3.167 -17.670  1.00  0.00     0.047 A 
ATOM      5  C   UNL     1     -35.938  -5.049 -19.023  1.00  0.00     0.047 A 
ATOM      6  C   UNL     1     -35.512  -3.721 -18.928  1.00  0.00     0.115 A 
ENDROOT
BRANCH   1   7
ATOM      7  C   UNL     1     -36.032  -6.132 -15.404  1.00  0.00     0.010 C 
ATOM      8  C   UNL     1     -36.161  -7.463 -15.459  1.00  0.00     0.025 C 
BRANCH   8   9
ATOM      9  C   UNL     1     -36.325  -8.280 -14.246  1.00  0.00     0.064 C 
ATOM     10  O   UNL     1     -37.373  -8.961 -14.092  1.00  0.00    -0.545 OA
ATOM     11  O   UNL     1     -35.342  -8.312 -13.263  1.00  0.00    -0.545 OA
ENDBRANCH   8   9
ENDBRANCH   1   7
BRANCH   6  12
ATOM     12  O   UNL     1     -35.353  -2.964 -20.087  1.00  0.00    -0.508 OA
ATOM     13  H   UNL     1     -35.840  -3.200 -20.943  1.00  0.00     0.293 HD
ENDBRANCH   6  12
TORSDOF 3
ENDMDL
MODEL 3
REMARK VINA RESULT:    -5.109      3.518      4.718
REMARK INTER + INTRA:          -6.003
REMARK INTER:                  -5.867
REMARK INTRA:                  -0.136
REMARK UNBOUND:                -0.147
REMARK SMILES O=C([O-])C=Cc1ccc(O)cc1
REMARK SMILES IDX 6 1 7 2 12 3 8 4 11 5 9 6 5 7 4 8 2 9 1 10 3 11 10 12
REMARK H PARENT 10 13
REMARK Flexibility Score: inf
ROOT
ATOM      1  C   UNL     1     -35.962  -5.387 -16.772  1.00  0.00    -0.025 A 
ATOM      2  C   UNL     1     -36.473  -5.743 -18.036  1.00  0.00     0.012 A 
ATOM      3  C   UNL     1     -35.243  -4.186 -16.646  1.00  0.00     0.012 A 
ATOM      4  C   UNL     1     -36.246  -4.925 -19.147  1.00  0.00     0.047 A 
ATOM      5  C   UNL     1     -35.018  -3.371 -17.758  1.00  0.00     0.047 A 
ATOM      6  C   UNL     1     -35.516  -3.737 -19.012  1.00  0.00     0.115 A 
ENDROOT
BRANCH   1   7
ATOM      7  C   UNL     1     -36.183  -6.214 -15.559  1.00  0.00     0.010 C 
ATOM      8  C   UNL     1     -36.278  -7.549 -15.575  1.00  0.00     0.025 C 
BRANCH   8   9
ATOM      9  C   UNL     1     -36.486  -8.329 -14.345  1.00  0.00     0.064 C 
ATOM     10  O   UNL     1     -35.581  -8.365 -13.470  1.00  0.00    -0.545 OA
ATOM     11  O   UNL     1     -37.668  -9.031 -14.131  1.00  0.00    -0.545 OA
ENDBRANCH   8   9
ENDBRANCH   1   7
BRANCH   6  12
ATOM     12  O   UNL     1     -35.283  -2.915 -20.113  1.00  0.00    -0.508 OA
ATOM     13  H   UNL     1     -35.576  -1.946 -20.119  1.00  0.00     0.293 HD
ENDBRANCH   6  12
TORSDOF 3
ENDMDL
MODEL 4
REMARK VINA RESULT:    -4.839      4.233      7.064
REMARK INTER + INTRA:          -5.693
REMARK INTER:                  -5.557
REMARK INTRA:                  -0.136
REMARK UNBOUND:                -0.147
REMARK SMILES O=C([O-])C=Cc1ccc(O)cc1
REMARK SMILES IDX 6 1 7 2 12 3 8 4 11 5 9 6 5 7 4 8 2 9 1 10 3 11 10 12
REMARK H PARENT 10 13
REMARK Flexibility Score: inf
ROOT
ATOM      1  C   UNL     1     -36.414  -6.408 -15.974  1.00  0.00    -0.025 A 
ATOM      2  C   UNL     1     -36.342  -7.811 -16.082  1.00  0.00     0.012 A 
ATOM      3  C   UNL     1     -36.041  -5.802 -14.761  1.00  0.00     0.012 A 
ATOM      4  C   UNL     1     -35.929  -8.584 -14.993  1.00  0.00     0.047 A 
ATOM      5  C   UNL     1     -35.629  -6.578 -13.675  1.00  0.00     0.047 A 
ATOM      6  C   UNL     1     -35.573  -7.970 -13.785  1.00  0.00     0.115 A 
ENDROOT
BRANCH   1   7
ATOM      7  C   UNL     1     -36.835  -5.539 -17.102  1.00  0.00     0.010 C 
ATOM      8  C   UNL     1     -35.979  -4.915 -17.920  1.00  0.00     0.025 C 
BRANCH   8   9
ATOM      9  C   UNL     1     -36.442  -4.072 -19.034  1.00  0.00     0.064 C 
ATOM     10  O   UNL     1     -35.741  -3.094 -19.406  1.00  0.00    -0.545 OA
ATOM     11  O   UNL     1     -37.643  -4.336 -19.684  1.00  0.00    -0.545 OA
ENDBRANCH   8   9
ENDBRANCH   1   7
BRANCH   6  12
ATOM     12  O   UNL     1     -35.161  -8.732 -12.694  1.00  0.00    -0.508 OA
ATOM     13  H   UNL     1     -34.644  -8.319 -11.927  1.00  0.00     0.293 HD
ENDBRANCH   6  12
TORSDOF 3
ENDMDL
MODEL 5
REMARK VINA RESULT:    -4.834      5.963      7.027
REMARK INTER + INTRA:          -5.688
REMARK INTER:                  -5.549
REMARK INTRA:                  -0.139
REMARK UNBOUND:                -0.147
REMARK SMILES O=C([O-])C=Cc1ccc(O)cc1
REMARK SMILES IDX 6 1 7 2 12 3 8 4 11 5 9 6 5 7 4 8 2 9 1 10 3 11 10 12
REMARK H PARENT 10 13
REMARK Flexibility Score: inf
ROOT
ATOM      1  C   UNL     1     -36.145  -5.157 -14.403  1.00  0.00    -0.025 A 
ATOM      2  C   UNL     1     -36.402  -5.432 -15.761  1.00  0.00     0.012 A 
ATOM      3  C   UNL     1     -35.858  -6.227 -13.537  1.00  0.00     0.012 A 
ATOM      4  C   UNL     1     -36.394  -6.750 -16.230  1.00  0.00     0.047 A 
ATOM      5  C   UNL     1     -35.851  -7.542 -14.009  1.00  0.00     0.047 A 
ATOM      6  C   UNL     1     -36.121  -7.809 -15.355  1.00  0.00     0.115 A 
ENDROOT
BRANCH   1   7
ATOM      7  C   UNL     1     -36.130  -3.777 -13.856  1.00  0.00     0.010 C 
ATOM      8  C   UNL     1     -36.952  -3.351 -12.888  1.00  0.00     0.025 C 
BRANCH   8   9
ATOM      9  C   UNL     1     -36.894  -1.975 -12.368  1.00  0.00     0.064 C 
ATOM     10  O   UNL     1     -37.050  -1.006 -13.156  1.00  0.00    -0.545 OA
ATOM     11  O   UNL     1     -36.668  -1.727 -11.018  1.00  0.00    -0.545 OA
ENDBRANCH   8   9
ENDBRANCH   1   7
BRANCH   6  12
ATOM     12  O   UNL     1     -36.112  -9.125 -15.811  1.00  0.00    -0.508 OA
ATOM     13  H   UNL     1     -36.635  -9.403 -16.632  1.00  0.00     0.293 HD
ENDBRANCH   6  12
TORSDOF 3
ENDMDL
MODEL 6
REMARK VINA RESULT:    -4.833      3.604      7.581
REMARK INTER + INTRA:          -5.687
REMARK INTER:                  -5.547
REMARK INTRA:                  -0.141
REMARK UNBOUND:                -0.147
REMARK SMILES O=C([O-])C=Cc1ccc(O)cc1
REMARK SMILES IDX 6 1 7 2 12 3 8 4 11 5 9 6 5 7 4 8 2 9 1 10 3 11 10 12
REMARK H PARENT 10 13
REMARK Flexibility Score: inf
ROOT
ATOM      1  C   UNL     1     -36.751  -6.756 -16.190  1.00  0.00    -0.025 A 
ATOM      2  C   UNL     1     -36.282  -8.032 -15.820  1.00  0.00     0.012 A 
ATOM      3  C   UNL     1     -37.934  -6.272 -15.604  1.00  0.00     0.012 A 
ATOM      4  C   UNL     1     -36.997  -8.810 -14.905  1.00  0.00     0.047 A 
ATOM      5  C   UNL     1     -38.646  -7.053 -14.690  1.00  0.00     0.047 A 
ATOM      6  C   UNL     1     -38.182  -8.324 -14.338  1.00  0.00     0.115 A 
ENDROOT
BRANCH   1   7
ATOM      7  C   UNL     1     -36.025  -5.884 -17.149  1.00  0.00     0.010 C 
ATOM      8  C   UNL     1     -35.584  -4.656 -16.851  1.00  0.00     0.025 C 
BRANCH   8   9
ATOM      9  C   UNL     1     -34.859  -3.831 -17.830  1.00  0.00     0.064 C 
ATOM     10  O   UNL     1     -35.494  -3.263 -18.757  1.00  0.00    -0.545 OA
ATOM     11  O   UNL     1     -33.479  -3.669 -17.751  1.00  0.00    -0.545 OA
ENDBRANCH   8   9
ENDBRANCH   1   7
BRANCH   6  12
ATOM     12  O   UNL     1     -38.902  -9.092 -13.426  1.00  0.00    -0.508 OA
ATOM     13  H   UNL     1     -38.793 -10.097 -13.379  1.00  0.00     0.293 HD
ENDBRANCH   6  12
TORSDOF 3
ENDMDL
MODEL 7
REMARK VINA RESULT:    -4.775      4.045      6.844
REMARK INTER + INTRA:          -5.620
REMARK INTER:                  -5.485
REMARK INTRA:                  -0.135
REMARK UNBOUND:                -0.147
REMARK SMILES O=C([O-])C=Cc1ccc(O)cc1
REMARK SMILES IDX 6 1 7 2 12 3 8 4 11 5 9 6 5 7 4 8 2 9 1 10 3 11 10 12
REMARK H PARENT 10 13
REMARK Flexibility Score: inf
ROOT
ATOM      1  C   UNL     1     -36.341  -6.054 -16.035  1.00  0.00    -0.025 A 
ATOM      2  C   UNL     1     -36.046  -5.588 -14.739  1.00  0.00     0.012 A 
ATOM      3  C   UNL     1     -36.352  -7.440 -16.270  1.00  0.00     0.012 A 
ATOM      4  C   UNL     1     -35.748  -6.490 -13.713  1.00  0.00     0.047 A 
ATOM      5  C   UNL     1     -36.054  -8.339 -15.243  1.00  0.00     0.047 A 
ATOM      6  C   UNL     1     -35.749  -7.868 -13.962  1.00  0.00     0.115 A 
ENDROOT
BRANCH   1   7
ATOM      7  C   UNL     1     -36.675  -5.141 -17.157  1.00  0.00     0.010 C 
ATOM      8  C   UNL     1     -35.955  -4.058 -17.475  1.00  0.00     0.025 C 
BRANCH   8   9
ATOM      9  C   UNL     1     -36.318  -3.186 -18.603  1.00  0.00     0.064 C 
ATOM     10  O   UNL     1     -37.337  -2.451 -18.518  1.00  0.00    -0.545 OA
ATOM     11  O   UNL     1     -35.554  -3.161 -19.766  1.00  0.00    -0.545 OA
ENDBRANCH   8   9
ENDBRANCH   1   7
BRANCH   6  12
ATOM     12  O   UNL     1     -35.452  -8.775 -12.948  1.00  0.00    -0.508 OA
ATOM     13  H   UNL     1     -34.670  -9.415 -13.023  1.00  0.00     0.293 HD
ENDBRANCH   6  12
TORSDOF 3
ENDMDL
MODEL 8
REMARK VINA RESULT:    -4.773      1.872      2.756
REMARK INTER + INTRA:          -5.618
REMARK INTER:                  -5.471
REMARK INTRA:                  -0.146
REMARK UNBOUND:                -0.147
REMARK SMILES O=C([O-])C=Cc1ccc(O)cc1
REMARK SMILES IDX 6 1 7 2 12 3 8 4 11 5 9 6 5 7 4 8 2 9 1 10 3 11 10 12
REMARK H PARENT 10 13
REMARK Flexibility Score: inf
ROOT
ATOM      1  C   UNL     1     -34.889  -4.296 -17.796  1.00  0.00    -0.025 A 
ATOM      2  C   UNL     1     -33.731  -3.518 -17.997  1.00  0.00     0.012 A 
ATOM      3  C   UNL     1     -35.385  -5.063 -18.864  1.00  0.00     0.012 A 
ATOM      4  C   UNL     1     -33.104  -3.494 -19.246  1.00  0.00     0.047 A 
ATOM      5  C   UNL     1     -34.755  -5.037 -20.112  1.00  0.00     0.047 A 
ATOM      6  C   UNL     1     -33.615  -4.252 -20.308  1.00  0.00     0.115 A 
ENDROOT
BRANCH   1   7
ATOM      7  C   UNL     1     -35.588  -4.366 -16.487  1.00  0.00     0.010 C 
ATOM      8  C   UNL     1     -36.066  -5.500 -15.959  1.00  0.00     0.025 C 
BRANCH   8   9
ATOM      9  C   UNL     1     -36.743  -5.523 -14.652  1.00  0.00     0.064 C 
ATOM     10  O   UNL     1     -36.946  -6.625 -14.078  1.00  0.00    -0.545 OA
ATOM     11  O   UNL     1     -37.163  -4.347 -14.039  1.00  0.00    -0.545 OA
ENDBRANCH   8   9
ENDBRANCH   1   7
BRANCH   6  12
ATOM     12  O   UNL     1     -32.997  -4.234 -21.557  1.00  0.00    -0.508 OA
ATOM     13  H   UNL     1     -32.795  -5.090 -22.058  1.00  0.00     0.293 HD
ENDBRANCH   6  12
TORSDOF 3
ENDMDL
MODEL 9
REMARK VINA RESULT:    -4.120      7.053      8.538
REMARK INTER + INTRA:          -4.869
REMARK INTER:                  -4.720
REMARK INTRA:                  -0.149
REMARK UNBOUND:                -0.147
REMARK SMILES O=C([O-])C=Cc1ccc(O)cc1
REMARK SMILES IDX 6 1 7 2 12 3 8 4 11 5 9 6 5 7 4 8 2 9 1 10 3 11 10 12
REMARK H PARENT 10 13
REMARK Flexibility Score: inf
ROOT
ATOM      1  C   UNL     1     -38.732  -6.601 -13.707  1.00  0.00    -0.025 A 
ATOM      2  C   UNL     1     -39.147  -7.911 -14.024  1.00  0.00     0.012 A 
ATOM      3  C   UNL     1     -37.489  -6.151 -14.183  1.00  0.00     0.012 A 
ATOM      4  C   UNL     1     -38.322  -8.751 -14.778  1.00  0.00     0.047 A 
ATOM      5  C   UNL     1     -36.667  -6.993 -14.936  1.00  0.00     0.047 A 
ATOM      6  C   UNL     1     -37.078  -8.296 -15.234  1.00  0.00     0.115 A 
ENDROOT
BRANCH   1   7
ATOM      7  C   UNL     1     -39.574  -5.665 -12.920  1.00  0.00     0.010 C 
ATOM      8  C   UNL     1     -39.104  -4.559 -12.329  1.00  0.00     0.025 C 
BRANCH   8   9
ATOM      9  C   UNL     1     -39.978  -3.653 -11.567  1.00  0.00     0.064 C 
ATOM     10  O   UNL     1     -40.275  -2.527 -12.046  1.00  0.00    -0.545 OA
ATOM     11  O   UNL     1     -40.483  -4.019 -10.324  1.00  0.00    -0.545 OA
ENDBRANCH   8   9
ENDBRANCH   1   7
BRANCH   6  12
ATOM     12  O   UNL     1     -36.248  -9.125 -15.985  1.00  0.00    -0.508 OA
ATOM     13  H   UNL     1     -36.001  -8.900 -16.941  1.00  0.00     0.293 HD
ENDBRANCH   6  12
TORSDOF 3
ENDMDL
