MODEL 1
REMARK VINA RESULT:    -2.766      0.000      0.000
REMARK INTER + INTRA:          -3.814
REMARK INTER:                  -3.574
REMARK INTRA:                  -0.240
REMARK UNBOUND:                -0.240
REMARK SMILES CCOC(=O)C=Cc1ccc(O)c(O)c1
REMARK SMILES IDX 6 1 7 2 4 3 5 4 3 5 2 6 1 7 8 8 15 9 9 10 13 11 10 12 11 13
REMARK SMILES IDX 14 14 12 16
REMARK H PARENT 14 15 12 17
REMARK Flexibility Score: inf
ROOT
ATOM      1  C   UNL     1       9.501  20.988  13.264  1.00  0.00     0.094 C 
ATOM      2  C   UNL     1      10.601  21.664  12.906  1.00  0.00     0.016 C 
ENDROOT
BRANCH   1   3
ATOM      3  C   UNL     1       9.405  20.282  14.551  1.00  0.00     0.330 C 
ATOM      4  O   UNL     1      10.464  19.912  15.127  1.00  0.00    -0.247 OA
BRANCH   3   5
ATOM      5  O   UNL     1       8.155  20.030  15.132  1.00  0.00    -0.463 OA
BRANCH   5   6
ATOM      6  C   UNL     1       6.922  20.470  14.568  1.00  0.00     0.230 C 
ATOM      7  C   UNL     1       5.850  20.587  15.645  1.00  0.00     0.049 C 
ENDBRANCH   5   6
ENDBRANCH   3   5
ENDBRANCH   1   3
BRANCH   2   8
ATOM      8  C   UNL     1      10.745  22.380  11.614  1.00  0.00    -0.021 A 
ATOM      9  C   UNL     1      10.746  21.711  10.373  1.00  0.00     0.058 A 
ATOM     10  C   UNL     1      10.847  23.780  11.630  1.00  0.00     0.012 A 
ATOM     11  C   UNL     1      10.873  22.432   9.176  1.00  0.00     0.157 A 
ATOM     12  C   UNL     1      10.975  24.497  10.438  1.00  0.00     0.051 A 
ATOM     13  C   UNL     1      10.991  23.827   9.210  1.00  0.00     0.157 A 
BRANCH  11  14
ATOM     14  O   UNL     1      10.878  21.769   7.950  1.00  0.00    -0.504 OA
ATOM     15  H   UNL     1      11.713  21.718   7.377  1.00  0.00     0.293 HD
ENDBRANCH  11  14
BRANCH  13  16
ATOM     16  O   UNL     1      11.121  24.538   8.018  1.00  0.00    -0.504 OA
ATOM     17  H   UNL     1      10.424  24.474   7.284  1.00  0.00     0.293 HD
ENDBRANCH  13  16
ENDBRANCH   2   8
TORSDOF 6
ENDMDL
MODEL 2
REMARK VINA RESULT:    -2.628     13.253     16.827
REMARK INTER + INTRA:          -3.636
REMARK INTER:                  -3.347
REMARK INTRA:                  -0.289
REMARK UNBOUND:                -0.240
REMARK SMILES CCOC(=O)C=Cc1ccc(O)c(O)c1
REMARK SMILES IDX 6 1 7 2 4 3 5 4 3 5 2 6 1 7 8 8 15 9 9 10 13 11 10 12 11 13
REMARK SMILES IDX 14 14 12 16
REMARK H PARENT 14 15 12 17
REMARK Flexibility Score: inf
ROOT
ATOM      1  C   UNL     1      -6.585  20.907  19.353  1.00  0.00     0.094 C 
ATOM      2  C   UNL     1      -5.653  19.947  19.407  1.00  0.00     0.016 C 
ENDROOT
BRANCH   1   3
ATOM      3  C   UNL     1      -7.792  20.869  20.193  1.00  0.00     0.330 C 
ATOM      4  O   UNL     1      -7.725  20.346  21.338  1.00  0.00    -0.247 OA
BRANCH   3   5
ATOM      5  O   UNL     1      -8.999  21.411  19.730  1.00  0.00    -0.463 OA
BRANCH   5   6
ATOM      6  C   UNL     1      -9.075  22.579  18.915  1.00  0.00     0.230 C 
ATOM      7  C   UNL     1      -9.045  23.836  19.775  1.00  0.00     0.049 C 
ENDBRANCH   5   6
ENDBRANCH   3   5
ENDBRANCH   1   3
BRANCH   2   8
ATOM      8  C   UNL     1      -4.428  19.939  18.571  1.00  0.00    -0.021 A 
ATOM      9  C   UNL     1      -3.131  19.937  19.125  1.00  0.00     0.058 A 
ATOM     10  C   UNL     1      -4.568  19.894  17.174  1.00  0.00     0.012 A 
ATOM     11  C   UNL     1      -2.002  19.917  18.293  1.00  0.00     0.157 A 
ATOM     12  C   UNL     1      -3.443  19.877  16.346  1.00  0.00     0.051 A 
ATOM     13  C   UNL     1      -2.159  19.891  16.902  1.00  0.00     0.157 A 
BRANCH  11  14
ATOM     14  O   UNL     1      -0.721  19.920  18.842  1.00  0.00    -0.504 OA
ATOM     15  H   UNL     1      -0.375  20.707  19.379  1.00  0.00     0.293 HD
ENDBRANCH  11  14
BRANCH  13  16
ATOM     16  O   UNL     1      -1.033  19.875  16.080  1.00  0.00    -0.504 OA
ATOM     17  H   UNL     1      -0.583  20.733  15.781  1.00  0.00     0.293 HD
ENDBRANCH  13  16
ENDBRANCH   2   8
TORSDOF 6
ENDMDL
MODEL 3
REMARK VINA RESULT:    -2.205      1.914      6.661
REMARK INTER + INTRA:          -3.089
REMARK INTER:                  -2.801
REMARK INTRA:                  -0.289
REMARK UNBOUND:                -0.240
REMARK SMILES CCOC(=O)C=Cc1ccc(O)c(O)c1
REMARK SMILES IDX 6 1 7 2 4 3 5 4 3 5 2 6 1 7 8 8 15 9 9 10 13 11 10 12 11 13
REMARK SMILES IDX 14 14 12 16
REMARK H PARENT 14 15 12 17
REMARK Flexibility Score: inf
ROOT
ATOM      1  C   UNL     1       9.287  21.000  10.324  1.00  0.00     0.094 C 
ATOM      2  C   UNL     1       9.330  19.989  11.201  1.00  0.00     0.016 C 
ENDROOT
BRANCH   1   3
ATOM      3  C   UNL     1      10.068  20.983   9.077  1.00  0.00     0.330 C 
ATOM      4  O   UNL     1       9.882  20.050   8.250  1.00  0.00    -0.247 OA
BRANCH   3   5
ATOM      5  O   UNL     1      11.003  21.991   8.810  1.00  0.00    -0.463 OA
BRANCH   5   6
ATOM      6  C   UNL     1      11.120  23.181   9.587  1.00  0.00     0.230 C 
ATOM      7  C   UNL     1      10.400  24.340   8.908  1.00  0.00     0.049 C 
ENDBRANCH   5   6
ENDBRANCH   3   5
ENDBRANCH   1   3
BRANCH   2   8
ATOM      8  C   UNL     1       8.569  19.970  12.475  1.00  0.00    -0.021 A 
ATOM      9  C   UNL     1       7.160  19.935  12.516  1.00  0.00     0.058 A 
ATOM     10  C   UNL     1       9.283  19.948  13.684  1.00  0.00     0.012 A 
ATOM     11  C   UNL     1       6.484  19.905  13.745  1.00  0.00     0.157 A 
ATOM     12  C   UNL     1       8.610  19.921  14.907  1.00  0.00     0.051 A 
ATOM     13  C   UNL     1       7.211  19.902  14.942  1.00  0.00     0.157 A 
BRANCH  11  14
ATOM     14  O   UNL     1       5.092  19.875  13.784  1.00  0.00    -0.504 OA
ATOM     15  H   UNL     1       4.532  20.569  13.302  1.00  0.00     0.293 HD
ENDBRANCH  11  14
BRANCH  13  16
ATOM     16  O   UNL     1       6.534  19.876  16.161  1.00  0.00    -0.504 OA
ATOM     17  H   UNL     1       5.569  20.177  16.236  1.00  0.00     0.293 HD
ENDBRANCH  13  16
ENDBRANCH   2   8
TORSDOF 6
ENDMDL
MODEL 4
REMARK VINA RESULT:    -1.895     12.751     16.273
REMARK INTER + INTRA:          -2.689
REMARK INTER:                  -2.374
REMARK INTRA:                  -0.315
REMARK UNBOUND:                -0.240
REMARK SMILES CCOC(=O)C=Cc1ccc(O)c(O)c1
REMARK SMILES IDX 6 1 7 2 4 3 5 4 3 5 2 6 1 7 8 8 15 9 9 10 13 11 10 12 11 13
REMARK SMILES IDX 14 14 12 16
REMARK H PARENT 14 15 12 17
REMARK Flexibility Score: inf
ROOT
ATOM      1  C   UNL     1      -6.650  20.315  16.698  1.00  0.00     0.094 C 
ATOM      2  C   UNL     1      -5.483  20.239  16.044  1.00  0.00     0.016 C 
ENDROOT
BRANCH   1   3
ATOM      3  C   UNL     1      -7.934  20.425  15.989  1.00  0.00     0.330 C 
ATOM      4  O   UNL     1      -7.988  20.116  14.768  1.00  0.00    -0.247 OA
BRANCH   3   5
ATOM      5  O   UNL     1      -9.083  20.864  16.661  1.00  0.00    -0.463 OA
BRANCH   5   6
ATOM      6  C   UNL     1      -9.060  21.430  17.969  1.00  0.00     0.230 C 
ATOM      7  C   UNL     1      -9.025  22.952  17.895  1.00  0.00     0.049 C 
ENDBRANCH   5   6
ENDBRANCH   3   5
ENDBRANCH   1   3
BRANCH   2   8
ATOM      8  C   UNL     1      -4.165  20.138  16.719  1.00  0.00    -0.021 A 
ATOM      9  C   UNL     1      -2.946  20.238  16.019  1.00  0.00     0.058 A 
ATOM     10  C   UNL     1      -4.136  19.974  18.113  1.00  0.00     0.012 A 
ATOM     11  C   UNL     1      -1.724  20.149  16.702  1.00  0.00     0.157 A 
ATOM     12  C   UNL     1      -2.918  19.883  18.792  1.00  0.00     0.051 A 
ATOM     13  C   UNL     1      -1.711  19.967  18.090  1.00  0.00     0.157 A 
BRANCH  11  14
ATOM     14  O   UNL     1      -0.519  20.243  16.008  1.00  0.00    -0.504 OA
ATOM     15  H   UNL     1      -0.494  20.406  15.008  1.00  0.00     0.293 HD
ENDBRANCH  11  14
BRANCH  13  16
ATOM     16  O   UNL     1      -0.494  19.875  18.764  1.00  0.00    -0.504 OA
ATOM     17  H   UNL     1      -0.414  19.390  19.650  1.00  0.00     0.293 HD
ENDBRANCH  13  16
ENDBRANCH   2   8
TORSDOF 6
ENDMDL
MODEL 5
REMARK VINA RESULT:    -1.219      2.288      3.307
REMARK INTER + INTRA:          -1.815
REMARK INTER:                  -1.448
REMARK INTRA:                  -0.367
REMARK UNBOUND:                -0.240
REMARK SMILES CCOC(=O)C=Cc1ccc(O)c(O)c1
REMARK SMILES IDX 6 1 7 2 4 3 5 4 3 5 2 6 1 7 8 8 15 9 9 10 13 11 10 12 11 13
REMARK SMILES IDX 14 14 12 16
REMARK H PARENT 14 15 12 17
REMARK Flexibility Score: inf
ROOT
ATOM      1  C   UNL     1       6.845  20.382  13.859  1.00  0.00     0.094 C 
ATOM      2  C   UNL     1       8.155  20.134  13.728  1.00  0.00     0.016 C 
ENDROOT
BRANCH   1   3
ATOM      3  C   UNL     1       6.140  20.186  15.135  1.00  0.00     0.330 C 
ATOM      4  O   UNL     1       4.918  19.875  15.119  1.00  0.00    -0.247 OA
BRANCH   3   5
ATOM      5  O   UNL     1       6.818  20.339  16.352  1.00  0.00    -0.463 OA
BRANCH   5   6
ATOM      6  C   UNL     1       7.073  21.604  16.957  1.00  0.00     0.230 C 
ATOM      7  C   UNL     1       8.558  21.939  16.896  1.00  0.00     0.049 C 
ENDBRANCH   5   6
ENDBRANCH   3   5
ENDBRANCH   1   3
BRANCH   2   8
ATOM      8  C   UNL     1       8.903  20.306  12.458  1.00  0.00    -0.021 A 
ATOM      9  C   UNL     1       8.346  19.996  11.201  1.00  0.00     0.058 A 
ATOM     10  C   UNL     1      10.204  20.833  12.511  1.00  0.00     0.012 A 
ATOM     11  C   UNL     1       9.088  20.187  10.026  1.00  0.00     0.157 A 
ATOM     12  C   UNL     1      10.943  21.022  11.341  1.00  0.00     0.051 A 
ATOM     13  C   UNL     1      10.390  20.697  10.097  1.00  0.00     0.157 A 
BRANCH  11  14
ATOM     14  O   UNL     1       8.537  19.876   8.785  1.00  0.00    -0.504 OA
ATOM     15  H   UNL     1       9.119  19.670   7.981  1.00  0.00     0.293 HD
ENDBRANCH  11  14
BRANCH  13  16
ATOM     16  O   UNL     1      11.125  20.882   8.927  1.00  0.00    -0.504 OA
ATOM     17  H   UNL     1      10.676  21.140   8.056  1.00  0.00     0.293 HD
ENDBRANCH  13  16
ENDBRANCH   2   8
TORSDOF 6
ENDMDL
MODEL 6
REMARK VINA RESULT:    -1.115      1.596      2.239
REMARK INTER + INTRA:          -1.681
REMARK INTER:                  -1.419
REMARK INTRA:                  -0.261
REMARK UNBOUND:                -0.240
REMARK SMILES CCOC(=O)C=Cc1ccc(O)c(O)c1
REMARK SMILES IDX 6 1 7 2 4 3 5 4 3 5 2 6 1 7 8 8 15 9 9 10 13 11 10 12 11 13
REMARK SMILES IDX 14 14 12 16
REMARK H PARENT 14 15 12 17
REMARK Flexibility Score: inf
ROOT
ATOM      1  C   UNL     1       7.914  20.525  13.572  1.00  0.00     0.094 C 
ATOM      2  C   UNL     1       9.115  20.168  13.095  1.00  0.00     0.016 C 
ENDROOT
BRANCH   1   3
ATOM      3  C   UNL     1       7.451  20.107  14.904  1.00  0.00     0.330 C 
ATOM      4  O   UNL     1       8.295  19.965  15.830  1.00  0.00    -0.247 OA
BRANCH   3   5
ATOM      5  O   UNL     1       6.090  19.875  15.143  1.00  0.00    -0.463 OA
BRANCH   5   6
ATOM      6  C   UNL     1       5.094  20.892  15.069  1.00  0.00     0.230 C 
ATOM      7  C   UNL     1       4.999  21.649  16.388  1.00  0.00     0.049 C 
ENDBRANCH   5   6
ENDBRANCH   3   5
ENDBRANCH   1   3
BRANCH   2   8
ATOM      8  C   UNL     1       9.617  20.557  11.754  1.00  0.00    -0.021 A 
ATOM      9  C   UNL     1       9.099  20.011  10.562  1.00  0.00     0.058 A 
ATOM     10  C   UNL     1      10.624  21.533  11.671  1.00  0.00     0.012 A 
ATOM     11  C   UNL     1       9.598  20.419   9.317  1.00  0.00     0.157 A 
ATOM     12  C   UNL     1      11.122  21.937  10.430  1.00  0.00     0.051 A 
ATOM     13  C   UNL     1      10.614  21.380   9.251  1.00  0.00     0.157 A 
BRANCH  11  14
ATOM     14  O   UNL     1       9.087  19.875   8.140  1.00  0.00    -0.504 OA
ATOM     15  H   UNL     1       9.045  18.873   7.992  1.00  0.00     0.293 HD
ENDBRANCH  11  14
BRANCH  13  16
ATOM     16  O   UNL     1      11.109  21.779   8.011  1.00  0.00    -0.504 OA
ATOM     17  H   UNL     1      11.376  21.101   7.305  1.00  0.00     0.293 HD
ENDBRANCH  13  16
ENDBRANCH   2   8
TORSDOF 6
ENDMDL
