MODEL 1
REMARK VINA RESULT:     1.764      0.000      0.000
REMARK INTER + INTRA:           1.805
REMARK INTER:                   2.073
REMARK INTRA:                  -0.269
REMARK UNBOUND:                -0.269
REMARK SMILES O=c1cc(-c2ccc(O)c(O)c2)oc2cc(O)cc(O)c12
REMARK SMILES IDX 4 1 3 2 2 3 1 4 21 5 19 6 18 7 16 8 15 9 14 10 13 11 5 12
REMARK SMILES IDX 6 13 7 14 8 15 12 16 10 17 9 18 11 20 20 22 17 24
REMARK H PARENT 9 19 11 21 20 23 17 25
REMARK Flexibility Score: inf
ROOT
ATOM      1  C   UNL     1     -10.030 -34.382   1.275  1.00  0.00     0.138 A 
ATOM      2  C   UNL     1     -10.786 -33.489   2.047  1.00  0.00     0.100 A 
ATOM      3  C   UNL     1     -10.467 -33.299   3.392  1.00  0.00     0.197 A 
ATOM      4  O   UNL     1     -11.125 -32.446   4.043  1.00  0.00    -0.289 OA
ATOM      5  C   UNL     1      -9.406 -34.032   3.974  1.00  0.00     0.107 A 
ATOM      6  C   UNL     1      -9.017 -33.951   5.345  1.00  0.00     0.134 A 
ATOM      7  C   UNL     1      -7.876 -34.636   5.780  1.00  0.00     0.093 A 
ATOM      8  C   UNL     1      -7.146 -35.444   4.912  1.00  0.00     0.123 A 
ATOM      9  C   UNL     1      -7.547 -35.575   3.582  1.00  0.00     0.094 A 
ATOM     10  C   UNL     1      -8.662 -34.877   3.107  1.00  0.00     0.146 A 
ATOM     11  O   UNL     1      -9.002 -35.015   1.831  1.00  0.00    -0.456 OA
ENDROOT
BRANCH   1  12
ATOM     12  C   UNL     1     -10.325 -34.622  -0.160  1.00  0.00     0.021 A 
ATOM     13  C   UNL     1     -10.512 -35.921  -0.670  1.00  0.00     0.016 A 
ATOM     14  C   UNL     1     -10.779 -36.119  -2.028  1.00  0.00     0.051 A 
ATOM     15  C   UNL     1     -10.856 -35.025  -2.899  1.00  0.00     0.157 A 
ATOM     16  C   UNL     1     -10.391 -33.531  -1.047  1.00  0.00     0.062 A 
ATOM     17  C   UNL     1     -10.660 -33.729  -2.409  1.00  0.00     0.158 A 
BRANCH  15  18
ATOM     18  O   UNL     1     -11.123 -35.219  -4.253  1.00  0.00    -0.504 OA
ATOM     19  H   UNL     1     -11.697 -34.570  -4.779  1.00  0.00     0.293 HD
ENDBRANCH  15  18
BRANCH  17  20
ATOM     20  O   UNL     1     -10.733 -32.643  -3.279  1.00  0.00    -0.504 OA
ATOM     21  H   UNL     1     -10.710 -32.768  -4.285  1.00  0.00     0.293 HD
ENDBRANCH  17  20
ENDBRANCH   1  12
BRANCH   6  22
ATOM     22  O   UNL     1      -9.726 -33.237   6.316  1.00  0.00    -0.507 OA
ATOM     23  H   UNL     1      -9.418 -32.374   6.738  1.00  0.00     0.293 HD
ENDBRANCH   6  22
BRANCH   8  24
ATOM     24  O   UNL     1      -6.025 -36.123   5.384  1.00  0.00    -0.508 OA
ATOM     25  H   UNL     1      -6.102 -36.858   6.078  1.00  0.00     0.293 HD
ENDBRANCH   8  24
TORSDOF 5
ENDMDL
