MODEL 1
REMARK VINA RESULT:    -2.973      0.000      0.000
REMARK INTER + INTRA:          -5.979
REMARK INTER:                  -4.363
REMARK INTRA:                  -1.616
REMARK UNBOUND:                -1.616
REMARK SMILES O=c1c(O[C@H]2O[C@H](CO)[C@@H](O)[C@H](O)[C@H]2O)c(-c2ccc(O)c(O)c2)oc2cc(O)cc(O)c12
REMARK SMILES IDX 4 1 3 2 16 3 25 4 2 5 26 6 1 7 33 8 27 9 31 10 28 11 30 12
REMARK SMILES IDX 17 13 18 14 19 15 20 16 24 17 22 18 21 19 23 21 32 23 29 25
REMARK SMILES IDX 5 27 14 28 6 29 12 30 7 31 10 32 15 33 13 35 8 37 9 38 11 40
REMARK H PARENT 21 20 23 22 32 24 29 26 15 34 13 36 9 39 11 41
REMARK Flexibility Score: inf
ROOT
ATOM      1  O   UNL     1       4.017  32.720  85.026  1.00  0.00    -0.454 OA
ENDROOT
BRANCH   1   2
ATOM      2  C   UNL     1       4.924  33.412  85.854  1.00  0.00     0.214 A 
ATOM      3  C   UNL     1       4.492  33.781  87.145  1.00  0.00     0.180 A 
ATOM      4  O   UNL     1       5.287  34.485  87.943  1.00  0.00    -0.452 OA
ATOM      5  C   UNL     1       6.230  33.782  85.456  1.00  0.00     0.239 A 
ATOM      6  C   UNL     1       6.515  34.855  87.607  1.00  0.00     0.146 A 
ATOM      7  O   UNL     1       6.661  33.472  84.314  1.00  0.00    -0.285 OA
ATOM      8  C   UNL     1       7.049  34.513  86.343  1.00  0.00     0.111 A 
ATOM      9  C   UNL     1       7.277  35.588  88.521  1.00  0.00     0.094 A 
ATOM     10  C   UNL     1       8.369  34.920  86.023  1.00  0.00     0.134 A 
ATOM     11  C   UNL     1       8.574  35.989  88.200  1.00  0.00     0.123 A 
ATOM     12  C   UNL     1       9.117  35.654  86.954  1.00  0.00     0.093 A 
BRANCH   3  13
ATOM     13  C   UNL     1       3.146  33.426  87.646  1.00  0.00     0.025 A 
ATOM     14  C   UNL     1       2.995  32.331  88.511  1.00  0.00     0.016 A 
ATOM     15  C   UNL     1       1.731  31.979  88.991  1.00  0.00     0.051 A 
ATOM     16  C   UNL     1       0.600  32.705  88.604  1.00  0.00     0.157 A 
ATOM     17  C   UNL     1       2.004  34.136  87.236  1.00  0.00     0.062 A 
ATOM     18  C   UNL     1       0.736  33.788  87.720  1.00  0.00     0.158 A 
BRANCH  16  19
ATOM     19  O   UNL     1      -0.647  32.335  89.105  1.00  0.00    -0.504 OA
ATOM     20  H   UNL     1      -1.489  32.383  88.544  1.00  0.00     0.293 HD
ENDBRANCH  16  19
BRANCH  18  21
ATOM     21  O   UNL     1      -0.388  34.511  87.321  1.00  0.00    -0.504 OA
ATOM     22  H   UNL     1      -0.400  35.037  86.455  1.00  0.00     0.293 HD
ENDBRANCH  18  21
ENDBRANCH   3  13
BRANCH  10  23
ATOM     23  O   UNL     1       8.939  34.603  84.789  1.00  0.00    -0.507 OA
ATOM     24  H   UNL     1       9.868  34.920  84.534  1.00  0.00     0.293 HD
ENDBRANCH  10  23
BRANCH  11  25
ATOM     25  O   UNL     1       9.316  36.719  89.125  1.00  0.00    -0.508 OA
ATOM     26  H   UNL     1      10.263  36.455  89.372  1.00  0.00     0.293 HD
ENDBRANCH  11  25
ENDBRANCH   1   2
BRANCH   1  27
ATOM     27  C   UNL     1       3.838  31.303  84.916  1.00  0.00     0.339 C 
ATOM     28  C   UNL     1       3.863  30.875  83.438  1.00  0.00     0.214 C 
ATOM     29  O   UNL     1       2.638  30.875  85.544  1.00  0.00    -0.332 OA
ATOM     30  C   UNL     1       2.629  31.422  82.704  1.00  0.00     0.180 C 
ATOM     31  C   UNL     1       1.493  31.477  84.961  1.00  0.00     0.179 C 
ATOM     32  C   UNL     1       1.351  31.059  83.478  1.00  0.00     0.177 C 
BRANCH  28  33
ATOM     33  O   UNL     1       5.028  31.352  82.815  1.00  0.00    -0.384 OA
ATOM     34  H   UNL     1       5.577  31.779  83.523  1.00  0.00     0.211 HD
ENDBRANCH  28  33
BRANCH  30  35
ATOM     35  O   UNL     1       2.559  30.875  81.412  1.00  0.00    -0.387 OA
ATOM     36  H   UNL     1       2.240  29.941  81.511  1.00  0.00     0.211 HD
ENDBRANCH  30  35
BRANCH  31  37
ATOM     37  C   UNL     1       0.269  31.045  85.786  1.00  0.00     0.191 C 
BRANCH  37  38
ATOM     38  O   UNL     1      -0.797  31.941  85.624  1.00  0.00    -0.394 OA
ATOM     39  H   UNL     1      -0.580  32.505  84.837  1.00  0.00     0.210 HD
ENDBRANCH  37  38
ENDBRANCH  31  37
BRANCH  32  40
ATOM     40  O   UNL     1       0.253  31.722  82.900  1.00  0.00    -0.387 OA
ATOM     41  H   UNL     1      -0.540  31.507  83.458  1.00  0.00     0.211 HD
ENDBRANCH  32  40
ENDBRANCH   1  27
TORSDOF 12
ENDMDL
MODEL 2
REMARK VINA RESULT:    -1.124      1.827      4.775
REMARK INTER + INTRA:          -3.265
REMARK INTER:                  -4.325
REMARK INTRA:                   1.060
REMARK UNBOUND:                -1.616
REMARK SMILES O=c1c(O[C@H]2O[C@H](CO)[C@@H](O)[C@H](O)[C@H]2O)c(-c2ccc(O)c(O)c2)oc2cc(O)cc(O)c12
REMARK SMILES IDX 4 1 3 2 16 3 25 4 2 5 26 6 1 7 33 8 27 9 31 10 28 11 30 12
REMARK SMILES IDX 17 13 18 14 19 15 20 16 24 17 22 18 21 19 23 21 32 23 29 25
REMARK SMILES IDX 5 27 14 28 6 29 12 30 7 31 10 32 15 33 13 35 8 37 9 38 11 40
REMARK H PARENT 21 20 23 22 32 24 29 26 15 34 13 36 9 39 11 41
REMARK Flexibility Score: inf
ROOT
ATOM      1  O   UNL     1       1.949  32.143  87.367  1.00  0.00    -0.454 OA
ENDROOT
BRANCH   1   2
ATOM      2  C   UNL     1       3.230  32.409  86.844  1.00  0.00     0.214 A 
ATOM      3  C   UNL     1       3.418  32.276  85.452  1.00  0.00     0.180 A 
ATOM      4  O   UNL     1       4.620  32.459  84.916  1.00  0.00    -0.452 OA
ATOM      5  C   UNL     1       4.345  32.773  87.635  1.00  0.00     0.239 A 
ATOM      6  C   UNL     1       5.689  32.796  85.622  1.00  0.00     0.146 A 
ATOM      7  O   UNL     1       4.227  32.905  88.882  1.00  0.00    -0.285 OA
ATOM      8  C   UNL     1       5.600  32.976  87.022  1.00  0.00     0.111 A 
ATOM      9  C   UNL     1       6.910  32.973  84.963  1.00  0.00     0.094 A 
ATOM     10  C   UNL     1       6.765  33.343  87.742  1.00  0.00     0.134 A 
ATOM     11  C   UNL     1       8.053  33.331  85.677  1.00  0.00     0.123 A 
ATOM     12  C   UNL     1       7.978  33.517  87.063  1.00  0.00     0.093 A 
BRANCH   3  13
ATOM     13  C   UNL     1       2.305  31.910  84.549  1.00  0.00     0.025 A 
ATOM     14  C   UNL     1       2.574  31.600  83.207  1.00  0.00     0.016 A 
ATOM     15  C   UNL     1       1.535  31.256  82.339  1.00  0.00     0.051 A 
ATOM     16  C   UNL     1       0.213  31.230  82.793  1.00  0.00     0.157 A 
ATOM     17  C   UNL     1       0.972  31.911  84.996  1.00  0.00     0.062 A 
ATOM     18  C   UNL     1      -0.072  31.562  84.128  1.00  0.00     0.158 A 
BRANCH  16  19
ATOM     19  O   UNL     1      -0.803  30.876  81.906  1.00  0.00    -0.504 OA
ATOM     20  H   UNL     1      -0.612  30.408  81.028  1.00  0.00     0.293 HD
ENDBRANCH  16  19
BRANCH  18  21
ATOM     21  O   UNL     1      -1.388  31.548  84.587  1.00  0.00    -0.504 OA
ATOM     22  H   UNL     1      -2.025  30.798  84.348  1.00  0.00     0.293 HD
ENDBRANCH  18  21
ENDBRANCH   3  13
BRANCH  10  23
ATOM     23  O   UNL     1       6.724  33.535  89.124  1.00  0.00    -0.507 OA
ATOM     24  H   UNL     1       7.028  34.403  89.551  1.00  0.00     0.293 HD
ENDBRANCH  10  23
BRANCH  11  25
ATOM     25  O   UNL     1       9.259  33.502  85.002  1.00  0.00    -0.508 OA
ATOM     26  H   UNL     1       9.893  34.259  85.232  1.00  0.00     0.293 HD
ENDBRANCH  11  25
ENDBRANCH   1   2
BRANCH   1  27
ATOM     27  C   UNL     1       1.226  32.904  88.342  1.00  0.00     0.339 C 
ATOM     28  C   UNL     1      -0.127  32.236  88.644  1.00  0.00     0.214 C 
ATOM     29  O   UNL     1       1.042  34.249  87.925  1.00  0.00    -0.332 OA
ATOM     30  C   UNL     1      -1.046  32.314  87.416  1.00  0.00     0.180 C 
ATOM     31  C   UNL     1       0.305  34.332  86.716  1.00  0.00     0.179 C 
ATOM     32  C   UNL     1      -1.121  33.762  86.904  1.00  0.00     0.177 C 
BRANCH  28  33
ATOM     33  O   UNL     1       0.066  30.891  89.000  1.00  0.00    -0.384 OA
ATOM     34  H   UNL     1      -0.768  30.409  88.761  1.00  0.00     0.211 HD
ENDBRANCH  28  33
BRANCH  30  35
ATOM     35  O   UNL     1      -2.337  31.875  87.756  1.00  0.00    -0.387 OA
ATOM     36  H   UNL     1      -2.234  30.993  88.199  1.00  0.00     0.211 HD
ENDBRANCH  30  35
BRANCH  31  37
ATOM     37  C   UNL     1       0.267  35.810  86.293  1.00  0.00     0.191 C 
BRANCH  37  38
ATOM     38  O   UNL     1       0.202  35.940  84.898  1.00  0.00    -0.394 OA
ATOM     39  H   UNL     1       0.344  35.034  84.520  1.00  0.00     0.210 HD
ENDBRANCH  37  38
ENDBRANCH  31  37
BRANCH  32  40
ATOM     40  O   UNL     1      -1.809  33.787  85.678  1.00  0.00    -0.387 OA
ATOM     41  H   UNL     1      -1.315  34.409  85.082  1.00  0.00     0.211 HD
ENDBRANCH  32  40
ENDBRANCH   1  27
TORSDOF 12
ENDMDL
MODEL 3
REMARK VINA RESULT:    -0.975      2.020      6.684
REMARK INTER + INTRA:          -3.047
REMARK INTER:                  -3.279
REMARK INTRA:                   0.232
REMARK UNBOUND:                -1.616
REMARK SMILES O=c1c(O[C@H]2O[C@H](CO)[C@@H](O)[C@H](O)[C@H]2O)c(-c2ccc(O)c(O)c2)oc2cc(O)cc(O)c12
REMARK SMILES IDX 4 1 3 2 16 3 25 4 2 5 26 6 1 7 33 8 27 9 31 10 28 11 30 12
REMARK SMILES IDX 17 13 18 14 19 15 20 16 24 17 22 18 21 19 23 21 32 23 29 25
REMARK SMILES IDX 5 27 14 28 6 29 12 30 7 31 10 32 15 33 13 35 8 37 9 38 11 40
REMARK H PARENT 21 20 23 22 32 24 29 26 15 34 13 36 9 39 11 41
REMARK Flexibility Score: inf
ROOT
ATOM      1  O   UNL     1       5.845  32.229  88.644  1.00  0.00    -0.454 OA
ENDROOT
BRANCH   1   2
ATOM      2  C   UNL     1       4.647  32.821  88.194  1.00  0.00     0.214 A 
ATOM      3  C   UNL     1       4.681  34.181  87.822  1.00  0.00     0.180 A 
ATOM      4  O   UNL     1       3.568  34.802  87.445  1.00  0.00    -0.452 OA
ATOM      5  C   UNL     1       3.409  32.140  88.121  1.00  0.00     0.239 A 
ATOM      6  C   UNL     1       2.389  34.201  87.369  1.00  0.00     0.146 A 
ATOM      7  O   UNL     1       3.330  30.924  88.441  1.00  0.00    -0.285 OA
ATOM      8  C   UNL     1       2.255  32.833  87.698  1.00  0.00     0.111 A 
ATOM      9  C   UNL     1       1.277  34.940  86.955  1.00  0.00     0.094 A 
ATOM     10  C   UNL     1       0.979  32.224  87.597  1.00  0.00     0.134 A 
ATOM     11  C   UNL     1       0.022  34.337  86.859  1.00  0.00     0.123 A 
ATOM     12  C   UNL     1      -0.124  32.982  87.179  1.00  0.00     0.093 A 
BRANCH   3  13
ATOM     13  C   UNL     1       5.934  34.966  87.857  1.00  0.00     0.025 A 
ATOM     14  C   UNL     1       6.673  35.040  89.048  1.00  0.00     0.016 A 
ATOM     15  C   UNL     1       7.857  35.780  89.100  1.00  0.00     0.051 A 
ATOM     16  C   UNL     1       8.312  36.467  87.970  1.00  0.00     0.157 A 
ATOM     17  C   UNL     1       6.378  35.681  86.730  1.00  0.00     0.062 A 
ATOM     18  C   UNL     1       7.568  36.421  86.779  1.00  0.00     0.158 A 
BRANCH  16  19
ATOM     19  O   UNL     1       9.501  37.191  88.050  1.00  0.00    -0.504 OA
ATOM     20  H   UNL     1       9.570  38.149  87.729  1.00  0.00     0.293 HD
ENDBRANCH  16  19
BRANCH  18  21
ATOM     21  O   UNL     1       8.009  37.110  85.651  1.00  0.00    -0.504 OA
ATOM     22  H   UNL     1       7.867  36.745  84.717  1.00  0.00     0.293 HD
ENDBRANCH  18  21
ENDBRANCH   3  13
BRANCH  10  23
ATOM     23  O   UNL     1       0.799  30.875  87.908  1.00  0.00    -0.507 OA
ATOM     24  H   UNL     1       0.400  30.223  87.243  1.00  0.00     0.293 HD
ENDBRANCH  10  23
BRANCH  11  25
ATOM     25  O   UNL     1      -1.073  35.091  86.445  1.00  0.00    -0.508 OA
ATOM     26  H   UNL     1      -1.804  34.692  85.867  1.00  0.00     0.293 HD
ENDBRANCH  11  25
ENDBRANCH   1   2
BRANCH   1  27
ATOM     27  C   UNL     1       6.618  31.215  87.992  1.00  0.00     0.339 C 
ATOM     28  C   UNL     1       8.083  31.665  87.856  1.00  0.00     0.214 C 
ATOM     29  O   UNL     1       6.076  30.876  86.723  1.00  0.00    -0.332 OA
ATOM     30  C   UNL     1       8.190  32.844  86.877  1.00  0.00     0.180 C 
ATOM     31  C   UNL     1       6.045  31.992  85.847  1.00  0.00     0.179 C 
ATOM     32  C   UNL     1       7.478  32.501  85.558  1.00  0.00     0.177 C 
BRANCH  28  33
ATOM     33  O   UNL     1       8.589  32.050  89.109  1.00  0.00    -0.384 OA
ATOM     34  H   UNL     1       8.200  32.940  89.315  1.00  0.00     0.211 HD
ENDBRANCH  28  33
BRANCH  30  35
ATOM     35  O   UNL     1       9.541  33.127  86.614  1.00  0.00    -0.387 OA
ATOM     36  H   UNL     1       9.806  33.860  87.228  1.00  0.00     0.211 HD
ENDBRANCH  30  35
BRANCH  31  37
ATOM     37  C   UNL     1       5.335  31.551  84.556  1.00  0.00     0.191 C 
BRANCH  37  38
ATOM     38  O   UNL     1       3.956  31.796  84.623  1.00  0.00    -0.394 OA
ATOM     39  H   UNL     1       3.799  32.667  84.174  1.00  0.00     0.210 HD
ENDBRANCH  37  38
ENDBRANCH  31  37
BRANCH  32  40
ATOM     40  O   UNL     1       7.420  33.648  84.748  1.00  0.00    -0.387 OA
ATOM     41  H   UNL     1       7.959  34.349  85.201  1.00  0.00     0.211 HD
ENDBRANCH  32  40
ENDBRANCH   1  27
TORSDOF 12
ENDMDL
MODEL 4
REMARK VINA RESULT:    -0.528      2.078      8.073
REMARK INTER + INTRA:          -2.392
REMARK INTER:                  -2.402
REMARK INTRA:                   0.011
REMARK UNBOUND:                -1.616
REMARK SMILES O=c1c(O[C@H]2O[C@H](CO)[C@@H](O)[C@H](O)[C@H]2O)c(-c2ccc(O)c(O)c2)oc2cc(O)cc(O)c12
REMARK SMILES IDX 4 1 3 2 16 3 25 4 2 5 26 6 1 7 33 8 27 9 31 10 28 11 30 12
REMARK SMILES IDX 17 13 18 14 19 15 20 16 24 17 22 18 21 19 23 21 32 23 29 25
REMARK SMILES IDX 5 27 14 28 6 29 12 30 7 31 10 32 15 33 13 35 8 37 9 38 11 40
REMARK H PARENT 21 20 23 22 32 24 29 26 15 34 13 36 9 39 11 41
REMARK Flexibility Score: inf
ROOT
ATOM      1  O   UNL     1       2.842  32.238  86.535  1.00  0.00    -0.454 OA
ENDROOT
BRANCH   1   2
ATOM      2  C   UNL     1       1.489  31.931  86.283  1.00  0.00     0.214 A 
ATOM      3  C   UNL     1       1.137  31.512  84.984  1.00  0.00     0.180 A 
ATOM      4  O   UNL     1      -0.133  31.266  84.679  1.00  0.00    -0.452 OA
ATOM      5  C   UNL     1       0.462  32.045  87.249  1.00  0.00     0.239 A 
ATOM      6  C   UNL     1      -1.125  31.366  85.553  1.00  0.00     0.146 A 
ATOM      7  O   UNL     1       0.728  32.413  88.424  1.00  0.00    -0.285 OA
ATOM      8  C   UNL     1      -0.871  31.756  86.888  1.00  0.00     0.111 A 
ATOM      9  C   UNL     1      -2.428  31.078  85.136  1.00  0.00     0.094 A 
ATOM     10  C   UNL     1      -1.957  31.845  87.795  1.00  0.00     0.134 A 
ATOM     11  C   UNL     1      -3.493  31.169  86.032  1.00  0.00     0.123 A 
ATOM     12  C   UNL     1      -3.256  31.551  87.358  1.00  0.00     0.093 A 
BRANCH   3  13
ATOM     13  C   UNL     1       2.148  31.355  83.916  1.00  0.00     0.025 A 
ATOM     14  C   UNL     1       1.733  31.232  82.580  1.00  0.00     0.016 A 
ATOM     15  C   UNL     1       2.675  31.079  81.560  1.00  0.00     0.051 A 
ATOM     16  C   UNL     1       4.040  31.033  81.857  1.00  0.00     0.157 A 
ATOM     17  C   UNL     1       3.520  31.279  84.216  1.00  0.00     0.062 A 
ATOM     18  C   UNL     1       4.466  31.129  83.193  1.00  0.00     0.158 A 
BRANCH  16  19
ATOM     19  O   UNL     1       4.957  30.886  80.817  1.00  0.00    -0.504 OA
ATOM     20  H   UNL     1       5.763  31.491  80.721  1.00  0.00     0.293 HD
ENDBRANCH  16  19
BRANCH  18  21
ATOM     21  O   UNL     1       5.825  31.074  83.500  1.00  0.00    -0.504 OA
ATOM     22  H   UNL     1       6.312  31.870  83.894  1.00  0.00     0.293 HD
ENDBRANCH  18  21
ENDBRANCH   3  13
BRANCH  10  23
ATOM     23  O   UNL     1      -1.755  32.222  89.124  1.00  0.00    -0.507 OA
ATOM     24  H   UNL     1      -2.515  32.242  89.794  1.00  0.00     0.293 HD
ENDBRANCH  10  23
BRANCH  11  25
ATOM     25  O   UNL     1      -4.784  30.879  85.596  1.00  0.00    -0.508 OA
ATOM     26  H   UNL     1      -5.112  31.165  84.681  1.00  0.00     0.293 HD
ENDBRANCH  11  25
ENDBRANCH   1   2
BRANCH   1  27
ATOM     27  C   UNL     1       3.540  32.160  87.783  1.00  0.00     0.339 C 
ATOM     28  C   UNL     1       3.844  33.571  88.314  1.00  0.00     0.214 C 
ATOM     29  O   UNL     1       4.732  31.396  87.671  1.00  0.00    -0.332 OA
ATOM     30  C   UNL     1       4.867  34.273  87.407  1.00  0.00     0.180 C 
ATOM     31  C   UNL     1       5.635  31.961  86.734  1.00  0.00     0.179 C 
ATOM     32  C   UNL     1       6.091  33.367  87.193  1.00  0.00     0.177 C 
BRANCH  28  33
ATOM     33  O   UNL     1       2.665  34.333  88.367  1.00  0.00    -0.384 OA
ATOM     34  H   UNL     1       2.413  34.538  87.429  1.00  0.00     0.211 HD
ENDBRANCH  28  33
BRANCH  30  35
ATOM     35  O   UNL     1       5.280  35.479  87.996  1.00  0.00    -0.387 OA
ATOM     36  H   UNL     1       6.188  35.675  87.646  1.00  0.00     0.211 HD
ENDBRANCH  30  35
BRANCH  31  37
ATOM     37  C   UNL     1       6.829  31.001  86.600  1.00  0.00     0.191 C 
BRANCH  37  38
ATOM     38  O   UNL     1       8.041  31.653  86.868  1.00  0.00    -0.394 OA
ATOM     39  H   UNL     1       7.816  32.593  87.093  1.00  0.00     0.210 HD
ENDBRANCH  37  38
ENDBRANCH  31  37
BRANCH  32  40
ATOM     40  O   UNL     1       6.927  33.938  86.217  1.00  0.00    -0.387 OA
ATOM     41  H   UNL     1       6.928  33.320  85.440  1.00  0.00     0.211 HD
ENDBRANCH  32  40
ENDBRANCH   1  27
TORSDOF 12
ENDMDL
