MODEL 1
REMARK VINA RESULT:    10.583      0.000      0.000
REMARK INTER + INTRA:          21.890
REMARK INTER:                  22.958
REMARK INTRA:                  -1.068
REMARK UNBOUND:                -1.068
REMARK SMILES CCCCCCCCCCCCCCCCCCCCCC(=O)[O-]
REMARK SMILES IDX 12 1 11 2 10 3 9 4 8 5 7 6 6 7 5 8 4 9 3 10 2 11 1 12 13 13
REMARK SMILES IDX 14 14 15 15 16 16 17 17 18 18 19 19 20 20 21 21 22 22 23 23
REMARK SMILES IDX 24 24
REMARK H PARENT
REMARK Flexibility Score: inf
ROOT
ATOM      1  C   UNL     1      35.070  13.191  42.323  1.00  0.00     0.000 C 
ENDROOT
BRANCH   1   2
ATOM      2  C   UNL     1      36.397  13.636  42.948  1.00  0.00     0.000 C 
BRANCH   2   3
ATOM      3  C   UNL     1      36.188  14.822  43.901  1.00  0.00     0.000 C 
BRANCH   3   4
ATOM      4  C   UNL     1      34.789  15.452  43.779  1.00  0.00    -0.000 C 
BRANCH   4   5
ATOM      5  C   UNL     1      34.775  16.945  43.402  1.00  0.00    -0.000 C 
BRANCH   5   6
ATOM      6  C   UNL     1      33.581  17.326  42.509  1.00  0.00    -0.000 C 
BRANCH   6   7
ATOM      7  C   UNL     1      34.017  18.036  41.216  1.00  0.00    -0.000 C 
BRANCH   7   8
ATOM      8  C   UNL     1      33.516  17.318  39.952  1.00  0.00    -0.000 C 
BRANCH   8   9
ATOM      9  C   UNL     1      33.157  18.328  38.854  1.00  0.00    -0.000 C 
BRANCH   9  10
ATOM     10  C   UNL     1      31.988  17.818  37.999  1.00  0.00    -0.000 C 
BRANCH  10  11
ATOM     11  C   UNL     1      31.255  18.954  37.268  1.00  0.00    -0.003 C 
ATOM     12  C   UNL     1      31.083  20.201  38.135  1.00  0.00     0.004 C 
ENDBRANCH  10  11
ENDBRANCH   9  10
ENDBRANCH   8   9
ENDBRANCH   7   8
ENDBRANCH   6   7
ENDBRANCH   5   6
ENDBRANCH   4   5
ENDBRANCH   3   4
ENDBRANCH   2   3
ENDBRANCH   1   2
BRANCH   1  13
ATOM     13  C   UNL     1      35.011  13.568  40.835  1.00  0.00     0.000 C 
BRANCH  13  14
ATOM     14  C   UNL     1      33.781  12.983  40.119  1.00  0.00     0.000 C 
BRANCH  14  15
ATOM     15  C   UNL     1      33.200  11.710  40.766  1.00  0.00     0.000 C 
BRANCH  15  16
ATOM     16  C   UNL     1      34.139  10.488  40.685  1.00  0.00     0.000 C 
BRANCH  16  17
ATOM     17  C   UNL     1      33.469   9.281  40.005  1.00  0.00     0.000 C 
BRANCH  17  18
ATOM     18  C   UNL     1      31.931   9.404  39.973  1.00  0.00     0.000 C 
BRANCH  18  19
ATOM     19  C   UNL     1      31.221   8.601  41.076  1.00  0.00     0.000 C 
BRANCH  19  20
ATOM     20  C   UNL     1      30.178   7.619  40.527  1.00  0.00     0.006 C 
BRANCH  20  21
ATOM     21  C   UNL     1      29.191   7.200  41.621  1.00  0.00     0.053 C 
BRANCH  21  22
ATOM     22  C   UNL     1      29.549   5.855  42.170  1.00  0.00     0.041 C 
ATOM     23  O   UNL     1      30.664   5.334  41.899  1.00  0.00    -0.550 OA
ATOM     24  O   UNL     1      28.641   5.164  42.965  1.00  0.00    -0.550 OA
ENDBRANCH  21  22
ENDBRANCH  20  21
ENDBRANCH  19  20
ENDBRANCH  18  19
ENDBRANCH  17  18
ENDBRANCH  16  17
ENDBRANCH  15  16
ENDBRANCH  14  15
ENDBRANCH  13  14
ENDBRANCH   1  13
TORSDOF 20
ENDMDL
MODEL 2
REMARK VINA RESULT:    11.071      2.712      6.054
REMARK INTER + INTRA:          22.948
REMARK INTER:                  23.631
REMARK INTRA:                  -0.683
REMARK UNBOUND:                -1.068
REMARK SMILES CCCCCCCCCCCCCCCCCCCCCC(=O)[O-]
REMARK SMILES IDX 12 1 11 2 10 3 9 4 8 5 7 6 6 7 5 8 4 9 3 10 2 11 1 12 13 13
REMARK SMILES IDX 14 14 15 15 16 16 17 17 18 18 19 19 20 20 21 21 22 22 23 23
REMARK SMILES IDX 24 24
REMARK H PARENT
REMARK Flexibility Score: inf
ROOT
ATOM      1  C   UNL     1      33.951  18.059  40.951  1.00  0.00     0.000 C 
ENDROOT
BRANCH   1   2
ATOM      2  C   UNL     1      33.873  17.726  39.457  1.00  0.00     0.000 C 
BRANCH   2   3
ATOM      3  C   UNL     1      33.232  18.877  38.667  1.00  0.00     0.000 C 
BRANCH   3   4
ATOM      4  C   UNL     1      32.221  18.393  37.612  1.00  0.00    -0.000 C 
BRANCH   4   5
ATOM      5  C   UNL     1      30.805  18.982  37.746  1.00  0.00    -0.000 C 
BRANCH   5   6
ATOM      6  C   UNL     1      30.802  20.417  38.301  1.00  0.00    -0.000 C 
BRANCH   6   7
ATOM      7  C   UNL     1      31.923  21.282  37.700  1.00  0.00    -0.000 C 
BRANCH   7   8
ATOM      8  C   UNL     1      31.748  22.776  38.014  1.00  0.00    -0.000 C 
BRANCH   8   9
ATOM      9  C   UNL     1      32.610  23.637  37.081  1.00  0.00    -0.000 C 
BRANCH   9  10
ATOM     10  C   UNL     1      31.795  24.122  35.872  1.00  0.00    -0.000 C 
BRANCH  10  11
ATOM     11  C   UNL     1      32.470  23.784  34.534  1.00  0.00    -0.003 C 
ATOM     12  C   UNL     1      31.595  24.124  33.328  1.00  0.00     0.004 C 
ENDBRANCH  10  11
ENDBRANCH   9  10
ENDBRANCH   8   9
ENDBRANCH   7   8
ENDBRANCH   6   7
ENDBRANCH   5   6
ENDBRANCH   4   5
ENDBRANCH   3   4
ENDBRANCH   2   3
ENDBRANCH   1   2
BRANCH   1  13
ATOM     13  C   UNL     1      33.725  16.803  41.806  1.00  0.00     0.000 C 
BRANCH  13  14
ATOM     14  C   UNL     1      33.906  17.064  43.311  1.00  0.00     0.000 C 
BRANCH  14  15
ATOM     15  C   UNL     1      34.562  15.909  44.094  1.00  0.00     0.000 C 
BRANCH  15  16
ATOM     16  C   UNL     1      36.005  15.595  43.644  1.00  0.00     0.000 C 
BRANCH  16  17
ATOM     17  C   UNL     1      36.199  14.109  43.296  1.00  0.00     0.000 C 
BRANCH  17  18
ATOM     18  C   UNL     1      34.936  13.484  42.667  1.00  0.00     0.000 C 
BRANCH  18  19
ATOM     19  C   UNL     1      35.016  13.330  41.139  1.00  0.00     0.000 C 
BRANCH  19  20
ATOM     20  C   UNL     1      33.951  12.380  40.575  1.00  0.00     0.006 C 
BRANCH  20  21
ATOM     21  C   UNL     1      34.178  10.948  41.068  1.00  0.00     0.053 C 
BRANCH  21  22
ATOM     22  C   UNL     1      33.421   9.971  40.223  1.00  0.00     0.041 C 
ATOM     23  O   UNL     1      32.247  10.233  39.845  1.00  0.00    -0.550 OA
ATOM     24  O   UNL     1      34.003   8.759  39.869  1.00  0.00    -0.550 OA
ENDBRANCH  21  22
ENDBRANCH  20  21
ENDBRANCH  19  20
ENDBRANCH  18  19
ENDBRANCH  17  18
ENDBRANCH  16  17
ENDBRANCH  15  16
ENDBRANCH  14  15
ENDBRANCH  13  14
ENDBRANCH   1  13
TORSDOF 20
ENDMDL
MODEL 3
REMARK VINA RESULT:    11.178      4.219      9.715
REMARK INTER + INTRA:          23.179
REMARK INTER:                  24.577
REMARK INTRA:                  -1.397
REMARK UNBOUND:                -1.068
REMARK SMILES CCCCCCCCCCCCCCCCCCCCCC(=O)[O-]
REMARK SMILES IDX 12 1 11 2 10 3 9 4 8 5 7 6 6 7 5 8 4 9 3 10 2 11 1 12 13 13
REMARK SMILES IDX 14 14 15 15 16 16 17 17 18 18 19 19 20 20 21 21 22 22 23 23
REMARK SMILES IDX 24 24
REMARK H PARENT
REMARK Flexibility Score: inf
ROOT
ATOM      1  C   UNL     1      35.204  13.453  42.523  1.00  0.00     0.000 C 
ENDROOT
BRANCH   1   2
ATOM      2  C   UNL     1      34.881  13.902  41.093  1.00  0.00     0.000 C 
BRANCH   2   3
ATOM      3  C   UNL     1      34.270  12.752  40.278  1.00  0.00     0.000 C 
BRANCH   3   4
ATOM      4  C   UNL     1      33.574  11.696  41.157  1.00  0.00    -0.000 C 
BRANCH   4   5
ATOM      5  C   UNL     1      34.154  10.274  41.052  1.00  0.00    -0.000 C 
BRANCH   5   6
ATOM      6  C   UNL     1      33.563   9.471  39.880  1.00  0.00    -0.000 C 
BRANCH   6   7
ATOM      7  C   UNL     1      32.025   9.492  39.868  1.00  0.00    -0.000 C 
BRANCH   7   8
ATOM      8  C   UNL     1      31.414   8.455  40.823  1.00  0.00    -0.000 C 
BRANCH   8   9
ATOM      9  C   UNL     1      29.997   8.069  40.379  1.00  0.00    -0.000 C 
BRANCH   9  10
ATOM     10  C   UNL     1      29.224   7.399  41.525  1.00  0.00    -0.000 C 
BRANCH  10  11
ATOM     11  C   UNL     1      29.713   5.970  41.807  1.00  0.00    -0.003 C 
ATOM     12  C   UNL     1      28.778   5.198  42.738  1.00  0.00     0.004 C 
ENDBRANCH  10  11
ENDBRANCH   9  10
ENDBRANCH   8   9
ENDBRANCH   7   8
ENDBRANCH   6   7
ENDBRANCH   5   6
ENDBRANCH   4   5
ENDBRANCH   3   4
ENDBRANCH   2   3
ENDBRANCH   1   2
BRANCH   1  13
ATOM     13  C   UNL     1      36.627  13.871  42.921  1.00  0.00     0.000 C 
BRANCH  13  14
ATOM     14  C   UNL     1      36.652  14.865  44.095  1.00  0.00     0.000 C 
BRANCH  14  15
ATOM     15  C   UNL     1      35.314  15.582  44.365  1.00  0.00     0.000 C 
BRANCH  15  16
ATOM     16  C   UNL     1      35.111  16.857  43.518  1.00  0.00     0.000 C 
BRANCH  16  17
ATOM     17  C   UNL     1      33.686  16.959  42.948  1.00  0.00     0.000 C 
BRANCH  17  18
ATOM     18  C   UNL     1      33.605  17.905  41.732  1.00  0.00     0.000 C 
BRANCH  18  19
ATOM     19  C   UNL     1      34.086  17.268  40.417  1.00  0.00     0.000 C 
BRANCH  19  20
ATOM     20  C   UNL     1      33.710  18.091  39.178  1.00  0.00     0.006 C 
BRANCH  20  21
ATOM     21  C   UNL     1      32.238  18.511  39.225  1.00  0.00     0.053 C 
BRANCH  21  22
ATOM     22  C   UNL     1      31.724  18.795  37.848  1.00  0.00     0.041 C 
ATOM     23  O   UNL     1      31.814  17.921  36.944  1.00  0.00    -0.550 OA
ATOM     24  O   UNL     1      31.163  20.033  37.556  1.00  0.00    -0.550 OA
ENDBRANCH  21  22
ENDBRANCH  20  21
ENDBRANCH  19  20
ENDBRANCH  18  19
ENDBRANCH  17  18
ENDBRANCH  16  17
ENDBRANCH  15  16
ENDBRANCH  14  15
ENDBRANCH  13  14
ENDBRANCH   1  13
TORSDOF 20
ENDMDL
MODEL 4
REMARK VINA RESULT:    11.215      2.514      5.405
REMARK INTER + INTRA:          23.260
REMARK INTER:                  24.669
REMARK INTRA:                  -1.409
REMARK UNBOUND:                -1.068
REMARK SMILES CCCCCCCCCCCCCCCCCCCCCC(=O)[O-]
REMARK SMILES IDX 12 1 11 2 10 3 9 4 8 5 7 6 6 7 5 8 4 9 3 10 2 11 1 12 13 13
REMARK SMILES IDX 14 14 15 15 16 16 17 17 18 18 19 19 20 20 21 21 22 22 23 23
REMARK SMILES IDX 24 24
REMARK H PARENT
REMARK Flexibility Score: inf
ROOT
ATOM      1  C   UNL     1      33.896  17.597  42.163  1.00  0.00     0.000 C 
ENDROOT
BRANCH   1   2
ATOM      2  C   UNL     1      33.781  16.918  40.793  1.00  0.00     0.000 C 
BRANCH   2   3
ATOM      3  C   UNL     1      33.959  17.934  39.656  1.00  0.00     0.000 C 
BRANCH   3   4
ATOM      4  C   UNL     1      32.644  18.629  39.259  1.00  0.00    -0.000 C 
BRANCH   4   5
ATOM      5  C   UNL     1      32.254  18.492  37.776  1.00  0.00    -0.000 C 
BRANCH   5   6
ATOM      6  C   UNL     1      31.194  19.518  37.337  1.00  0.00    -0.000 C 
BRANCH   6   7
ATOM      7  C   UNL     1      30.717  20.403  38.500  1.00  0.00    -0.000 C 
BRANCH   7   8
ATOM      8  C   UNL     1      30.873  21.903  38.203  1.00  0.00    -0.000 C 
BRANCH   8   9
ATOM      9  C   UNL     1      32.004  22.146  37.193  1.00  0.00    -0.000 C 
BRANCH   9  10
ATOM     10  C   UNL     1      32.263  23.649  37.009  1.00  0.00    -0.000 C 
BRANCH  10  11
ATOM     11  C   UNL     1      31.977  24.124  35.577  1.00  0.00    -0.003 C 
ATOM     12  C   UNL     1      33.116  23.806  34.609  1.00  0.00     0.004 C 
ENDBRANCH  10  11
ENDBRANCH   9  10
ENDBRANCH   8   9
ENDBRANCH   7   8
ENDBRANCH   6   7
ENDBRANCH   5   6
ENDBRANCH   4   5
ENDBRANCH   3   4
ENDBRANCH   2   3
ENDBRANCH   1   2
BRANCH   1  13
ATOM     13  C   UNL     1      35.148  17.116  42.910  1.00  0.00     0.000 C 
BRANCH  13  14
ATOM     14  C   UNL     1      34.840  16.031  43.957  1.00  0.00     0.000 C 
BRANCH  14  15
ATOM     15  C   UNL     1      36.035  15.128  44.324  1.00  0.00     0.000 C 
BRANCH  15  16
ATOM     16  C   UNL     1      36.385  14.089  43.237  1.00  0.00     0.000 C 
BRANCH  16  17
ATOM     17  C   UNL     1      35.132  13.465  42.600  1.00  0.00     0.000 C 
BRANCH  17  18
ATOM     18  C   UNL     1      35.335  13.133  41.106  1.00  0.00     0.000 C 
BRANCH  18  19
ATOM     19  C   UNL     1      34.027  12.841  40.352  1.00  0.00     0.000 C 
BRANCH  19  20
ATOM     20  C   UNL     1      33.089  11.901  41.120  1.00  0.00     0.006 C 
BRANCH  20  21
ATOM     21  C   UNL     1      33.735  10.528  41.325  1.00  0.00     0.053 C 
BRANCH  21  22
ATOM     22  C   UNL     1      33.423   9.619  40.178  1.00  0.00     0.041 C 
ATOM     23  O   UNL     1      34.355   9.082  39.520  1.00  0.00    -0.550 OA
ATOM     24  O   UNL     1      32.101   9.379  39.821  1.00  0.00    -0.550 OA
ENDBRANCH  21  22
ENDBRANCH  20  21
ENDBRANCH  19  20
ENDBRANCH  18  19
ENDBRANCH  17  18
ENDBRANCH  16  17
ENDBRANCH  15  16
ENDBRANCH  14  15
ENDBRANCH  13  14
ENDBRANCH   1  13
TORSDOF 20
ENDMDL
MODEL 5
REMARK VINA RESULT:    11.305      7.467      9.630
REMARK INTER + INTRA:          23.455
REMARK INTER:                  24.052
REMARK INTRA:                  -0.597
REMARK UNBOUND:                -1.068
REMARK SMILES CCCCCCCCCCCCCCCCCCCCCC(=O)[O-]
REMARK SMILES IDX 12 1 11 2 10 3 9 4 8 5 7 6 6 7 5 8 4 9 3 10 2 11 1 12 13 13
REMARK SMILES IDX 14 14 15 15 16 16 17 17 18 18 19 19 20 20 21 21 22 22 23 23
REMARK SMILES IDX 24 24
REMARK H PARENT
REMARK Flexibility Score: inf
ROOT
ATOM      1  C   UNL     1      31.124  20.793  43.723  1.00  0.00     0.000 C 
ENDROOT
BRANCH   1   2
ATOM      2  C   UNL     1      29.702  21.223  44.101  1.00  0.00     0.000 C 
BRANCH   2   3
ATOM      3  C   UNL     1      29.723  22.290  45.206  1.00  0.00     0.000 C 
BRANCH   3   4
ATOM      4  C   UNL     1      28.633  23.363  45.027  1.00  0.00    -0.000 C 
BRANCH   4   5
ATOM      5  C   UNL     1      27.644  23.492  46.199  1.00  0.00    -0.000 C 
BRANCH   5   6
ATOM      6  C   UNL     1      26.221  23.862  45.745  1.00  0.00    -0.000 C 
BRANCH   6   7
ATOM      7  C   UNL     1      25.168  22.851  46.228  1.00  0.00    -0.000 C 
BRANCH   7   8
ATOM      8  C   UNL     1      23.812  23.032  45.528  1.00  0.00    -0.000 C 
BRANCH   8   9
ATOM      9  C   UNL     1      22.845  21.902  45.906  1.00  0.00    -0.000 C 
BRANCH   9  10
ATOM     10  C   UNL     1      21.547  22.465  46.506  1.00  0.00    -0.000 C 
BRANCH  10  11
ATOM     11  C   UNL     1      20.367  22.397  45.525  1.00  0.00    -0.003 C 
ATOM     12  C   UNL     1      19.255  23.387  45.868  1.00  0.00     0.004 C 
ENDBRANCH  10  11
ENDBRANCH   9  10
ENDBRANCH   8   9
ENDBRANCH   7   8
ENDBRANCH   6   7
ENDBRANCH   5   6
ENDBRANCH   4   5
ENDBRANCH   3   4
ENDBRANCH   2   3
ENDBRANCH   1   2
BRANCH   1  13
ATOM     13  C   UNL     1      31.108  19.467  42.949  1.00  0.00     0.000 C 
BRANCH  13  14
ATOM     14  C   UNL     1      32.515  18.878  42.744  1.00  0.00     0.000 C 
BRANCH  14  15
ATOM     15  C   UNL     1      32.674  17.412  43.193  1.00  0.00     0.000 C 
BRANCH  15  16
ATOM     16  C   UNL     1      34.131  16.903  43.147  1.00  0.00     0.000 C 
BRANCH  16  17
ATOM     17  C   UNL     1      34.306  15.567  43.891  1.00  0.00     0.000 C 
BRANCH  17  18
ATOM     18  C   UNL     1      35.613  14.845  43.500  1.00  0.00     0.000 C 
BRANCH  18  19
ATOM     19  C   UNL     1      35.510  14.039  42.194  1.00  0.00     0.000 C 
BRANCH  19  20
ATOM     20  C   UNL     1      34.495  12.892  42.274  1.00  0.00     0.006 C 
BRANCH  20  21
ATOM     21  C   UNL     1      34.169  12.350  40.879  1.00  0.00     0.053 C 
BRANCH  21  22
ATOM     22  C   UNL     1      33.401  11.069  40.975  1.00  0.00     0.041 C 
ATOM     23  O   UNL     1      33.724  10.079  40.264  1.00  0.00    -0.550 OA
ATOM     24  O   UNL     1      32.314  10.972  41.837  1.00  0.00    -0.550 OA
ENDBRANCH  21  22
ENDBRANCH  20  21
ENDBRANCH  19  20
ENDBRANCH  18  19
ENDBRANCH  17  18
ENDBRANCH  16  17
ENDBRANCH  15  16
ENDBRANCH  14  15
ENDBRANCH  13  14
ENDBRANCH   1  13
TORSDOF 20
ENDMDL
MODEL 6
REMARK VINA RESULT:    11.324      5.892     10.147
REMARK INTER + INTRA:          23.497
REMARK INTER:                  25.112
REMARK INTRA:                  -1.615
REMARK UNBOUND:                -1.068
REMARK SMILES CCCCCCCCCCCCCCCCCCCCCC(=O)[O-]
REMARK SMILES IDX 12 1 11 2 10 3 9 4 8 5 7 6 6 7 5 8 4 9 3 10 2 11 1 12 13 13
REMARK SMILES IDX 14 14 15 15 16 16 17 17 18 18 19 19 20 20 21 21 22 22 23 23
REMARK SMILES IDX 24 24
REMARK H PARENT
REMARK Flexibility Score: inf
ROOT
ATOM      1  C   UNL     1      33.552  17.003  43.059  1.00  0.00     0.000 C 
ENDROOT
BRANCH   1   2
ATOM      2  C   UNL     1      34.899  16.883  43.779  1.00  0.00     0.000 C 
BRANCH   2   3
ATOM      3  C   UNL     1      35.153  15.441  44.241  1.00  0.00     0.000 C 
BRANCH   3   4
ATOM      4  C   UNL     1      36.443  14.839  43.655  1.00  0.00    -0.000 C 
BRANCH   4   5
ATOM      5  C   UNL     1      36.260  13.512  42.897  1.00  0.00    -0.000 C 
BRANCH   5   6
ATOM      6  C   UNL     1      34.865  13.373  42.262  1.00  0.00    -0.000 C 
BRANCH   6   7
ATOM      7  C   UNL     1      34.932  13.118  40.747  1.00  0.00    -0.000 C 
BRANCH   7   8
ATOM      8  C   UNL     1      33.665  12.436  40.207  1.00  0.00    -0.000 C 
BRANCH   8   9
ATOM      9  C   UNL     1      32.812  11.878  41.354  1.00  0.00    -0.000 C 
BRANCH   9  10
ATOM     10  C   UNL     1      32.774  10.343  41.315  1.00  0.00    -0.000 C 
BRANCH  10  11
ATOM     11  C   UNL     1      33.015   9.785  39.904  1.00  0.00    -0.003 C 
ATOM     12  C   UNL     1      34.399   9.155  39.746  1.00  0.00     0.004 C 
ENDBRANCH  10  11
ENDBRANCH   9  10
ENDBRANCH   8   9
ENDBRANCH   7   8
ENDBRANCH   6   7
ENDBRANCH   5   6
ENDBRANCH   4   5
ENDBRANCH   3   4
ENDBRANCH   2   3
ENDBRANCH   1   2
BRANCH   1  13
ATOM     13  C   UNL     1      33.714  17.708  41.704  1.00  0.00     0.000 C 
BRANCH  13  14
ATOM     14  C   UNL     1      34.062  16.737  40.562  1.00  0.00     0.000 C 
BRANCH  14  15
ATOM     15  C   UNL     1      34.264  17.402  39.187  1.00  0.00     0.000 C 
BRANCH  15  16
ATOM     16  C   UNL     1      33.261  18.539  38.893  1.00  0.00     0.000 C 
BRANCH  16  17
ATOM     17  C   UNL     1      32.518  18.332  37.561  1.00  0.00     0.000 C 
BRANCH  17  18
ATOM     18  C   UNL     1      31.011  18.646  37.675  1.00  0.00     0.000 C 
BRANCH  18  19
ATOM     19  C   UNL     1      30.709  20.052  38.219  1.00  0.00     0.000 C 
BRANCH  19  20
ATOM     20  C   UNL     1      31.457  21.160  37.467  1.00  0.00     0.006 C 
BRANCH  20  21
ATOM     21  C   UNL     1      31.400  22.482  38.239  1.00  0.00     0.053 C 
BRANCH  21  22
ATOM     22  C   UNL     1      32.429  23.439  37.726  1.00  0.00     0.041 C 
ATOM     23  O   UNL     1      33.370  23.821  38.472  1.00  0.00    -0.550 OA
ATOM     24  O   UNL     1      32.338  23.929  36.427  1.00  0.00    -0.550 OA
ENDBRANCH  21  22
ENDBRANCH  20  21
ENDBRANCH  19  20
ENDBRANCH  18  19
ENDBRANCH  17  18
ENDBRANCH  16  17
ENDBRANCH  15  16
ENDBRANCH  14  15
ENDBRANCH  13  14
ENDBRANCH   1  13
TORSDOF 20
ENDMDL
MODEL 7
REMARK VINA RESULT:    11.472      1.458      2.137
REMARK INTER + INTRA:          23.818
REMARK INTER:                  25.082
REMARK INTRA:                  -1.264
REMARK UNBOUND:                -1.068
REMARK SMILES CCCCCCCCCCCCCCCCCCCCCC(=O)[O-]
REMARK SMILES IDX 12 1 11 2 10 3 9 4 8 5 7 6 6 7 5 8 4 9 3 10 2 11 1 12 13 13
REMARK SMILES IDX 14 14 15 15 16 16 17 17 18 18 19 19 20 20 21 21 22 22 23 23
REMARK SMILES IDX 24 24
REMARK H PARENT
REMARK Flexibility Score: inf
ROOT
ATOM      1  C   UNL     1      34.225  12.466  40.514  1.00  0.00     0.000 C 
ENDROOT
BRANCH   1   2
ATOM      2  C   UNL     1      35.238  13.373  41.222  1.00  0.00     0.000 C 
BRANCH   2   3
ATOM      3  C   UNL     1      34.888  13.537  42.708  1.00  0.00     0.000 C 
BRANCH   3   4
ATOM      4  C   UNL     1      35.658  14.686  43.384  1.00  0.00    -0.000 C 
BRANCH   4   5
ATOM      5  C   UNL     1      34.782  15.830  43.927  1.00  0.00    -0.000 C 
BRANCH   5   6
ATOM      6  C   UNL     1      34.837  17.094  43.052  1.00  0.00    -0.000 C 
BRANCH   6   7
ATOM      7  C   UNL     1      33.619  17.218  42.121  1.00  0.00    -0.000 C 
BRANCH   7   8
ATOM      8  C   UNL     1      34.006  17.168  40.634  1.00  0.00    -0.000 C 
BRANCH   8   9
ATOM      9  C   UNL     1      33.418  18.364  39.874  1.00  0.00    -0.000 C 
BRANCH   9  10
ATOM     10  C   UNL     1      33.220  18.028  38.388  1.00  0.00    -0.000 C 
BRANCH  10  11
ATOM     11  C   UNL     1      31.739  18.015  37.981  1.00  0.00    -0.003 C 
ATOM     12  C   UNL     1      31.184  19.416  37.722  1.00  0.00     0.004 C 
ENDBRANCH  10  11
ENDBRANCH   9  10
ENDBRANCH   8   9
ENDBRANCH   7   8
ENDBRANCH   6   7
ENDBRANCH   5   6
ENDBRANCH   4   5
ENDBRANCH   3   4
ENDBRANCH   2   3
ENDBRANCH   1   2
BRANCH   1  13
ATOM     13  C   UNL     1      33.206  11.897  41.512  1.00  0.00     0.000 C 
BRANCH  13  14
ATOM     14  C   UNL     1      32.680  10.510  41.105  1.00  0.00     0.000 C 
BRANCH  14  15
ATOM     15  C   UNL     1      33.325   9.920  39.836  1.00  0.00     0.000 C 
BRANCH  15  16
ATOM     16  C   UNL     1      34.401   8.850  40.125  1.00  0.00     0.000 C 
BRANCH  16  17
ATOM     17  C   UNL     1      33.898   7.425  39.838  1.00  0.00     0.000 C 
BRANCH  17  18
ATOM     18  C   UNL     1      34.100   6.478  41.041  1.00  0.00     0.000 C 
BRANCH  18  19
ATOM     19  C   UNL     1      33.180   5.246  41.022  1.00  0.00     0.000 C 
BRANCH  19  20
ATOM     20  C   UNL     1      32.040   5.332  42.045  1.00  0.00     0.006 C 
BRANCH  20  21
ATOM     21  C   UNL     1      30.687   5.056  41.382  1.00  0.00     0.053 C 
BRANCH  21  22
ATOM     22  C   UNL     1      29.602   5.842  42.048  1.00  0.00     0.041 C 
ATOM     23  O   UNL     1      28.945   5.341  43.000  1.00  0.00    -0.550 OA
ATOM     24  O   UNL     1      29.299   7.125  41.603  1.00  0.00    -0.550 OA
ENDBRANCH  21  22
ENDBRANCH  20  21
ENDBRANCH  19  20
ENDBRANCH  18  19
ENDBRANCH  17  18
ENDBRANCH  16  17
ENDBRANCH  15  16
ENDBRANCH  14  15
ENDBRANCH  13  14
ENDBRANCH   1  13
TORSDOF 20
ENDMDL
MODEL 8
REMARK VINA RESULT:    11.482      4.624      9.847
REMARK INTER + INTRA:          23.839
REMARK INTER:                  24.982
REMARK INTRA:                  -1.143
REMARK UNBOUND:                -1.068
REMARK SMILES CCCCCCCCCCCCCCCCCCCCCC(=O)[O-]
REMARK SMILES IDX 12 1 11 2 10 3 9 4 8 5 7 6 6 7 5 8 4 9 3 10 2 11 1 12 13 13
REMARK SMILES IDX 14 14 15 15 16 16 17 17 18 18 19 19 20 20 21 21 22 22 23 23
REMARK SMILES IDX 24 24
REMARK H PARENT
REMARK Flexibility Score: inf
ROOT
ATOM      1  C   UNL     1      34.949  13.078  41.033  1.00  0.00     0.000 C 
ENDROOT
BRANCH   1   2
ATOM      2  C   UNL     1      33.627  12.619  40.405  1.00  0.00     0.000 C 
BRANCH   2   3
ATOM      3  C   UNL     1      33.158  11.290  41.015  1.00  0.00     0.000 C 
BRANCH   3   4
ATOM      4  C   UNL     1      33.528  10.069  40.152  1.00  0.00    -0.000 C 
BRANCH   4   5
ATOM      5  C   UNL     1      32.355   9.132  39.809  1.00  0.00    -0.000 C 
BRANCH   5   6
ATOM      6  C   UNL     1      31.443   9.694  38.704  1.00  0.00    -0.000 C 
BRANCH   6   7
ATOM      7  C   UNL     1      30.101   8.949  38.614  1.00  0.00    -0.000 C 
BRANCH   7   8
ATOM      8  C   UNL     1      29.328   9.280  37.328  1.00  0.00    -0.000 C 
BRANCH   8   9
ATOM      9  C   UNL     1      28.131   8.337  37.150  1.00  0.00    -0.000 C 
BRANCH   9  10
ATOM     10  C   UNL     1      28.566   7.012  36.503  1.00  0.00    -0.000 C 
BRANCH  10  11
ATOM     11  C   UNL     1      27.408   6.011  36.378  1.00  0.00    -0.003 C 
ATOM     12  C   UNL     1      27.727   4.656  37.011  1.00  0.00     0.004 C 
ENDBRANCH  10  11
ENDBRANCH   9  10
ENDBRANCH   8   9
ENDBRANCH   7   8
ENDBRANCH   6   7
ENDBRANCH   5   6
ENDBRANCH   4   5
ENDBRANCH   3   4
ENDBRANCH   2   3
ENDBRANCH   1   2
BRANCH   1  13
ATOM     13  C   UNL     1      34.780  13.337  42.538  1.00  0.00     0.000 C 
BRANCH  13  14
ATOM     14  C   UNL     1      36.005  14.025  43.167  1.00  0.00     0.000 C 
BRANCH  14  15
ATOM     15  C   UNL     1      35.754  15.462  43.664  1.00  0.00     0.000 C 
BRANCH  15  16
ATOM     16  C   UNL     1      34.365  16.017  43.285  1.00  0.00     0.000 C 
BRANCH  16  17
ATOM     17  C   UNL     1      34.379  17.544  43.093  1.00  0.00     0.000 C 
BRANCH  17  18
ATOM     18  C   UNL     1      33.605  17.984  41.833  1.00  0.00     0.000 C 
BRANCH  18  19
ATOM     19  C   UNL     1      33.990  17.206  40.564  1.00  0.00     0.000 C 
BRANCH  19  20
ATOM     20  C   UNL     1      33.648  17.957  39.271  1.00  0.00     0.006 C 
BRANCH  20  21
ATOM     21  C   UNL     1      32.263  18.605  39.363  1.00  0.00     0.053 C 
BRANCH  21  22
ATOM     22  C   UNL     1      31.598  18.628  38.022  1.00  0.00     0.041 C 
ATOM     23  O   UNL     1      31.452  19.716  37.403  1.00  0.00    -0.550 OA
ATOM     24  O   UNL     1      31.120  17.448  37.463  1.00  0.00    -0.550 OA
ENDBRANCH  21  22
ENDBRANCH  20  21
ENDBRANCH  19  20
ENDBRANCH  18  19
ENDBRANCH  17  18
ENDBRANCH  16  17
ENDBRANCH  15  16
ENDBRANCH  14  15
ENDBRANCH  13  14
ENDBRANCH   1  13
TORSDOF 20
ENDMDL
MODEL 9
REMARK VINA RESULT:    11.596      2.451      2.906
REMARK INTER + INTRA:          24.086
REMARK INTER:                  25.154
REMARK INTRA:                  -1.067
REMARK UNBOUND:                -1.068
REMARK SMILES CCCCCCCCCCCCCCCCCCCCCC(=O)[O-]
REMARK SMILES IDX 12 1 11 2 10 3 9 4 8 5 7 6 6 7 5 8 4 9 3 10 2 11 1 12 13 13
REMARK SMILES IDX 14 14 15 15 16 16 17 17 18 18 19 19 20 20 21 21 22 22 23 23
REMARK SMILES IDX 24 24
REMARK H PARENT
REMARK Flexibility Score: inf
ROOT
ATOM      1  C   UNL     1      35.126  13.628  42.769  1.00  0.00     0.000 C 
ENDROOT
BRANCH   1   2
ATOM      2  C   UNL     1      36.196  14.178  43.718  1.00  0.00     0.000 C 
BRANCH   2   3
ATOM      3  C   UNL     1      35.945  15.659  44.035  1.00  0.00     0.000 C 
BRANCH   3   4
ATOM      4  C   UNL     1      34.525  16.122  43.659  1.00  0.00    -0.000 C 
BRANCH   4   5
ATOM      5  C   UNL     1      34.457  17.428  42.847  1.00  0.00    -0.000 C 
BRANCH   5   6
ATOM      6  C   UNL     1      33.545  17.319  41.612  1.00  0.00    -0.000 C 
BRANCH   6   7
ATOM      7  C   UNL     1      34.331  17.006  40.327  1.00  0.00    -0.000 C 
BRANCH   7   8
ATOM      8  C   UNL     1      34.047  18.013  39.202  1.00  0.00    -0.000 C 
BRANCH   8   9
ATOM      9  C   UNL     1      32.582  18.469  39.232  1.00  0.00    -0.000 C 
BRANCH   9  10
ATOM     10  C   UNL     1      31.893  18.195  37.886  1.00  0.00    -0.000 C 
BRANCH  10  11
ATOM     11  C   UNL     1      30.834  19.253  37.540  1.00  0.00    -0.003 C 
ATOM     12  C   UNL     1      31.184  20.638  38.083  1.00  0.00     0.004 C 
ENDBRANCH  10  11
ENDBRANCH   9  10
ENDBRANCH   8   9
ENDBRANCH   7   8
ENDBRANCH   6   7
ENDBRANCH   5   6
ENDBRANCH   4   5
ENDBRANCH   3   4
ENDBRANCH   2   3
ENDBRANCH   1   2
BRANCH   1  13
ATOM     13  C   UNL     1      35.755  13.140  41.455  1.00  0.00     0.000 C 
BRANCH  13  14
ATOM     14  C   UNL     1      34.789  13.229  40.260  1.00  0.00     0.000 C 
BRANCH  14  15
ATOM     15  C   UNL     1      33.356  12.741  40.549  1.00  0.00     0.000 C 
BRANCH  15  16
ATOM     16  C   UNL     1      33.274  11.683  41.670  1.00  0.00     0.000 C 
BRANCH  16  17
ATOM     17  C   UNL     1      32.487  10.434  41.237  1.00  0.00     0.000 C 
BRANCH  17  18
ATOM     18  C   UNL     1      32.949   9.895  39.866  1.00  0.00     0.000 C 
BRANCH  18  19
ATOM     19  C   UNL     1      34.473   9.733  39.744  1.00  0.00     0.000 C 
BRANCH  19  20
ATOM     20  C   UNL     1      35.077   8.875  40.863  1.00  0.00     0.006 C 
BRANCH  20  21
ATOM     21  C   UNL     1      34.542   7.441  40.803  1.00  0.00     0.053 C 
BRANCH  21  22
ATOM     22  C   UNL     1      35.395   6.523  41.621  1.00  0.00     0.041 C 
ATOM     23  O   UNL     1      36.395   6.971  42.244  1.00  0.00    -0.550 OA
ATOM     24  O   UNL     1      35.098   5.166  41.681  1.00  0.00    -0.550 OA
ENDBRANCH  21  22
ENDBRANCH  20  21
ENDBRANCH  19  20
ENDBRANCH  18  19
ENDBRANCH  17  18
ENDBRANCH  16  17
ENDBRANCH  15  16
ENDBRANCH  14  15
ENDBRANCH  13  14
ENDBRANCH   1  13
TORSDOF 20
ENDMDL
