MODEL 1
REMARK VINA RESULT:    -5.724      0.000      0.000
REMARK INTER + INTRA:          -6.716
REMARK INTER:                  -6.561
REMARK INTRA:                  -0.155
REMARK UNBOUND:                -0.155
REMARK SMILES O=C([O-])C=Cc1ccc(O)cc1
REMARK SMILES IDX 6 1 7 2 12 3 8 4 11 5 9 6 5 7 4 8 2 9 1 10 3 11 10 12
REMARK H PARENT 10 13
REMARK Flexibility Score: inf
ROOT
ATOM      1  C   UNL     1      27.388   6.835  17.873  1.00  0.00    -0.025 A 
ATOM      2  C   UNL     1      26.774   7.490  16.791  1.00  0.00     0.012 A 
ATOM      3  C   UNL     1      27.006   5.512  18.172  1.00  0.00     0.012 A 
ATOM      4  C   UNL     1      25.782   6.850  16.042  1.00  0.00     0.047 A 
ATOM      5  C   UNL     1      26.013   4.875  17.419  1.00  0.00     0.047 A 
ATOM      6  C   UNL     1      25.398   5.541  16.356  1.00  0.00     0.115 A 
ENDROOT
BRANCH   1   7
ATOM      7  C   UNL     1      28.444   7.553  18.631  1.00  0.00     0.010 C 
ATOM      8  C   UNL     1      28.928   8.753  18.280  1.00  0.00     0.025 C 
BRANCH   8   9
ATOM      9  C   UNL     1      29.985   9.422  19.055  1.00  0.00     0.064 C 
ATOM     10  O   UNL     1      30.270   9.003  20.206  1.00  0.00    -0.545 OA
ATOM     11  O   UNL     1      30.675  10.511  18.534  1.00  0.00    -0.545 OA
ENDBRANCH   8   9
ENDBRANCH   1   7
BRANCH   6  12
ATOM     12  O   UNL     1      24.410   4.894  15.618  1.00  0.00    -0.508 OA
ATOM     13  H   UNL     1      23.486   4.728  16.001  1.00  0.00     0.293 HD
ENDBRANCH   6  12
TORSDOF 3
ENDMDL
MODEL 2
REMARK VINA RESULT:    -5.412      1.601      5.717
REMARK INTER + INTRA:          -6.358
REMARK INTER:                  -6.206
REMARK INTRA:                  -0.152
REMARK UNBOUND:                -0.155
REMARK SMILES O=C([O-])C=Cc1ccc(O)cc1
REMARK SMILES IDX 6 1 7 2 12 3 8 4 11 5 9 6 5 7 4 8 2 9 1 10 3 11 10 12
REMARK H PARENT 10 13
REMARK Flexibility Score: inf
ROOT
ATOM      1  C   UNL     1      27.755   7.068  18.122  1.00  0.00    -0.025 A 
ATOM      2  C   UNL     1      27.972   5.965  18.966  1.00  0.00     0.012 A 
ATOM      3  C   UNL     1      28.502   8.244  18.336  1.00  0.00     0.012 A 
ATOM      4  C   UNL     1      28.893   6.041  20.015  1.00  0.00     0.047 A 
ATOM      5  C   UNL     1      29.423   8.316  19.386  1.00  0.00     0.047 A 
ATOM      6  C   UNL     1      29.620   7.219  20.228  1.00  0.00     0.115 A 
ENDROOT
BRANCH   1   7
ATOM      7  C   UNL     1      26.774   6.934  17.016  1.00  0.00     0.010 C 
ATOM      8  C   UNL     1      26.107   5.803  16.745  1.00  0.00     0.025 C 
BRANCH   8   9
ATOM      9  C   UNL     1      25.153   5.712  15.629  1.00  0.00     0.064 C 
ATOM     10  O   UNL     1      24.046   5.139  15.803  1.00  0.00    -0.545 OA
ATOM     11  O   UNL     1      25.452   6.253  14.383  1.00  0.00    -0.545 OA
ENDBRANCH   8   9
ENDBRANCH   1   7
BRANCH   6  12
ATOM     12  O   UNL     1      30.540   7.308  21.271  1.00  0.00    -0.508 OA
ATOM     13  H   UNL     1      30.328   7.814  22.122  1.00  0.00     0.293 HD
ENDBRANCH   6  12
TORSDOF 3
ENDMDL
MODEL 3
REMARK VINA RESULT:    -5.387      2.518      3.306
REMARK INTER + INTRA:          -6.328
REMARK INTER:                  -6.184
REMARK INTRA:                  -0.144
REMARK UNBOUND:                -0.155
REMARK SMILES O=C([O-])C=Cc1ccc(O)cc1
REMARK SMILES IDX 6 1 7 2 12 3 8 4 11 5 9 6 5 7 4 8 2 9 1 10 3 11 10 12
REMARK H PARENT 10 13
REMARK Flexibility Score: inf
ROOT
ATOM      1  C   UNL     1      28.447   5.980  19.269  1.00  0.00    -0.025 A 
ATOM      2  C   UNL     1      27.590   4.921  18.922  1.00  0.00     0.012 A 
ATOM      3  C   UNL     1      28.300   7.216  18.609  1.00  0.00     0.012 A 
ATOM      4  C   UNL     1      26.627   5.083  17.922  1.00  0.00     0.047 A 
ATOM      5  C   UNL     1      27.335   7.375  17.609  1.00  0.00     0.047 A 
ATOM      6  C   UNL     1      26.499   6.311  17.261  1.00  0.00     0.115 A 
ENDROOT
BRANCH   1   7
ATOM      7  C   UNL     1      29.446   5.761  20.345  1.00  0.00     0.010 C 
ATOM      8  C   UNL     1      29.994   6.751  21.064  1.00  0.00     0.025 C 
BRANCH   8   9
ATOM      9  C   UNL     1      30.991   6.489  22.114  1.00  0.00     0.064 C 
ATOM     10  O   UNL     1      31.666   5.428  22.079  1.00  0.00    -0.545 OA
ATOM     11  O   UNL     1      31.201   7.397  23.146  1.00  0.00    -0.545 OA
ENDBRANCH   8   9
ENDBRANCH   1   7
BRANCH   6  12
ATOM     12  O   UNL     1      25.543   6.484  16.262  1.00  0.00    -0.508 OA
ATOM     13  H   UNL     1      24.981   5.710  15.928  1.00  0.00     0.293 HD
ENDBRANCH   6  12
TORSDOF 3
ENDMDL
MODEL 4
REMARK VINA RESULT:    -5.356      2.569      3.122
REMARK INTER + INTRA:          -6.293
REMARK INTER:                  -6.142
REMARK INTRA:                  -0.151
REMARK UNBOUND:                -0.155
REMARK SMILES O=C([O-])C=Cc1ccc(O)cc1
REMARK SMILES IDX 6 1 7 2 12 3 8 4 11 5 9 6 5 7 4 8 2 9 1 10 3 11 10 12
REMARK H PARENT 10 13
REMARK Flexibility Score: inf
ROOT
ATOM      1  C   UNL     1      28.451   5.951  19.320  1.00  0.00    -0.025 A 
ATOM      2  C   UNL     1      28.406   7.206  18.688  1.00  0.00     0.012 A 
ATOM      3  C   UNL     1      27.551   4.949  18.905  1.00  0.00     0.012 A 
ATOM      4  C   UNL     1      27.469   7.464  17.683  1.00  0.00     0.047 A 
ATOM      5  C   UNL     1      26.616   5.211  17.898  1.00  0.00     0.047 A 
ATOM      6  C   UNL     1      26.570   6.466  17.287  1.00  0.00     0.115 A 
ENDROOT
BRANCH   1   7
ATOM      7  C   UNL     1      29.472   5.723  20.374  1.00  0.00     0.010 C 
ATOM      8  C   UNL     1      30.003   6.701  21.120  1.00  0.00     0.025 C 
BRANCH   8   9
ATOM      9  C   UNL     1      31.022   6.429  22.146  1.00  0.00     0.064 C 
ATOM     10  O   UNL     1      31.573   5.299  22.190  1.00  0.00    -0.545 OA
ATOM     11  O   UNL     1      31.389   7.404  23.068  1.00  0.00    -0.545 OA
ENDBRANCH   8   9
ENDBRANCH   1   7
BRANCH   6  12
ATOM     12  O   UNL     1      25.631   6.712  16.288  1.00  0.00    -0.508 OA
ATOM     13  H   UNL     1      25.906   7.059  15.376  1.00  0.00     0.293 HD
ENDBRANCH   6  12
TORSDOF 3
ENDMDL
MODEL 5
REMARK VINA RESULT:    -5.231      1.701      5.681
REMARK INTER + INTRA:          -6.150
REMARK INTER:                  -6.008
REMARK INTRA:                  -0.142
REMARK UNBOUND:                -0.155
REMARK SMILES O=C([O-])C=Cc1ccc(O)cc1
REMARK SMILES IDX 6 1 7 2 12 3 8 4 11 5 9 6 5 7 4 8 2 9 1 10 3 11 10 12
REMARK H PARENT 10 13
REMARK Flexibility Score: inf
ROOT
ATOM      1  C   UNL     1      28.551   7.370  18.675  1.00  0.00    -0.025 A 
ATOM      2  C   UNL     1      29.176   8.602  18.939  1.00  0.00     0.012 A 
ATOM      3  C   UNL     1      28.768   6.295  19.561  1.00  0.00     0.012 A 
ATOM      4  C   UNL     1      30.018   8.751  20.045  1.00  0.00     0.047 A 
ATOM      5  C   UNL     1      29.611   6.449  20.666  1.00  0.00     0.047 A 
ATOM      6  C   UNL     1      30.239   7.673  20.910  1.00  0.00     0.115 A 
ENDROOT
BRANCH   1   7
ATOM      7  C   UNL     1      27.657   7.266  17.495  1.00  0.00     0.010 C 
ATOM      8  C   UNL     1      26.582   6.467  17.443  1.00  0.00     0.025 C 
BRANCH   8   9
ATOM      9  C   UNL     1      25.731   6.386  16.246  1.00  0.00     0.064 C 
ATOM     10  O   UNL     1      25.663   7.369  15.464  1.00  0.00    -0.545 OA
ATOM     11  O   UNL     1      25.000   5.237  15.963  1.00  0.00    -0.545 OA
ENDBRANCH   8   9
ENDBRANCH   1   7
BRANCH   6  12
ATOM     12  O   UNL     1      31.077   7.808  22.015  1.00  0.00    -0.508 OA
ATOM     13  H   UNL     1      31.874   7.197  22.153  1.00  0.00     0.293 HD
ENDBRANCH   6  12
TORSDOF 3
ENDMDL
MODEL 6
REMARK VINA RESULT:    -4.739      1.850      2.529
REMARK INTER + INTRA:          -5.586
REMARK INTER:                  -5.443
REMARK INTRA:                  -0.143
REMARK UNBOUND:                -0.155
REMARK SMILES O=C([O-])C=Cc1ccc(O)cc1
REMARK SMILES IDX 6 1 7 2 12 3 8 4 11 5 9 6 5 7 4 8 2 9 1 10 3 11 10 12
REMARK H PARENT 10 13
REMARK Flexibility Score: inf
ROOT
ATOM      1  C   UNL     1      27.256   5.964  18.048  1.00  0.00    -0.025 A 
ATOM      2  C   UNL     1      26.438   4.875  17.698  1.00  0.00     0.012 A 
ATOM      3  C   UNL     1      27.134   7.166  17.323  1.00  0.00     0.012 A 
ATOM      4  C   UNL     1      25.539   4.975  16.632  1.00  0.00     0.047 A 
ATOM      5  C   UNL     1      26.232   7.262  16.258  1.00  0.00     0.047 A 
ATOM      6  C   UNL     1      25.436   6.169  15.909  1.00  0.00     0.115 A 
ENDROOT
BRANCH   1   7
ATOM      7  C   UNL     1      28.187   5.812  19.195  1.00  0.00     0.010 C 
ATOM      8  C   UNL     1      28.991   6.790  19.636  1.00  0.00     0.025 C 
BRANCH   8   9
ATOM      9  C   UNL     1      29.908   6.591  20.769  1.00  0.00     0.064 C 
ATOM     10  O   UNL     1      30.255   5.425  21.090  1.00  0.00    -0.545 OA
ATOM     11  O   UNL     1      30.400   7.673  21.491  1.00  0.00    -0.545 OA
ENDBRANCH   8   9
ENDBRANCH   1   7
BRANCH   6  12
ATOM     12  O   UNL     1      24.544   6.280  14.844  1.00  0.00    -0.508 OA
ATOM     13  H   UNL     1      23.573   6.533  14.991  1.00  0.00     0.293 HD
ENDBRANCH   6  12
TORSDOF 3
ENDMDL
MODEL 7
REMARK VINA RESULT:    -4.663      4.181      6.621
REMARK INTER + INTRA:          -5.499
REMARK INTER:                  -5.346
REMARK INTRA:                  -0.153
REMARK UNBOUND:                -0.155
REMARK SMILES O=C([O-])C=Cc1ccc(O)cc1
REMARK SMILES IDX 6 1 7 2 12 3 8 4 11 5 9 6 5 7 4 8 2 9 1 10 3 11 10 12
REMARK H PARENT 10 13
REMARK Flexibility Score: inf
ROOT
ATOM      1  C   UNL     1      30.429   7.007  21.762  1.00  0.00    -0.025 A 
ATOM      2  C   UNL     1      30.683   7.946  22.776  1.00  0.00     0.012 A 
ATOM      3  C   UNL     1      30.597   5.637  22.048  1.00  0.00     0.012 A 
ATOM      4  C   UNL     1      31.118   7.531  24.038  1.00  0.00     0.047 A 
ATOM      5  C   UNL     1      31.032   5.225  23.312  1.00  0.00     0.047 A 
ATOM      6  C   UNL     1      31.296   6.169  24.308  1.00  0.00     0.115 A 
ENDROOT
BRANCH   1   7
ATOM      7  C   UNL     1      29.958   7.496  20.442  1.00  0.00     0.010 C 
ATOM      8  C   UNL     1      30.061   8.771  20.040  1.00  0.00     0.025 C 
BRANCH   8   9
ATOM      9  C   UNL     1      29.568   9.214  18.726  1.00  0.00     0.064 C 
ATOM     10  O   UNL     1      28.674   8.549  18.141  1.00  0.00    -0.545 OA
ATOM     11  O   UNL     1      30.074  10.359  18.120  1.00  0.00    -0.545 OA
ENDBRANCH   8   9
ENDBRANCH   1   7
BRANCH   6  12
ATOM     12  O   UNL     1      31.730   5.743  25.562  1.00  0.00    -0.508 OA
ATOM     13  H   UNL     1      31.075   5.464  26.282  1.00  0.00     0.293 HD
ENDBRANCH   6  12
TORSDOF 3
ENDMDL
MODEL 8
REMARK VINA RESULT:    -4.653      3.589      4.611
REMARK INTER + INTRA:          -5.488
REMARK INTER:                  -5.350
REMARK INTRA:                  -0.138
REMARK UNBOUND:                -0.155
REMARK SMILES O=C([O-])C=Cc1ccc(O)cc1
REMARK SMILES IDX 6 1 7 2 12 3 8 4 11 5 9 6 5 7 4 8 2 9 1 10 3 11 10 12
REMARK H PARENT 10 13
REMARK Flexibility Score: inf
ROOT
ATOM      1  C   UNL     1      29.575   6.573  20.368  1.00  0.00    -0.025 A 
ATOM      2  C   UNL     1      28.747   5.595  19.792  1.00  0.00     0.012 A 
ATOM      3  C   UNL     1      29.583   7.869  19.813  1.00  0.00     0.012 A 
ATOM      4  C   UNL     1      27.964   5.893  18.673  1.00  0.00     0.047 A 
ATOM      5  C   UNL     1      28.798   8.164  18.693  1.00  0.00     0.047 A 
ATOM      6  C   UNL     1      27.990   7.179  18.120  1.00  0.00     0.115 A 
ENDROOT
BRANCH   1   7
ATOM      7  C   UNL     1      30.379   6.211  21.562  1.00  0.00     0.010 C 
ATOM      8  C   UNL     1      30.341   6.886  22.719  1.00  0.00     0.025 C 
BRANCH   8   9
ATOM      9  C   UNL     1      31.165   6.498  23.874  1.00  0.00     0.064 C 
ATOM     10  O   UNL     1      31.222   5.289  24.218  1.00  0.00    -0.545 OA
ATOM     11  O   UNL     1      31.886   7.446  24.592  1.00  0.00    -0.545 OA
ENDBRANCH   8   9
ENDBRANCH   1   7
BRANCH   6  12
ATOM     12  O   UNL     1      27.215   7.488  17.004  1.00  0.00    -0.508 OA
ATOM     13  H   UNL     1      26.653   8.331  16.967  1.00  0.00     0.293 HD
ENDBRANCH   6  12
TORSDOF 3
ENDMDL
MODEL 9
REMARK VINA RESULT:    -4.188      4.158      6.777
REMARK INTER + INTRA:          -4.955
REMARK INTER:                  -4.812
REMARK INTRA:                  -0.143
REMARK UNBOUND:                -0.155
REMARK SMILES O=C([O-])C=Cc1ccc(O)cc1
REMARK SMILES IDX 6 1 7 2 12 3 8 4 11 5 9 6 5 7 4 8 2 9 1 10 3 11 10 12
REMARK H PARENT 10 13
REMARK Flexibility Score: inf
ROOT
ATOM      1  C   UNL     1      30.119   6.734  21.529  1.00  0.00    -0.025 A 
ATOM      2  C   UNL     1      30.588   7.805  22.309  1.00  0.00     0.012 A 
ATOM      3  C   UNL     1      30.208   5.426  22.046  1.00  0.00     0.012 A 
ATOM      4  C   UNL     1      31.157   7.574  23.565  1.00  0.00     0.047 A 
ATOM      5  C   UNL     1      30.778   5.200  23.304  1.00  0.00     0.047 A 
ATOM      6  C   UNL     1      31.255   6.270  24.064  1.00  0.00     0.115 A 
ENDROOT
BRANCH   1   7
ATOM      7  C   UNL     1      29.513   7.032  20.207  1.00  0.00     0.010 C 
ATOM      8  C   UNL     1      28.518   6.314  19.665  1.00  0.00     0.025 C 
BRANCH   8   9
ATOM      9  C   UNL     1      27.956   6.638  18.345  1.00  0.00     0.064 C 
ATOM     10  O   UNL     1      28.342   7.673  17.742  1.00  0.00    -0.545 OA
ATOM     11  O   UNL     1      27.004   5.817  17.750  1.00  0.00    -0.545 OA
ENDBRANCH   8   9
ENDBRANCH   1   7
BRANCH   6  12
ATOM     12  O   UNL     1      31.821   6.027  25.314  1.00  0.00    -0.508 OA
ATOM     13  H   UNL     1      31.348   6.293  26.170  1.00  0.00     0.293 HD
ENDBRANCH   6  12
TORSDOF 3
ENDMDL
