MODEL 1
REMARK VINA RESULT:    -6.865      0.000      0.000
REMARK INTER + INTRA:          -8.346
REMARK INTER:                  -8.069
REMARK INTRA:                  -0.277
REMARK UNBOUND:                -0.277
REMARK SMILES O=c1c(O)c(-c2ccc(O)cc2)oc2cc(O)cc(O)c12
REMARK SMILES IDX 5 1 3 2 2 3 1 4 21 5 19 6 18 7 16 8 15 9 14 10 13 11 6 12
REMARK SMILES IDX 7 13 8 14 9 15 12 16 11 17 10 18 4 20 20 22 17 24
REMARK H PARENT 10 19 4 21 20 23 17 25
REMARK Flexibility Score: inf
ROOT
ATOM      1  C   UNL     1      26.369   8.652 -32.767  1.00  0.00     0.180 A 
ATOM      2  C   UNL     1      25.924   9.814 -32.114  1.00  0.00     0.208 A 
ATOM      3  C   UNL     1      26.767  10.937 -32.076  1.00  0.00     0.238 A 
ATOM      4  O   UNL     1      26.342  11.992 -31.538  1.00  0.00    -0.285 OA
ATOM      5  C   UNL     1      28.048  10.878 -32.676  1.00  0.00     0.111 A 
ATOM      6  C   UNL     1      28.999  11.943 -32.662  1.00  0.00     0.134 A 
ATOM      7  C   UNL     1      30.183  11.820 -33.400  1.00  0.00     0.093 A 
ATOM      8  C   UNL     1      30.480  10.649 -34.096  1.00  0.00     0.123 A 
ATOM      9  C   UNL     1      29.584   9.579 -34.067  1.00  0.00     0.094 A 
ATOM     10  C   UNL     1      28.378   9.685 -33.370  1.00  0.00     0.146 A 
ATOM     11  O   UNL     1      27.549   8.649 -33.377  1.00  0.00    -0.452 OA
ENDROOT
BRANCH   1  12
ATOM     12  C   UNL     1      25.549   7.419 -32.827  1.00  0.00     0.021 A 
ATOM     13  C   UNL     1      25.726   6.423 -31.852  1.00  0.00     0.016 A 
ATOM     14  C   UNL     1      24.948   5.262 -31.877  1.00  0.00     0.047 A 
ATOM     15  C   UNL     1      23.972   5.089 -32.867  1.00  0.00     0.115 A 
ATOM     16  C   UNL     1      24.554   7.247 -33.806  1.00  0.00     0.016 A 
ATOM     17  C   UNL     1      23.776   6.086 -33.828  1.00  0.00     0.047 A 
BRANCH  15  18
ATOM     18  O   UNL     1      23.191   3.936 -32.901  1.00  0.00    -0.508 OA
ATOM     19  H   UNL     1      22.298   3.888 -32.426  1.00  0.00     0.293 HD
ENDBRANCH  15  18
ENDBRANCH   1  12
BRANCH   2  20
ATOM     20  O   UNL     1      24.648   9.858 -31.547  1.00  0.00    -0.502 OA
ATOM     21  H   UNL     1      24.273   9.101 -30.989  1.00  0.00     0.293 HD
ENDBRANCH   2  20
BRANCH   6  22
ATOM     22  O   UNL     1      28.842  13.119 -31.924  1.00  0.00    -0.507 OA
ATOM     23  H   UNL     1      28.228  13.224 -31.131  1.00  0.00     0.293 HD
ENDBRANCH   6  22
BRANCH   8  24
ATOM     24  O   UNL     1      31.674  10.556 -34.807  1.00  0.00    -0.508 OA
ATOM     25  H   UNL     1      31.728  10.065 -35.692  1.00  0.00     0.293 HD
ENDBRANCH   8  24
TORSDOF 5
ENDMDL
MODEL 2
REMARK VINA RESULT:    -6.827      1.204      1.660
REMARK INTER + INTRA:          -8.301
REMARK INTER:                  -8.134
REMARK INTRA:                  -0.167
REMARK UNBOUND:                -0.277
REMARK SMILES O=c1c(O)c(-c2ccc(O)cc2)oc2cc(O)cc(O)c12
REMARK SMILES IDX 5 1 3 2 2 3 1 4 21 5 19 6 18 7 16 8 15 9 14 10 13 11 6 12
REMARK SMILES IDX 7 13 8 14 9 15 12 16 11 17 10 18 4 20 20 22 17 24
REMARK H PARENT 10 19 4 21 20 23 17 25
REMARK Flexibility Score: inf
ROOT
ATOM      1  C   UNL     1      26.606   9.276 -32.638  1.00  0.00     0.180 A 
ATOM      2  C   UNL     1      26.596  10.596 -32.156  1.00  0.00     0.208 A 
ATOM      3  C   UNL     1      27.695  11.428 -32.429  1.00  0.00     0.238 A 
ATOM      4  O   UNL     1      27.656  12.625 -32.043  1.00  0.00    -0.285 OA
ATOM      5  C   UNL     1      28.795  10.924 -33.165  1.00  0.00     0.111 A 
ATOM      6  C   UNL     1      29.976  11.667 -33.466  1.00  0.00     0.134 A 
ATOM      7  C   UNL     1      30.944  11.110 -34.313  1.00  0.00     0.093 A 
ATOM      8  C   UNL     1      30.804   9.818 -34.816  1.00  0.00     0.123 A 
ATOM      9  C   UNL     1      29.679   9.062 -34.480  1.00  0.00     0.094 A 
ATOM     10  C   UNL     1      28.680   9.602 -33.667  1.00  0.00     0.146 A 
ATOM     11  O   UNL     1      27.622   8.854 -33.381  1.00  0.00    -0.452 OA
ENDROOT
BRANCH   1  12
ATOM     12  C   UNL     1      25.497   8.331 -32.369  1.00  0.00     0.021 A 
ATOM     13  C   UNL     1      24.753   7.816 -33.443  1.00  0.00     0.016 A 
ATOM     14  C   UNL     1      23.716   6.906 -33.214  1.00  0.00     0.047 A 
ATOM     15  C   UNL     1      23.421   6.488 -31.910  1.00  0.00     0.115 A 
ATOM     16  C   UNL     1      25.208   7.892 -31.065  1.00  0.00     0.016 A 
ATOM     17  C   UNL     1      24.172   6.981 -30.838  1.00  0.00     0.047 A 
BRANCH  15  18
ATOM     18  O   UNL     1      22.390   5.582 -31.670  1.00  0.00    -0.508 OA
ATOM     19  H   UNL     1      22.538   4.747 -31.117  1.00  0.00     0.293 HD
ENDBRANCH  15  18
ENDBRANCH   1  12
BRANCH   2  20
ATOM     20  O   UNL     1      25.492  11.080 -31.451  1.00  0.00    -0.502 OA
ATOM     21  H   UNL     1      25.030  10.542 -30.726  1.00  0.00     0.293 HD
ENDBRANCH   2  20
BRANCH   6  22
ATOM     22  O   UNL     1      30.259  12.930 -32.940  1.00  0.00    -0.507 OA
ATOM     23  H   UNL     1      29.892  13.287 -32.070  1.00  0.00     0.293 HD
ENDBRANCH   6  22
BRANCH   8  24
ATOM     24  O   UNL     1      31.793   9.291 -35.643  1.00  0.00    -0.508 OA
ATOM     25  H   UNL     1      32.775   9.487 -35.486  1.00  0.00     0.293 HD
ENDBRANCH   8  24
TORSDOF 5
ENDMDL
MODEL 3
REMARK VINA RESULT:    -6.029     12.769     14.146
REMARK INTER + INTRA:          -7.364
REMARK INTER:                  -7.135
REMARK INTRA:                  -0.229
REMARK UNBOUND:                -0.277
REMARK SMILES O=c1c(O)c(-c2ccc(O)cc2)oc2cc(O)cc(O)c12
REMARK SMILES IDX 5 1 3 2 2 3 1 4 21 5 19 6 18 7 16 8 15 9 14 10 13 11 6 12
REMARK SMILES IDX 7 13 8 14 9 15 12 16 11 17 10 18 4 20 20 22 17 24
REMARK H PARENT 10 19 4 21 20 23 17 25
REMARK Flexibility Score: inf
ROOT
ATOM      1  C   UNL     1      34.685   6.009 -22.367  1.00  0.00     0.180 A 
ATOM      2  C   UNL     1      34.368   7.009 -21.432  1.00  0.00     0.208 A 
ATOM      3  C   UNL     1      33.028   7.403 -21.284  1.00  0.00     0.238 A 
ATOM      4  O   UNL     1      32.743   8.259 -20.406  1.00  0.00    -0.285 OA
ATOM      5  C   UNL     1      32.025   6.804 -22.085  1.00  0.00     0.111 A 
ATOM      6  C   UNL     1      30.642   7.154 -22.047  1.00  0.00     0.134 A 
ATOM      7  C   UNL     1      29.720   6.405 -22.789  1.00  0.00     0.093 A 
ATOM      8  C   UNL     1      30.138   5.364 -23.616  1.00  0.00     0.123 A 
ATOM      9  C   UNL     1      31.495   5.052 -23.705  1.00  0.00     0.094 A 
ATOM     10  C   UNL     1      32.435   5.756 -22.950  1.00  0.00     0.146 A 
ATOM     11  O   UNL     1      33.714   5.421 -23.055  1.00  0.00    -0.452 OA
ENDROOT
BRANCH   1  12
ATOM     12  C   UNL     1      36.078   5.559 -22.598  1.00  0.00     0.021 A 
ATOM     13  C   UNL     1      36.466   4.273 -22.185  1.00  0.00     0.016 A 
ATOM     14  C   UNL     1      37.769   3.820 -22.412  1.00  0.00     0.047 A 
ATOM     15  C   UNL     1      38.695   4.641 -23.069  1.00  0.00     0.115 A 
ATOM     16  C   UNL     1      37.007   6.369 -23.274  1.00  0.00     0.016 A 
ATOM     17  C   UNL     1      38.309   5.914 -23.502  1.00  0.00     0.047 A 
BRANCH  15  18
ATOM     18  O   UNL     1      39.996   4.200 -23.301  1.00  0.00    -0.508 OA
ATOM     19  H   UNL     1      40.482   4.416 -24.163  1.00  0.00     0.293 HD
ENDBRANCH  15  18
ENDBRANCH   1  12
BRANCH   2  20
ATOM     20  O   UNL     1      35.370   7.571 -20.636  1.00  0.00    -0.502 OA
ATOM     21  H   UNL     1      35.333   7.558 -19.624  1.00  0.00     0.293 HD
ENDBRANCH   2  20
BRANCH   6  22
ATOM     22  O   UNL     1      30.131   8.237 -21.325  1.00  0.00    -0.507 OA
ATOM     23  H   UNL     1      30.354   8.444 -20.364  1.00  0.00     0.293 HD
ENDBRANCH   6  22
BRANCH   8  24
ATOM     24  O   UNL     1      29.194   4.650 -24.352  1.00  0.00    -0.508 OA
ATOM     25  H   UNL     1      28.521   5.118 -24.947  1.00  0.00     0.293 HD
ENDBRANCH   8  24
TORSDOF 5
ENDMDL
MODEL 4
REMARK VINA RESULT:    -5.970      2.399      6.961
REMARK INTER + INTRA:          -7.293
REMARK INTER:                  -7.012
REMARK INTRA:                  -0.282
REMARK UNBOUND:                -0.277
REMARK SMILES O=c1c(O)c(-c2ccc(O)cc2)oc2cc(O)cc(O)c12
REMARK SMILES IDX 5 1 3 2 2 3 1 4 21 5 19 6 18 7 16 8 15 9 14 10 13 11 6 12
REMARK SMILES IDX 7 13 8 14 9 15 12 16 11 17 10 18 4 20 20 22 17 24
REMARK H PARENT 10 19 4 21 20 23 17 25
REMARK Flexibility Score: inf
ROOT
ATOM      1  C   UNL     1      26.236   8.528 -31.534  1.00  0.00     0.180 A 
ATOM      2  C   UNL     1      24.946   8.440 -32.084  1.00  0.00     0.208 A 
ATOM      3  C   UNL     1      24.079   7.434 -31.626  1.00  0.00     0.238 A 
ATOM      4  O   UNL     1      22.906   7.395 -32.082  1.00  0.00    -0.285 OA
ATOM      5  C   UNL     1      24.518   6.521 -30.637  1.00  0.00     0.111 A 
ATOM      6  C   UNL     1      23.737   5.440 -30.129  1.00  0.00     0.134 A 
ATOM      7  C   UNL     1      24.225   4.679 -29.059  1.00  0.00     0.093 A 
ATOM      8  C   UNL     1      25.489   4.918 -28.523  1.00  0.00     0.123 A 
ATOM      9  C   UNL     1      26.285   5.936 -29.052  1.00  0.00     0.094 A 
ATOM     10  C   UNL     1      25.812   6.735 -30.095  1.00  0.00     0.146 A 
ATOM     11  O   UNL     1      26.596   7.698 -30.562  1.00  0.00    -0.452 OA
ENDROOT
BRANCH   1  12
ATOM     12  C   UNL     1      27.217   9.544 -31.984  1.00  0.00     0.021 A 
ATOM     13  C   UNL     1      28.117   9.226 -33.015  1.00  0.00     0.016 A 
ATOM     14  C   UNL     1      29.036  10.177 -33.469  1.00  0.00     0.047 A 
ATOM     15  C   UNL     1      29.055  11.461 -32.911  1.00  0.00     0.115 A 
ATOM     16  C   UNL     1      27.229  10.841 -31.442  1.00  0.00     0.016 A 
ATOM     17  C   UNL     1      28.147  11.791 -31.899  1.00  0.00     0.047 A 
BRANCH  15  18
ATOM     18  O   UNL     1      29.966  12.417 -33.356  1.00  0.00    -0.508 OA
ATOM     19  H   UNL     1      29.809  12.942 -34.207  1.00  0.00     0.293 HD
ENDBRANCH  15  18
ENDBRANCH   1  12
BRANCH   2  20
ATOM     20  O   UNL     1      24.525   9.364 -33.043  1.00  0.00    -0.502 OA
ATOM     21  H   UNL     1      25.067  10.186 -33.282  1.00  0.00     0.293 HD
ENDBRANCH   2  20
BRANCH   6  22
ATOM     22  O   UNL     1      22.499   5.057 -30.654  1.00  0.00    -0.507 OA
ATOM     23  H   UNL     1      21.696   4.797 -30.103  1.00  0.00     0.293 HD
ENDBRANCH   6  22
BRANCH   8  24
ATOM     24  O   UNL     1      25.948   4.132 -27.468  1.00  0.00    -0.508 OA
ATOM     25  H   UNL     1      25.779   4.389 -26.503  1.00  0.00     0.293 HD
ENDBRANCH   8  24
TORSDOF 5
ENDMDL
MODEL 5
REMARK VINA RESULT:    -5.636     13.631     14.270
REMARK INTER + INTRA:          -6.901
REMARK INTER:                  -6.706
REMARK INTRA:                  -0.195
REMARK UNBOUND:                -0.277
REMARK SMILES O=c1c(O)c(-c2ccc(O)cc2)oc2cc(O)cc(O)c12
REMARK SMILES IDX 5 1 3 2 2 3 1 4 21 5 19 6 18 7 16 8 15 9 14 10 13 11 6 12
REMARK SMILES IDX 7 13 8 14 9 15 12 16 11 17 10 18 4 20 20 22 17 24
REMARK H PARENT 10 19 4 21 20 23 17 25
REMARK Flexibility Score: inf
ROOT
ATOM      1  C   UNL     1      31.185   4.127 -20.158  1.00  0.00     0.180 A 
ATOM      2  C   UNL     1      30.692   5.368 -20.595  1.00  0.00     0.208 A 
ATOM      3  C   UNL     1      31.518   6.191 -21.379  1.00  0.00     0.238 A 
ATOM      4  O   UNL     1      31.052   7.275 -21.814  1.00  0.00    -0.285 OA
ATOM      5  C   UNL     1      32.831   5.769 -21.701  1.00  0.00     0.111 A 
ATOM      6  C   UNL     1      33.767   6.539 -22.455  1.00  0.00     0.134 A 
ATOM      7  C   UNL     1      34.991   5.967 -22.824  1.00  0.00     0.093 A 
ATOM      8  C   UNL     1      35.340   4.682 -22.414  1.00  0.00     0.123 A 
ATOM      9  C   UNL     1      34.455   3.943 -21.626  1.00  0.00     0.094 A 
ATOM     10  C   UNL     1      33.212   4.471 -21.272  1.00  0.00     0.146 A 
ATOM     11  O   UNL     1      32.396   3.731 -20.531  1.00  0.00    -0.452 OA
ENDROOT
BRANCH   1  12
ATOM     12  C   UNL     1      30.384   3.217 -19.307  1.00  0.00     0.021 A 
ATOM     13  C   UNL     1      29.981   1.971 -19.816  1.00  0.00     0.016 A 
ATOM     14  C   UNL     1      29.242   1.087 -19.023  1.00  0.00     0.047 A 
ATOM     15  C   UNL     1      28.912   1.431 -17.706  1.00  0.00     0.115 A 
ATOM     16  C   UNL     1      30.065   3.547 -17.977  1.00  0.00     0.016 A 
ATOM     17  C   UNL     1      29.328   2.661 -17.186  1.00  0.00     0.047 A 
BRANCH  15  18
ATOM     18  O   UNL     1      28.177   0.559 -16.906  1.00  0.00    -0.508 OA
ATOM     19  H   UNL     1      27.170   0.634 -16.828  1.00  0.00     0.293 HD
ENDBRANCH  15  18
ENDBRANCH   1  12
BRANCH   2  20
ATOM     20  O   UNL     1      29.386   5.756 -20.285  1.00  0.00    -0.502 OA
ATOM     21  H   UNL     1      28.575   5.225 -20.580  1.00  0.00     0.293 HD
ENDBRANCH   2  20
BRANCH   6  22
ATOM     22  O   UNL     1      33.556   7.866 -22.838  1.00  0.00    -0.507 OA
ATOM     23  H   UNL     1      33.566   8.655 -22.209  1.00  0.00     0.293 HD
ENDBRANCH   6  22
BRANCH   8  24
ATOM     24  O   UNL     1      36.572   4.151 -22.787  1.00  0.00    -0.508 OA
ATOM     25  H   UNL     1      37.264   4.709 -23.273  1.00  0.00     0.293 HD
ENDBRANCH   8  24
TORSDOF 5
ENDMDL
MODEL 6
REMARK VINA RESULT:    -5.621     10.594     11.053
REMARK INTER + INTRA:          -6.883
REMARK INTER:                  -6.637
REMARK INTRA:                  -0.246
REMARK UNBOUND:                -0.277
REMARK SMILES O=c1c(O)c(-c2ccc(O)cc2)oc2cc(O)cc(O)c12
REMARK SMILES IDX 5 1 3 2 2 3 1 4 21 5 19 6 18 7 16 8 15 9 14 10 13 11 6 12
REMARK SMILES IDX 7 13 8 14 9 15 12 16 11 17 10 18 4 20 20 22 17 24
REMARK H PARENT 10 19 4 21 20 23 17 25
REMARK Flexibility Score: inf
ROOT
ATOM      1  C   UNL     1      30.823   5.290 -24.057  1.00  0.00     0.180 A 
ATOM      2  C   UNL     1      30.042   6.055 -23.174  1.00  0.00     0.208 A 
ATOM      3  C   UNL     1      30.684   6.812 -22.179  1.00  0.00     0.238 A 
ATOM      4  O   UNL     1      29.983   7.538 -21.427  1.00  0.00    -0.285 OA
ATOM      5  C   UNL     1      32.095   6.781 -22.071  1.00  0.00     0.111 A 
ATOM      6  C   UNL     1      32.846   7.478 -21.077  1.00  0.00     0.134 A 
ATOM      7  C   UNL     1      34.246   7.480 -21.145  1.00  0.00     0.093 A 
ATOM      8  C   UNL     1      34.920   6.760 -22.129  1.00  0.00     0.123 A 
ATOM      9  C   UNL     1      34.195   6.028 -23.071  1.00  0.00     0.094 A 
ATOM     10  C   UNL     1      32.799   6.035 -23.051  1.00  0.00     0.146 A 
ATOM     11  O   UNL     1      32.148   5.334 -23.971  1.00  0.00    -0.452 OA
ENDROOT
BRANCH   1  12
ATOM     12  C   UNL     1      30.219   4.447 -25.114  1.00  0.00     0.021 A 
ATOM     13  C   UNL     1      29.633   3.218 -24.767  1.00  0.00     0.016 A 
ATOM     14  C   UNL     1      29.039   2.415 -25.745  1.00  0.00     0.047 A 
ATOM     15  C   UNL     1      29.007   2.840 -27.080  1.00  0.00     0.115 A 
ATOM     16  C   UNL     1      30.166   4.875 -26.453  1.00  0.00     0.016 A 
ATOM     17  C   UNL     1      29.569   4.072 -27.429  1.00  0.00     0.047 A 
BRANCH  15  18
ATOM     18  O   UNL     1      28.416   2.049 -28.063  1.00  0.00    -0.508 OA
ATOM     19  H   UNL     1      28.642   2.166 -29.043  1.00  0.00     0.293 HD
ENDBRANCH  15  18
ENDBRANCH   1  12
BRANCH   2  20
ATOM     20  O   UNL     1      28.653   6.089 -23.312  1.00  0.00    -0.502 OA
ATOM     21  H   UNL     1      28.152   6.929 -23.577  1.00  0.00     0.293 HD
ENDBRANCH   2  20
BRANCH   6  22
ATOM     22  O   UNL     1      32.273   8.152 -19.995  1.00  0.00    -0.507 OA
ATOM     23  H   UNL     1      32.562   9.060 -19.665  1.00  0.00     0.293 HD
ENDBRANCH   6  22
BRANCH   8  24
ATOM     24  O   UNL     1      36.313   6.773 -22.158  1.00  0.00    -0.508 OA
ATOM     25  H   UNL     1      36.826   6.731 -23.031  1.00  0.00     0.293 HD
ENDBRANCH   8  24
TORSDOF 5
ENDMDL
MODEL 7
REMARK VINA RESULT:    -5.583     15.106     15.959
REMARK INTER + INTRA:          -6.839
REMARK INTER:                  -6.563
REMARK INTRA:                  -0.276
REMARK UNBOUND:                -0.277
REMARK SMILES O=c1c(O)c(-c2ccc(O)cc2)oc2cc(O)cc(O)c12
REMARK SMILES IDX 5 1 3 2 2 3 1 4 21 5 19 6 18 7 16 8 15 9 14 10 13 11 6 12
REMARK SMILES IDX 7 13 8 14 9 15 12 16 11 17 10 18 4 20 20 22 17 24
REMARK H PARENT 10 19 4 21 20 23 17 25
REMARK Flexibility Score: inf
ROOT
ATOM      1  C   UNL     1      36.110   6.590 -20.799  1.00  0.00     0.180 A 
ATOM      2  C   UNL     1      36.790   6.262 -19.614  1.00  0.00     0.208 A 
ATOM      3  C   UNL     1      38.147   5.907 -19.684  1.00  0.00     0.238 A 
ATOM      4  O   UNL     1      38.764   5.668 -18.613  1.00  0.00    -0.285 OA
ATOM      5  C   UNL     1      38.802   5.870 -20.938  1.00  0.00     0.111 A 
ATOM      6  C   UNL     1      40.164   5.487 -21.130  1.00  0.00     0.134 A 
ATOM      7  C   UNL     1      40.744   5.613 -22.399  1.00  0.00     0.093 A 
ATOM      8  C   UNL     1      39.996   6.046 -23.493  1.00  0.00     0.123 A 
ATOM      9  C   UNL     1      38.648   6.367 -23.328  1.00  0.00     0.094 A 
ATOM     10  C   UNL     1      38.050   6.286 -22.068  1.00  0.00     0.146 A 
ATOM     11  O   UNL     1      36.769   6.610 -21.952  1.00  0.00    -0.452 OA
ENDROOT
BRANCH   1  12
ATOM     12  C   UNL     1      34.672   6.949 -20.809  1.00  0.00     0.021 A 
ATOM     13  C   UNL     1      34.290   8.277 -20.558  1.00  0.00     0.016 A 
ATOM     14  C   UNL     1      32.940   8.642 -20.584  1.00  0.00     0.047 A 
ATOM     15  C   UNL     1      31.958   7.687 -20.877  1.00  0.00     0.115 A 
ATOM     16  C   UNL     1      33.682   6.000 -21.122  1.00  0.00     0.016 A 
ATOM     17  C   UNL     1      32.334   6.368 -21.149  1.00  0.00     0.047 A 
BRANCH  15  18
ATOM     18  O   UNL     1      30.611   8.039 -20.906  1.00  0.00    -0.508 OA
ATOM     19  H   UNL     1      29.935   7.503 -21.436  1.00  0.00     0.293 HD
ENDBRANCH  15  18
ENDBRANCH   1  12
BRANCH   2  20
ATOM     20  O   UNL     1      36.131   6.325 -18.383  1.00  0.00    -0.502 OA
ATOM     21  H   UNL     1      35.516   5.590 -18.056  1.00  0.00     0.293 HD
ENDBRANCH   2  20
BRANCH   6  22
ATOM     22  O   UNL     1      40.974   4.955 -20.124  1.00  0.00    -0.507 OA
ATOM     23  H   UNL     1      41.843   4.467 -20.282  1.00  0.00     0.293 HD
ENDBRANCH   6  22
BRANCH   8  24
ATOM     24  O   UNL     1      40.602   6.145 -24.744  1.00  0.00    -0.508 OA
ATOM     25  H   UNL     1      40.054   6.222 -25.593  1.00  0.00     0.293 HD
ENDBRANCH   8  24
TORSDOF 5
ENDMDL
MODEL 8
REMARK VINA RESULT:    -5.558     14.478     15.191
REMARK INTER + INTRA:          -6.810
REMARK INTER:                  -6.510
REMARK INTRA:                  -0.300
REMARK UNBOUND:                -0.277
REMARK SMILES O=c1c(O)c(-c2ccc(O)cc2)oc2cc(O)cc(O)c12
REMARK SMILES IDX 5 1 3 2 2 3 1 4 21 5 19 6 18 7 16 8 15 9 14 10 13 11 6 12
REMARK SMILES IDX 7 13 8 14 9 15 12 16 11 17 10 18 4 20 20 22 17 24
REMARK H PARENT 10 19 4 21 20 23 17 25
REMARK Flexibility Score: inf
ROOT
ATOM      1  C   UNL     1      34.475   6.454 -21.195  1.00  0.00     0.180 A 
ATOM      2  C   UNL     1      35.185   6.445 -22.407  1.00  0.00     0.208 A 
ATOM      3  C   UNL     1      36.590   6.464 -22.373  1.00  0.00     0.238 A 
ATOM      4  O   UNL     1      37.221   6.400 -23.460  1.00  0.00    -0.285 OA
ATOM      5  C   UNL     1      37.263   6.507 -21.129  1.00  0.00     0.111 A 
ATOM      6  C   UNL     1      38.681   6.569 -20.977  1.00  0.00     0.134 A 
ATOM      7  C   UNL     1      39.243   6.476 -19.697  1.00  0.00     0.093 A 
ATOM      8  C   UNL     1      38.439   6.390 -18.562  1.00  0.00     0.123 A 
ATOM      9  C   UNL     1      37.049   6.388 -18.696  1.00  0.00     0.094 A 
ATOM     10  C   UNL     1      36.460   6.443 -19.961  1.00  0.00     0.146 A 
ATOM     11  O   UNL     1      35.136   6.428 -20.044  1.00  0.00    -0.452 OA
ENDROOT
BRANCH   1  12
ATOM     12  C   UNL     1      32.993   6.462 -21.151  1.00  0.00     0.021 A 
ATOM     13  C   UNL     1      32.300   5.247 -21.021  1.00  0.00     0.016 A 
ATOM     14  C   UNL     1      30.903   5.233 -20.955  1.00  0.00     0.047 A 
ATOM     15  C   UNL     1      30.184   6.434 -21.002  1.00  0.00     0.115 A 
ATOM     16  C   UNL     1      32.266   7.665 -21.177  1.00  0.00     0.016 A 
ATOM     17  C   UNL     1      30.869   7.648 -21.109  1.00  0.00     0.047 A 
BRANCH  15  18
ATOM     18  O   UNL     1      28.793   6.432 -20.936  1.00  0.00    -0.508 OA
ATOM     19  H   UNL     1      28.240   5.753 -21.446  1.00  0.00     0.293 HD
ENDBRANCH  15  18
ENDBRANCH   1  12
BRANCH   2  20
ATOM     20  O   UNL     1      34.502   6.380 -23.624  1.00  0.00    -0.502 OA
ATOM     21  H   UNL     1      34.522   5.558 -24.217  1.00  0.00     0.293 HD
ENDBRANCH   2  20
BRANCH   6  22
ATOM     22  O   UNL     1      39.573   6.748 -22.039  1.00  0.00    -0.507 OA
ATOM     23  H   UNL     1      39.616   6.162 -22.858  1.00  0.00     0.293 HD
ENDBRANCH   6  22
BRANCH   8  24
ATOM     24  O   UNL     1      39.032   6.314 -17.303  1.00  0.00    -0.508 OA
ATOM     25  H   UNL     1      40.025   6.467 -17.175  1.00  0.00     0.293 HD
ENDBRANCH   8  24
TORSDOF 5
ENDMDL
MODEL 9
REMARK VINA RESULT:    -5.408     13.897     14.794
REMARK INTER + INTRA:          -6.633
REMARK INTER:                  -6.389
REMARK INTRA:                  -0.244
REMARK UNBOUND:                -0.277
REMARK SMILES O=c1c(O)c(-c2ccc(O)cc2)oc2cc(O)cc(O)c12
REMARK SMILES IDX 5 1 3 2 2 3 1 4 21 5 19 6 18 7 16 8 15 9 14 10 13 11 6 12
REMARK SMILES IDX 7 13 8 14 9 15 12 16 11 17 10 18 4 20 20 22 17 24
REMARK H PARENT 10 19 4 21 20 23 17 25
REMARK Flexibility Score: inf
ROOT
ATOM      1  C   UNL     1      31.029   3.372 -19.727  1.00  0.00     0.180 A 
ATOM      2  C   UNL     1      32.347   2.977 -20.009  1.00  0.00     0.208 A 
ATOM      3  C   UNL     1      33.206   3.883 -20.654  1.00  0.00     0.238 A 
ATOM      4  O   UNL     1      34.401   3.544 -20.854  1.00  0.00    -0.285 OA
ATOM      5  C   UNL     1      32.730   5.164 -21.022  1.00  0.00     0.111 A 
ATOM      6  C   UNL     1      33.501   6.147 -21.714  1.00  0.00     0.134 A 
ATOM      7  C   UNL     1      32.969   7.428 -21.911  1.00  0.00     0.093 A 
ATOM      8  C   UNL     1      31.675   7.742 -21.500  1.00  0.00     0.123 A 
ATOM      9  C   UNL     1      30.891   6.770 -20.875  1.00  0.00     0.094 A 
ATOM     10  C   UNL     1      31.406   5.494 -20.632  1.00  0.00     0.146 A 
ATOM     11  O   UNL     1      30.632   4.603 -20.026  1.00  0.00    -0.452 OA
ENDROOT
BRANCH   1  12
ATOM     12  C   UNL     1      30.057   2.464 -19.074  1.00  0.00     0.021 A 
ATOM     13  C   UNL     1      29.676   2.702 -17.742  1.00  0.00     0.016 A 
ATOM     14  C   UNL     1      28.745   1.870 -17.113  1.00  0.00     0.047 A 
ATOM     15  C   UNL     1      28.171   0.801 -17.812  1.00  0.00     0.115 A 
ATOM     16  C   UNL     1      29.462   1.400 -19.775  1.00  0.00     0.016 A 
ATOM     17  C   UNL     1      28.529   0.571 -19.144  1.00  0.00     0.047 A 
BRANCH  15  18
ATOM     18  O   UNL     1      27.241  -0.034 -17.195  1.00  0.00    -0.508 OA
ATOM     19  H   UNL     1      27.495  -0.616 -16.407  1.00  0.00     0.293 HD
ENDBRANCH  15  18
ENDBRANCH   1  12
BRANCH   2  20
ATOM     20  O   UNL     1      32.804   1.716 -19.618  1.00  0.00    -0.502 OA
ATOM     21  H   UNL     1      33.562   1.240 -20.092  1.00  0.00     0.293 HD
ENDBRANCH   2  20
BRANCH   6  22
ATOM     22  O   UNL     1      34.770   5.909 -22.248  1.00  0.00    -0.507 OA
ATOM     23  H   UNL     1      35.585   5.661 -21.707  1.00  0.00     0.293 HD
ENDBRANCH   6  22
BRANCH   8  24
ATOM     24  O   UNL     1      31.173   9.022 -21.726  1.00  0.00    -0.508 OA
ATOM     25  H   UNL     1      31.219   9.455 -22.640  1.00  0.00     0.293 HD
ENDBRANCH   8  24
TORSDOF 5
ENDMDL
