MODEL 1
REMARK VINA RESULT:    -5.973      0.000      0.000
REMARK INTER + INTRA:         -12.602
REMARK INTER:                 -10.861
REMARK INTRA:                  -1.740
REMARK UNBOUND:                -1.740
REMARK SMILES CCCCCCCCCCCCCCCC(=O)[O-]
REMARK SMILES IDX 9 1 10 2 11 3 12 4 13 5 14 6 15 7 16 8 17 9 18 10 8 11 7 12
REMARK SMILES IDX 6 13 5 14 4 15 3 16 2 17 1 18
REMARK H PARENT
REMARK Flexibility Score: inf
ROOT
ATOM      1  C   UNL     1     -19.305  37.778   6.269  1.00  0.00     0.000 C 
ENDROOT
BRANCH   1   2
ATOM      2  C   UNL     1     -20.265  38.603   5.393  1.00  0.00     0.000 C 
BRANCH   2   3
ATOM      3  C   UNL     1     -21.288  39.399   6.219  1.00  0.00     0.000 C 
BRANCH   3   4
ATOM      4  C   UNL     1     -22.016  40.468   5.387  1.00  0.00     0.000 C 
BRANCH   4   5
ATOM      5  C   UNL     1     -21.593  40.460   3.910  1.00  0.00     0.000 C 
BRANCH   5   6
ATOM      6  C   UNL     1     -20.920  41.786   3.525  1.00  0.00     0.006 C 
BRANCH   6   7
ATOM      7  C   UNL     1     -19.692  42.087   4.394  1.00  0.00     0.053 C 
BRANCH   7   8
ATOM      8  C   UNL     1     -19.151  43.460   4.134  1.00  0.00     0.041 C 
ATOM      9  O   UNL     1     -18.504  44.066   5.029  1.00  0.00    -0.550 OA
ATOM     10  O   UNL     1     -19.330  44.054   2.892  1.00  0.00    -0.550 OA
ENDBRANCH   7   8
ENDBRANCH   6   7
ENDBRANCH   5   6
ENDBRANCH   4   5
ENDBRANCH   3   4
ENDBRANCH   2   3
ENDBRANCH   1   2
BRANCH   1  11
ATOM     11  C   UNL     1     -19.871  36.401   6.678  1.00  0.00     0.000 C 
BRANCH  11  12
ATOM     12  C   UNL     1     -19.522  36.042   8.134  1.00  0.00    -0.000 C 
BRANCH  12  13
ATOM     13  C   UNL     1     -20.768  35.976   9.044  1.00  0.00    -0.000 C 
BRANCH  13  14
ATOM     14  C   UNL     1     -21.427  37.346   9.299  1.00  0.00    -0.000 C 
BRANCH  14  15
ATOM     15  C   UNL     1     -22.963  37.322   9.409  1.00  0.00    -0.000 C 
BRANCH  15  16
ATOM     16  C   UNL     1     -23.712  37.524   8.078  1.00  0.00    -0.000 C 
BRANCH  16  17
ATOM     17  C   UNL     1     -23.897  36.219   7.292  1.00  0.00    -0.003 C 
ATOM     18  C   UNL     1     -23.247  36.311   5.914  1.00  0.00     0.004 C 
ENDBRANCH  16  17
ENDBRANCH  15  16
ENDBRANCH  14  15
ENDBRANCH  13  14
ENDBRANCH  12  13
ENDBRANCH  11  12
ENDBRANCH   1  11
TORSDOF 14
ENDMDL
MODEL 2
REMARK VINA RESULT:    -5.967      0.621      1.321
REMARK INTER + INTRA:         -12.591
REMARK INTER:                 -10.933
REMARK INTRA:                  -1.658
REMARK UNBOUND:                -1.740
REMARK SMILES CCCCCCCCCCCCCCCC(=O)[O-]
REMARK SMILES IDX 9 1 10 2 11 3 12 4 13 5 14 6 15 7 16 8 17 9 18 10 8 11 7 12
REMARK SMILES IDX 6 13 5 14 4 15 3 16 2 17 1 18
REMARK H PARENT
REMARK Flexibility Score: inf
ROOT
ATOM      1  C   UNL     1     -21.238  37.151   5.560  1.00  0.00     0.000 C 
ENDROOT
BRANCH   1   2
ATOM      2  C   UNL     1     -20.565  38.509   5.822  1.00  0.00     0.000 C 
BRANCH   2   3
ATOM      3  C   UNL     1     -21.539  39.559   6.382  1.00  0.00     0.000 C 
BRANCH   3   4
ATOM      4  C   UNL     1     -22.207  40.394   5.278  1.00  0.00     0.000 C 
BRANCH   4   5
ATOM      5  C   UNL     1     -21.427  40.361   3.954  1.00  0.00     0.000 C 
BRANCH   5   6
ATOM      6  C   UNL     1     -20.896  41.757   3.595  1.00  0.00     0.006 C 
BRANCH   6   7
ATOM      7  C   UNL     1     -19.588  42.085   4.326  1.00  0.00     0.053 C 
BRANCH   7   8
ATOM      8  C   UNL     1     -19.101  43.464   4.001  1.00  0.00     0.041 C 
ATOM      9  O   UNL     1     -19.207  43.914   2.830  1.00  0.00    -0.550 OA
ATOM     10  O   UNL     1     -18.561  44.264   5.000  1.00  0.00    -0.550 OA
ENDBRANCH   7   8
ENDBRANCH   6   7
ENDBRANCH   5   6
ENDBRANCH   4   5
ENDBRANCH   3   4
ENDBRANCH   2   3
ENDBRANCH   1   2
BRANCH   1  11
ATOM     11  C   UNL     1     -20.524  35.965   6.243  1.00  0.00     0.000 C 
BRANCH  11  12
ATOM     12  C   UNL     1     -19.337  36.426   7.110  1.00  0.00    -0.000 C 
BRANCH  12  13
ATOM     13  C   UNL     1     -19.540  36.114   8.608  1.00  0.00    -0.000 C 
BRANCH  13  14
ATOM     14  C   UNL     1     -21.019  35.993   9.025  1.00  0.00    -0.000 C 
BRANCH  14  15
ATOM     15  C   UNL     1     -21.657  37.291   9.554  1.00  0.00    -0.000 C 
BRANCH  15  16
ATOM     16  C   UNL     1     -23.197  37.296   9.577  1.00  0.00    -0.000 C 
BRANCH  16  17
ATOM     17  C   UNL     1     -23.813  37.588   8.201  1.00  0.00    -0.003 C 
ATOM     18  C   UNL     1     -24.065  36.297   7.428  1.00  0.00     0.004 C 
ENDBRANCH  16  17
ENDBRANCH  15  16
ENDBRANCH  14  15
ENDBRANCH  13  14
ENDBRANCH  12  13
ENDBRANCH  11  12
ENDBRANCH   1  11
TORSDOF 14
ENDMDL
MODEL 3
REMARK VINA RESULT:    -5.856      0.727      2.618
REMARK INTER + INTRA:         -12.390
REMARK INTER:                 -10.846
REMARK INTRA:                  -1.544
REMARK UNBOUND:                -1.740
REMARK SMILES CCCCCCCCCCCCCCCC(=O)[O-]
REMARK SMILES IDX 9 1 10 2 11 3 12 4 13 5 14 6 15 7 16 8 17 9 18 10 8 11 7 12
REMARK SMILES IDX 6 13 5 14 4 15 3 16 2 17 1 18
REMARK H PARENT
REMARK Flexibility Score: inf
ROOT
ATOM      1  C   UNL     1     -22.742  37.679   5.508  1.00  0.00     0.000 C 
ENDROOT
BRANCH   1   2
ATOM      2  C   UNL     1     -21.263  37.943   5.175  1.00  0.00     0.000 C 
BRANCH   2   3
ATOM      3  C   UNL     1     -20.724  39.223   5.835  1.00  0.00     0.000 C 
BRANCH   3   4
ATOM      4  C   UNL     1     -21.489  40.482   5.394  1.00  0.00     0.000 C 
BRANCH   4   5
ATOM      5  C   UNL     1     -21.508  40.662   3.868  1.00  0.00     0.000 C 
BRANCH   5   6
ATOM      6  C   UNL     1     -20.624  41.845   3.445  1.00  0.00     0.006 C 
BRANCH   6   7
ATOM      7  C   UNL     1     -19.679  42.295   4.566  1.00  0.00     0.053 C 
BRANCH   7   8
ATOM      8  C   UNL     1     -19.074  43.635   4.280  1.00  0.00     0.041 C 
ATOM      9  O   UNL     1     -19.244  44.180   3.158  1.00  0.00    -0.550 OA
ATOM     10  O   UNL     1     -18.352  44.296   5.265  1.00  0.00    -0.550 OA
ENDBRANCH   7   8
ENDBRANCH   6   7
ENDBRANCH   5   6
ENDBRANCH   4   5
ENDBRANCH   3   4
ENDBRANCH   2   3
ENDBRANCH   1   2
BRANCH   1  11
ATOM     11  C   UNL     1     -22.997  36.288   6.127  1.00  0.00     0.000 C 
BRANCH  11  12
ATOM     12  C   UNL     1     -23.760  36.380   7.462  1.00  0.00    -0.000 C 
BRANCH  12  13
ATOM     13  C   UNL     1     -23.555  37.737   8.170  1.00  0.00    -0.000 C 
BRANCH  13  14
ATOM     14  C   UNL     1     -22.212  37.854   8.916  1.00  0.00    -0.000 C 
BRANCH  14  15
ATOM     15  C   UNL     1     -21.657  36.529   9.475  1.00  0.00    -0.000 C 
BRANCH  15  16
ATOM     16  C   UNL     1     -20.162  36.284   9.200  1.00  0.00    -0.000 C 
BRANCH  16  17
ATOM     17  C   UNL     1     -19.889  35.811   7.765  1.00  0.00    -0.003 C 
ATOM     18  C   UNL     1     -18.699  36.552   7.161  1.00  0.00     0.004 C 
ENDBRANCH  16  17
ENDBRANCH  15  16
ENDBRANCH  14  15
ENDBRANCH  13  14
ENDBRANCH  12  13
ENDBRANCH  11  12
ENDBRANCH   1  11
TORSDOF 14
ENDMDL
MODEL 4
REMARK VINA RESULT:    -5.837      3.446      7.192
REMARK INTER + INTRA:         -12.355
REMARK INTER:                 -10.898
REMARK INTRA:                  -1.457
REMARK UNBOUND:                -1.740
REMARK SMILES CCCCCCCCCCCCCCCC(=O)[O-]
REMARK SMILES IDX 9 1 10 2 11 3 12 4 13 5 14 6 15 7 16 8 17 9 18 10 8 11 7 12
REMARK SMILES IDX 6 13 5 14 4 15 3 16 2 17 1 18
REMARK H PARENT
REMARK Flexibility Score: inf
ROOT
ATOM      1  C   UNL     1     -21.310  37.494   5.342  1.00  0.00     0.000 C 
ENDROOT
BRANCH   1   2
ATOM      2  C   UNL     1     -19.941  38.002   5.829  1.00  0.00     0.000 C 
BRANCH   2   3
ATOM      3  C   UNL     1     -19.178  36.955   6.657  1.00  0.00     0.000 C 
BRANCH   3   4
ATOM      4  C   UNL     1     -20.116  35.959   7.359  1.00  0.00     0.000 C 
BRANCH   4   5
ATOM      5  C   UNL     1     -20.127  36.131   8.887  1.00  0.00     0.000 C 
BRANCH   5   6
ATOM      6  C   UNL     1     -21.566  36.180   9.422  1.00  0.00     0.006 C 
BRANCH   6   7
ATOM      7  C   UNL     1     -22.321  37.427   8.943  1.00  0.00     0.053 C 
BRANCH   7   8
ATOM      8  C   UNL     1     -23.712  37.096   8.494  1.00  0.00     0.041 C 
ATOM      9  O   UNL     1     -23.896  36.307   7.529  1.00  0.00    -0.550 OA
ATOM     10  O   UNL     1     -24.804  37.633   9.163  1.00  0.00    -0.550 OA
ENDBRANCH   7   8
ENDBRANCH   6   7
ENDBRANCH   5   6
ENDBRANCH   4   5
ENDBRANCH   3   4
ENDBRANCH   2   3
ENDBRANCH   1   2
BRANCH   1  11
ATOM     11  C   UNL     1     -22.447  38.524   5.511  1.00  0.00     0.000 C 
BRANCH  11  12
ATOM     12  C   UNL     1     -21.916  39.967   5.580  1.00  0.00    -0.000 C 
BRANCH  12  13
ATOM     13  C   UNL     1     -22.182  40.760   4.282  1.00  0.00    -0.000 C 
BRANCH  13  14
ATOM     14  C   UNL     1     -20.932  41.456   3.709  1.00  0.00    -0.000 C 
BRANCH  14  15
ATOM     15  C   UNL     1     -19.707  41.472   4.644  1.00  0.00    -0.000 C 
BRANCH  15  16
ATOM     16  C   UNL     1     -18.582  42.436   4.223  1.00  0.00    -0.000 C 
BRANCH  16  17
ATOM     17  C   UNL     1     -19.018  43.907   4.240  1.00  0.00    -0.003 C 
ATOM     18  C   UNL     1     -18.297  44.681   5.340  1.00  0.00     0.004 C 
ENDBRANCH  16  17
ENDBRANCH  15  16
ENDBRANCH  14  15
ENDBRANCH  13  14
ENDBRANCH  12  13
ENDBRANCH  11  12
ENDBRANCH   1  11
TORSDOF 14
ENDMDL
MODEL 5
REMARK VINA RESULT:    -5.767      2.940      6.781
REMARK INTER + INTRA:         -12.227
REMARK INTER:                 -10.935
REMARK INTRA:                  -1.292
REMARK UNBOUND:                -1.740
REMARK SMILES CCCCCCCCCCCCCCCC(=O)[O-]
REMARK SMILES IDX 9 1 10 2 11 3 12 4 13 5 14 6 15 7 16 8 17 9 18 10 8 11 7 12
REMARK SMILES IDX 6 13 5 14 4 15 3 16 2 17 1 18
REMARK H PARENT
REMARK Flexibility Score: inf
ROOT
ATOM      1  C   UNL     1     -22.755  37.778   5.535  1.00  0.00     0.000 C 
ENDROOT
BRANCH   1   2
ATOM      2  C   UNL     1     -23.113  36.368   6.038  1.00  0.00     0.000 C 
BRANCH   2   3
ATOM      3  C   UNL     1     -23.639  36.369   7.483  1.00  0.00     0.000 C 
BRANCH   3   4
ATOM      4  C   UNL     1     -23.400  37.708   8.198  1.00  0.00     0.000 C 
BRANCH   4   5
ATOM      5  C   UNL     1     -22.098  37.722   9.015  1.00  0.00     0.000 C 
BRANCH   5   6
ATOM      6  C   UNL     1     -21.552  36.298   9.199  1.00  0.00     0.006 C 
BRANCH   6   7
ATOM      7  C   UNL     1     -20.029  36.235   9.032  1.00  0.00     0.053 C 
BRANCH   7   8
ATOM      8  C   UNL     1     -19.634  36.059   7.597  1.00  0.00     0.041 C 
ATOM      9  O   UNL     1     -18.635  36.671   7.136  1.00  0.00    -0.550 OA
ATOM     10  O   UNL     1     -20.349  35.192   6.781  1.00  0.00    -0.550 OA
ENDBRANCH   7   8
ENDBRANCH   6   7
ENDBRANCH   5   6
ENDBRANCH   4   5
ENDBRANCH   3   4
ENDBRANCH   2   3
ENDBRANCH   1   2
BRANCH   1  11
ATOM     11  C   UNL     1     -21.339  37.875   4.926  1.00  0.00     0.000 C 
BRANCH  11  12
ATOM     12  C   UNL     1     -20.525  39.030   5.537  1.00  0.00    -0.000 C 
BRANCH  12  13
ATOM     13  C   UNL     1     -21.271  40.380   5.474  1.00  0.00    -0.000 C 
BRANCH  13  14
ATOM     14  C   UNL     1     -21.604  40.842   4.042  1.00  0.00    -0.000 C 
BRANCH  14  15
ATOM     15  C   UNL     1     -20.639  41.887   3.451  1.00  0.00    -0.000 C 
BRANCH  15  16
ATOM     16  C   UNL     1     -19.549  42.385   4.418  1.00  0.00    -0.000 C 
BRANCH  16  17
ATOM     17  C   UNL     1     -18.979  43.754   4.022  1.00  0.00    -0.003 C 
ATOM     18  C   UNL     1     -18.417  44.487   5.237  1.00  0.00     0.004 C 
ENDBRANCH  16  17
ENDBRANCH  15  16
ENDBRANCH  14  15
ENDBRANCH  13  14
ENDBRANCH  12  13
ENDBRANCH  11  12
ENDBRANCH   1  11
TORSDOF 14
ENDMDL
MODEL 6
REMARK VINA RESULT:    -5.672      0.921      3.006
REMARK INTER + INTRA:         -12.055
REMARK INTER:                 -10.338
REMARK INTRA:                  -1.717
REMARK UNBOUND:                -1.740
REMARK SMILES CCCCCCCCCCCCCCCC(=O)[O-]
REMARK SMILES IDX 9 1 10 2 11 3 12 4 13 5 14 6 15 7 16 8 17 9 18 10 8 11 7 12
REMARK SMILES IDX 6 13 5 14 4 15 3 16 2 17 1 18
REMARK H PARENT
REMARK Flexibility Score: inf
ROOT
ATOM      1  C   UNL     1     -22.485  38.595   8.118  1.00  0.00     0.000 C 
ENDROOT
BRANCH   1   2
ATOM      2  C   UNL     1     -22.169  39.619   7.014  1.00  0.00     0.000 C 
BRANCH   2   3
ATOM      3  C   UNL     1     -20.911  39.256   6.209  1.00  0.00     0.000 C 
BRANCH   3   4
ATOM      4  C   UNL     1     -21.138  39.335   4.690  1.00  0.00     0.000 C 
BRANCH   4   5
ATOM      5  C   UNL     1     -21.835  40.636   4.261  1.00  0.00     0.000 C 
BRANCH   5   6
ATOM      6  C   UNL     1     -20.853  41.573   3.543  1.00  0.00     0.006 C 
BRANCH   6   7
ATOM      7  C   UNL     1     -19.691  42.000   4.448  1.00  0.00     0.053 C 
BRANCH   7   8
ATOM      8  C   UNL     1     -19.147  43.341   4.059  1.00  0.00     0.041 C 
ATOM      9  O   UNL     1     -18.527  44.042   4.903  1.00  0.00    -0.550 OA
ATOM     10  O   UNL     1     -19.294  43.799   2.757  1.00  0.00    -0.550 OA
ENDBRANCH   7   8
ENDBRANCH   6   7
ENDBRANCH   5   6
ENDBRANCH   4   5
ENDBRANCH   3   4
ENDBRANCH   2   3
ENDBRANCH   1   2
BRANCH   1  11
ATOM     11  C   UNL     1     -23.812  37.837   7.897  1.00  0.00     0.000 C 
BRANCH  11  12
ATOM     12  C   UNL     1     -23.582  36.407   7.376  1.00  0.00    -0.000 C 
BRANCH  12  13
ATOM     13  C   UNL     1     -23.057  36.381   5.924  1.00  0.00    -0.000 C 
BRANCH  13  14
ATOM     14  C   UNL     1     -21.705  35.661   5.762  1.00  0.00    -0.000 C 
BRANCH  14  15
ATOM     15  C   UNL     1     -21.020  35.254   7.080  1.00  0.00    -0.000 C 
BRANCH  15  16
ATOM     16  C   UNL     1     -19.806  36.116   7.474  1.00  0.00    -0.000 C 
BRANCH  16  17
ATOM     17  C   UNL     1     -19.678  36.309   8.991  1.00  0.00    -0.003 C 
ATOM     18  C   UNL     1     -21.000  36.019   9.695  1.00  0.00     0.004 C 
ENDBRANCH  16  17
ENDBRANCH  15  16
ENDBRANCH  14  15
ENDBRANCH  13  14
ENDBRANCH  12  13
ENDBRANCH  11  12
ENDBRANCH   1  11
TORSDOF 14
ENDMDL
MODEL 7
REMARK VINA RESULT:    -5.456     11.599     13.738
REMARK INTER + INTRA:         -11.661
REMARK INTER:                  -9.586
REMARK INTRA:                  -2.075
REMARK UNBOUND:                -1.740
REMARK SMILES CCCCCCCCCCCCCCCC(=O)[O-]
REMARK SMILES IDX 9 1 10 2 11 3 12 4 13 5 14 6 15 7 16 8 17 9 18 10 8 11 7 12
REMARK SMILES IDX 6 13 5 14 4 15 3 16 2 17 1 18
REMARK H PARENT
REMARK Flexibility Score: inf
ROOT
ATOM      1  C   UNL     1     -18.622  43.479  -6.579  1.00  0.00     0.000 C 
ENDROOT
BRANCH   1   2
ATOM      2  C   UNL     1     -18.861  42.720  -7.897  1.00  0.00     0.000 C 
BRANCH   2   3
ATOM      3  C   UNL     1     -18.514  41.226  -7.793  1.00  0.00     0.000 C 
BRANCH   3   4
ATOM      4  C   UNL     1     -18.665  40.681  -6.364  1.00  0.00     0.000 C 
BRANCH   4   5
ATOM      5  C   UNL     1     -17.419  39.921  -5.883  1.00  0.00     0.000 C 
BRANCH   5   6
ATOM      6  C   UNL     1     -17.239  40.069  -4.364  1.00  0.00     0.006 C 
BRANCH   6   7
ATOM      7  C   UNL     1     -16.032  40.944  -4.006  1.00  0.00     0.053 C 
BRANCH   7   8
ATOM      8  C   UNL     1     -16.433  42.364  -3.742  1.00  0.00     0.041 C 
ATOM      9  O   UNL     1     -15.652  43.308  -4.036  1.00  0.00    -0.550 OA
ATOM     10  O   UNL     1     -17.682  42.644  -3.204  1.00  0.00    -0.550 OA
ENDBRANCH   7   8
ENDBRANCH   6   7
ENDBRANCH   5   6
ENDBRANCH   4   5
ENDBRANCH   3   4
ENDBRANCH   2   3
ENDBRANCH   1   2
BRANCH   1  11
ATOM     11  C   UNL     1     -19.292  44.869  -6.537  1.00  0.00     0.000 C 
BRANCH  11  12
ATOM     12  C   UNL     1     -19.961  45.230  -7.876  1.00  0.00    -0.000 C 
BRANCH  12  13
ATOM     13  C   UNL     1     -21.502  45.218  -7.791  1.00  0.00    -0.000 C 
BRANCH  13  14
ATOM     14  C   UNL     1     -22.047  45.025  -6.362  1.00  0.00    -0.000 C 
BRANCH  14  15
ATOM     15  C   UNL     1     -22.970  43.805  -6.174  1.00  0.00    -0.000 C 
BRANCH  15  16
ATOM     16  C   UNL     1     -22.249  42.496  -5.803  1.00  0.00    -0.000 C 
BRANCH  16  17
ATOM     17  C   UNL     1     -22.240  41.474  -6.948  1.00  0.00    -0.003 C 
ATOM     18  C   UNL     1     -22.361  40.050  -6.413  1.00  0.00     0.004 C 
ENDBRANCH  16  17
ENDBRANCH  15  16
ENDBRANCH  14  15
ENDBRANCH  13  14
ENDBRANCH  12  13
ENDBRANCH  11  12
ENDBRANCH   1  11
TORSDOF 14
ENDMDL
MODEL 8
REMARK VINA RESULT:    -5.448     11.905     13.694
REMARK INTER + INTRA:         -11.646
REMARK INTER:                 -10.095
REMARK INTRA:                  -1.551
REMARK UNBOUND:                -1.740
REMARK SMILES CCCCCCCCCCCCCCCC(=O)[O-]
REMARK SMILES IDX 9 1 10 2 11 3 12 4 13 5 14 6 15 7 16 8 17 9 18 10 8 11 7 12
REMARK SMILES IDX 6 13 5 14 4 15 3 16 2 17 1 18
REMARK H PARENT
REMARK Flexibility Score: inf
ROOT
ATOM      1  C   UNL     1     -19.690  41.087  -8.481  1.00  0.00     0.000 C 
ENDROOT
BRANCH   1   2
ATOM      2  C   UNL     1     -20.515  40.036  -7.718  1.00  0.00     0.000 C 
BRANCH   2   3
ATOM      3  C   UNL     1     -21.142  40.593  -6.430  1.00  0.00     0.000 C 
BRANCH   3   4
ATOM      4  C   UNL     1     -22.669  40.413  -6.390  1.00  0.00     0.000 C 
BRANCH   4   5
ATOM      5  C   UNL     1     -23.426  41.749  -6.424  1.00  0.00     0.000 C 
BRANCH   5   6
ATOM      6  C   UNL     1     -22.449  42.934  -6.388  1.00  0.00     0.006 C 
BRANCH   6   7
ATOM      7  C   UNL     1     -22.985  44.103  -5.551  1.00  0.00     0.053 C 
BRANCH   7   8
ATOM      8  C   UNL     1     -23.834  45.028  -6.367  1.00  0.00     0.041 C 
ATOM      9  O   UNL     1     -25.085  45.034  -6.222  1.00  0.00    -0.550 OA
ATOM     10  O   UNL     1     -23.240  45.909  -7.262  1.00  0.00    -0.550 OA
ENDBRANCH   7   8
ENDBRANCH   6   7
ENDBRANCH   5   6
ENDBRANCH   4   5
ENDBRANCH   3   4
ENDBRANCH   2   3
ENDBRANCH   1   2
BRANCH   1  11
ATOM     11  C   UNL     1     -18.645  41.810  -7.603  1.00  0.00     0.000 C 
BRANCH  11  12
ATOM     12  C   UNL     1     -18.883  43.330  -7.555  1.00  0.00    -0.000 C 
BRANCH  12  13
ATOM     13  C   UNL     1     -18.902  43.882  -6.113  1.00  0.00    -0.000 C 
BRANCH  13  14
ATOM     14  C   UNL     1     -17.609  43.605  -5.322  1.00  0.00    -0.000 C 
BRANCH  14  15
ATOM     15  C   UNL     1     -17.808  42.890  -3.972  1.00  0.00    -0.000 C 
BRANCH  15  16
ATOM     16  C   UNL     1     -16.518  42.356  -3.323  1.00  0.00    -0.000 C 
BRANCH  16  17
ATOM     17  C   UNL     1     -15.872  41.219  -4.127  1.00  0.00    -0.003 C 
ATOM     18  C   UNL     1     -16.810  40.020  -4.233  1.00  0.00     0.004 C 
ENDBRANCH  16  17
ENDBRANCH  15  16
ENDBRANCH  14  15
ENDBRANCH  13  14
ENDBRANCH  12  13
ENDBRANCH  11  12
ENDBRANCH   1  11
TORSDOF 14
ENDMDL
MODEL 9
REMARK VINA RESULT:    -5.430     11.472     13.714
REMARK INTER + INTRA:         -11.615
REMARK INTER:                  -9.661
REMARK INTRA:                  -1.955
REMARK UNBOUND:                -1.740
REMARK SMILES CCCCCCCCCCCCCCCC(=O)[O-]
REMARK SMILES IDX 9 1 10 2 11 3 12 4 13 5 14 6 15 7 16 8 17 9 18 10 8 11 7 12
REMARK SMILES IDX 6 13 5 14 4 15 3 16 2 17 1 18
REMARK H PARENT
REMARK Flexibility Score: inf
ROOT
ATOM      1  C   UNL     1     -18.841  44.193  -6.701  1.00  0.00     0.000 C 
ENDROOT
BRANCH   1   2
ATOM      2  C   UNL     1     -19.495  45.473  -7.250  1.00  0.00     0.000 C 
BRANCH   2   3
ATOM      3  C   UNL     1     -20.774  45.861  -6.490  1.00  0.00     0.000 C 
BRANCH   3   4
ATOM      4  C   UNL     1     -22.005  45.070  -6.961  1.00  0.00     0.000 C 
BRANCH   4   5
ATOM      5  C   UNL     1     -22.841  44.521  -5.794  1.00  0.00     0.000 C 
BRANCH   5   6
ATOM      6  C   UNL     1     -22.610  43.013  -5.615  1.00  0.00     0.006 C 
BRANCH   6   7
ATOM      7  C   UNL     1     -23.451  42.178  -6.588  1.00  0.00     0.053 C 
BRANCH   7   8
ATOM      8  C   UNL     1     -22.713  40.962  -7.059  1.00  0.00     0.041 C 
ATOM      9  O   UNL     1     -22.111  40.974  -8.165  1.00  0.00    -0.550 OA
ATOM     10  O   UNL     1     -22.663  39.827  -6.260  1.00  0.00    -0.550 OA
ENDBRANCH   7   8
ENDBRANCH   6   7
ENDBRANCH   5   6
ENDBRANCH   4   5
ENDBRANCH   3   4
ENDBRANCH   2   3
ENDBRANCH   1   2
BRANCH   1  11
ATOM     11  C   UNL     1     -19.038  42.960  -7.608  1.00  0.00     0.000 C 
BRANCH  11  12
ATOM     12  C   UNL     1     -18.188  41.762  -7.148  1.00  0.00    -0.000 C 
BRANCH  12  13
ATOM     13  C   UNL     1     -19.020  40.692  -6.409  1.00  0.00    -0.000 C 
BRANCH  13  14
ATOM     14  C   UNL     1     -19.586  41.168  -5.056  1.00  0.00    -0.000 C 
BRANCH  14  15
ATOM     15  C   UNL     1     -18.581  41.160  -3.889  1.00  0.00    -0.000 C 
BRANCH  15  16
ATOM     16  C   UNL     1     -17.989  42.536  -3.531  1.00  0.00    -0.000 C 
BRANCH  16  17
ATOM     17  C   UNL     1     -16.463  42.587  -3.683  1.00  0.00    -0.003 C 
ATOM     18  C   UNL     1     -15.910  41.236  -4.127  1.00  0.00     0.004 C 
ENDBRANCH  16  17
ENDBRANCH  15  16
ENDBRANCH  14  15
ENDBRANCH  13  14
ENDBRANCH  12  13
ENDBRANCH  11  12
ENDBRANCH   1  11
TORSDOF 14
ENDMDL
