MODEL 1
REMARK VINA RESULT:    -2.857      0.000      0.000
REMARK INTER + INTRA:          -3.140
REMARK INTER:                  -3.525
REMARK INTRA:                   0.384
REMARK UNBOUND:                 0.384
REMARK SMILES Oc1cc(O)c2cc(O)c(-c3cc(O)c(O)c(O)c3)[o+]c2c1
REMARK SMILES IDX 10 1 20 2 21 3 22 4 2 5 3 6 4 7 6 8 7 9 8 10 11 11 12 12
REMARK SMILES IDX 13 13 19 14 15 15 17 16 14 17 16 19 18 21 9 23 1 25 5 27
REMARK H PARENT 14 18 16 20 18 22 9 24 1 26 5 28
REMARK Flexibility Score: inf
ROOT
ATOM      1  C   UNL     1       0.970  -0.955 -21.746  1.00  0.00     0.402 A 
ATOM      2  O   UNL     1       1.778  -0.925 -20.686  1.00  0.00    -0.202 OA
ATOM      3  C   UNL     1       3.103  -0.962 -20.781  1.00  0.00     0.368 A 
ATOM      4  C   UNL     1       3.881  -0.931 -19.620  1.00  0.00     0.162 A 
ATOM      5  C   UNL     1       5.276  -0.972 -19.704  1.00  0.00     0.128 A 
ATOM      6  C   UNL     1       5.898  -1.046 -20.958  1.00  0.00     0.093 A 
ATOM      7  C   UNL     1       5.132  -1.077 -22.132  1.00  0.00     0.136 A 
ATOM      8  C   UNL     1       3.727  -1.035 -22.045  1.00  0.00     0.125 A 
ATOM      9  C   UNL     1       2.912  -1.056 -23.183  1.00  0.00     0.078 A 
ATOM     10  C   UNL     1       1.521  -1.005 -23.042  1.00  0.00     0.223 A 
ENDROOT
BRANCH   1  11
ATOM     11  C   UNL     1      -0.491  -0.918 -21.513  1.00  0.00     0.091 A 
ATOM     12  C   UNL     1      -0.982  -0.950 -20.198  1.00  0.00     0.068 A 
ATOM     13  C   UNL     1      -2.362  -0.936 -19.950  1.00  0.00     0.162 A 
ATOM     14  C   UNL     1      -1.403  -0.907 -22.583  1.00  0.00     0.068 A 
ATOM     15  C   UNL     1      -3.266  -0.903 -21.026  1.00  0.00     0.200 A 
ATOM     16  C   UNL     1      -2.784  -0.894 -22.342  1.00  0.00     0.162 A 
BRANCH  13  17
ATOM     17  O   UNL     1      -2.836  -0.954 -18.640  1.00  0.00    -0.504 OA
ATOM     18  H   UNL     1      -3.776  -1.259 -18.419  1.00  0.00     0.293 HD
ENDBRANCH  13  17
BRANCH  15  19
ATOM     19  O   UNL     1      -4.643  -0.885 -20.805  1.00  0.00    -0.502 OA
ATOM     20  H   UNL     1      -5.267  -0.295 -21.342  1.00  0.00     0.293 HD
ENDBRANCH  15  19
BRANCH  16  21
ATOM     21  O   UNL     1      -3.684  -0.875 -23.404  1.00  0.00    -0.504 OA
ATOM     22  H   UNL     1      -4.616  -1.265 -23.317  1.00  0.00     0.293 HD
ENDBRANCH  16  21
ENDBRANCH   1  11
BRANCH  10  23
ATOM     23  O   UNL     1       0.706  -0.974 -24.173  1.00  0.00    -0.500 OA
ATOM     24  H   UNL     1       0.831  -1.627 -24.937  1.00  0.00     0.294 HD
ENDBRANCH  10  23
BRANCH   5  25
ATOM     25  O   UNL     1       6.035  -0.940 -18.537  1.00  0.00    -0.507 OA
ATOM     26  H   UNL     1       6.170  -0.081 -18.016  1.00  0.00     0.293 HD
ENDBRANCH   5  25
BRANCH   7  27
ATOM     27  O   UNL     1       5.762  -1.150 -23.374  1.00  0.00    -0.507 OA
ATOM     28  H   UNL     1       6.348  -0.398 -23.717  1.00  0.00     0.293 HD
ENDBRANCH   7  27
TORSDOF 7
ENDMDL
MODEL 2
REMARK VINA RESULT:    -2.580     21.951     23.418
REMARK INTER + INTRA:          -2.799
REMARK INTER:                  -3.150
REMARK INTRA:                   0.350
REMARK UNBOUND:                 0.384
REMARK SMILES Oc1cc(O)c2cc(O)c(-c3cc(O)c(O)c(O)c3)[o+]c2c1
REMARK SMILES IDX 10 1 20 2 21 3 22 4 2 5 3 6 4 7 6 8 7 9 8 10 11 11 12 12
REMARK SMILES IDX 13 13 19 14 15 15 17 16 14 17 16 19 18 21 9 23 1 25 5 27
REMARK H PARENT 14 18 16 20 18 22 9 24 1 26 5 28
REMARK Flexibility Score: inf
ROOT
ATOM      1  C   UNL     1       2.926 -20.421  -9.933  1.00  0.00     0.402 A 
ATOM      2  O   UNL     1       1.660 -20.221  -9.567  1.00  0.00    -0.202 OA
ATOM      3  C   UNL     1       1.276 -20.124  -8.299  1.00  0.00     0.368 A 
ATOM      4  C   UNL     1      -0.073 -19.919  -7.998  1.00  0.00     0.162 A 
ATOM      5  C   UNL     1      -0.492 -19.819  -6.668  1.00  0.00     0.128 A 
ATOM      6  C   UNL     1       0.444 -19.926  -5.630  1.00  0.00     0.093 A 
ATOM      7  C   UNL     1       1.802 -20.132  -5.916  1.00  0.00     0.136 A 
ATOM      8  C   UNL     1       2.222 -20.232  -7.256  1.00  0.00     0.125 A 
ATOM      9  C   UNL     1       3.564 -20.429  -7.601  1.00  0.00     0.078 A 
ATOM     10  C   UNL     1       3.930 -20.515  -8.948  1.00  0.00     0.223 A 
ENDROOT
BRANCH   1  11
ATOM     11  C   UNL     1       3.230 -20.519 -11.378  1.00  0.00     0.091 A 
ATOM     12  C   UNL     1       2.190 -20.770 -12.286  1.00  0.00     0.068 A 
ATOM     13  C   UNL     1       2.453 -20.889 -13.659  1.00  0.00     0.162 A 
ATOM     14  C   UNL     1       4.548 -20.423 -11.857  1.00  0.00     0.068 A 
ATOM     15  C   UNL     1       3.771 -20.770 -14.131  1.00  0.00     0.200 A 
ATOM     16  C   UNL     1       4.818 -20.542 -13.228  1.00  0.00     0.162 A 
BRANCH  13  17
ATOM     17  O   UNL     1       1.409 -21.124 -14.552  1.00  0.00    -0.504 OA
ATOM     18  H   UNL     1       0.440 -21.071 -14.264  1.00  0.00     0.293 HD
ENDBRANCH  13  17
BRANCH  15  19
ATOM     19  O   UNL     1       4.058 -20.880 -15.492  1.00  0.00    -0.502 OA
ATOM     20  H   UNL     1       5.006 -20.843 -15.848  1.00  0.00     0.293 HD
ENDBRANCH  15  19
BRANCH  16  21
ATOM     21  O   UNL     1       6.124 -20.438 -13.700  1.00  0.00    -0.504 OA
ATOM     22  H   UNL     1       6.539 -21.162 -14.277  1.00  0.00     0.293 HD
ENDBRANCH  16  21
ENDBRANCH   1  11
BRANCH  10  23
ATOM     23  O   UNL     1       5.272 -20.661  -9.299  1.00  0.00    -0.500 OA
ATOM     24  H   UNL     1       5.608 -21.484  -9.784  1.00  0.00     0.294 HD
ENDBRANCH  10  23
BRANCH   5  25
ATOM     25  O   UNL     1      -1.841 -19.614  -6.387  1.00  0.00    -0.507 OA
ATOM     26  H   UNL     1      -2.183 -19.571  -5.433  1.00  0.00     0.293 HD
ENDBRANCH   5  25
BRANCH   7  27
ATOM     27  O   UNL     1       2.725 -20.236  -4.875  1.00  0.00    -0.507 OA
ATOM     28  H   UNL     1       2.784 -19.536  -4.145  1.00  0.00     0.293 HD
ENDBRANCH   7  27
TORSDOF 7
ENDMDL
MODEL 3
REMARK VINA RESULT:    -2.501     21.866     22.887
REMARK INTER + INTRA:          -2.702
REMARK INTER:                  -2.846
REMARK INTRA:                   0.144
REMARK UNBOUND:                 0.384
REMARK SMILES Oc1cc(O)c2cc(O)c(-c3cc(O)c(O)c(O)c3)[o+]c2c1
REMARK SMILES IDX 10 1 20 2 21 3 22 4 2 5 3 6 4 7 6 8 7 9 8 10 11 11 12 12
REMARK SMILES IDX 13 13 19 14 15 15 17 16 14 17 16 19 18 21 9 23 1 25 5 27
REMARK H PARENT 14 18 16 20 18 22 9 24 1 26 5 28
REMARK Flexibility Score: inf
ROOT
ATOM      1  C   UNL     1       2.291 -20.195  -9.573  1.00  0.00     0.402 A 
ATOM      2  O   UNL     1       1.788 -20.416 -10.787  1.00  0.00    -0.202 OA
ATOM      3  C   UNL     1       2.542 -20.542 -11.874  1.00  0.00     0.368 A 
ATOM      4  C   UNL     1       1.936 -20.768 -13.114  1.00  0.00     0.162 A 
ATOM      5  C   UNL     1       2.716 -20.899 -14.266  1.00  0.00     0.128 A 
ATOM      6  C   UNL     1       4.112 -20.802 -14.181  1.00  0.00     0.093 A 
ATOM      7  C   UNL     1       4.734 -20.575 -12.945  1.00  0.00     0.136 A 
ATOM      8  C   UNL     1       3.947 -20.444 -11.784  1.00  0.00     0.125 A 
ATOM      9  C   UNL     1       4.514 -20.225 -10.524  1.00  0.00     0.078 A 
ATOM     10  C   UNL     1       3.688 -20.109  -9.401  1.00  0.00     0.223 A 
ENDROOT
BRANCH   1  11
ATOM     11  C   UNL     1       1.349 -20.064  -8.438  1.00  0.00     0.091 A 
ATOM     12  C   UNL     1       1.679 -20.634  -7.199  1.00  0.00     0.068 A 
ATOM     13  C   UNL     1       0.796 -20.542  -6.113  1.00  0.00     0.162 A 
ATOM     14  C   UNL     1       0.104 -19.429  -8.590  1.00  0.00     0.068 A 
ATOM     15  C   UNL     1      -0.438 -19.887  -6.268  1.00  0.00     0.200 A 
ATOM     16  C   UNL     1      -0.783 -19.335  -7.509  1.00  0.00     0.162 A 
BRANCH  13  17
ATOM     17  O   UNL     1       1.141 -21.101  -4.884  1.00  0.00    -0.504 OA
ATOM     18  H   UNL     1       2.103 -21.307  -4.644  1.00  0.00     0.293 HD
ENDBRANCH  13  17
BRANCH  15  19
ATOM     19  O   UNL     1      -1.331 -19.780  -5.203  1.00  0.00    -0.502 OA
ATOM     20  H   UNL     1      -1.021 -19.773  -4.238  1.00  0.00     0.293 HD
ENDBRANCH  15  19
BRANCH  16  21
ATOM     21  O   UNL     1      -2.013 -18.698  -7.660  1.00  0.00    -0.504 OA
ATOM     22  H   UNL     1      -2.093 -17.806  -8.135  1.00  0.00     0.293 HD
ENDBRANCH  16  21
ENDBRANCH   1  11
BRANCH  10  23
ATOM     23  O   UNL     1       4.249 -19.940  -8.135  1.00  0.00    -0.500 OA
ATOM     24  H   UNL     1       3.990 -19.164  -7.538  1.00  0.00     0.294 HD
ENDBRANCH  10  23
BRANCH   5  25
ATOM     25  O   UNL     1       2.095 -21.125 -15.492  1.00  0.00    -0.507 OA
ATOM     26  H   UNL     1       1.086 -21.090 -15.590  1.00  0.00     0.293 HD
ENDBRANCH   5  25
BRANCH   7  27
ATOM     27  O   UNL     1       6.124 -20.481 -12.871  1.00  0.00    -0.507 OA
ATOM     28  H   UNL     1       6.632 -20.758 -12.040  1.00  0.00     0.293 HD
ENDBRANCH   7  27
TORSDOF 7
ENDMDL
MODEL 4
REMARK VINA RESULT:    -2.460     22.102     23.532
REMARK INTER + INTRA:          -2.650
REMARK INTER:                  -3.056
REMARK INTRA:                   0.406
REMARK UNBOUND:                 0.384
REMARK SMILES Oc1cc(O)c2cc(O)c(-c3cc(O)c(O)c(O)c3)[o+]c2c1
REMARK SMILES IDX 10 1 20 2 21 3 22 4 2 5 3 6 4 7 6 8 7 9 8 10 11 11 12 12
REMARK SMILES IDX 13 13 19 14 15 15 17 16 14 17 16 19 18 21 9 23 1 25 5 27
REMARK H PARENT 14 18 16 20 18 22 9 24 1 26 5 28
REMARK Flexibility Score: inf
ROOT
ATOM      1  C   UNL     1       2.768 -20.668  -9.948  1.00  0.00     0.402 A 
ATOM      2  O   UNL     1       1.515 -20.359  -9.616  1.00  0.00    -0.202 OA
ATOM      3  C   UNL     1       1.110 -20.221  -8.358  1.00  0.00     0.368 A 
ATOM      4  C   UNL     1      -0.224 -19.900  -8.092  1.00  0.00     0.162 A 
ATOM      5  C   UNL     1      -0.665 -19.754  -6.773  1.00  0.00     0.128 A 
ATOM      6  C   UNL     1       0.233 -19.932  -5.712  1.00  0.00     0.093 A 
ATOM      7  C   UNL     1       1.575 -20.253  -5.963  1.00  0.00     0.136 A 
ATOM      8  C   UNL     1       2.018 -20.399  -7.291  1.00  0.00     0.125 A 
ATOM      9  C   UNL     1       3.346 -20.711  -7.601  1.00  0.00     0.078 A 
ATOM     10  C   UNL     1       3.737 -20.838  -8.938  1.00  0.00     0.223 A 
ENDROOT
BRANCH   1  11
ATOM     11  C   UNL     1       3.098 -20.804 -11.385  1.00  0.00     0.091 A 
ATOM     12  C   UNL     1       4.441 -20.770 -11.791  1.00  0.00     0.068 A 
ATOM     13  C   UNL     1       4.780 -20.877 -13.147  1.00  0.00     0.162 A 
ATOM     14  C   UNL     1       2.091 -20.908 -12.360  1.00  0.00     0.068 A 
ATOM     15  C   UNL     1       3.767 -21.003 -14.114  1.00  0.00     0.200 A 
ATOM     16  C   UNL     1       2.423 -21.014 -13.718  1.00  0.00     0.162 A 
BRANCH  13  17
ATOM     17  O   UNL     1       6.118 -20.856 -13.537  1.00  0.00    -0.504 OA
ATOM     18  H   UNL     1       6.460 -21.435 -14.294  1.00  0.00     0.293 HD
ENDBRANCH  13  17
BRANCH  15  19
ATOM     19  O   UNL     1       4.079 -21.113 -15.469  1.00  0.00    -0.502 OA
ATOM     20  H   UNL     1       4.846 -21.686 -15.801  1.00  0.00     0.293 HD
ENDBRANCH  15  19
BRANCH  16  21
ATOM     21  O   UNL     1       1.423 -21.125 -14.682  1.00  0.00    -0.504 OA
ATOM     22  H   UNL     1       0.640 -21.757 -14.562  1.00  0.00     0.293 HD
ENDBRANCH  16  21
ENDBRANCH   1  11
BRANCH  10  23
ATOM     23  O   UNL     1       5.070 -21.099  -9.255  1.00  0.00    -0.500 OA
ATOM     24  H   UNL     1       5.745 -21.358  -8.545  1.00  0.00     0.294 HD
ENDBRANCH  10  23
BRANCH   5  25
ATOM     25  O   UNL     1      -1.998 -19.434  -6.528  1.00  0.00    -0.507 OA
ATOM     26  H   UNL     1      -2.715 -19.572  -7.232  1.00  0.00     0.293 HD
ENDBRANCH   5  25
BRANCH   7  27
ATOM     27  O   UNL     1       2.461 -20.426  -4.898  1.00  0.00    -0.507 OA
ATOM     28  H   UNL     1       2.945 -21.303  -4.748  1.00  0.00     0.293 HD
ENDBRANCH   7  27
TORSDOF 7
ENDMDL
MODEL 5
REMARK VINA RESULT:    -1.665     22.158     23.417
REMARK INTER + INTRA:          -1.670
REMARK INTER:                  -2.055
REMARK INTRA:                   0.384
REMARK UNBOUND:                 0.384
REMARK SMILES Oc1cc(O)c2cc(O)c(-c3cc(O)c(O)c(O)c3)[o+]c2c1
REMARK SMILES IDX 10 1 20 2 21 3 22 4 2 5 3 6 4 7 6 8 7 9 8 10 11 11 12 12
REMARK SMILES IDX 13 13 19 14 15 15 17 16 14 17 16 19 18 21 9 23 1 25 5 27
REMARK H PARENT 14 18 16 20 18 22 9 24 1 26 5 28
REMARK Flexibility Score: inf
ROOT
ATOM      1  C   UNL     1       2.202 -20.872 -10.602  1.00  0.00     0.402 A 
ATOM      2  O   UNL     1       3.038 -20.755  -9.571  1.00  0.00    -0.202 OA
ATOM      3  C   UNL     1       2.629 -20.672  -8.309  1.00  0.00     0.368 A 
ATOM      4  C   UNL     1       3.571 -20.546  -7.284  1.00  0.00     0.162 A 
ATOM      5  C   UNL     1       3.155 -20.453  -5.952  1.00  0.00     0.128 A 
ATOM      6  C   UNL     1       1.789 -20.485  -5.642  1.00  0.00     0.093 A 
ATOM      7  C   UNL     1       0.832 -20.612  -6.660  1.00  0.00     0.136 A 
ATOM      8  C   UNL     1       1.252 -20.706  -8.001  1.00  0.00     0.125 A 
ATOM      9  C   UNL     1       0.343 -20.841  -9.056  1.00  0.00     0.078 A 
ATOM     10  C   UNL     1       0.813 -20.937 -10.370  1.00  0.00     0.223 A 
ENDROOT
BRANCH   1  11
ATOM     11  C   UNL     1       2.777 -20.949 -11.964  1.00  0.00     0.091 A 
ATOM     12  C   UNL     1       4.170 -20.903 -12.129  1.00  0.00     0.068 A 
ATOM     13  C   UNL     1       4.740 -20.953 -13.409  1.00  0.00     0.162 A 
ATOM     14  C   UNL     1       1.955 -21.009 -13.103  1.00  0.00     0.068 A 
ATOM     15  C   UNL     1       3.910 -21.035 -14.541  1.00  0.00     0.200 A 
ATOM     16  C   UNL     1       2.518 -21.058 -14.386  1.00  0.00     0.162 A 
BRANCH  13  17
ATOM     17  O   UNL     1       6.125 -20.922 -13.559  1.00  0.00    -0.504 OA
ATOM     18  H   UNL     1       6.745 -21.292 -12.849  1.00  0.00     0.293 HD
ENDBRANCH  13  17
BRANCH  15  19
ATOM     19  O   UNL     1       4.453 -21.089 -15.825  1.00  0.00    -0.502 OA
ATOM     20  H   UNL     1       4.841 -21.942 -16.211  1.00  0.00     0.293 HD
ENDBRANCH  15  19
BRANCH  16  21
ATOM     21  O   UNL     1       1.701 -21.125 -15.512  1.00  0.00    -0.504 OA
ATOM     22  H   UNL     1       2.070 -20.977 -16.445  1.00  0.00     0.293 HD
ENDBRANCH  16  21
ENDBRANCH   1  11
BRANCH  10  23
ATOM     23  O   UNL     1      -0.085 -21.122 -11.421  1.00  0.00    -0.500 OA
ATOM     24  H   UNL     1      -1.059 -21.342 -11.256  1.00  0.00     0.294 HD
ENDBRANCH  10  23
BRANCH   5  25
ATOM     25  O   UNL     1       4.108 -20.329  -4.943  1.00  0.00    -0.507 OA
ATOM     26  H   UNL     1       3.872 -20.483  -3.969  1.00  0.00     0.293 HD
ENDBRANCH   5  25
BRANCH   7  27
ATOM     27  O   UNL     1      -0.526 -20.644  -6.340  1.00  0.00    -0.507 OA
ATOM     28  H   UNL     1      -0.882 -21.232  -5.597  1.00  0.00     0.293 HD
ENDBRANCH   7  27
TORSDOF 7
ENDMDL
MODEL 6
REMARK VINA RESULT:    -1.245      1.254      7.573
REMARK INTER + INTRA:          -1.152
REMARK INTER:                  -1.527
REMARK INTRA:                   0.375
REMARK UNBOUND:                 0.384
REMARK SMILES Oc1cc(O)c2cc(O)c(-c3cc(O)c(O)c(O)c3)[o+]c2c1
REMARK SMILES IDX 10 1 20 2 21 3 22 4 2 5 3 6 4 7 6 8 7 9 8 10 11 11 12 12
REMARK SMILES IDX 13 13 19 14 15 15 17 16 14 17 16 19 18 21 9 23 1 25 5 27
REMARK H PARENT 14 18 16 20 18 22 9 24 1 26 5 28
REMARK Flexibility Score: inf
ROOT
ATOM      1  C   UNL     1       0.448  -0.940 -21.869  1.00  0.00     0.402 A 
ATOM      2  O   UNL     1      -0.350  -0.922 -22.936  1.00  0.00    -0.202 OA
ATOM      3  C   UNL     1      -1.676  -0.912 -22.853  1.00  0.00     0.368 A 
ATOM      4  C   UNL     1      -2.442  -0.898 -24.022  1.00  0.00     0.162 A 
ATOM      5  C   UNL     1      -3.838  -0.891 -23.950  1.00  0.00     0.128 A 
ATOM      6  C   UNL     1      -4.474  -0.900 -22.700  1.00  0.00     0.093 A 
ATOM      7  C   UNL     1      -3.719  -0.914 -21.519  1.00  0.00     0.136 A 
ATOM      8  C   UNL     1      -2.313  -0.920 -21.593  1.00  0.00     0.125 A 
ATOM      9  C   UNL     1      -1.508  -0.927 -20.448  1.00  0.00     0.078 A 
ATOM     10  C   UNL     1      -0.116  -0.926 -20.576  1.00  0.00     0.223 A 
ENDROOT
BRANCH   1  11
ATOM     11  C   UNL     1       1.912  -0.958 -22.088  1.00  0.00     0.091 A 
ATOM     12  C   UNL     1       2.413  -0.929 -23.399  1.00  0.00     0.068 A 
ATOM     13  C   UNL     1       3.794  -0.965 -23.636  1.00  0.00     0.162 A 
ATOM     14  C   UNL     1       2.812  -1.060 -21.013  1.00  0.00     0.068 A 
ATOM     15  C   UNL     1       4.688  -1.046 -22.554  1.00  0.00     0.200 A 
ATOM     16  C   UNL     1       4.194  -1.098 -21.244  1.00  0.00     0.162 A 
BRANCH  13  17
ATOM     17  O   UNL     1       4.281  -0.922 -24.942  1.00  0.00    -0.504 OA
ATOM     18  H   UNL     1       5.253  -1.109 -25.153  1.00  0.00     0.293 HD
ENDBRANCH  13  17
BRANCH  15  19
ATOM     19  O   UNL     1       6.066  -1.080 -22.764  1.00  0.00    -0.502 OA
ATOM     20  H   UNL     1       6.708  -1.456 -22.075  1.00  0.00     0.293 HD
ENDBRANCH  15  19
BRANCH  16  21
ATOM     21  O   UNL     1       5.084  -1.192 -20.176  1.00  0.00    -0.504 OA
ATOM     22  H   UNL     1       5.921  -0.622 -20.132  1.00  0.00     0.293 HD
ENDBRANCH  16  21
ENDBRANCH   1  11
BRANCH  10  23
ATOM     23  O   UNL     1       0.691  -0.881 -19.439  1.00  0.00    -0.500 OA
ATOM     24  H   UNL     1       1.686  -1.063 -19.486  1.00  0.00     0.294 HD
ENDBRANCH  10  23
BRANCH   5  25
ATOM     25  O   UNL     1      -4.586  -0.876 -25.125  1.00  0.00    -0.507 OA
ATOM     26  H   UNL     1      -5.201  -0.102 -25.352  1.00  0.00     0.293 HD
ENDBRANCH   5  25
BRANCH   7  27
ATOM     27  O   UNL     1      -4.362  -0.922 -20.280  1.00  0.00    -0.507 OA
ATOM     28  H   UNL     1      -5.353  -0.731 -20.196  1.00  0.00     0.293 HD
ENDBRANCH   7  27
TORSDOF 7
ENDMDL
MODEL 7
REMARK VINA RESULT:    -1.213      1.202      6.992
REMARK INTER + INTRA:          -1.113
REMARK INTER:                  -1.574
REMARK INTRA:                   0.461
REMARK UNBOUND:                 0.384
REMARK SMILES Oc1cc(O)c2cc(O)c(-c3cc(O)c(O)c(O)c3)[o+]c2c1
REMARK SMILES IDX 10 1 20 2 21 3 22 4 2 5 3 6 4 7 6 8 7 9 8 10 11 11 12 12
REMARK SMILES IDX 13 13 19 14 15 15 17 16 14 17 16 19 18 21 9 23 1 25 5 27
REMARK H PARENT 14 18 16 20 18 22 9 24 1 26 5 28
REMARK Flexibility Score: inf
ROOT
ATOM      1  C   UNL     1       0.521  -1.097 -21.930  1.00  0.00     0.402 A 
ATOM      2  O   UNL     1       0.095  -1.255 -20.677  1.00  0.00    -0.202 OA
ATOM      3  C   UNL     1      -1.191  -1.287 -20.345  1.00  0.00     0.368 A 
ATOM      4  C   UNL     1      -1.556  -1.452 -19.006  1.00  0.00     0.162 A 
ATOM      5  C   UNL     1      -2.905  -1.485 -18.641  1.00  0.00     0.128 A 
ATOM      6  C   UNL     1      -3.898  -1.350 -19.622  1.00  0.00     0.093 A 
ATOM      7  C   UNL     1      -3.547  -1.185 -20.970  1.00  0.00     0.136 A 
ATOM      8  C   UNL     1      -2.188  -1.153 -21.335  1.00  0.00     0.125 A 
ATOM      9  C   UNL     1      -1.780  -0.998 -22.665  1.00  0.00     0.078 A 
ATOM     10  C   UNL     1      -0.417  -0.980 -22.977  1.00  0.00     0.223 A 
ENDROOT
BRANCH   1  11
ATOM     11  C   UNL     1       1.981  -1.068 -22.175  1.00  0.00     0.091 A 
ATOM     12  C   UNL     1       2.458  -1.002 -23.493  1.00  0.00     0.068 A 
ATOM     13  C   UNL     1       3.835  -0.994 -23.754  1.00  0.00     0.162 A 
ATOM     14  C   UNL     1       2.902  -1.163 -21.118  1.00  0.00     0.068 A 
ATOM     15  C   UNL     1       4.750  -1.067 -22.689  1.00  0.00     0.200 A 
ATOM     16  C   UNL     1       4.281  -1.157 -21.372  1.00  0.00     0.162 A 
BRANCH  13  17
ATOM     17  O   UNL     1       4.297  -0.914 -25.067  1.00  0.00    -0.504 OA
ATOM     18  H   UNL     1       4.678  -1.720 -25.547  1.00  0.00     0.293 HD
ENDBRANCH  13  17
BRANCH  15  19
ATOM     19  O   UNL     1       6.125  -1.058 -22.924  1.00  0.00    -0.502 OA
ATOM     20  H   UNL     1       6.522  -1.326 -23.817  1.00  0.00     0.293 HD
ENDBRANCH  15  19
BRANCH  16  21
ATOM     21  O   UNL     1       5.192  -1.243 -20.322  1.00  0.00    -0.504 OA
ATOM     22  H   UNL     1       5.401  -2.128 -19.873  1.00  0.00     0.293 HD
ENDBRANCH  16  21
ENDBRANCH   1  11
BRANCH  10  23
ATOM     23  O   UNL     1      -0.005  -0.876 -24.305  1.00  0.00    -0.500 OA
ATOM     24  H   UNL     1       0.439  -0.038 -24.660  1.00  0.00     0.294 HD
ENDBRANCH  10  23
BRANCH   5  25
ATOM     25  O   UNL     1      -3.250  -1.650 -17.302  1.00  0.00    -0.507 OA
ATOM     26  H   UNL     1      -4.002  -2.269 -17.020  1.00  0.00     0.293 HD
ENDBRANCH   5  25
BRANCH   7  27
ATOM     27  O   UNL     1      -4.544  -1.054 -21.938  1.00  0.00    -0.507 OA
ATOM     28  H   UNL     1      -4.906  -0.147 -22.207  1.00  0.00     0.293 HD
ENDBRANCH   7  27
TORSDOF 7
ENDMDL
