MODEL 1
REMARK VINA RESULT:    -6.079      0.000      0.000
REMARK INTER + INTRA:          -7.883
REMARK INTER:                  -7.500
REMARK INTRA:                  -0.383
REMARK UNBOUND:                -0.383
REMARK SMILES Oc1cc(O)c2cc(O)c(-c3cc(O)c(O)c(O)c3)[o+]c2c1.[Cl-]
REMARK SMILES IDX 10 1 20 2 21 3 22 4 2 5 3 6 4 7 6 8 7 9 8 10 11 11 12 12
REMARK SMILES IDX 13 13 19 14 15 15 17 16 14 17 16 19 18 21 9 23 1 25 5 27
REMARK H PARENT 14 18 16 20 18 22 9 24 1 26 5 28
REMARK Flexibility Score: inf
ROOT
ATOM      1  C   UNL     1      28.031   9.403  27.485  1.00  0.00     0.402 A 
ATOM      2  O   UNL     1      26.916   8.862  27.967  1.00  0.00    -0.202 OA
ATOM      3  C   UNL     1      26.152   8.024  27.273  1.00  0.00     0.368 A 
ATOM      4  C   UNL     1      24.996   7.509  27.867  1.00  0.00     0.162 A 
ATOM      5  C   UNL     1      24.173   6.629  27.162  1.00  0.00     0.128 A 
ATOM      6  C   UNL     1      24.507   6.262  25.853  1.00  0.00     0.093 A 
ATOM      7  C   UNL     1      25.658   6.765  25.236  1.00  0.00     0.136 A 
ATOM      8  C   UNL     1      26.499   7.657  25.952  1.00  0.00     0.125 A 
ATOM      9  C   UNL     1      27.680   8.199  25.419  1.00  0.00     0.078 A 
ATOM     10  C   UNL     1      28.461   9.069  26.186  1.00  0.00     0.223 A 
ENDROOT
BRANCH   1  11
ATOM     11  C   UNL     1      28.792  10.331  28.352  1.00  0.00     0.091 A 
ATOM     12  C   UNL     1      28.518  11.707  28.368  1.00  0.00     0.068 A 
ATOM     13  C   UNL     1      29.230  12.566  29.209  1.00  0.00     0.162 A 
ATOM     14  C   UNL     1      29.768   9.821  29.219  1.00  0.00     0.068 A 
ATOM     15  C   UNL     1      30.227  12.057  30.062  1.00  0.00     0.200 A 
ATOM     16  C   UNL     1      30.492  10.666  30.068  1.00  0.00     0.162 A 
BRANCH  13  17
ATOM     17  O   UNL     1      28.929  13.928  29.187  1.00  0.00    -0.504 OA
ATOM     18  H   UNL     1      28.453  14.365  28.407  1.00  0.00     0.293 HD
ENDBRANCH  13  17
BRANCH  15  19
ATOM     19  O   UNL     1      30.921  12.951  30.881  1.00  0.00    -0.502 OA
ATOM     20  H   UNL     1      31.570  13.645  30.540  1.00  0.00     0.293 HD
ENDBRANCH  15  19
BRANCH  16  21
ATOM     21  O   UNL     1      31.456  10.084  30.893  1.00  0.00    -0.504 OA
ATOM     22  H   UNL     1      32.316  10.536  31.167  1.00  0.00     0.293 HD
ENDBRANCH  16  21
ENDBRANCH   1  11
BRANCH  10  23
ATOM     23  O   UNL     1      29.658   9.570  25.676  1.00  0.00    -0.500 OA
ATOM     24  H   UNL     1      29.746  10.532  25.370  1.00  0.00     0.294 HD
ENDBRANCH  10  23
BRANCH   5  25
ATOM     25  O   UNL     1      23.025   6.127  27.770  1.00  0.00    -0.507 OA
ATOM     26  H   UNL     1      22.673   5.200  27.554  1.00  0.00     0.293 HD
ENDBRANCH   5  25
BRANCH   7  27
ATOM     27  O   UNL     1      25.920   6.352  23.926  1.00  0.00    -0.507 OA
ATOM     28  H   UNL     1      25.968   6.972  23.131  1.00  0.00     0.293 HD
ENDBRANCH   7  27
TORSDOF 7
ENDMDL
MODEL 2
REMARK VINA RESULT:    -5.724      1.335      2.837
REMARK INTER + INTRA:          -7.446
REMARK INTER:                  -7.272
REMARK INTRA:                  -0.174
REMARK UNBOUND:                -0.383
REMARK SMILES Oc1cc(O)c2cc(O)c(-c3cc(O)c(O)c(O)c3)[o+]c2c1.[Cl-]
REMARK SMILES IDX 10 1 20 2 21 3 22 4 2 5 3 6 4 7 6 8 7 9 8 10 11 11 12 12
REMARK SMILES IDX 13 13 19 14 15 15 17 16 14 17 16 19 18 21 9 23 1 25 5 27
REMARK H PARENT 14 18 16 20 18 22 9 24 1 26 5 28
REMARK Flexibility Score: inf
ROOT
ATOM      1  C   UNL     1      28.065   9.334  27.327  1.00  0.00     0.402 A 
ATOM      2  O   UNL     1      28.767   8.642  26.433  1.00  0.00    -0.202 OA
ATOM      3  C   UNL     1      28.217   7.779  25.584  1.00  0.00     0.368 A 
ATOM      4  C   UNL     1      29.037   7.097  24.682  1.00  0.00     0.162 A 
ATOM      5  C   UNL     1      28.489   6.183  23.781  1.00  0.00     0.128 A 
ATOM      6  C   UNL     1      27.109   5.948  23.781  1.00  0.00     0.093 A 
ATOM      7  C   UNL     1      26.266   6.619  24.674  1.00  0.00     0.136 A 
ATOM      8  C   UNL     1      26.820   7.551  25.590  1.00  0.00     0.125 A 
ATOM      9  C   UNL     1      26.050   8.279  26.512  1.00  0.00     0.078 A 
ATOM     10  C   UNL     1      26.666   9.184  27.381  1.00  0.00     0.223 A 
ENDROOT
BRANCH   1  11
ATOM     11  C   UNL     1      28.794  10.258  28.225  1.00  0.00     0.091 A 
ATOM     12  C   UNL     1      28.527  11.636  28.230  1.00  0.00     0.068 A 
ATOM     13  C   UNL     1      29.208  12.491  29.101  1.00  0.00     0.162 A 
ATOM     14  C   UNL     1      29.730   9.743  29.133  1.00  0.00     0.068 A 
ATOM     15  C   UNL     1      30.165  11.976  29.995  1.00  0.00     0.200 A 
ATOM     16  C   UNL     1      30.422  10.584  30.011  1.00  0.00     0.162 A 
BRANCH  13  17
ATOM     17  O   UNL     1      28.915  13.855  29.066  1.00  0.00    -0.504 OA
ATOM     18  H   UNL     1      29.377  14.523  29.670  1.00  0.00     0.293 HD
ENDBRANCH  13  17
BRANCH  15  19
ATOM     19  O   UNL     1      30.829  12.867  30.842  1.00  0.00    -0.502 OA
ATOM     20  H   UNL     1      30.416  13.707  31.219  1.00  0.00     0.293 HD
ENDBRANCH  15  19
BRANCH  16  21
ATOM     21  O   UNL     1      31.347   9.997  30.876  1.00  0.00    -0.504 OA
ATOM     22  H   UNL     1      32.347  10.118  30.805  1.00  0.00     0.293 HD
ENDBRANCH  16  21
ENDBRANCH   1  11
BRANCH  10  23
ATOM     23  O   UNL     1      25.897   9.943  28.263  1.00  0.00    -0.500 OA
ATOM     24  H   UNL     1      26.222  10.167  29.196  1.00  0.00     0.294 HD
ENDBRANCH  10  23
BRANCH   5  25
ATOM     25  O   UNL     1      29.324   5.513  22.890  1.00  0.00    -0.507 OA
ATOM     26  H   UNL     1      29.488   5.862  21.952  1.00  0.00     0.293 HD
ENDBRANCH   5  25
BRANCH   7  27
ATOM     27  O   UNL     1      24.900   6.327  24.613  1.00  0.00    -0.507 OA
ATOM     28  H   UNL     1      24.444   5.892  23.824  1.00  0.00     0.293 HD
ENDBRANCH   7  27
TORSDOF 7
ENDMDL
MODEL 3
REMARK VINA RESULT:    -5.703      1.759      3.318
REMARK INTER + INTRA:          -7.420
REMARK INTER:                  -7.437
REMARK INTRA:                   0.017
REMARK UNBOUND:                -0.383
REMARK SMILES Oc1cc(O)c2cc(O)c(-c3cc(O)c(O)c(O)c3)[o+]c2c1.[Cl-]
REMARK SMILES IDX 10 1 20 2 21 3 22 4 2 5 3 6 4 7 6 8 7 9 8 10 11 11 12 12
REMARK SMILES IDX 13 13 19 14 15 15 17 16 14 17 16 19 18 21 9 23 1 25 5 27
REMARK H PARENT 14 18 16 20 18 22 9 24 1 26 5 28
REMARK Flexibility Score: inf
ROOT
ATOM      1  C   UNL     1      27.597   9.633  27.143  1.00  0.00     0.402 A 
ATOM      2  O   UNL     1      27.293  10.179  25.969  1.00  0.00    -0.202 OA
ATOM      3  C   UNL     1      26.580   9.554  25.037  1.00  0.00     0.368 A 
ATOM      4  C   UNL     1      26.313  10.210  23.832  1.00  0.00     0.162 A 
ATOM      5  C   UNL     1      25.570   9.578  22.834  1.00  0.00     0.128 A 
ATOM      6  C   UNL     1      25.088   8.280  23.042  1.00  0.00     0.093 A 
ATOM      7  C   UNL     1      25.342   7.602  24.239  1.00  0.00     0.136 A 
ATOM      8  C   UNL     1      26.095   8.243  25.257  1.00  0.00     0.125 A 
ATOM      9  C   UNL     1      26.386   7.645  26.495  1.00  0.00     0.078 A 
ATOM     10  C   UNL     1      27.131   8.341  27.451  1.00  0.00     0.223 A 
ENDROOT
BRANCH   1  11
ATOM     11  C   UNL     1      28.407  10.426  28.095  1.00  0.00     0.091 A 
ATOM     12  C   UNL     1      29.438   9.838  28.845  1.00  0.00     0.068 A 
ATOM     13  C   UNL     1      30.208  10.606  29.723  1.00  0.00     0.162 A 
ATOM     14  C   UNL     1      28.183  11.805  28.211  1.00  0.00     0.068 A 
ATOM     15  C   UNL     1      29.966  11.986  29.857  1.00  0.00     0.200 A 
ATOM     16  C   UNL     1      28.943  12.589  29.086  1.00  0.00     0.162 A 
BRANCH  13  17
ATOM     17  O   UNL     1      31.218   9.978  30.453  1.00  0.00    -0.504 OA
ATOM     18  H   UNL     1      31.993  10.490  30.856  1.00  0.00     0.293 HD
ENDBRANCH  13  17
BRANCH  15  19
ATOM     19  O   UNL     1      30.753  12.715  30.752  1.00  0.00    -0.502 OA
ATOM     20  H   UNL     1      30.948  13.701  30.662  1.00  0.00     0.293 HD
ENDBRANCH  15  19
BRANCH  16  21
ATOM     21  O   UNL     1      28.650  13.952  29.154  1.00  0.00    -0.504 OA
ATOM     22  H   UNL     1      29.187  14.672  28.692  1.00  0.00     0.293 HD
ENDBRANCH  16  21
ENDBRANCH   1  11
BRANCH  10  23
ATOM     23  O   UNL     1      27.379   7.767  28.699  1.00  0.00    -0.500 OA
ATOM     24  H   UNL     1      26.676   7.219  29.182  1.00  0.00     0.294 HD
ENDBRANCH  10  23
BRANCH   5  25
ATOM     25  O   UNL     1      25.315  10.249  21.640  1.00  0.00    -0.507 OA
ATOM     26  H   UNL     1      24.752   9.830  20.908  1.00  0.00     0.293 HD
ENDBRANCH   5  25
BRANCH   7  27
ATOM     27  O   UNL     1      24.829   6.308  24.367  1.00  0.00    -0.507 OA
ATOM     28  H   UNL     1      23.944   6.085  24.799  1.00  0.00     0.293 HD
ENDBRANCH   7  27
TORSDOF 7
ENDMDL
MODEL 4
REMARK VINA RESULT:    -5.646      1.517      3.671
REMARK INTER + INTRA:          -7.349
REMARK INTER:                  -7.004
REMARK INTRA:                  -0.345
REMARK UNBOUND:                -0.383
REMARK SMILES Oc1cc(O)c2cc(O)c(-c3cc(O)c(O)c(O)c3)[o+]c2c1.[Cl-]
REMARK SMILES IDX 10 1 20 2 21 3 22 4 2 5 3 6 4 7 6 8 7 9 8 10 11 11 12 12
REMARK SMILES IDX 13 13 19 14 15 15 17 16 14 17 16 19 18 21 9 23 1 25 5 27
REMARK H PARENT 14 18 16 20 18 22 9 24 1 26 5 28
REMARK Flexibility Score: inf
ROOT
ATOM      1  C   UNL     1      28.203   9.307  27.079  1.00  0.00     0.402 A 
ATOM      2  O   UNL     1      28.916   9.035  25.989  1.00  0.00    -0.202 OA
ATOM      3  C   UNL     1      28.473   8.264  25.001  1.00  0.00     0.368 A 
ATOM      4  C   UNL     1      29.297   8.035  23.896  1.00  0.00     0.162 A 
ATOM      5  C   UNL     1      28.860   7.228  22.845  1.00  0.00     0.128 A 
ATOM      6  C   UNL     1      27.589   6.644  22.898  1.00  0.00     0.093 A 
ATOM      7  C   UNL     1      26.744   6.858  23.993  1.00  0.00     0.136 A 
ATOM      8  C   UNL     1      27.185   7.681  25.062  1.00  0.00     0.125 A 
ATOM      9  C   UNL     1      26.401   7.963  26.194  1.00  0.00     0.078 A 
ATOM     10  C   UNL     1      26.901   8.787  27.206  1.00  0.00     0.223 A 
ENDROOT
BRANCH   1  11
ATOM     11  C   UNL     1      28.811  10.172  28.115  1.00  0.00     0.091 A 
ATOM     12  C   UNL     1      29.760   9.672  29.020  1.00  0.00     0.068 A 
ATOM     13  C   UNL     1      30.341  10.508  29.978  1.00  0.00     0.162 A 
ATOM     14  C   UNL     1      28.477  11.532  28.162  1.00  0.00     0.068 A 
ATOM     15  C   UNL     1      29.987  11.868  30.040  1.00  0.00     0.200 A 
ATOM     16  C   UNL     1      29.047  12.384  29.115  1.00  0.00     0.162 A 
BRANCH  13  17
ATOM     17  O   UNL     1      31.275   9.966  30.861  1.00  0.00    -0.504 OA
ATOM     18  H   UNL     1      31.004   9.495  31.716  1.00  0.00     0.293 HD
ENDBRANCH  13  17
BRANCH  15  19
ATOM     19  O   UNL     1      30.585  12.666  31.019  1.00  0.00    -0.502 OA
ATOM     20  H   UNL     1      31.580  12.714  31.182  1.00  0.00     0.293 HD
ENDBRANCH  15  19
BRANCH  16  21
ATOM     21  O   UNL     1      28.654  13.723  29.105  1.00  0.00    -0.504 OA
ATOM     22  H   UNL     1      27.702  14.036  29.233  1.00  0.00     0.293 HD
ENDBRANCH  16  21
ENDBRANCH   1  11
BRANCH  10  23
ATOM     23  O   UNL     1      26.105   9.106  28.306  1.00  0.00    -0.500 OA
ATOM     24  H   UNL     1      25.099   9.196  28.227  1.00  0.00     0.294 HD
ENDBRANCH  10  23
BRANCH   5  25
ATOM     25  O   UNL     1      29.697   7.010  21.753  1.00  0.00    -0.507 OA
ATOM     26  H   UNL     1      29.423   7.278  20.814  1.00  0.00     0.293 HD
ENDBRANCH   5  25
BRANCH   7  27
ATOM     27  O   UNL     1      25.492   6.238  23.971  1.00  0.00    -0.507 OA
ATOM     28  H   UNL     1      24.850   6.275  23.193  1.00  0.00     0.293 HD
ENDBRANCH   7  27
TORSDOF 7
ENDMDL
MODEL 5
REMARK VINA RESULT:    -5.607      1.942      3.259
REMARK INTER + INTRA:          -7.301
REMARK INTER:                  -6.939
REMARK INTRA:                  -0.362
REMARK UNBOUND:                -0.383
REMARK SMILES Oc1cc(O)c2cc(O)c(-c3cc(O)c(O)c(O)c3)[o+]c2c1.[Cl-]
REMARK SMILES IDX 10 1 20 2 21 3 22 4 2 5 3 6 4 7 6 8 7 9 8 10 11 11 12 12
REMARK SMILES IDX 13 13 19 14 15 15 17 16 14 17 16 19 18 21 9 23 1 25 5 27
REMARK H PARENT 14 18 16 20 18 22 9 24 1 26 5 28
REMARK Flexibility Score: inf
ROOT
ATOM      1  C   UNL     1      29.766   9.572  26.906  1.00  0.00     0.402 A 
ATOM      2  O   UNL     1      28.671   8.854  26.670  1.00  0.00    -0.202 OA
ATOM      3  C   UNL     1      28.504   8.117  25.576  1.00  0.00     0.368 A 
ATOM      4  C   UNL     1      27.317   7.398  25.415  1.00  0.00     0.162 A 
ATOM      5  C   UNL     1      27.112   6.618  24.276  1.00  0.00     0.128 A 
ATOM      6  C   UNL     1      28.102   6.557  23.288  1.00  0.00     0.093 A 
ATOM      7  C   UNL     1      29.300   7.267  23.425  1.00  0.00     0.136 A 
ATOM      8  C   UNL     1      29.512   8.059  24.584  1.00  0.00     0.125 A 
ATOM      9  C   UNL     1      30.687   8.794  24.812  1.00  0.00     0.078 A 
ATOM     10  C   UNL     1      30.827   9.548  25.981  1.00  0.00     0.223 A 
ENDROOT
BRANCH   1  11
ATOM     11  C   UNL     1      29.829  10.361  28.157  1.00  0.00     0.091 A 
ATOM     12  C   UNL     1      30.486   9.873  29.297  1.00  0.00     0.068 A 
ATOM     13  C   UNL     1      30.556  10.640  30.463  1.00  0.00     0.162 A 
ATOM     14  C   UNL     1      29.272  11.647  28.191  1.00  0.00     0.068 A 
ATOM     15  C   UNL     1      29.976  11.921  30.504  1.00  0.00     0.200 A 
ATOM     16  C   UNL     1      29.331  12.429  29.351  1.00  0.00     0.162 A 
BRANCH  13  17
ATOM     17  O   UNL     1      31.214  10.112  31.574  1.00  0.00    -0.504 OA
ATOM     18  H   UNL     1      30.956  10.355  32.523  1.00  0.00     0.293 HD
ENDBRANCH  13  17
BRANCH  15  19
ATOM     19  O   UNL     1      30.060  12.651  31.693  1.00  0.00    -0.502 OA
ATOM     20  H   UNL     1      30.609  12.371  32.493  1.00  0.00     0.293 HD
ENDBRANCH  15  19
BRANCH  16  21
ATOM     21  O   UNL     1      28.742  13.694  29.309  1.00  0.00    -0.504 OA
ATOM     22  H   UNL     1      28.167  14.076  30.045  1.00  0.00     0.293 HD
ENDBRANCH  16  21
ENDBRANCH   1  11
BRANCH  10  23
ATOM     23  O   UNL     1      32.012  10.239  26.231  1.00  0.00    -0.500 OA
ATOM     24  H   UNL     1      32.755   9.837  26.792  1.00  0.00     0.294 HD
ENDBRANCH  10  23
BRANCH   5  25
ATOM     25  O   UNL     1      25.921   5.909  24.135  1.00  0.00    -0.507 OA
ATOM     26  H   UNL     1      25.874   4.913  24.316  1.00  0.00     0.293 HD
ENDBRANCH   5  25
BRANCH   7  27
ATOM     27  O   UNL     1      30.236   7.155  22.393  1.00  0.00    -0.507 OA
ATOM     28  H   UNL     1      31.107   6.650  22.466  1.00  0.00     0.293 HD
ENDBRANCH   7  27
TORSDOF 7
ENDMDL
MODEL 6
REMARK VINA RESULT:    -5.605      1.791      2.180
REMARK INTER + INTRA:          -7.299
REMARK INTER:                  -7.758
REMARK INTRA:                   0.460
REMARK UNBOUND:                -0.383
REMARK SMILES Oc1cc(O)c2cc(O)c(-c3cc(O)c(O)c(O)c3)[o+]c2c1.[Cl-]
REMARK SMILES IDX 10 1 20 2 21 3 22 4 2 5 3 6 4 7 6 8 7 9 8 10 11 11 12 12
REMARK SMILES IDX 13 13 19 14 15 15 17 16 14 17 16 19 18 21 9 23 1 25 5 27
REMARK H PARENT 14 18 16 20 18 22 9 24 1 26 5 28
REMARK Flexibility Score: inf
ROOT
ATOM      1  C   UNL     1      28.075   9.291  27.089  1.00  0.00     0.402 A 
ATOM      2  O   UNL     1      27.150   9.797  26.278  1.00  0.00    -0.202 OA
ATOM      3  C   UNL     1      26.482   9.068  25.389  1.00  0.00     0.368 A 
ATOM      4  C   UNL     1      25.529   9.691  24.579  1.00  0.00     0.162 A 
ATOM      5  C   UNL     1      24.814   8.952  23.635  1.00  0.00     0.128 A 
ATOM      6  C   UNL     1      25.055   7.580  23.497  1.00  0.00     0.093 A 
ATOM      7  C   UNL     1      26.005   6.933  24.296  1.00  0.00     0.136 A 
ATOM      8  C   UNL     1      26.731   7.681  25.260  1.00  0.00     0.125 A 
ATOM      9  C   UNL     1      27.691   7.114  26.114  1.00  0.00     0.078 A 
ATOM     10  C   UNL     1      28.364   7.914  27.042  1.00  0.00     0.223 A 
ENDROOT
BRANCH   1  11
ATOM     11  C   UNL     1      28.757  10.207  28.031  1.00  0.00     0.091 A 
ATOM     12  C   UNL     1      28.451  11.576  28.071  1.00  0.00     0.068 A 
ATOM     13  C   UNL     1      29.089  12.423  28.982  1.00  0.00     0.162 A 
ATOM     14  C   UNL     1      29.688   9.691  28.943  1.00  0.00     0.068 A 
ATOM     15  C   UNL     1      30.041  11.908  29.881  1.00  0.00     0.200 A 
ATOM     16  C   UNL     1      30.337  10.524  29.862  1.00  0.00     0.162 A 
BRANCH  13  17
ATOM     17  O   UNL     1      28.757  13.778  28.981  1.00  0.00    -0.504 OA
ATOM     18  H   UNL     1      29.442  14.503  28.806  1.00  0.00     0.293 HD
ENDBRANCH  13  17
BRANCH  15  19
ATOM     19  O   UNL     1      30.661  12.791  30.769  1.00  0.00    -0.502 OA
ATOM     20  H   UNL     1      30.547  13.794  30.745  1.00  0.00     0.293 HD
ENDBRANCH  15  19
BRANCH  16  21
ATOM     21  O   UNL     1      31.260   9.937  30.729  1.00  0.00    -0.504 OA
ATOM     22  H   UNL     1      31.089   9.089  31.250  1.00  0.00     0.293 HD
ENDBRANCH  16  21
ENDBRANCH   1  11
BRANCH  10  23
ATOM     23  O   UNL     1      29.282   7.343  27.923  1.00  0.00    -0.500 OA
ATOM     24  H   UNL     1      29.004   7.002  28.836  1.00  0.00     0.294 HD
ENDBRANCH  10  23
BRANCH   5  25
ATOM     25  O   UNL     1      23.869   9.591  22.836  1.00  0.00    -0.507 OA
ATOM     26  H   UNL     1      23.331   9.083  22.142  1.00  0.00     0.293 HD
ENDBRANCH   5  25
BRANCH   7  27
ATOM     27  O   UNL     1      26.188   5.562  24.096  1.00  0.00    -0.507 OA
ATOM     28  H   UNL     1      25.708   4.840  24.614  1.00  0.00     0.293 HD
ENDBRANCH   7  27
TORSDOF 7
ENDMDL
MODEL 7
REMARK VINA RESULT:    -5.415      2.223      2.873
REMARK INTER + INTRA:          -7.064
REMARK INTER:                  -6.793
REMARK INTRA:                  -0.271
REMARK UNBOUND:                -0.383
REMARK SMILES Oc1cc(O)c2cc(O)c(-c3cc(O)c(O)c(O)c3)[o+]c2c1.[Cl-]
REMARK SMILES IDX 10 1 20 2 21 3 22 4 2 5 3 6 4 7 6 8 7 9 8 10 11 11 12 12
REMARK SMILES IDX 13 13 19 14 15 15 17 16 14 17 16 19 18 21 9 23 1 25 5 27
REMARK H PARENT 14 18 16 20 18 22 9 24 1 26 5 28
REMARK Flexibility Score: inf
ROOT
ATOM      1  C   UNL     1      29.000  10.312  26.373  1.00  0.00     0.402 A 
ATOM      2  O   UNL     1      28.473   9.094  26.265  1.00  0.00    -0.202 OA
ATOM      3  C   UNL     1      28.228   8.508  25.097  1.00  0.00     0.368 A 
ATOM      4  C   UNL     1      27.671   7.226  25.085  1.00  0.00     0.162 A 
ATOM      5  C   UNL     1      27.399   6.586  23.875  1.00  0.00     0.128 A 
ATOM      6  C   UNL     1      27.686   7.232  22.667  1.00  0.00     0.093 A 
ATOM      7  C   UNL     1      28.245   8.515  22.652  1.00  0.00     0.136 A 
ATOM      8  C   UNL     1      28.524   9.168  23.881  1.00  0.00     0.125 A 
ATOM      9  C   UNL     1      29.097  10.448  23.963  1.00  0.00     0.078 A 
ATOM     10  C   UNL     1      29.348  11.025  25.211  1.00  0.00     0.223 A 
ENDROOT
BRANCH   1  11
ATOM     11  C   UNL     1      29.217  10.862  27.730  1.00  0.00     0.091 A 
ATOM     12  C   UNL     1      28.504  11.980  28.188  1.00  0.00     0.068 A 
ATOM     13  C   UNL     1      28.704  12.473  29.481  1.00  0.00     0.162 A 
ATOM     14  C   UNL     1      30.111  10.222  28.600  1.00  0.00     0.068 A 
ATOM     15  C   UNL     1      29.619  11.845  30.345  1.00  0.00     0.200 A 
ATOM     16  C   UNL     1      30.325  10.702  29.897  1.00  0.00     0.162 A 
BRANCH  13  17
ATOM     17  O   UNL     1      27.978  13.592  29.891  1.00  0.00    -0.504 OA
ATOM     18  H   UNL     1      27.297  14.044  29.294  1.00  0.00     0.293 HD
ENDBRANCH  13  17
BRANCH  15  19
ATOM     19  O   UNL     1      29.796  12.375  31.626  1.00  0.00    -0.502 OA
ATOM     20  H   UNL     1      30.609  12.210  32.201  1.00  0.00     0.293 HD
ENDBRANCH  15  19
BRANCH  16  21
ATOM     21  O   UNL     1      31.240  10.016  30.698  1.00  0.00    -0.504 OA
ATOM     22  H   UNL     1      31.930   9.370  30.345  1.00  0.00     0.293 HD
ENDBRANCH  16  21
ENDBRANCH   1  11
BRANCH  10  23
ATOM     23  O   UNL     1      29.960  12.276  25.293  1.00  0.00    -0.500 OA
ATOM     24  H   UNL     1      30.009  12.788  26.166  1.00  0.00     0.294 HD
ENDBRANCH  10  23
BRANCH   5  25
ATOM     25  O   UNL     1      26.843   5.309  23.884  1.00  0.00    -0.507 OA
ATOM     26  H   UNL     1      25.844   5.167  23.989  1.00  0.00     0.293 HD
ENDBRANCH   5  25
BRANCH   7  27
ATOM     27  O   UNL     1      28.499   9.093  21.405  1.00  0.00    -0.507 OA
ATOM     28  H   UNL     1      28.332  10.063  21.180  1.00  0.00     0.293 HD
ENDBRANCH   7  27
TORSDOF 7
ENDMDL
MODEL 8
REMARK VINA RESULT:    -5.403      2.236      3.655
REMARK INTER + INTRA:          -7.050
REMARK INTER:                  -6.671
REMARK INTRA:                  -0.379
REMARK UNBOUND:                -0.383
REMARK SMILES Oc1cc(O)c2cc(O)c(-c3cc(O)c(O)c(O)c3)[o+]c2c1.[Cl-]
REMARK SMILES IDX 10 1 20 2 21 3 22 4 2 5 3 6 4 7 6 8 7 9 8 10 11 11 12 12
REMARK SMILES IDX 13 13 19 14 15 15 17 16 14 17 16 19 18 21 9 23 1 25 5 27
REMARK H PARENT 14 18 16 20 18 22 9 24 1 26 5 28
REMARK Flexibility Score: inf
ROOT
ATOM      1  C   UNL     1      27.393   8.084  27.003  1.00  0.00     0.402 A 
ATOM      2  O   UNL     1      27.427   6.959  27.713  1.00  0.00    -0.202 OA
ATOM      3  C   UNL     1      26.340   6.263  28.029  1.00  0.00     0.368 A 
ATOM      4  C   UNL     1      26.477   5.094  28.781  1.00  0.00     0.162 A 
ATOM      5  C   UNL     1      25.353   4.343  29.130  1.00  0.00     0.128 A 
ATOM      6  C   UNL     1      24.081   4.765  28.724  1.00  0.00     0.093 A 
ATOM      7  C   UNL     1      23.917   5.932  27.970  1.00  0.00     0.136 A 
ATOM      8  C   UNL     1      25.059   6.696  27.611  1.00  0.00     0.125 A 
ATOM      9  C   UNL     1      24.992   7.872  26.845  1.00  0.00     0.078 A 
ATOM     10  C   UNL     1      26.161   8.569  26.527  1.00  0.00     0.223 A 
ENDROOT
BRANCH   1  11
ATOM     11  C   UNL     1      28.673   8.775  26.724  1.00  0.00     0.091 A 
ATOM     12  C   UNL     1      29.106   9.855  27.509  1.00  0.00     0.068 A 
ATOM     13  C   UNL     1      30.327  10.482  27.246  1.00  0.00     0.162 A 
ATOM     14  C   UNL     1      29.499   8.308  25.693  1.00  0.00     0.068 A 
ATOM     15  C   UNL     1      31.145  10.028  26.195  1.00  0.00     0.200 A 
ATOM     16  C   UNL     1      30.725   8.924  25.415  1.00  0.00     0.162 A 
BRANCH  13  17
ATOM     17  O   UNL     1      30.715  11.556  28.048  1.00  0.00    -0.504 OA
ATOM     18  H   UNL     1      31.010  11.436  29.009  1.00  0.00     0.293 HD
ENDBRANCH  13  17
BRANCH  15  19
ATOM     19  O   UNL     1      32.354  10.689  25.961  1.00  0.00    -0.502 OA
ATOM     20  H   UNL     1      33.196  10.539  26.498  1.00  0.00     0.293 HD
ENDBRANCH  15  19
BRANCH  16  21
ATOM     21  O   UNL     1      31.485   8.408  24.364  1.00  0.00    -0.504 OA
ATOM     22  H   UNL     1      31.120   7.803  23.643  1.00  0.00     0.293 HD
ENDBRANCH  16  21
ENDBRANCH   1  11
BRANCH  10  23
ATOM     23  O   UNL     1      26.100   9.709  25.726  1.00  0.00    -0.500 OA
ATOM     24  H   UNL     1      26.856   9.961  25.100  1.00  0.00     0.294 HD
ENDBRANCH  10  23
BRANCH   5  25
ATOM     25  O   UNL     1      25.510   3.181  29.881  1.00  0.00    -0.507 OA
ATOM     26  H   UNL     1      25.646   3.214  30.886  1.00  0.00     0.293 HD
ENDBRANCH   5  25
BRANCH   7  27
ATOM     27  O   UNL     1      22.615   6.287  27.606  1.00  0.00    -0.507 OA
ATOM     28  H   UNL     1      22.027   6.917  28.131  1.00  0.00     0.293 HD
ENDBRANCH   7  27
TORSDOF 7
ENDMDL
MODEL 9
REMARK VINA RESULT:    -5.307      2.730      3.729
REMARK INTER + INTRA:          -6.931
REMARK INTER:                  -6.586
REMARK INTRA:                  -0.345
REMARK UNBOUND:                -0.383
REMARK SMILES Oc1cc(O)c2cc(O)c(-c3cc(O)c(O)c(O)c3)[o+]c2c1.[Cl-]
REMARK SMILES IDX 10 1 20 2 21 3 22 4 2 5 3 6 4 7 6 8 7 9 8 10 11 11 12 12
REMARK SMILES IDX 13 13 19 14 15 15 17 16 14 17 16 19 18 21 9 23 1 25 5 27
REMARK H PARENT 14 18 16 20 18 22 9 24 1 26 5 28
REMARK Flexibility Score: inf
ROOT
ATOM      1  C   UNL     1      29.614  10.103  26.537  1.00  0.00     0.402 A 
ATOM      2  O   UNL     1      28.921   8.977  26.391  1.00  0.00    -0.202 OA
ATOM      3  C   UNL     1      29.297   7.988  25.586  1.00  0.00     0.368 A 
ATOM      4  C   UNL     1      28.501   6.843  25.498  1.00  0.00     0.162 A 
ATOM      5  C   UNL     1      28.869   5.790  24.659  1.00  0.00     0.128 A 
ATOM      6  C   UNL     1      30.042   5.882  23.901  1.00  0.00     0.093 A 
ATOM      7  C   UNL     1      30.857   7.018  23.971  1.00  0.00     0.136 A 
ATOM      8  C   UNL     1      30.487   8.089  24.825  1.00  0.00     0.125 A 
ATOM      9  C   UNL     1      31.249   9.261  24.970  1.00  0.00     0.078 A 
ATOM     10  C   UNL     1      30.823  10.272  25.835  1.00  0.00     0.223 A 
ENDROOT
BRANCH   1  11
ATOM     11  C   UNL     1      29.086  11.136  27.457  1.00  0.00     0.091 A 
ATOM     12  C   UNL     1      28.034  11.983  27.078  1.00  0.00     0.068 A 
ATOM     13  C   UNL     1      27.532  12.938  27.967  1.00  0.00     0.162 A 
ATOM     14  C   UNL     1      29.606  11.235  28.754  1.00  0.00     0.068 A 
ATOM     15  C   UNL     1      28.071  13.053  29.261  1.00  0.00     0.200 A 
ATOM     16  C   UNL     1      29.117  12.186  29.658  1.00  0.00     0.162 A 
BRANCH  13  17
ATOM     17  O   UNL     1      26.489  13.764  27.545  1.00  0.00    -0.504 OA
ATOM     18  H   UNL     1      25.822  13.476  26.840  1.00  0.00     0.293 HD
ENDBRANCH  13  17
BRANCH  15  19
ATOM     19  O   UNL     1      27.546  14.027  30.116  1.00  0.00    -0.502 OA
ATOM     20  H   UNL     1      26.976  14.802  29.810  1.00  0.00     0.293 HD
ENDBRANCH  15  19
BRANCH  16  21
ATOM     21  O   UNL     1      29.696  12.230  30.927  1.00  0.00    -0.504 OA
ATOM     22  H   UNL     1      30.078  11.427  31.405  1.00  0.00     0.293 HD
ENDBRANCH  16  21
ENDBRANCH   1  11
BRANCH  10  23
ATOM     23  O   UNL     1      31.603  11.414  26.016  1.00  0.00    -0.500 OA
ATOM     24  H   UNL     1      31.198  12.295  26.312  1.00  0.00     0.294 HD
ENDBRANCH  10  23
BRANCH   5  25
ATOM     25  O   UNL     1      28.062   4.658  24.585  1.00  0.00    -0.507 OA
ATOM     26  H   UNL     1      27.709   4.316  23.698  1.00  0.00     0.293 HD
ENDBRANCH   5  25
BRANCH   7  27
ATOM     27  O   UNL     1      32.010   7.034  23.180  1.00  0.00    -0.507 OA
ATOM     28  H   UNL     1      32.891   6.620  23.448  1.00  0.00     0.293 HD
ENDBRANCH   7  27
TORSDOF 7
ENDMDL
