MODEL 1
REMARK VINA RESULT:    -4.545      0.000      0.000
REMARK INTER + INTRA:          -9.279
REMARK INTER:                  -8.265
REMARK INTRA:                  -1.014
REMARK UNBOUND:                -1.014
REMARK SMILES CCCCCCCCCCCCCCCC(=O)[O-]
REMARK SMILES IDX 9 1 10 2 11 3 12 4 13 5 14 6 15 7 16 8 17 9 18 10 8 11 7 12
REMARK SMILES IDX 6 13 5 14 4 15 3 16 2 17 1 18
REMARK H PARENT
REMARK Flexibility Score: inf
ROOT
ATOM      1  C   UNL     1      40.943  -7.915   7.654  1.00  0.00     0.000 C 
ENDROOT
BRANCH   1   2
ATOM      2  C   UNL     1      41.690  -8.034   6.317  1.00  0.00     0.000 C 
BRANCH   2   3
ATOM      3  C   UNL     1      41.227  -6.955   5.332  1.00  0.00     0.000 C 
BRANCH   3   4
ATOM      4  C   UNL     1      41.429  -7.409   3.881  1.00  0.00     0.000 C 
BRANCH   4   5
ATOM      5  C   UNL     1      40.950  -6.332   2.896  1.00  0.00     0.000 C 
BRANCH   5   6
ATOM      6  C   UNL     1      40.372  -5.097   3.604  1.00  0.00     0.006 C 
BRANCH   6   7
ATOM      7  C   UNL     1      40.575  -3.805   2.801  1.00  0.00     0.053 C 
BRANCH   7   8
ATOM      8  C   UNL     1      39.260  -3.277   2.320  1.00  0.00     0.041 C 
ATOM      9  O   UNL     1      38.814  -2.188   2.766  1.00  0.00    -0.550 OA
ATOM     10  O   UNL     1      38.503  -4.013   1.417  1.00  0.00    -0.550 OA
ENDBRANCH   7   8
ENDBRANCH   6   7
ENDBRANCH   5   6
ENDBRANCH   4   5
ENDBRANCH   3   4
ENDBRANCH   2   3
ENDBRANCH   1   2
BRANCH   1  11
ATOM     11  C   UNL     1      39.883  -6.798   7.654  1.00  0.00     0.000 C 
BRANCH  11  12
ATOM     12  C   UNL     1      39.415  -6.339   9.047  1.00  0.00    -0.000 C 
BRANCH  12  13
ATOM     13  C   UNL     1      40.277  -6.906  10.187  1.00  0.00    -0.000 C 
BRANCH  13  14
ATOM     14  C   UNL     1      39.461  -7.730  11.201  1.00  0.00    -0.000 C 
BRANCH  14  15
ATOM     15  C   UNL     1      38.034  -8.100  10.751  1.00  0.00    -0.000 C 
BRANCH  15  16
ATOM     16  C   UNL     1      36.898  -7.448  11.566  1.00  0.00    -0.000 C 
BRANCH  16  17
ATOM     17  C   UNL     1      37.323  -6.896  12.938  1.00  0.00    -0.003 C 
ATOM     18  C   UNL     1      36.136  -6.478  13.804  1.00  0.00     0.004 C 
ENDBRANCH  16  17
ENDBRANCH  15  16
ENDBRANCH  14  15
ENDBRANCH  13  14
ENDBRANCH  12  13
ENDBRANCH  11  12
ENDBRANCH   1  11
TORSDOF 14
ENDMDL
MODEL 2
REMARK VINA RESULT:    -4.460      5.024      8.477
REMARK INTER + INTRA:          -9.124
REMARK INTER:                  -7.590
REMARK INTRA:                  -1.534
REMARK UNBOUND:                -1.014
REMARK SMILES CCCCCCCCCCCCCCCC(=O)[O-]
REMARK SMILES IDX 9 1 10 2 11 3 12 4 13 5 14 6 15 7 16 8 17 9 18 10 8 11 7 12
REMARK SMILES IDX 6 13 5 14 4 15 3 16 2 17 1 18
REMARK H PARENT
REMARK Flexibility Score: inf
ROOT
ATOM      1  C   UNL     1      40.091  -8.959   8.731  1.00  0.00     0.000 C 
ENDROOT
BRANCH   1   2
ATOM      2  C   UNL     1      40.641  -7.714   9.440  1.00  0.00     0.000 C 
BRANCH   2   3
ATOM      3  C   UNL     1      39.810  -7.379  10.685  1.00  0.00     0.000 C 
BRANCH   3   4
ATOM      4  C   UNL     1      38.379  -6.983  10.303  1.00  0.00     0.000 C 
BRANCH   4   5
ATOM      5  C   UNL     1      37.355  -7.929  10.950  1.00  0.00     0.000 C 
BRANCH   5   6
ATOM      6  C   UNL     1      37.538  -8.048  12.472  1.00  0.00     0.006 C 
BRANCH   6   7
ATOM      7  C   UNL     1      37.425  -6.696  13.188  1.00  0.00     0.053 C 
BRANCH   7   8
ATOM      8  C   UNL     1      36.075  -6.550  13.816  1.00  0.00     0.041 C 
ATOM      9  O   UNL     1      35.952  -6.577  15.068  1.00  0.00    -0.550 OA
ATOM     10  O   UNL     1      34.945  -6.433  13.016  1.00  0.00    -0.550 OA
ENDBRANCH   7   8
ENDBRANCH   6   7
ENDBRANCH   5   6
ENDBRANCH   4   5
ENDBRANCH   3   4
ENDBRANCH   2   3
ENDBRANCH   1   2
BRANCH   1  11
ATOM     11  C   UNL     1      40.012 -10.191   9.652  1.00  0.00     0.000 C 
BRANCH  11  12
ATOM     12  C   UNL     1      41.303 -11.026   9.743  1.00  0.00    -0.000 C 
BRANCH  12  13
ATOM     13  C   UNL     1      42.087 -11.064   8.421  1.00  0.00    -0.000 C 
BRANCH  13  14
ATOM     14  C   UNL     1      43.613 -11.051   8.630  1.00  0.00    -0.000 C 
BRANCH  14  15
ATOM     15  C   UNL     1      44.394 -10.094   7.708  1.00  0.00    -0.000 C 
BRANCH  15  16
ATOM     16  C   UNL     1      44.316  -8.602   8.092  1.00  0.00    -0.000 C 
BRANCH  16  17
ATOM     17  C   UNL     1      43.541  -7.719   7.098  1.00  0.00    -0.003 C 
ATOM     18  C   UNL     1      43.095  -8.479   5.850  1.00  0.00     0.004 C 
ENDBRANCH  16  17
ENDBRANCH  15  16
ENDBRANCH  14  15
ENDBRANCH  13  14
ENDBRANCH  12  13
ENDBRANCH  11  12
ENDBRANCH   1  11
TORSDOF 14
ENDMDL
MODEL 3
REMARK VINA RESULT:    -4.451      4.374      9.065
REMARK INTER + INTRA:          -9.108
REMARK INTER:                  -8.298
REMARK INTRA:                  -0.811
REMARK UNBOUND:                -1.014
REMARK SMILES CCCCCCCCCCCCCCCC(=O)[O-]
REMARK SMILES IDX 9 1 10 2 11 3 12 4 13 5 14 6 15 7 16 8 17 9 18 10 8 11 7 12
REMARK SMILES IDX 6 13 5 14 4 15 3 16 2 17 1 18
REMARK H PARENT
REMARK Flexibility Score: inf
ROOT
ATOM      1  C   UNL     1      39.585  -6.483   7.756  1.00  0.00     0.000 C 
ENDROOT
BRANCH   1   2
ATOM      2  C   UNL     1      38.842  -6.733   9.076  1.00  0.00     0.000 C 
BRANCH   2   3
ATOM      3  C   UNL     1      38.740  -8.234   9.374  1.00  0.00     0.000 C 
BRANCH   3   4
ATOM      4  C   UNL     1      39.140  -8.537  10.823  1.00  0.00     0.000 C 
BRANCH   4   5
ATOM      5  C   UNL     1      38.433  -7.585  11.799  1.00  0.00     0.000 C 
BRANCH   5   6
ATOM      6  C   UNL     1      36.918  -7.832  11.876  1.00  0.00     0.006 C 
BRANCH   6   7
ATOM      7  C   UNL     1      36.466  -8.307  13.263  1.00  0.00     0.053 C 
BRANCH   7   8
ATOM      8  C   UNL     1      35.614  -7.267  13.919  1.00  0.00     0.041 C 
ATOM      9  O   UNL     1      34.435  -7.539  14.264  1.00  0.00    -0.550 OA
ATOM     10  O   UNL     1      36.106  -5.981  14.104  1.00  0.00    -0.550 OA
ENDBRANCH   7   8
ENDBRANCH   6   7
ENDBRANCH   5   6
ENDBRANCH   4   5
ENDBRANCH   3   4
ENDBRANCH   2   3
ENDBRANCH   1   2
BRANCH   1  11
ATOM     11  C   UNL     1      40.750  -7.463   7.526  1.00  0.00     0.000 C 
BRANCH  11  12
ATOM     12  C   UNL     1      41.400  -7.393   6.132  1.00  0.00    -0.000 C 
BRANCH  12  13
ATOM     13  C   UNL     1      40.579  -6.566   5.128  1.00  0.00    -0.000 C 
BRANCH  13  14
ATOM     14  C   UNL     1      41.002  -6.807   3.666  1.00  0.00    -0.000 C 
BRANCH  14  15
ATOM     15  C   UNL     1      40.916  -5.573   2.746  1.00  0.00    -0.000 C 
BRANCH  15  16
ATOM     16  C   UNL     1      40.845  -4.215   3.473  1.00  0.00    -0.000 C 
BRANCH  16  17
ATOM     17  C   UNL     1      39.865  -3.202   2.855  1.00  0.00    -0.003 C 
ATOM     18  C   UNL     1      38.711  -3.871   2.108  1.00  0.00     0.004 C 
ENDBRANCH  16  17
ENDBRANCH  15  16
ENDBRANCH  14  15
ENDBRANCH  13  14
ENDBRANCH  12  13
ENDBRANCH  11  12
ENDBRANCH   1  11
TORSDOF 14
ENDMDL
MODEL 4
REMARK VINA RESULT:    -4.449      4.482      5.818
REMARK INTER + INTRA:          -9.105
REMARK INTER:                  -7.320
REMARK INTRA:                  -1.785
REMARK UNBOUND:                -1.014
REMARK SMILES CCCCCCCCCCCCCCCC(=O)[O-]
REMARK SMILES IDX 9 1 10 2 11 3 12 4 13 5 14 6 15 7 16 8 17 9 18 10 8 11 7 12
REMARK SMILES IDX 6 13 5 14 4 15 3 16 2 17 1 18
REMARK H PARENT
REMARK Flexibility Score: inf
ROOT
ATOM      1  C   UNL     1      39.115  -8.004  11.734  1.00  0.00     0.000 C 
ENDROOT
BRANCH   1   2
ATOM      2  C   UNL     1      38.269  -7.085  10.841  1.00  0.00     0.000 C 
BRANCH   2   3
ATOM      3  C   UNL     1      38.417  -7.468   9.364  1.00  0.00     0.000 C 
BRANCH   3   4
ATOM      4  C   UNL     1      39.128  -6.362   8.575  1.00  0.00     0.000 C 
BRANCH   4   5
ATOM      5  C   UNL     1      40.144  -6.956   7.588  1.00  0.00     0.000 C 
BRANCH   5   6
ATOM      6  C   UNL     1      41.303  -7.677   8.293  1.00  0.00     0.006 C 
BRANCH   6   7
ATOM      7  C   UNL     1      42.472  -7.983   7.348  1.00  0.00     0.053 C 
BRANCH   7   8
ATOM      8  C   UNL     1      43.266  -9.144   7.857  1.00  0.00     0.041 C 
ATOM      9  O   UNL     1      42.680 -10.175   8.281  1.00  0.00    -0.550 OA
ATOM     10  O   UNL     1      44.652  -9.070   7.910  1.00  0.00    -0.550 OA
ENDBRANCH   7   8
ENDBRANCH   6   7
ENDBRANCH   5   6
ENDBRANCH   4   5
ENDBRANCH   3   4
ENDBRANCH   2   3
ENDBRANCH   1   2
BRANCH   1  11
ATOM     11  C   UNL     1      39.143  -9.463  11.243  1.00  0.00     0.000 C 
BRANCH  11  12
ATOM     12  C   UNL     1      37.976 -10.341  11.729  1.00  0.00    -0.000 C 
BRANCH  12  13
ATOM     13  C   UNL     1      37.832 -10.353  13.260  1.00  0.00    -0.000 C 
BRANCH  13  14
ATOM     14  C   UNL     1      36.460  -9.840  13.736  1.00  0.00    -0.000 C 
BRANCH  14  15
ATOM     15  C   UNL     1      35.604  -9.152  12.654  1.00  0.00    -0.000 C 
BRANCH  15  16
ATOM     16  C   UNL     1      35.299  -7.662  12.907  1.00  0.00    -0.000 C 
BRANCH  16  17
ATOM     17  C   UNL     1      35.768  -7.128  14.272  1.00  0.00    -0.003 C 
ATOM     18  C   UNL     1      36.964  -6.184  14.162  1.00  0.00     0.004 C 
ENDBRANCH  16  17
ENDBRANCH  15  16
ENDBRANCH  14  15
ENDBRANCH  13  14
ENDBRANCH  12  13
ENDBRANCH  11  12
ENDBRANCH   1  11
TORSDOF 14
ENDMDL
MODEL 5
REMARK VINA RESULT:    -4.432      4.370      8.756
REMARK INTER + INTRA:          -9.073
REMARK INTER:                  -7.558
REMARK INTRA:                  -1.515
REMARK UNBOUND:                -1.014
REMARK SMILES CCCCCCCCCCCCCCCC(=O)[O-]
REMARK SMILES IDX 9 1 10 2 11 3 12 4 13 5 14 6 15 7 16 8 17 9 18 10 8 11 7 12
REMARK SMILES IDX 6 13 5 14 4 15 3 16 2 17 1 18
REMARK H PARENT
REMARK Flexibility Score: inf
ROOT
ATOM      1  C   UNL     1      38.363  -6.632   9.152  1.00  0.00     0.000 C 
ENDROOT
BRANCH   1   2
ATOM      2  C   UNL     1      38.366  -7.172  10.589  1.00  0.00     0.000 C 
BRANCH   2   3
ATOM      3  C   UNL     1      37.376  -8.334  10.742  1.00  0.00     0.000 C 
BRANCH   3   4
ATOM      4  C   UNL     1      37.986  -9.473  11.569  1.00  0.00     0.000 C 
BRANCH   4   5
ATOM      5  C   UNL     1      37.333  -9.554  12.957  1.00  0.00     0.000 C 
BRANCH   5   6
ATOM      6  C   UNL     1      35.809  -9.365  12.907  1.00  0.00     0.006 C 
BRANCH   6   7
ATOM      7  C   UNL     1      35.279  -8.520  14.072  1.00  0.00     0.053 C 
BRANCH   7   8
ATOM      8  C   UNL     1      35.484  -7.064  13.796  1.00  0.00     0.041 C 
ATOM      9  O   UNL     1      35.049  -6.553  12.731  1.00  0.00    -0.550 OA
ATOM     10  O   UNL     1      36.202  -6.281  14.693  1.00  0.00    -0.550 OA
ENDBRANCH   7   8
ENDBRANCH   6   7
ENDBRANCH   5   6
ENDBRANCH   4   5
ENDBRANCH   3   4
ENDBRANCH   2   3
ENDBRANCH   1   2
BRANCH   1  11
ATOM     11  C   UNL     1      39.703  -6.847   8.425  1.00  0.00     0.000 C 
BRANCH  11  12
ATOM     12  C   UNL     1      40.769  -7.614   9.228  1.00  0.00    -0.000 C 
BRANCH  12  13
ATOM     13  C   UNL     1      40.844  -9.104   8.855  1.00  0.00    -0.000 C 
BRANCH  13  14
ATOM     14  C   UNL     1      42.094  -9.451   8.024  1.00  0.00    -0.000 C 
BRANCH  14  15
ATOM     15  C   UNL     1      43.085  -8.289   7.811  1.00  0.00    -0.000 C 
BRANCH  15  16
ATOM     16  C   UNL     1      43.123  -7.711   6.382  1.00  0.00    -0.000 C 
BRANCH  16  17
ATOM     17  C   UNL     1      41.895  -8.045   5.518  1.00  0.00    -0.003 C 
ATOM     18  C   UNL     1      41.174  -6.800   5.004  1.00  0.00     0.004 C 
ENDBRANCH  16  17
ENDBRANCH  15  16
ENDBRANCH  14  15
ENDBRANCH  13  14
ENDBRANCH  12  13
ENDBRANCH  11  12
ENDBRANCH   1  11
TORSDOF 14
ENDMDL
MODEL 6
REMARK VINA RESULT:    -4.415      4.292      8.351
REMARK INTER + INTRA:          -9.043
REMARK INTER:                  -7.822
REMARK INTRA:                  -1.221
REMARK UNBOUND:                -1.014
REMARK SMILES CCCCCCCCCCCCCCCC(=O)[O-]
REMARK SMILES IDX 9 1 10 2 11 3 12 4 13 5 14 6 15 7 16 8 17 9 18 10 8 11 7 12
REMARK SMILES IDX 6 13 5 14 4 15 3 16 2 17 1 18
REMARK H PARENT
REMARK Flexibility Score: inf
ROOT
ATOM      1  C   UNL     1      41.354  -8.158   7.826  1.00  0.00     0.000 C 
ENDROOT
BRANCH   1   2
ATOM      2  C   UNL     1      40.781  -7.283   8.950  1.00  0.00     0.000 C 
BRANCH   2   3
ATOM      3  C   UNL     1      39.466  -6.625   8.518  1.00  0.00     0.000 C 
BRANCH   3   4
ATOM      4  C   UNL     1      38.364  -6.860   9.558  1.00  0.00     0.000 C 
BRANCH   4   5
ATOM      5  C   UNL     1      38.952  -7.400  10.871  1.00  0.00     0.000 C 
BRANCH   5   6
ATOM      6  C   UNL     1      37.926  -8.190  11.699  1.00  0.00     0.006 C 
BRANCH   6   7
ATOM      7  C   UNL     1      36.505  -7.628  11.571  1.00  0.00     0.053 C 
BRANCH   7   8
ATOM      8  C   UNL     1      36.118  -6.897  12.818  1.00  0.00     0.041 C 
ATOM      9  O   UNL     1      34.909  -6.822  13.160  1.00  0.00    -0.550 OA
ATOM     10  O   UNL     1      37.089  -6.255  13.577  1.00  0.00    -0.550 OA
ENDBRANCH   7   8
ENDBRANCH   6   7
ENDBRANCH   5   6
ENDBRANCH   4   5
ENDBRANCH   3   4
ENDBRANCH   2   3
ENDBRANCH   1   2
BRANCH   1  11
ATOM     11  C   UNL     1      42.888  -8.280   7.879  1.00  0.00     0.000 C 
BRANCH  11  12
ATOM     12  C   UNL     1      43.629  -7.790   6.621  1.00  0.00    -0.000 C 
BRANCH  12  13
ATOM     13  C   UNL     1      44.085  -8.940   5.707  1.00  0.00    -0.000 C 
BRANCH  13  14
ATOM     14  C   UNL     1      43.473  -8.861   4.296  1.00  0.00    -0.000 C 
BRANCH  14  15
ATOM     15  C   UNL     1      41.933  -8.916   4.242  1.00  0.00    -0.000 C 
BRANCH  15  16
ATOM     16  C   UNL     1      41.293  -8.219   3.025  1.00  0.00    -0.000 C 
BRANCH  16  17
ATOM     17  C   UNL     1      40.877  -6.756   3.264  1.00  0.00    -0.003 C 
ATOM     18  C   UNL     1      40.657  -6.434   4.741  1.00  0.00     0.004 C 
ENDBRANCH  16  17
ENDBRANCH  15  16
ENDBRANCH  14  15
ENDBRANCH  13  14
ENDBRANCH  12  13
ENDBRANCH  11  12
ENDBRANCH   1  11
TORSDOF 14
ENDMDL
MODEL 7
REMARK VINA RESULT:    -4.341      5.586      9.940
REMARK INTER + INTRA:          -8.908
REMARK INTER:                  -7.368
REMARK INTRA:                  -1.541
REMARK UNBOUND:                -1.014
REMARK SMILES CCCCCCCCCCCCCCCC(=O)[O-]
REMARK SMILES IDX 9 1 10 2 11 3 12 4 13 5 14 6 15 7 16 8 17 9 18 10 8 11 7 12
REMARK SMILES IDX 6 13 5 14 4 15 3 16 2 17 1 18
REMARK H PARENT
REMARK Flexibility Score: inf
ROOT
ATOM      1  C   UNL     1      33.517  -7.756  15.235  1.00  0.00     0.000 C 
ENDROOT
BRANCH   1   2
ATOM      2  C   UNL     1      34.138  -9.043  14.671  1.00  0.00     0.000 C 
BRANCH   2   3
ATOM      3  C   UNL     1      35.508  -8.763  14.044  1.00  0.00     0.000 C 
BRANCH   3   4
ATOM      4  C   UNL     1      35.932  -7.306  14.270  1.00  0.00     0.000 C 
BRANCH   4   5
ATOM      5  C   UNL     1      37.002  -6.880  13.254  1.00  0.00     0.000 C 
BRANCH   5   6
ATOM      6  C   UNL     1      37.368  -8.005  12.273  1.00  0.00     0.006 C 
BRANCH   6   7
ATOM      7  C   UNL     1      37.424  -7.525  10.817  1.00  0.00     0.053 C 
BRANCH   7   8
ATOM      8  C   UNL     1      38.782  -7.768  10.239  1.00  0.00     0.041 C 
ATOM      9  O   UNL     1      39.806  -7.310  10.811  1.00  0.00    -0.550 OA
ATOM     10  O   UNL     1      38.914  -8.457   9.039  1.00  0.00    -0.550 OA
ENDBRANCH   7   8
ENDBRANCH   6   7
ENDBRANCH   5   6
ENDBRANCH   4   5
ENDBRANCH   3   4
ENDBRANCH   2   3
ENDBRANCH   1   2
BRANCH   1  11
ATOM     11  C   UNL     1      32.004  -7.880  15.493  1.00  0.00     0.000 C 
BRANCH  11  12
ATOM     12  C   UNL     1      31.295  -9.002  14.711  1.00  0.00    -0.000 C 
BRANCH  12  13
ATOM     13  C   UNL     1      30.672 -10.069  15.627  1.00  0.00    -0.000 C 
BRANCH  13  14
ATOM     14  C   UNL     1      30.880  -9.769  17.123  1.00  0.00    -0.000 C 
BRANCH  14  15
ATOM     15  C   UNL     1      31.838 -10.728  17.858  1.00  0.00    -0.000 C 
BRANCH  15  16
ATOM     16  C   UNL     1      33.204 -10.124  18.245  1.00  0.00    -0.000 C 
BRANCH  16  17
ATOM     17  C   UNL     1      33.132  -8.738  18.910  1.00  0.00    -0.003 C 
ATOM     18  C   UNL     1      34.466  -8.297  19.511  1.00  0.00     0.004 C 
ENDBRANCH  16  17
ENDBRANCH  15  16
ENDBRANCH  14  15
ENDBRANCH  13  14
ENDBRANCH  12  13
ENDBRANCH  11  12
ENDBRANCH   1  11
TORSDOF 14
ENDMDL
MODEL 8
REMARK VINA RESULT:    -4.341      4.888      8.832
REMARK INTER + INTRA:          -8.908
REMARK INTER:                  -7.609
REMARK INTRA:                  -1.299
REMARK UNBOUND:                -1.014
REMARK SMILES CCCCCCCCCCCCCCCC(=O)[O-]
REMARK SMILES IDX 9 1 10 2 11 3 12 4 13 5 14 6 15 7 16 8 17 9 18 10 8 11 7 12
REMARK SMILES IDX 6 13 5 14 4 15 3 16 2 17 1 18
REMARK H PARENT
REMARK Flexibility Score: inf
ROOT
ATOM      1  C   UNL     1      38.825  -7.467  11.363  1.00  0.00     0.000 C 
ENDROOT
BRANCH   1   2
ATOM      2  C   UNL     1      38.920  -8.988  11.551  1.00  0.00     0.000 C 
BRANCH   2   3
ATOM      3  C   UNL     1      37.588  -9.667  11.211  1.00  0.00     0.000 C 
BRANCH   3   4
ATOM      4  C   UNL     1      37.189 -10.672  12.299  1.00  0.00     0.000 C 
BRANCH   4   5
ATOM      5  C   UNL     1      36.862  -9.954  13.617  1.00  0.00     0.000 C 
BRANCH   5   6
ATOM      6  C   UNL     1      35.417  -9.432  13.664  1.00  0.00     0.006 C 
BRANCH   6   7
ATOM      7  C   UNL     1      35.313  -8.037  14.295  1.00  0.00     0.053 C 
BRANCH   7   8
ATOM      8  C   UNL     1      35.668  -6.983  13.295  1.00  0.00     0.041 C 
ATOM      9  O   UNL     1      35.257  -7.071  12.108  1.00  0.00    -0.550 OA
ATOM     10  O   UNL     1      36.496  -5.929  13.660  1.00  0.00    -0.550 OA
ENDBRANCH   7   8
ENDBRANCH   6   7
ENDBRANCH   5   6
ENDBRANCH   4   5
ENDBRANCH   3   4
ENDBRANCH   2   3
ENDBRANCH   1   2
BRANCH   1  11
ATOM     11  C   UNL     1      38.282  -7.063   9.980  1.00  0.00     0.000 C 
BRANCH  11  12
ATOM     12  C   UNL     1      39.261  -6.266   9.098  1.00  0.00    -0.000 C 
BRANCH  12  13
ATOM     13  C   UNL     1      39.909  -7.122   7.997  1.00  0.00    -0.000 C 
BRANCH  13  14
ATOM     14  C   UNL     1      41.083  -7.975   8.515  1.00  0.00    -0.000 C 
BRANCH  14  15
ATOM     15  C   UNL     1      42.033  -8.514   7.427  1.00  0.00    -0.000 C 
BRANCH  15  16
ATOM     16  C   UNL     1      43.471  -7.959   7.476  1.00  0.00    -0.000 C 
BRANCH  16  17
ATOM     17  C   UNL     1      44.530  -8.953   7.983  1.00  0.00    -0.003 C 
ATOM     18  C   UNL     1      43.982 -10.368   8.160  1.00  0.00     0.004 C 
ENDBRANCH  16  17
ENDBRANCH  15  16
ENDBRANCH  14  15
ENDBRANCH  13  14
ENDBRANCH  12  13
ENDBRANCH  11  12
ENDBRANCH   1  11
TORSDOF 14
ENDMDL
MODEL 9
REMARK VINA RESULT:    -4.315      3.676      4.861
REMARK INTER + INTRA:          -8.861
REMARK INTER:                  -7.335
REMARK INTRA:                  -1.527
REMARK UNBOUND:                -1.014
REMARK SMILES CCCCCCCCCCCCCCCC(=O)[O-]
REMARK SMILES IDX 9 1 10 2 11 3 12 4 13 5 14 6 15 7 16 8 17 9 18 10 8 11 7 12
REMARK SMILES IDX 6 13 5 14 4 15 3 16 2 17 1 18
REMARK H PARENT
REMARK Flexibility Score: inf
ROOT
ATOM      1  C   UNL     1      38.741  -6.729   9.277  1.00  0.00     0.000 C 
ENDROOT
BRANCH   1   2
ATOM      2  C   UNL     1      40.250  -6.584   9.524  1.00  0.00     0.000 C 
BRANCH   2   3
ATOM      3  C   UNL     1      41.056  -7.325   8.451  1.00  0.00     0.000 C 
BRANCH   3   4
ATOM      4  C   UNL     1      41.077  -8.835   8.720  1.00  0.00     0.000 C 
BRANCH   4   5
ATOM      5  C   UNL     1      42.330  -9.484   8.113  1.00  0.00     0.000 C 
BRANCH   5   6
ATOM      6  C   UNL     1      43.396  -8.453   7.710  1.00  0.00     0.006 C 
BRANCH   6   7
ATOM      7  C   UNL     1      44.025  -8.755   6.344  1.00  0.00     0.053 C 
BRANCH   7   8
ATOM      8  C   UNL     1      42.972  -8.803   5.283  1.00  0.00     0.041 C 
ATOM      9  O   UNL     1      42.896  -9.793   4.509  1.00  0.00    -0.550 OA
ATOM     10  O   UNL     1      42.104  -7.731   5.115  1.00  0.00    -0.550 OA
ENDBRANCH   7   8
ENDBRANCH   6   7
ENDBRANCH   5   6
ENDBRANCH   4   5
ENDBRANCH   3   4
ENDBRANCH   2   3
ENDBRANCH   1   2
BRANCH   1  11
ATOM     11  C   UNL     1      37.994  -7.359  10.467  1.00  0.00     0.000 C 
BRANCH  11  12
ATOM     12  C   UNL     1      38.889  -7.836  11.626  1.00  0.00    -0.000 C 
BRANCH  12  13
ATOM     13  C   UNL     1      38.503  -9.230  12.147  1.00  0.00    -0.000 C 
BRANCH  13  14
ATOM     14  C   UNL     1      36.980  -9.463  12.164  1.00  0.00    -0.000 C 
BRANCH  14  15
ATOM     15  C   UNL     1      36.359  -9.640  13.564  1.00  0.00    -0.000 C 
BRANCH  15  16
ATOM     16  C   UNL     1      35.355  -8.546  13.980  1.00  0.00    -0.000 C 
BRANCH  16  17
ATOM     17  C   UNL     1      35.376  -7.282  13.102  1.00  0.00    -0.003 C 
ATOM     18  C   UNL     1      36.239  -6.165  13.688  1.00  0.00     0.004 C 
ENDBRANCH  16  17
ENDBRANCH  15  16
ENDBRANCH  14  15
ENDBRANCH  13  14
ENDBRANCH  12  13
ENDBRANCH  11  12
ENDBRANCH   1  11
TORSDOF 14
ENDMDL
