MODEL 1
REMARK VINA RESULT:    -6.875      0.000      0.000
REMARK INTER + INTRA:          -8.575
REMARK INTER:                  -8.281
REMARK INTRA:                  -0.294
REMARK UNBOUND:                -0.294
REMARK SMILES O=c1c(O)c(-c2ccc(O)c(O)c2)oc2cc(O)cc(O)c12
REMARK SMILES IDX 5 1 3 2 2 3 1 4 22 5 20 6 19 7 17 8 16 9 15 10 14 11 6 12
REMARK SMILES IDX 7 13 8 14 9 15 13 16 11 17 10 18 12 20 4 22 21 24 18 26
REMARK H PARENT 10 19 12 21 4 23 21 25 18 27
REMARK Flexibility Score: inf
ROOT
ATOM      1  C   UNL     1       7.613   0.500   2.459  1.00  0.00     0.180 A 
ATOM      2  C   UNL     1       8.877  -0.087   2.640  1.00  0.00     0.208 A 
ATOM      3  C   UNL     1       9.007  -1.164   3.533  1.00  0.00     0.238 A 
ATOM      4  O   UNL     1      10.125  -1.732   3.634  1.00  0.00    -0.285 OA
ATOM      5  C   UNL     1       7.884  -1.603   4.275  1.00  0.00     0.111 A 
ATOM      6  C   UNL     1       7.909  -2.655   5.241  1.00  0.00     0.134 A 
ATOM      7  C   UNL     1       6.713  -3.074   5.837  1.00  0.00     0.093 A 
ATOM      8  C   UNL     1       5.503  -2.438   5.550  1.00  0.00     0.123 A 
ATOM      9  C   UNL     1       5.477  -1.375   4.651  1.00  0.00     0.094 A 
ATOM     10  C   UNL     1       6.647  -0.958   4.011  1.00  0.00     0.146 A 
ATOM     11  O   UNL     1       6.572   0.045   3.145  1.00  0.00    -0.452 OA
ENDROOT
BRANCH   1  12
ATOM     12  C   UNL     1       7.395   1.627   1.525  1.00  0.00     0.025 A 
ATOM     13  C   UNL     1       7.741   2.945   1.871  1.00  0.00     0.016 A 
ATOM     14  C   UNL     1       7.548   3.989   0.963  1.00  0.00     0.051 A 
ATOM     15  C   UNL     1       7.018   3.731  -0.307  1.00  0.00     0.157 A 
ATOM     16  C   UNL     1       6.883   1.372   0.242  1.00  0.00     0.062 A 
ATOM     17  C   UNL     1       6.688   2.419  -0.670  1.00  0.00     0.158 A 
BRANCH  15  18
ATOM     18  O   UNL     1       6.821   4.770  -1.216  1.00  0.00    -0.504 OA
ATOM     19  H   UNL     1       7.562   5.079  -1.834  1.00  0.00     0.293 HD
ENDBRANCH  15  18
BRANCH  17  20
ATOM     20  O   UNL     1       6.168   2.163  -1.938  1.00  0.00    -0.504 OA
ATOM     21  H   UNL     1       5.559   2.826  -2.405  1.00  0.00     0.293 HD
ENDBRANCH  17  20
ENDBRANCH   1  12
BRANCH   2  22
ATOM     22  O   UNL     1       9.989   0.410   1.954  1.00  0.00    -0.502 OA
ATOM     23  H   UNL     1      10.934   0.114   2.163  1.00  0.00     0.293 HD
ENDBRANCH   2  22
BRANCH   6  24
ATOM     24  O   UNL     1       9.075  -3.298   5.667  1.00  0.00    -0.507 OA
ATOM     25  H   UNL     1       9.101  -4.137   6.225  1.00  0.00     0.293 HD
ENDBRANCH   6  24
BRANCH   8  26
ATOM     26  O   UNL     1       4.321  -2.850   6.161  1.00  0.00    -0.508 OA
ATOM     27  H   UNL     1       4.328  -3.378   7.027  1.00  0.00     0.293 HD
ENDBRANCH   8  26
TORSDOF 6
ENDMDL
MODEL 2
REMARK VINA RESULT:    -6.493      1.596      2.587
REMARK INTER + INTRA:          -8.116
REMARK INTER:                  -8.621
REMARK INTRA:                   0.505
REMARK UNBOUND:                -0.294
REMARK SMILES O=c1c(O)c(-c2ccc(O)c(O)c2)oc2cc(O)cc(O)c12
REMARK SMILES IDX 5 1 3 2 2 3 1 4 22 5 20 6 19 7 17 8 16 9 15 10 14 11 6 12
REMARK SMILES IDX 7 13 8 14 9 15 13 16 11 17 10 18 12 20 4 22 21 24 18 26
REMARK H PARENT 10 19 12 21 4 23 21 25 18 27
REMARK Flexibility Score: inf
ROOT
ATOM      1  C   UNL     1       7.081   0.510   2.408  1.00  0.00     0.180 A 
ATOM      2  C   UNL     1       6.281  -0.629   2.221  1.00  0.00     0.208 A 
ATOM      3  C   UNL     1       6.400  -1.701   3.121  1.00  0.00     0.238 A 
ATOM      4  O   UNL     1       5.629  -2.686   2.992  1.00  0.00    -0.285 OA
ATOM      5  C   UNL     1       7.356  -1.642   4.164  1.00  0.00     0.111 A 
ATOM      6  C   UNL     1       7.595  -2.688   5.108  1.00  0.00     0.134 A 
ATOM      7  C   UNL     1       8.493  -2.475   6.162  1.00  0.00     0.093 A 
ATOM      8  C   UNL     1       9.207  -1.280   6.270  1.00  0.00     0.123 A 
ATOM      9  C   UNL     1       9.023  -0.276   5.323  1.00  0.00     0.094 A 
ATOM     10  C   UNL     1       8.106  -0.442   4.282  1.00  0.00     0.146 A 
ATOM     11  O   UNL     1       7.946   0.549   3.415  1.00  0.00    -0.452 OA
ENDROOT
BRANCH   1  12
ATOM     12  C   UNL     1       7.002   1.684   1.510  1.00  0.00     0.025 A 
ATOM     13  C   UNL     1       8.005   2.670   1.502  1.00  0.00     0.016 A 
ATOM     14  C   UNL     1       7.921   3.757   0.628  1.00  0.00     0.051 A 
ATOM     15  C   UNL     1       6.841   3.868  -0.258  1.00  0.00     0.157 A 
ATOM     16  C   UNL     1       5.934   1.791   0.604  1.00  0.00     0.062 A 
ATOM     17  C   UNL     1       5.848   2.882  -0.272  1.00  0.00     0.158 A 
BRANCH  15  18
ATOM     18  O   UNL     1       6.753   4.952  -1.130  1.00  0.00    -0.504 OA
ATOM     19  H   UNL     1       6.187   4.911  -1.970  1.00  0.00     0.293 HD
ENDBRANCH  15  18
BRANCH  17  20
ATOM     20  O   UNL     1       4.779   2.991  -1.161  1.00  0.00    -0.504 OA
ATOM     21  H   UNL     1       3.828   3.116  -0.833  1.00  0.00     0.293 HD
ENDBRANCH  17  20
ENDBRANCH   1  12
BRANCH   2  22
ATOM     22  O   UNL     1       5.397  -0.699   1.141  1.00  0.00    -0.502 OA
ATOM     23  H   UNL     1       5.221   0.090   0.530  1.00  0.00     0.293 HD
ENDBRANCH   2  22
BRANCH   6  24
ATOM     24  O   UNL     1       7.001  -3.952   5.042  1.00  0.00    -0.507 OA
ATOM     25  H   UNL     1       6.099  -4.146   4.637  1.00  0.00     0.293 HD
ENDBRANCH   6  24
BRANCH   8  26
ATOM     26  O   UNL     1      10.112  -1.084   7.312  1.00  0.00    -0.508 OA
ATOM     27  H   UNL     1      10.090  -0.246   7.882  1.00  0.00     0.293 HD
ENDBRANCH   8  26
TORSDOF 6
ENDMDL
MODEL 3
REMARK VINA RESULT:    -6.442      2.070      6.949
REMARK INTER + INTRA:          -8.054
REMARK INTER:                  -7.776
REMARK INTRA:                  -0.279
REMARK UNBOUND:                -0.294
REMARK SMILES O=c1c(O)c(-c2ccc(O)c(O)c2)oc2cc(O)cc(O)c12
REMARK SMILES IDX 5 1 3 2 2 3 1 4 22 5 20 6 19 7 17 8 16 9 15 10 14 11 6 12
REMARK SMILES IDX 7 13 8 14 9 15 13 16 11 17 10 18 12 20 4 22 21 24 18 26
REMARK H PARENT 10 19 12 21 4 23 21 25 18 27
REMARK Flexibility Score: inf
ROOT
ATOM      1  C   UNL     1       7.719  -1.740   4.498  1.00  0.00     0.180 A 
ATOM      2  C   UNL     1       8.847  -1.272   3.803  1.00  0.00     0.208 A 
ATOM      3  C   UNL     1       8.667  -0.374   2.739  1.00  0.00     0.238 A 
ATOM      4  O   UNL     1       9.685   0.099   2.170  1.00  0.00    -0.285 OA
ATOM      5  C   UNL     1       7.359   0.003   2.348  1.00  0.00     0.111 A 
ATOM      6  C   UNL     1       7.056   0.871   1.255  1.00  0.00     0.134 A 
ATOM      7  C   UNL     1       5.729   1.257   1.027  1.00  0.00     0.093 A 
ATOM      8  C   UNL     1       4.688   0.755   1.811  1.00  0.00     0.123 A 
ATOM      9  C   UNL     1       4.967  -0.136   2.845  1.00  0.00     0.094 A 
ATOM     10  C   UNL     1       6.284  -0.510   3.121  1.00  0.00     0.146 A 
ATOM     11  O   UNL     1       6.507  -1.344   4.129  1.00  0.00    -0.452 OA
ENDROOT
BRANCH   1  12
ATOM     12  C   UNL     1       7.830  -2.677   5.639  1.00  0.00     0.025 A 
ATOM     13  C   UNL     1       8.267  -2.244   6.904  1.00  0.00     0.016 A 
ATOM     14  C   UNL     1       8.339  -3.141   7.972  1.00  0.00     0.051 A 
ATOM     15  C   UNL     1       7.964  -4.480   7.797  1.00  0.00     0.157 A 
ATOM     16  C   UNL     1       7.435  -4.015   5.476  1.00  0.00     0.062 A 
ATOM     17  C   UNL     1       7.508  -4.916   6.547  1.00  0.00     0.158 A 
BRANCH  15  18
ATOM     18  O   UNL     1       8.037  -5.379   8.860  1.00  0.00    -0.504 OA
ATOM     19  H   UNL     1       7.808  -5.099   9.806  1.00  0.00     0.293 HD
ENDBRANCH  15  18
BRANCH  17  20
ATOM     20  O   UNL     1       7.128  -6.247   6.377  1.00  0.00    -0.504 OA
ATOM     21  H   UNL     1       7.235  -6.719   5.487  1.00  0.00     0.293 HD
ENDBRANCH  17  20
ENDBRANCH   1  12
BRANCH   2  22
ATOM     22  O   UNL     1      10.125  -1.714   4.156  1.00  0.00    -0.502 OA
ATOM     23  H   UNL     1      10.782  -2.078   3.477  1.00  0.00     0.293 HD
ENDBRANCH   2  22
BRANCH   6  24
ATOM     24  O   UNL     1       8.009   1.359   0.355  1.00  0.00    -0.507 OA
ATOM     25  H   UNL     1       8.880   1.794   0.616  1.00  0.00     0.293 HD
ENDBRANCH   6  24
BRANCH   8  26
ATOM     26  O   UNL     1       3.368   1.131   1.566  1.00  0.00    -0.508 OA
ATOM     27  H   UNL     1       3.003   1.197   0.622  1.00  0.00     0.293 HD
ENDBRANCH   8  26
TORSDOF 6
ENDMDL
MODEL 4
REMARK VINA RESULT:    -6.377      0.833      1.510
REMARK INTER + INTRA:          -7.976
REMARK INTER:                  -7.767
REMARK INTRA:                  -0.209
REMARK UNBOUND:                -0.294
REMARK SMILES O=c1c(O)c(-c2ccc(O)c(O)c2)oc2cc(O)cc(O)c12
REMARK SMILES IDX 5 1 3 2 2 3 1 4 22 5 20 6 19 7 17 8 16 9 15 10 14 11 6 12
REMARK SMILES IDX 7 13 8 14 9 15 13 16 11 17 10 18 12 20 4 22 21 24 18 26
REMARK H PARENT 10 19 12 21 4 23 21 25 18 27
REMARK Flexibility Score: inf
ROOT
ATOM      1  C   UNL     1       7.580   0.353   2.720  1.00  0.00     0.180 A 
ATOM      2  C   UNL     1       8.821  -0.303   2.771  1.00  0.00     0.208 A 
ATOM      3  C   UNL     1       9.039  -1.273   3.763  1.00  0.00     0.238 A 
ATOM      4  O   UNL     1      10.125  -1.909   3.757  1.00  0.00    -0.285 OA
ATOM      5  C   UNL     1       8.033  -1.536   4.724  1.00  0.00     0.111 A 
ATOM      6  C   UNL     1       8.161  -2.466   5.801  1.00  0.00     0.134 A 
ATOM      7  C   UNL     1       7.060  -2.721   6.628  1.00  0.00     0.093 A 
ATOM      8  C   UNL     1       5.857  -2.033   6.458  1.00  0.00     0.123 A 
ATOM      9  C   UNL     1       5.739  -1.084   5.445  1.00  0.00     0.094 A 
ATOM     10  C   UNL     1       6.807  -0.835   4.580  1.00  0.00     0.146 A 
ATOM     11  O   UNL     1       6.644   0.061   3.615  1.00  0.00    -0.452 OA
ENDROOT
BRANCH   1  12
ATOM     12  C   UNL     1       7.271   1.376   1.695  1.00  0.00     0.025 A 
ATOM     13  C   UNL     1       6.314   1.144   0.692  1.00  0.00     0.016 A 
ATOM     14  C   UNL     1       6.021   2.134  -0.249  1.00  0.00     0.051 A 
ATOM     15  C   UNL     1       6.671   3.374  -0.194  1.00  0.00     0.157 A 
ATOM     16  C   UNL     1       7.903   2.629   1.758  1.00  0.00     0.062 A 
ATOM     17  C   UNL     1       7.611   3.623   0.813  1.00  0.00     0.158 A 
BRANCH  15  18
ATOM     18  O   UNL     1       6.383   4.364  -1.133  1.00  0.00    -0.504 OA
ATOM     19  H   UNL     1       5.582   4.292  -1.749  1.00  0.00     0.293 HD
ENDBRANCH  15  18
BRANCH  17  20
ATOM     20  O   UNL     1       8.250   4.861   0.870  1.00  0.00    -0.504 OA
ATOM     21  H   UNL     1       8.678   5.274   0.050  1.00  0.00     0.293 HD
ENDBRANCH  17  20
ENDBRANCH   1  12
BRANCH   2  22
ATOM     22  O   UNL     1       9.829   0.025   1.860  1.00  0.00    -0.502 OA
ATOM     23  H   UNL     1      10.385  -0.677   1.387  1.00  0.00     0.293 HD
ENDBRANCH   2  22
BRANCH   6  24
ATOM     24  O   UNL     1       9.345  -3.142   6.115  1.00  0.00    -0.507 OA
ATOM     25  H   UNL     1      10.015  -2.843   6.806  1.00  0.00     0.293 HD
ENDBRANCH   6  24
BRANCH   8  26
ATOM     26  O   UNL     1       4.772  -2.280   7.297  1.00  0.00    -0.508 OA
ATOM     27  H   UNL     1       4.713  -3.128   7.850  1.00  0.00     0.293 HD
ENDBRANCH   8  26
TORSDOF 6
ENDMDL
MODEL 5
REMARK VINA RESULT:    -6.282      2.284      3.880
REMARK INTER + INTRA:          -7.861
REMARK INTER:                  -7.685
REMARK INTRA:                  -0.176
REMARK UNBOUND:                -0.294
REMARK SMILES O=c1c(O)c(-c2ccc(O)c(O)c2)oc2cc(O)cc(O)c12
REMARK SMILES IDX 5 1 3 2 2 3 1 4 22 5 20 6 19 7 17 8 16 9 15 10 14 11 6 12
REMARK SMILES IDX 7 13 8 14 9 15 13 16 11 17 10 18 12 20 4 22 21 24 18 26
REMARK H PARENT 10 19 12 21 4 23 21 25 18 27
REMARK Flexibility Score: inf
ROOT
ATOM      1  C   UNL     1       5.906  -1.130   4.414  1.00  0.00     0.180 A 
ATOM      2  C   UNL     1       6.389  -2.424   4.668  1.00  0.00     0.208 A 
ATOM      3  C   UNL     1       5.947  -3.105   5.815  1.00  0.00     0.238 A 
ATOM      4  O   UNL     1       6.326  -4.291   5.996  1.00  0.00    -0.285 OA
ATOM      5  C   UNL     1       5.070  -2.462   6.721  1.00  0.00     0.111 A 
ATOM      6  C   UNL     1       4.593  -3.038   7.938  1.00  0.00     0.134 A 
ATOM      7  C   UNL     1       3.644  -2.348   8.704  1.00  0.00     0.093 A 
ATOM      8  C   UNL     1       3.204  -1.076   8.331  1.00  0.00     0.123 A 
ATOM      9  C   UNL     1       3.706  -0.482   7.175  1.00  0.00     0.094 A 
ATOM     10  C   UNL     1       4.624  -1.160   6.370  1.00  0.00     0.146 A 
ATOM     11  O   UNL     1       5.058  -0.565   5.267  1.00  0.00    -0.452 OA
ENDROOT
BRANCH   1  12
ATOM     12  C   UNL     1       6.314  -0.356   3.221  1.00  0.00     0.025 A 
ATOM     13  C   UNL     1       5.388  -0.005   2.222  1.00  0.00     0.016 A 
ATOM     14  C   UNL     1       5.792   0.747   1.116  1.00  0.00     0.051 A 
ATOM     15  C   UNL     1       7.122   1.170   0.998  1.00  0.00     0.157 A 
ATOM     16  C   UNL     1       7.641   0.089   3.106  1.00  0.00     0.062 A 
ATOM     17  C   UNL     1       8.048   0.842   1.996  1.00  0.00     0.158 A 
BRANCH  15  18
ATOM     18  O   UNL     1       7.530   1.918  -0.106  1.00  0.00    -0.504 OA
ATOM     19  H   UNL     1       7.405   1.577  -1.052  1.00  0.00     0.293 HD
ENDBRANCH  15  18
BRANCH  17  20
ATOM     20  O   UNL     1       9.369   1.271   1.879  1.00  0.00    -0.504 OA
ATOM     21  H   UNL     1      10.054   1.081   2.602  1.00  0.00     0.293 HD
ENDBRANCH  17  20
ENDBRANCH   1  12
BRANCH   2  22
ATOM     22  O   UNL     1       7.313  -3.013   3.800  1.00  0.00    -0.502 OA
ATOM     23  H   UNL     1       8.313  -2.966   3.957  1.00  0.00     0.293 HD
ENDBRANCH   2  22
BRANCH   6  24
ATOM     24  O   UNL     1       5.032  -4.263   8.449  1.00  0.00    -0.507 OA
ATOM     25  H   UNL     1       4.471  -5.098   8.510  1.00  0.00     0.293 HD
ENDBRANCH   6  24
BRANCH   8  26
ATOM     26  O   UNL     1       2.274  -0.390   9.109  1.00  0.00    -0.508 OA
ATOM     27  H   UNL     1       1.354  -0.156   8.751  1.00  0.00     0.293 HD
ENDBRANCH   8  26
TORSDOF 6
ENDMDL
MODEL 6
REMARK VINA RESULT:    -6.185      2.192      3.257
REMARK INTER + INTRA:          -7.744
REMARK INTER:                  -7.615
REMARK INTRA:                  -0.129
REMARK UNBOUND:                -0.294
REMARK SMILES O=c1c(O)c(-c2ccc(O)c(O)c2)oc2cc(O)cc(O)c12
REMARK SMILES IDX 5 1 3 2 2 3 1 4 22 5 20 6 19 7 17 8 16 9 15 10 14 11 6 12
REMARK SMILES IDX 7 13 8 14 9 15 13 16 11 17 10 18 12 20 4 22 21 24 18 26
REMARK H PARENT 10 19 12 21 4 23 21 25 18 27
REMARK Flexibility Score: inf
ROOT
ATOM      1  C   UNL     1       6.882  -0.254   4.297  1.00  0.00     0.180 A 
ATOM      2  C   UNL     1       6.872   0.418   5.531  1.00  0.00     0.208 A 
ATOM      3  C   UNL     1       6.948  -0.331   6.717  1.00  0.00     0.238 A 
ATOM      4  O   UNL     1       7.014   0.281   7.814  1.00  0.00    -0.285 OA
ATOM      5  C   UNL     1       6.978  -1.745   6.655  1.00  0.00     0.111 A 
ATOM      6  C   UNL     1       7.010  -2.607   7.794  1.00  0.00     0.134 A 
ATOM      7  C   UNL     1       7.145  -3.990   7.610  1.00  0.00     0.093 A 
ATOM      8  C   UNL     1       7.184  -4.546   6.329  1.00  0.00     0.123 A 
ATOM      9  C   UNL     1       7.097  -3.718   5.212  1.00  0.00     0.094 A 
ATOM     10  C   UNL     1       7.001  -2.332   5.362  1.00  0.00     0.146 A 
ATOM     11  O   UNL     1       6.943  -1.580   4.271  1.00  0.00    -0.452 OA
ENDROOT
BRANCH   1  12
ATOM     12  C   UNL     1       6.819   0.467   3.006  1.00  0.00     0.025 A 
ATOM     13  C   UNL     1       5.724   0.321   2.137  1.00  0.00     0.016 A 
ATOM     14  C   UNL     1       5.676   1.031   0.935  1.00  0.00     0.051 A 
ATOM     15  C   UNL     1       6.714   1.906   0.590  1.00  0.00     0.157 A 
ATOM     16  C   UNL     1       7.846   1.363   2.665  1.00  0.00     0.062 A 
ATOM     17  C   UNL     1       7.800   2.075   1.458  1.00  0.00     0.158 A 
BRANCH  15  18
ATOM     18  O   UNL     1       6.671   2.615  -0.610  1.00  0.00    -0.504 OA
ATOM     19  H   UNL     1       7.481   2.681  -1.215  1.00  0.00     0.293 HD
ENDBRANCH  15  18
BRANCH  17  20
ATOM     20  O   UNL     1       8.828   2.953   1.116  1.00  0.00    -0.504 OA
ATOM     21  H   UNL     1       8.675   3.723   0.475  1.00  0.00     0.293 HD
ENDBRANCH  17  20
ENDBRANCH   1  12
BRANCH   2  22
ATOM     22  O   UNL     1       6.766   1.812   5.572  1.00  0.00    -0.502 OA
ATOM     23  H   UNL     1       7.170   2.410   4.862  1.00  0.00     0.293 HD
ENDBRANCH   2  22
BRANCH   6  24
ATOM     24  O   UNL     1       6.889  -2.165   9.114  1.00  0.00    -0.507 OA
ATOM     25  H   UNL     1       6.178  -1.533   9.449  1.00  0.00     0.293 HD
ENDBRANCH   6  24
BRANCH   8  26
ATOM     26  O   UNL     1       7.300  -5.923   6.156  1.00  0.00    -0.508 OA
ATOM     27  H   UNL     1       7.654  -6.522   6.893  1.00  0.00     0.293 HD
ENDBRANCH   8  26
TORSDOF 6
ENDMDL
MODEL 7
REMARK VINA RESULT:    -6.057      2.514      3.443
REMARK INTER + INTRA:          -7.590
REMARK INTER:                  -7.531
REMARK INTRA:                  -0.060
REMARK UNBOUND:                -0.294
REMARK SMILES O=c1c(O)c(-c2ccc(O)c(O)c2)oc2cc(O)cc(O)c12
REMARK SMILES IDX 5 1 3 2 2 3 1 4 22 5 20 6 19 7 17 8 16 9 15 10 14 11 6 12
REMARK SMILES IDX 7 13 8 14 9 15 13 16 11 17 10 18 12 20 4 22 21 24 18 26
REMARK H PARENT 10 19 12 21 4 23 21 25 18 27
REMARK Flexibility Score: inf
ROOT
ATOM      1  C   UNL     1       7.614  -0.447   4.154  1.00  0.00     0.180 A 
ATOM      2  C   UNL     1       7.554  -1.851   4.165  1.00  0.00     0.208 A 
ATOM      3  C   UNL     1       7.888  -2.539   5.343  1.00  0.00     0.238 A 
ATOM      4  O   UNL     1       7.760  -3.790   5.368  1.00  0.00    -0.285 OA
ATOM      5  C   UNL     1       8.330  -1.817   6.478  1.00  0.00     0.111 A 
ATOM      6  C   UNL     1       8.737  -2.412   7.711  1.00  0.00     0.134 A 
ATOM      7  C   UNL     1       9.055  -1.593   8.802  1.00  0.00     0.093 A 
ATOM      8  C   UNL     1       9.042  -0.201   8.686  1.00  0.00     0.123 A 
ATOM      9  C   UNL     1       8.700   0.388   7.471  1.00  0.00     0.094 A 
ATOM     10  C   UNL     1       8.342  -0.401   6.376  1.00  0.00     0.146 A 
ATOM     11  O   UNL     1       8.001   0.203   5.244  1.00  0.00    -0.452 OA
ENDROOT
BRANCH   1  12
ATOM     12  C   UNL     1       7.264   0.348   2.955  1.00  0.00     0.025 A 
ATOM     13  C   UNL     1       6.031   0.181   2.299  1.00  0.00     0.016 A 
ATOM     14  C   UNL     1       5.713   0.960   1.184  1.00  0.00     0.051 A 
ATOM     15  C   UNL     1       6.615   1.925   0.716  1.00  0.00     0.157 A 
ATOM     16  C   UNL     1       8.154   1.331   2.494  1.00  0.00     0.062 A 
ATOM     17  C   UNL     1       7.836   2.113   1.374  1.00  0.00     0.158 A 
BRANCH  15  18
ATOM     18  O   UNL     1       6.302   2.703  -0.398  1.00  0.00    -0.504 OA
ATOM     19  H   UNL     1       6.944   3.402  -0.752  1.00  0.00     0.293 HD
ENDBRANCH  15  18
BRANCH  17  20
ATOM     20  O   UNL     1       8.728   3.079   0.911  1.00  0.00    -0.504 OA
ATOM     21  H   UNL     1       8.406   3.908   0.424  1.00  0.00     0.293 HD
ENDBRANCH  17  20
ENDBRANCH   1  12
BRANCH   2  22
ATOM     22  O   UNL     1       7.188  -2.548   3.010  1.00  0.00    -0.502 OA
ATOM     23  H   UNL     1       7.156  -2.111   2.097  1.00  0.00     0.293 HD
ENDBRANCH   2  22
BRANCH   6  24
ATOM     24  O   UNL     1       8.869  -3.790   7.909  1.00  0.00    -0.507 OA
ATOM     25  H   UNL     1       9.527  -4.383   7.427  1.00  0.00     0.293 HD
ENDBRANCH   6  24
BRANCH   8  26
ATOM     26  O   UNL     1       9.377   0.606   9.771  1.00  0.00    -0.508 OA
ATOM     27  H   UNL     1       9.761   1.535   9.641  1.00  0.00     0.293 HD
ENDBRANCH   8  26
TORSDOF 6
ENDMDL
MODEL 8
REMARK VINA RESULT:    -6.054      2.304      4.714
REMARK INTER + INTRA:          -7.586
REMARK INTER:                  -7.277
REMARK INTRA:                  -0.309
REMARK UNBOUND:                -0.294
REMARK SMILES O=c1c(O)c(-c2ccc(O)c(O)c2)oc2cc(O)cc(O)c12
REMARK SMILES IDX 5 1 3 2 2 3 1 4 22 5 20 6 19 7 17 8 16 9 15 10 14 11 6 12
REMARK SMILES IDX 7 13 8 14 9 15 13 16 11 17 10 18 12 20 4 22 21 24 18 26
REMARK H PARENT 10 19 12 21 4 23 21 25 18 27
REMARK Flexibility Score: inf
ROOT
ATOM      1  C   UNL     1       6.335  -1.815   5.000  1.00  0.00     0.180 A 
ATOM      2  C   UNL     1       5.418  -1.303   5.932  1.00  0.00     0.208 A 
ATOM      3  C   UNL     1       5.093  -2.071   7.062  1.00  0.00     0.238 A 
ATOM      4  O   UNL     1       4.329  -1.575   7.930  1.00  0.00    -0.285 OA
ATOM      5  C   UNL     1       5.648  -3.365   7.218  1.00  0.00     0.111 A 
ATOM      6  C   UNL     1       5.355  -4.250   8.300  1.00  0.00     0.134 A 
ATOM      7  C   UNL     1       6.044  -5.465   8.405  1.00  0.00     0.093 A 
ATOM      8  C   UNL     1       6.969  -5.855   7.433  1.00  0.00     0.123 A 
ATOM      9  C   UNL     1       7.220  -5.024   6.344  1.00  0.00     0.094 A 
ATOM     10  C   UNL     1       6.577  -3.789   6.231  1.00  0.00     0.146 A 
ATOM     11  O   UNL     1       6.864  -3.019   5.189  1.00  0.00    -0.452 OA
ENDROOT
BRANCH   1  12
ATOM     12  C   UNL     1       6.738  -1.059   3.793  1.00  0.00     0.025 A 
ATOM     13  C   UNL     1       5.949  -1.060   2.629  1.00  0.00     0.016 A 
ATOM     14  C   UNL     1       6.337  -0.319   1.511  1.00  0.00     0.051 A 
ATOM     15  C   UNL     1       7.512   0.444   1.542  1.00  0.00     0.157 A 
ATOM     16  C   UNL     1       7.903  -0.275   3.826  1.00  0.00     0.062 A 
ATOM     17  C   UNL     1       8.295   0.468   2.703  1.00  0.00     0.158 A 
BRANCH  15  18
ATOM     18  O   UNL     1       7.905   1.184   0.428  1.00  0.00    -0.504 OA
ATOM     19  H   UNL     1       8.858   1.507   0.317  1.00  0.00     0.293 HD
ENDBRANCH  15  18
BRANCH  17  20
ATOM     20  O   UNL     1       9.459   1.234   2.735  1.00  0.00    -0.504 OA
ATOM     21  H   UNL     1       9.598   2.014   2.102  1.00  0.00     0.293 HD
ENDBRANCH  17  20
ENDBRANCH   1  12
BRANCH   2  22
ATOM     22  O   UNL     1       4.824  -0.055   5.722  1.00  0.00    -0.502 OA
ATOM     23  H   UNL     1       5.322   0.721   5.303  1.00  0.00     0.293 HD
ENDBRANCH   2  22
BRANCH   6  24
ATOM     24  O   UNL     1       4.386  -3.999   9.276  1.00  0.00    -0.507 OA
ATOM     25  H   UNL     1       3.884  -4.707   9.788  1.00  0.00     0.293 HD
ENDBRANCH   6  24
BRANCH   8  26
ATOM     26  O   UNL     1       7.637  -7.073   7.536  1.00  0.00    -0.508 OA
ATOM     27  H   UNL     1       8.599  -7.177   7.233  1.00  0.00     0.293 HD
ENDBRANCH   8  26
TORSDOF 6
ENDMDL
MODEL 9
REMARK VINA RESULT:    -6.034      2.333      7.081
REMARK INTER + INTRA:          -7.563
REMARK INTER:                  -7.300
REMARK INTRA:                  -0.263
REMARK UNBOUND:                -0.294
REMARK SMILES O=c1c(O)c(-c2ccc(O)c(O)c2)oc2cc(O)cc(O)c12
REMARK SMILES IDX 5 1 3 2 2 3 1 4 22 5 20 6 19 7 17 8 16 9 15 10 14 11 6 12
REMARK SMILES IDX 7 13 8 14 9 15 13 16 11 17 10 18 12 20 4 22 21 24 18 26
REMARK H PARENT 10 19 12 21 4 23 21 25 18 27
REMARK Flexibility Score: inf
ROOT
ATOM      1  C   UNL     1       5.634  -0.888   5.389  1.00  0.00     0.180 A 
ATOM      2  C   UNL     1       6.960  -0.740   5.829  1.00  0.00     0.208 A 
ATOM      3  C   UNL     1       7.889  -0.102   4.992  1.00  0.00     0.238 A 
ATOM      4  O   UNL     1       9.055   0.093   5.422  1.00  0.00    -0.285 OA
ATOM      5  C   UNL     1       7.495   0.331   3.702  1.00  0.00     0.111 A 
ATOM      6  C   UNL     1       8.363   0.948   2.751  1.00  0.00     0.134 A 
ATOM      7  C   UNL     1       7.837   1.431   1.546  1.00  0.00     0.093 A 
ATOM      8  C   UNL     1       6.487   1.261   1.231  1.00  0.00     0.123 A 
ATOM      9  C   UNL     1       5.643   0.610   2.128  1.00  0.00     0.094 A 
ATOM     10  C   UNL     1       6.130   0.151   3.354  1.00  0.00     0.146 A 
ATOM     11  O   UNL     1       5.286  -0.443   4.188  1.00  0.00    -0.452 OA
ENDROOT
BRANCH   1  12
ATOM     12  C   UNL     1       4.595  -1.536   6.221  1.00  0.00     0.025 A 
ATOM     13  C   UNL     1       4.561  -2.930   6.398  1.00  0.00     0.016 A 
ATOM     14  C   UNL     1       3.585  -3.517   7.208  1.00  0.00     0.051 A 
ATOM     15  C   UNL     1       2.638  -2.719   7.862  1.00  0.00     0.157 A 
ATOM     16  C   UNL     1       3.656  -0.740   6.897  1.00  0.00     0.062 A 
ATOM     17  C   UNL     1       2.675  -1.327   7.709  1.00  0.00     0.158 A 
BRANCH  15  18
ATOM     18  O   UNL     1       1.661  -3.300   8.669  1.00  0.00    -0.504 OA
ATOM     19  H   UNL     1       1.839  -4.155   9.184  1.00  0.00     0.293 HD
ENDBRANCH  15  18
BRANCH  17  20
ATOM     20  O   UNL     1       1.736  -0.535   8.368  1.00  0.00    -0.504 OA
ATOM     21  H   UNL     1       1.849   0.470   8.440  1.00  0.00     0.293 HD
ENDBRANCH  17  20
ENDBRANCH   1  12
BRANCH   2  22
ATOM     22  O   UNL     1       7.348  -1.242   7.075  1.00  0.00    -0.502 OA
ATOM     23  H   UNL     1       7.985  -0.746   7.687  1.00  0.00     0.293 HD
ENDBRANCH   2  22
BRANCH   6  24
ATOM     24  O   UNL     1       9.743   1.089   2.928  1.00  0.00    -0.507 OA
ATOM     25  H   UNL     1      10.181   1.720   3.580  1.00  0.00     0.293 HD
ENDBRANCH   6  24
BRANCH   8  26
ATOM     26  O   UNL     1       5.975   1.729   0.022  1.00  0.00    -0.508 OA
ATOM     27  H   UNL     1       6.084   2.696  -0.260  1.00  0.00     0.293 HD
ENDBRANCH   8  26
TORSDOF 6
ENDMDL
