MODEL 1
REMARK VINA RESULT:    -1.180      0.000      0.000
REMARK INTER + INTRA:          -1.214
REMARK INTER:                  -1.214
REMARK INTRA:                   0.000
REMARK UNBOUND:                 0.000
REMARK SMILES O=c1ccc2ccc(O)cc2o1
REMARK SMILES IDX 6 1 7 2 8 3 10 4 11 5 5 6 4 7 3 8 2 9 1 10 12 11 9 12
REMARK H PARENT 9 13
REMARK Flexibility Score: inf
ROOT
ATOM      1  C   UNL     1      19.641  39.944  11.228  1.00  0.00     0.016 A 
ATOM      2  C   UNL     1      18.529  39.644  10.436  1.00  0.00     0.047 A 
ATOM      3  C   UNL     1      17.665  40.661  10.014  1.00  0.00     0.119 A 
ATOM      4  C   UNL     1      17.915  41.991  10.388  1.00  0.00     0.094 A 
ATOM      5  C   UNL     1      19.024  42.301  11.180  1.00  0.00     0.142 A 
ATOM      6  C   UNL     1      19.894  41.271  11.604  1.00  0.00     0.018 A 
ATOM      7  C   UNL     1      20.996  41.611  12.395  1.00  0.00     0.019 A 
ATOM      8  C   UNL     1      21.202  42.947  12.742  1.00  0.00     0.094 A 
ATOM      9  C   UNL     1      20.300  43.913  12.286  1.00  0.00     0.336 A 
ATOM     10  O   UNL     1      20.469  45.124  12.588  1.00  0.00    -0.246 OA
ATOM     11  O   UNL     1      19.260  43.562  11.534  1.00  0.00    -0.423 OA
ENDROOT
BRANCH   3  12
ATOM     12  O   UNL     1      16.562  40.343   9.225  1.00  0.00    -0.508 OA
ATOM     13  H   UNL     1      15.775  39.825   9.598  1.00  0.00     0.293 HD
ENDBRANCH   3  12
TORSDOF 1
ENDMDL
MODEL 2
REMARK VINA RESULT:    -0.524      0.765      4.226
REMARK INTER + INTRA:          -0.540
REMARK INTER:                  -0.540
REMARK INTRA:                   0.000
REMARK UNBOUND:                 0.000
REMARK SMILES O=c1ccc2ccc(O)cc2o1
REMARK SMILES IDX 6 1 7 2 8 3 10 4 11 5 5 6 4 7 3 8 2 9 1 10 12 11 9 12
REMARK H PARENT 9 13
REMARK Flexibility Score: inf
ROOT
ATOM      1  C   UNL     1      20.895  41.457  12.678  1.00  0.00     0.016 A 
ATOM      2  C   UNL     1      21.213  42.745  13.120  1.00  0.00     0.047 A 
ATOM      3  C   UNL     1      20.484  43.850  12.664  1.00  0.00     0.119 A 
ATOM      4  C   UNL     1      19.429  43.666  11.759  1.00  0.00     0.094 A 
ATOM      5  C   UNL     1      19.103  42.382  11.310  1.00  0.00     0.142 A 
ATOM      6  C   UNL     1      19.841  41.269  11.773  1.00  0.00     0.018 A 
ATOM      7  C   UNL     1      19.492  39.997  11.307  1.00  0.00     0.019 A 
ATOM      8  C   UNL     1      18.436  39.865  10.407  1.00  0.00     0.094 A 
ATOM      9  C   UNL     1      17.750  41.011   9.992  1.00  0.00     0.336 A 
ATOM     10  O   UNL     1      16.792  40.912   9.180  1.00  0.00    -0.246 OA
ATOM     11  O   UNL     1      18.101  42.209  10.451  1.00  0.00    -0.423 OA
ENDROOT
BRANCH   3  12
ATOM     12  O   UNL     1      20.816  45.125  13.116  1.00  0.00    -0.508 OA
ATOM     13  H   UNL     1      20.104  45.816  13.322  1.00  0.00     0.293 HD
ENDBRANCH   3  12
TORSDOF 1
ENDMDL
