MODEL 1
REMARK VINA RESULT:     0.531      0.000      0.000
REMARK INTER + INTRA:          -0.005
REMARK INTER:                   1.214
REMARK INTRA:                  -1.219
REMARK UNBOUND:                -1.219
REMARK SMILES CCCCCCCCCCCCCCCCCCCCCCCC(=O)[O-]
REMARK SMILES IDX 13 1 14 2 15 3 16 4 17 5 18 6 19 7 20 8 21 9 22 10 23 11
REMARK SMILES IDX 24 12 25 13 26 14 12 15 11 16 10 17 9 18 8 19 7 20 6 21 5 22
REMARK SMILES IDX 4 23 3 24 2 25 1 26
REMARK H PARENT
REMARK Flexibility Score: inf
ROOT
ATOM      1  C   UNL     1       5.801  13.670  19.183  1.00  0.00     0.000 C 
ENDROOT
BRANCH   1   2
ATOM      2  C   UNL     1       6.049  14.712  20.286  1.00  0.00     0.000 C 
BRANCH   2   3
ATOM      3  C   UNL     1       6.258  16.131  19.727  1.00  0.00     0.000 C 
BRANCH   3   4
ATOM      4  C   UNL     1       5.289  17.158  20.335  1.00  0.00     0.000 C 
BRANCH   4   5
ATOM      5  C   UNL     1       4.428  16.562  21.462  1.00  0.00     0.000 C 
BRANCH   5   6
ATOM      6  C   UNL     1       4.046  17.607  22.524  1.00  0.00     0.000 C 
BRANCH   6   7
ATOM      7  C   UNL     1       4.956  17.548  23.764  1.00  0.00     0.000 C 
BRANCH   7   8
ATOM      8  C   UNL     1       5.753  18.846  23.984  1.00  0.00     0.000 C 
BRANCH   8   9
ATOM      9  C   UNL     1       6.972  19.027  23.062  1.00  0.00     0.000 C 
BRANCH   9  10
ATOM     10  C   UNL     1       8.287  18.574  23.713  1.00  0.00     0.006 C 
BRANCH  10  11
ATOM     11  C   UNL     1       8.232  17.091  24.091  1.00  0.00     0.053 C 
BRANCH  11  12
ATOM     12  C   UNL     1       7.935  16.929  25.548  1.00  0.00     0.041 C 
ATOM     13  O   UNL     1       7.259  15.946  25.952  1.00  0.00    -0.550 OA
ATOM     14  O   UNL     1       8.358  17.892  26.456  1.00  0.00    -0.550 OA
ENDBRANCH  11  12
ENDBRANCH  10  11
ENDBRANCH   9  10
ENDBRANCH   8   9
ENDBRANCH   7   8
ENDBRANCH   6   7
ENDBRANCH   5   6
ENDBRANCH   4   5
ENDBRANCH   3   4
ENDBRANCH   2   3
ENDBRANCH   1   2
BRANCH   1  15
ATOM     15  C   UNL     1       5.406  14.311  17.840  1.00  0.00     0.000 C 
BRANCH  15  16
ATOM     16  C   UNL     1       3.880  14.360  17.630  1.00  0.00     0.000 C 
BRANCH  16  17
ATOM     17  C   UNL     1       3.421  14.122  16.180  1.00  0.00     0.000 C 
BRANCH  17  18
ATOM     18  C   UNL     1       1.990  13.565  16.094  1.00  0.00    -0.000 C 
BRANCH  18  19
ATOM     19  C   UNL     1       1.521  13.372  14.642  1.00  0.00    -0.000 C 
BRANCH  19  20
ATOM     20  C   UNL     1       2.380  14.155  13.633  1.00  0.00    -0.000 C 
BRANCH  20  21
ATOM     21  C   UNL     1       3.301  13.242  12.806  1.00  0.00    -0.000 C 
BRANCH  21  22
ATOM     22  C   UNL     1       4.066  13.952  11.673  1.00  0.00    -0.000 C 
BRANCH  22  23
ATOM     23  C   UNL     1       4.725  12.986  10.662  1.00  0.00    -0.000 C 
BRANCH  23  24
ATOM     24  C   UNL     1       4.620  13.454   9.198  1.00  0.00    -0.000 C 
BRANCH  24  25
ATOM     25  C   UNL     1       3.250  14.070   8.876  1.00  0.00    -0.003 C 
ATOM     26  C   UNL     1       2.135  13.042   9.043  1.00  0.00     0.004 C 
ENDBRANCH  24  25
ENDBRANCH  23  24
ENDBRANCH  22  23
ENDBRANCH  21  22
ENDBRANCH  20  21
ENDBRANCH  19  20
ENDBRANCH  18  19
ENDBRANCH  17  18
ENDBRANCH  16  17
ENDBRANCH  15  16
ENDBRANCH   1  15
TORSDOF 22
ENDMDL
MODEL 2
REMARK VINA RESULT:     1.703      4.967     12.187
REMARK INTER + INTRA:           2.673
REMARK INTER:                   4.027
REMARK INTRA:                  -1.354
REMARK UNBOUND:                -1.219
REMARK SMILES CCCCCCCCCCCCCCCCCCCCCCCC(=O)[O-]
REMARK SMILES IDX 13 1 14 2 15 3 16 4 17 5 18 6 19 7 20 8 21 9 22 10 23 11
REMARK SMILES IDX 24 12 25 13 26 14 12 15 11 16 10 17 9 18 8 19 7 20 6 21 5 22
REMARK SMILES IDX 4 23 3 24 2 25 1 26
REMARK H PARENT
REMARK Flexibility Score: inf
ROOT
ATOM      1  C   UNL     1       4.128  13.947  16.892  1.00  0.00     0.000 C 
ENDROOT
BRANCH   1   2
ATOM      2  C   UNL     1       2.890  13.089  17.198  1.00  0.00     0.000 C 
BRANCH   2   3
ATOM      3  C   UNL     1       1.979  12.900  15.971  1.00  0.00     0.000 C 
BRANCH   3   4
ATOM      4  C   UNL     1       1.653  14.226  15.265  1.00  0.00     0.000 C 
BRANCH   4   5
ATOM      5  C   UNL     1       1.900  14.164  13.747  1.00  0.00     0.000 C 
BRANCH   5   6
ATOM      6  C   UNL     1       3.081  15.046  13.308  1.00  0.00     0.000 C 
BRANCH   6   7
ATOM      7  C   UNL     1       4.109  14.277  12.460  1.00  0.00     0.000 C 
BRANCH   7   8
ATOM      8  C   UNL     1       3.501  13.060  11.741  1.00  0.00     0.000 C 
BRANCH   8   9
ATOM      9  C   UNL     1       2.723  13.384  10.453  1.00  0.00     0.000 C 
BRANCH   9  10
ATOM     10  C   UNL     1       3.424  12.875   9.186  1.00  0.00     0.006 C 
BRANCH  10  11
ATOM     11  C   UNL     1       4.946  12.875   9.361  1.00  0.00     0.053 C 
BRANCH  11  12
ATOM     12  C   UNL     1       5.514  14.220   9.032  1.00  0.00     0.041 C 
ATOM     13  O   UNL     1       6.760  14.377   8.943  1.00  0.00    -0.550 OA
ATOM     14  O   UNL     1       4.670  15.313   8.877  1.00  0.00    -0.550 OA
ENDBRANCH  11  12
ENDBRANCH  10  11
ENDBRANCH   9  10
ENDBRANCH   8   9
ENDBRANCH   7   8
ENDBRANCH   6   7
ENDBRANCH   5   6
ENDBRANCH   4   5
ENDBRANCH   3   4
ENDBRANCH   2   3
ENDBRANCH   1   2
BRANCH   1  15
ATOM     15  C   UNL     1       5.376  13.483  17.664  1.00  0.00     0.000 C 
BRANCH  15  16
ATOM     16  C   UNL     1       5.349  13.902  19.146  1.00  0.00     0.000 C 
BRANCH  16  17
ATOM     17  C   UNL     1       5.537  15.410  19.393  1.00  0.00     0.000 C 
BRANCH  17  18
ATOM     18  C   UNL     1       5.266  15.812  20.853  1.00  0.00    -0.000 C 
BRANCH  18  19
ATOM     19  C   UNL     1       6.141  16.990  21.312  1.00  0.00    -0.000 C 
BRANCH  19  20
ATOM     20  C   UNL     1       5.333  18.084  22.031  1.00  0.00    -0.000 C 
BRANCH  20  21
ATOM     21  C   UNL     1       6.172  18.858  23.063  1.00  0.00    -0.000 C 
BRANCH  21  22
ATOM     22  C   UNL     1       7.695  18.777  22.846  1.00  0.00    -0.000 C 
BRANCH  22  23
ATOM     23  C   UNL     1       8.460  18.130  24.022  1.00  0.00    -0.000 C 
BRANCH  23  24
ATOM     24  C   UNL     1       7.625  18.007  25.311  1.00  0.00    -0.000 C 
BRANCH  24  25
ATOM     25  C   UNL     1       7.043  16.598  25.502  1.00  0.00    -0.003 C 
ATOM     26  C   UNL     1       7.610  15.628  24.468  1.00  0.00     0.004 C 
ENDBRANCH  24  25
ENDBRANCH  23  24
ENDBRANCH  22  23
ENDBRANCH  21  22
ENDBRANCH  20  21
ENDBRANCH  19  20
ENDBRANCH  18  19
ENDBRANCH  17  18
ENDBRANCH  16  17
ENDBRANCH  15  16
ENDBRANCH   1  15
TORSDOF 22
ENDMDL
MODEL 3
REMARK VINA RESULT:     2.331      1.487      2.599
REMARK INTER + INTRA:           4.110
REMARK INTER:                   4.412
REMARK INTRA:                  -0.302
REMARK UNBOUND:                -1.219
REMARK SMILES CCCCCCCCCCCCCCCCCCCCCCCC(=O)[O-]
REMARK SMILES IDX 13 1 14 2 15 3 16 4 17 5 18 6 19 7 20 8 21 9 22 10 23 11
REMARK SMILES IDX 24 12 25 13 26 14 12 15 11 16 10 17 9 18 8 19 7 20 6 21 5 22
REMARK SMILES IDX 4 23 3 24 2 25 1 26
REMARK H PARENT
REMARK Flexibility Score: inf
ROOT
ATOM      1  C   UNL     1       6.152  15.537  18.912  1.00  0.00     0.000 C 
ENDROOT
BRANCH   1   2
ATOM      2  C   UNL     1       5.200  16.652  19.375  1.00  0.00     0.000 C 
BRANCH   2   3
ATOM      3  C   UNL     1       4.721  16.462  20.825  1.00  0.00     0.000 C 
BRANCH   3   4
ATOM      4  C   UNL     1       5.737  16.975  21.858  1.00  0.00     0.000 C 
BRANCH   4   5
ATOM      5  C   UNL     1       5.072  17.759  23.003  1.00  0.00     0.000 C 
BRANCH   5   6
ATOM      6  C   UNL     1       5.365  19.267  22.928  1.00  0.00     0.000 C 
BRANCH   6   7
ATOM      7  C   UNL     1       6.855  19.589  23.140  1.00  0.00     0.000 C 
BRANCH   7   8
ATOM      8  C   UNL     1       7.779  18.409  22.791  1.00  0.00     0.000 C 
BRANCH   8   9
ATOM      9  C   UNL     1       8.555  17.815  23.981  1.00  0.00     0.000 C 
BRANCH   9  10
ATOM     10  C   UNL     1       8.101  16.393  24.342  1.00  0.00     0.006 C 
BRANCH  10  11
ATOM     11  C   UNL     1       7.333  16.380  25.667  1.00  0.00     0.053 C 
BRANCH  11  12
ATOM     12  C   UNL     1       7.413  17.717  26.335  1.00  0.00     0.041 C 
ATOM     13  O   UNL     1       8.406  18.007  27.054  1.00  0.00    -0.550 OA
ATOM     14  O   UNL     1       6.367  18.623  26.209  1.00  0.00    -0.550 OA
ENDBRANCH  11  12
ENDBRANCH  10  11
ENDBRANCH   9  10
ENDBRANCH   8   9
ENDBRANCH   7   8
ENDBRANCH   6   7
ENDBRANCH   5   6
ENDBRANCH   4   5
ENDBRANCH   3   4
ENDBRANCH   2   3
ENDBRANCH   1   2
BRANCH   1  15
ATOM     15  C   UNL     1       5.440  14.183  18.744  1.00  0.00     0.000 C 
BRANCH  15  16
ATOM     16  C   UNL     1       6.241  13.193  17.876  1.00  0.00     0.000 C 
BRANCH  16  17
ATOM     17  C   UNL     1       7.466  13.801  17.169  1.00  0.00     0.000 C 
BRANCH  17  18
ATOM     18  C   UNL     1       7.379  13.700  15.637  1.00  0.00    -0.000 C 
BRANCH  18  19
ATOM     19  C   UNL     1       5.961  13.355  15.150  1.00  0.00    -0.000 C 
BRANCH  19  20
ATOM     20  C   UNL     1       5.433  14.355  14.106  1.00  0.00    -0.000 C 
BRANCH  20  21
ATOM     21  C   UNL     1       3.958  14.110  13.746  1.00  0.00    -0.000 C 
BRANCH  21  22
ATOM     22  C   UNL     1       3.735  13.164  12.551  1.00  0.00    -0.000 C 
BRANCH  22  23
ATOM     23  C   UNL     1       3.829  13.862  11.175  1.00  0.00    -0.000 C 
BRANCH  23  24
ATOM     24  C   UNL     1       3.790  12.888   9.982  1.00  0.00    -0.000 C 
BRANCH  24  25
ATOM     25  C   UNL     1       4.850  13.218   8.919  1.00  0.00    -0.003 C 
ATOM     26  C   UNL     1       6.086  13.846   9.557  1.00  0.00     0.004 C 
ENDBRANCH  24  25
ENDBRANCH  23  24
ENDBRANCH  22  23
ENDBRANCH  21  22
ENDBRANCH  20  21
ENDBRANCH  19  20
ENDBRANCH  18  19
ENDBRANCH  17  18
ENDBRANCH  16  17
ENDBRANCH  15  16
ENDBRANCH   1  15
TORSDOF 22
ENDMDL
MODEL 4
REMARK VINA RESULT:     2.377      2.053      3.338
REMARK INTER + INTRA:           4.215
REMARK INTER:                   5.918
REMARK INTRA:                  -1.703
REMARK UNBOUND:                -1.219
REMARK SMILES CCCCCCCCCCCCCCCCCCCCCCCC(=O)[O-]
REMARK SMILES IDX 13 1 14 2 15 3 16 4 17 5 18 6 19 7 20 8 21 9 22 10 23 11
REMARK SMILES IDX 24 12 25 13 26 14 12 15 11 16 10 17 9 18 8 19 7 20 6 21 5 22
REMARK SMILES IDX 4 23 3 24 2 25 1 26
REMARK H PARENT
REMARK Flexibility Score: inf
ROOT
ATOM      1  C   UNL     1       5.268  15.225  18.229  1.00  0.00     0.000 C 
ENDROOT
BRANCH   1   2
ATOM      2  C   UNL     1       5.032  16.179  19.412  1.00  0.00     0.000 C 
BRANCH   2   3
ATOM      3  C   UNL     1       6.093  16.030  20.517  1.00  0.00     0.000 C 
BRANCH   3   4
ATOM      4  C   UNL     1       6.952  17.292  20.691  1.00  0.00     0.000 C 
BRANCH   4   5
ATOM      5  C   UNL     1       8.002  17.145  21.805  1.00  0.00     0.000 C 
BRANCH   5   6
ATOM      6  C   UNL     1       8.224  18.455  22.579  1.00  0.00     0.000 C 
BRANCH   6   7
ATOM      7  C   UNL     1       8.755  18.216  24.004  1.00  0.00     0.000 C 
BRANCH   7   8
ATOM      8  C   UNL     1       8.197  16.932  24.643  1.00  0.00     0.000 C 
BRANCH   8   9
ATOM      9  C   UNL     1       7.063  17.151  25.661  1.00  0.00     0.000 C 
BRANCH   9  10
ATOM     10  C   UNL     1       5.690  17.332  24.997  1.00  0.00     0.006 C 
BRANCH  10  11
ATOM     11  C   UNL     1       5.338  18.816  24.856  1.00  0.00     0.053 C 
BRANCH  11  12
ATOM     12  C   UNL     1       5.103  19.167  23.421  1.00  0.00     0.041 C 
ATOM     13  O   UNL     1       5.407  20.311  22.990  1.00  0.00    -0.550 OA
ATOM     14  O   UNL     1       4.497  18.250  22.570  1.00  0.00    -0.550 OA
ENDBRANCH  11  12
ENDBRANCH  10  11
ENDBRANCH   9  10
ENDBRANCH   8   9
ENDBRANCH   7   8
ENDBRANCH   6   7
ENDBRANCH   5   6
ENDBRANCH   4   5
ENDBRANCH   3   4
ENDBRANCH   2   3
ENDBRANCH   1   2
BRANCH   1  15
ATOM     15  C   UNL     1       5.477  13.768  18.676  1.00  0.00     0.000 C 
BRANCH  15  16
ATOM     16  C   UNL     1       6.573  13.049  17.866  1.00  0.00     0.000 C 
BRANCH  16  17
ATOM     17  C   UNL     1       7.457  13.976  17.013  1.00  0.00     0.000 C 
BRANCH  17  18
ATOM     18  C   UNL     1       7.382  13.652  15.511  1.00  0.00    -0.000 C 
BRANCH  18  19
ATOM     19  C   UNL     1       5.957  13.289  15.059  1.00  0.00    -0.000 C 
BRANCH  19  20
ATOM     20  C   UNL     1       5.314  14.383  14.189  1.00  0.00    -0.000 C 
BRANCH  20  21
ATOM     21  C   UNL     1       3.932  13.975  13.650  1.00  0.00    -0.000 C 
BRANCH  21  22
ATOM     22  C   UNL     1       3.968  13.053  12.417  1.00  0.00    -0.000 C 
BRANCH  22  23
ATOM     23  C   UNL     1       3.854  13.805  11.071  1.00  0.00    -0.000 C 
BRANCH  23  24
ATOM     24  C   UNL     1       3.678  12.875   9.855  1.00  0.00    -0.000 C 
BRANCH  24  25
ATOM     25  C   UNL     1       4.906  12.876   8.932  1.00  0.00    -0.003 C 
ATOM     26  C   UNL     1       5.929  13.914   9.384  1.00  0.00     0.004 C 
ENDBRANCH  24  25
ENDBRANCH  23  24
ENDBRANCH  22  23
ENDBRANCH  21  22
ENDBRANCH  20  21
ENDBRANCH  19  20
ENDBRANCH  18  19
ENDBRANCH  17  18
ENDBRANCH  16  17
ENDBRANCH  15  16
ENDBRANCH   1  15
TORSDOF 22
ENDMDL
MODEL 5
REMARK VINA RESULT:     2.604      4.926     11.940
REMARK INTER + INTRA:           4.733
REMARK INTER:                   4.736
REMARK INTRA:                  -0.003
REMARK UNBOUND:                -1.219
REMARK SMILES CCCCCCCCCCCCCCCCCCCCCCCC(=O)[O-]
REMARK SMILES IDX 13 1 14 2 15 3 16 4 17 5 18 6 19 7 20 8 21 9 22 10 23 11
REMARK SMILES IDX 24 12 25 13 26 14 12 15 11 16 10 17 9 18 8 19 7 20 6 21 5 22
REMARK SMILES IDX 4 23 3 24 2 25 1 26
REMARK H PARENT
REMARK Flexibility Score: inf
ROOT
ATOM      1  C   UNL     1       5.159  15.464  19.873  1.00  0.00     0.000 C 
ENDROOT
BRANCH   1   2
ATOM      2  C   UNL     1       5.172  15.374  18.338  1.00  0.00     0.000 C 
BRANCH   2   3
ATOM      3  C   UNL     1       4.861  13.958  17.822  1.00  0.00     0.000 C 
BRANCH   3   4
ATOM      4  C   UNL     1       4.069  13.966  16.505  1.00  0.00     0.000 C 
BRANCH   4   5
ATOM      5  C   UNL     1       2.561  13.743  16.720  1.00  0.00     0.000 C 
BRANCH   5   6
ATOM      6  C   UNL     1       1.887  13.082  15.506  1.00  0.00     0.000 C 
BRANCH   6   7
ATOM      7  C   UNL     1       1.498  14.101  14.420  1.00  0.00     0.000 C 
BRANCH   7   8
ATOM      8  C   UNL     1       2.347  13.968  13.143  1.00  0.00     0.000 C 
BRANCH   8   9
ATOM      9  C   UNL     1       3.852  13.748  13.380  1.00  0.00     0.000 C 
BRANCH   9  10
ATOM     10  C   UNL     1       4.629  13.479  12.083  1.00  0.00     0.006 C 
BRANCH  10  11
ATOM     11  C   UNL     1       3.678  13.353  10.888  1.00  0.00     0.053 C 
BRANCH  11  12
ATOM     12  C   UNL     1       4.281  13.978   9.669  1.00  0.00     0.041 C 
ATOM     13  O   UNL     1       3.562  14.645   8.878  1.00  0.00    -0.550 OA
ATOM     14  O   UNL     1       5.624  13.779   9.376  1.00  0.00    -0.550 OA
ENDBRANCH  11  12
ENDBRANCH  10  11
ENDBRANCH   9  10
ENDBRANCH   8   9
ENDBRANCH   7   8
ENDBRANCH   6   7
ENDBRANCH   5   6
ENDBRANCH   4   5
ENDBRANCH   3   4
ENDBRANCH   2   3
ENDBRANCH   1   2
BRANCH   1  15
ATOM     15  C   UNL     1       6.569  15.609  20.470  1.00  0.00     0.000 C 
BRANCH  15  16
ATOM     16  C   UNL     1       7.041  17.074  20.531  1.00  0.00     0.000 C 
BRANCH  16  17
ATOM     17  C   UNL     1       6.390  17.915  21.645  1.00  0.00     0.000 C 
BRANCH  17  18
ATOM     18  C   UNL     1       4.902  17.583  21.846  1.00  0.00    -0.000 C 
BRANCH  18  19
ATOM     19  C   UNL     1       4.273  18.381  23.001  1.00  0.00    -0.000 C 
BRANCH  19  20
ATOM     20  C   UNL     1       5.203  19.486  23.534  1.00  0.00    -0.000 C 
BRANCH  20  21
ATOM     21  C   UNL     1       5.423  19.391  25.053  1.00  0.00    -0.000 C 
BRANCH  21  22
ATOM     22  C   UNL     1       5.647  17.963  25.585  1.00  0.00    -0.000 C 
BRANCH  22  23
ATOM     23  C   UNL     1       6.553  17.094  24.681  1.00  0.00    -0.000 C 
BRANCH  23  24
ATOM     24  C   UNL     1       7.967  16.873  25.251  1.00  0.00    -0.000 C 
BRANCH  24  25
ATOM     25  C   UNL     1       8.903  18.060  24.976  1.00  0.00    -0.003 C 
ATOM     26  C   UNL     1       8.995  18.349  23.481  1.00  0.00     0.004 C 
ENDBRANCH  24  25
ENDBRANCH  23  24
ENDBRANCH  22  23
ENDBRANCH  21  22
ENDBRANCH  20  21
ENDBRANCH  19  20
ENDBRANCH  18  19
ENDBRANCH  17  18
ENDBRANCH  16  17
ENDBRANCH  15  16
ENDBRANCH   1  15
TORSDOF 22
ENDMDL
MODEL 6
REMARK VINA RESULT:     2.993     13.841     17.412
REMARK INTER + INTRA:           5.624
REMARK INTER:                   6.601
REMARK INTRA:                  -0.977
REMARK UNBOUND:                -1.219
REMARK SMILES CCCCCCCCCCCCCCCCCCCCCCCC(=O)[O-]
REMARK SMILES IDX 13 1 14 2 15 3 16 4 17 5 18 6 19 7 20 8 21 9 22 10 23 11
REMARK SMILES IDX 24 12 25 13 26 14 12 15 11 16 10 17 9 18 8 19 7 20 6 21 5 22
REMARK SMILES IDX 4 23 3 24 2 25 1 26
REMARK H PARENT
REMARK Flexibility Score: inf
ROOT
ATOM      1  C   UNL     1       2.136  25.965  28.077  1.00  0.00     0.000 C 
ENDROOT
BRANCH   1   2
ATOM      2  C   UNL     1       2.439  27.279  27.340  1.00  0.00     0.000 C 
BRANCH   2   3
ATOM      3  C   UNL     1       2.455  28.499  28.279  1.00  0.00     0.000 C 
BRANCH   3   4
ATOM      4  C   UNL     1       2.121  29.812  27.553  1.00  0.00     0.000 C 
BRANCH   4   5
ATOM      5  C   UNL     1       2.741  31.041  28.239  1.00  0.00     0.000 C 
BRANCH   5   6
ATOM      6  C   UNL     1       1.677  31.995  28.807  1.00  0.00     0.000 C 
BRANCH   6   7
ATOM      7  C   UNL     1       0.653  32.436  27.746  1.00  0.00     0.000 C 
BRANCH   7   8
ATOM      8  C   UNL     1      -0.775  32.558  28.307  1.00  0.00     0.000 C 
BRANCH   8   9
ATOM      9  C   UNL     1      -1.815  33.125  27.324  1.00  0.00     0.000 C 
BRANCH   9  10
ATOM     10  C   UNL     1      -2.995  32.171  27.086  1.00  0.00     0.006 C 
BRANCH  10  11
ATOM     11  C   UNL     1      -2.961  31.595  25.667  1.00  0.00     0.053 C 
BRANCH  11  12
ATOM     12  C   UNL     1      -3.588  32.547  24.698  1.00  0.00     0.041 C 
ATOM     13  O   UNL     1      -2.956  32.914  23.672  1.00  0.00    -0.550 OA
ATOM     14  O   UNL     1      -4.849  33.072  24.953  1.00  0.00    -0.550 OA
ENDBRANCH  11  12
ENDBRANCH  10  11
ENDBRANCH   9  10
ENDBRANCH   8   9
ENDBRANCH   7   8
ENDBRANCH   6   7
ENDBRANCH   5   6
ENDBRANCH   4   5
ENDBRANCH   3   4
ENDBRANCH   2   3
ENDBRANCH   1   2
BRANCH   1  15
ATOM     15  C   UNL     1       2.583  24.724  27.285  1.00  0.00     0.000 C 
BRANCH  15  16
ATOM     16  C   UNL     1       1.403  23.824  26.872  1.00  0.00     0.000 C 
BRANCH  16  17
ATOM     17  C   UNL     1       0.339  23.615  27.965  1.00  0.00     0.000 C 
BRANCH  17  18
ATOM     18  C   UNL     1      -0.495  22.341  27.746  1.00  0.00    -0.000 C 
BRANCH  18  19
ATOM     19  C   UNL     1      -0.898  22.148  26.274  1.00  0.00    -0.000 C 
BRANCH  19  20
ATOM     20  C   UNL     1      -1.884  20.983  26.077  1.00  0.00    -0.000 C 
BRANCH  20  21
ATOM     21  C   UNL     1      -3.348  21.405  26.286  1.00  0.00    -0.000 C 
BRANCH  21  22
ATOM     22  C   UNL     1      -3.852  21.293  27.737  1.00  0.00    -0.000 C 
BRANCH  22  23
ATOM     23  C   UNL     1      -5.390  21.194  27.860  1.00  0.00    -0.000 C 
BRANCH  23  24
ATOM     24  C   UNL     1      -5.888  19.803  28.296  1.00  0.00    -0.000 C 
BRANCH  24  25
ATOM     25  C   UNL     1      -5.546  18.709  27.273  1.00  0.00    -0.003 C 
ATOM     26  C   UNL     1      -5.592  17.326  27.915  1.00  0.00     0.004 C 
ENDBRANCH  24  25
ENDBRANCH  23  24
ENDBRANCH  22  23
ENDBRANCH  21  22
ENDBRANCH  20  21
ENDBRANCH  19  20
ENDBRANCH  18  19
ENDBRANCH  17  18
ENDBRANCH  16  17
ENDBRANCH  15  16
ENDBRANCH   1  15
TORSDOF 22
ENDMDL
MODEL 7
REMARK VINA RESULT:     3.132      6.269     12.266
REMARK INTER + INTRA:           5.941
REMARK INTER:                   6.579
REMARK INTRA:                  -0.638
REMARK UNBOUND:                -1.219
REMARK SMILES CCCCCCCCCCCCCCCCCCCCCCCC(=O)[O-]
REMARK SMILES IDX 13 1 14 2 15 3 16 4 17 5 18 6 19 7 20 8 21 9 22 10 23 11
REMARK SMILES IDX 24 12 25 13 26 14 12 15 11 16 10 17 9 18 8 19 7 20 6 21 5 22
REMARK SMILES IDX 4 23 3 24 2 25 1 26
REMARK H PARENT
REMARK Flexibility Score: inf
ROOT
ATOM      1  C   UNL     1       4.786  20.623  26.378  1.00  0.00     0.000 C 
ENDROOT
BRANCH   1   2
ATOM      2  C   UNL     1       5.089  19.443  25.440  1.00  0.00     0.000 C 
BRANCH   2   3
ATOM      3  C   UNL     1       5.488  19.895  24.024  1.00  0.00     0.000 C 
BRANCH   3   4
ATOM      4  C   UNL     1       4.689  19.178  22.924  1.00  0.00     0.000 C 
BRANCH   4   5
ATOM      5  C   UNL     1       4.587  17.661  23.161  1.00  0.00     0.000 C 
BRANCH   5   6
ATOM      6  C   UNL     1       4.039  16.911  21.936  1.00  0.00     0.000 C 
BRANCH   6   7
ATOM      7  C   UNL     1       5.150  16.474  20.965  1.00  0.00     0.000 C 
BRANCH   7   8
ATOM      8  C   UNL     1       6.187  17.581  20.705  1.00  0.00     0.000 C 
BRANCH   8   9
ATOM      9  C   UNL     1       7.564  17.350  21.353  1.00  0.00     0.000 C 
BRANCH   9  10
ATOM     10  C   UNL     1       7.467  16.835  22.796  1.00  0.00     0.006 C 
BRANCH  10  11
ATOM     11  C   UNL     1       8.106  17.822  23.778  1.00  0.00     0.053 C 
BRANCH  11  12
ATOM     12  C   UNL     1       7.959  17.335  25.185  1.00  0.00     0.041 C 
ATOM     13  O   UNL     1       8.456  17.992  26.138  1.00  0.00    -0.550 OA
ATOM     14  O   UNL     1       7.321  16.128  25.441  1.00  0.00    -0.550 OA
ENDBRANCH  11  12
ENDBRANCH  10  11
ENDBRANCH   9  10
ENDBRANCH   8   9
ENDBRANCH   7   8
ENDBRANCH   6   7
ENDBRANCH   5   6
ENDBRANCH   4   5
ENDBRANCH   3   4
ENDBRANCH   2   3
ENDBRANCH   1   2
BRANCH   1  15
ATOM     15  C   UNL     1       4.358  21.890  25.616  1.00  0.00     0.000 C 
BRANCH  15  16
ATOM     16  C   UNL     1       4.292  23.134  26.522  1.00  0.00     0.000 C 
BRANCH  16  17
ATOM     17  C   UNL     1       3.166  24.126  26.174  1.00  0.00     0.000 C 
BRANCH  17  18
ATOM     18  C   UNL     1       1.953  23.999  27.112  1.00  0.00    -0.000 C 
BRANCH  18  19
ATOM     19  C   UNL     1       0.927  22.969  26.610  1.00  0.00    -0.000 C 
BRANCH  19  20
ATOM     20  C   UNL     1      -0.262  22.800  27.572  1.00  0.00    -0.000 C 
BRANCH  20  21
ATOM     21  C   UNL     1      -1.227  21.687  27.130  1.00  0.00    -0.000 C 
BRANCH  21  22
ATOM     22  C   UNL     1      -2.720  22.063  27.196  1.00  0.00    -0.000 C 
BRANCH  22  23
ATOM     23  C   UNL     1      -3.674  20.848  27.142  1.00  0.00    -0.000 C 
BRANCH  23  24
ATOM     24  C   UNL     1      -4.994  21.064  27.906  1.00  0.00    -0.000 C 
BRANCH  24  25
ATOM     25  C   UNL     1      -6.054  20.007  27.556  1.00  0.00    -0.003 C 
ATOM     26  C   UNL     1      -5.422  18.627  27.408  1.00  0.00     0.004 C 
ENDBRANCH  24  25
ENDBRANCH  23  24
ENDBRANCH  22  23
ENDBRANCH  21  22
ENDBRANCH  20  21
ENDBRANCH  19  20
ENDBRANCH  18  19
ENDBRANCH  17  18
ENDBRANCH  16  17
ENDBRANCH  15  16
ENDBRANCH   1  15
TORSDOF 22
ENDMDL
MODEL 8
REMARK VINA RESULT:     3.176      7.296     11.222
REMARK INTER + INTRA:           6.042
REMARK INTER:                   8.171
REMARK INTRA:                  -2.129
REMARK UNBOUND:                -1.219
REMARK SMILES CCCCCCCCCCCCCCCCCCCCCCCC(=O)[O-]
REMARK SMILES IDX 13 1 14 2 15 3 16 4 17 5 18 6 19 7 20 8 21 9 22 10 23 11
REMARK SMILES IDX 24 12 25 13 26 14 12 15 11 16 10 17 9 18 8 19 7 20 6 21 5 22
REMARK SMILES IDX 4 23 3 24 2 25 1 26
REMARK H PARENT
REMARK Flexibility Score: inf
ROOT
ATOM      1  C   UNL     1       5.260  19.225  25.232  1.00  0.00     0.000 C 
ENDROOT
BRANCH   1   2
ATOM      2  C   UNL     1       5.057  20.356  26.254  1.00  0.00     0.000 C 
BRANCH   2   3
ATOM      3  C   UNL     1       4.436  21.618  25.627  1.00  0.00     0.000 C 
BRANCH   3   4
ATOM      4  C   UNL     1       4.418  22.813  26.594  1.00  0.00     0.000 C 
BRANCH   4   5
ATOM      5  C   UNL     1       3.505  23.952  26.109  1.00  0.00     0.000 C 
BRANCH   5   6
ATOM      6  C   UNL     1       2.273  24.140  27.010  1.00  0.00     0.000 C 
BRANCH   6   7
ATOM      7  C   UNL     1       1.092  23.247  26.590  1.00  0.00     0.000 C 
BRANCH   7   8
ATOM      8  C   UNL     1       0.098  22.989  27.736  1.00  0.00     0.000 C 
BRANCH   8   9
ATOM      9  C   UNL     1      -0.854  21.800  27.518  1.00  0.00     0.000 C 
BRANCH   9  10
ATOM     10  C   UNL     1      -2.198  22.215  26.902  1.00  0.00     0.006 C 
BRANCH  10  11
ATOM     11  C   UNL     1      -2.965  20.995  26.381  1.00  0.00     0.053 C 
BRANCH  11  12
ATOM     12  C   UNL     1      -4.110  20.667  27.287  1.00  0.00     0.041 C 
ATOM     13  O   UNL     1      -4.460  19.469  27.459  1.00  0.00    -0.550 OA
ATOM     14  O   UNL     1      -4.827  21.687  27.901  1.00  0.00    -0.550 OA
ENDBRANCH  11  12
ENDBRANCH  10  11
ENDBRANCH   9  10
ENDBRANCH   8   9
ENDBRANCH   7   8
ENDBRANCH   6   7
ENDBRANCH   5   6
ENDBRANCH   4   5
ENDBRANCH   3   4
ENDBRANCH   2   3
ENDBRANCH   1   2
BRANCH   1  15
ATOM     15  C   UNL     1       5.521  19.751  23.810  1.00  0.00     0.000 C 
BRANCH  15  16
ATOM     16  C   UNL     1       4.594  19.109  22.759  1.00  0.00     0.000 C 
BRANCH  16  17
ATOM     17  C   UNL     1       4.359  17.598  22.944  1.00  0.00     0.000 C 
BRANCH  17  18
ATOM     18  C   UNL     1       4.464  16.815  21.624  1.00  0.00    -0.000 C 
BRANCH  18  19
ATOM     19  C   UNL     1       5.598  17.333  20.722  1.00  0.00    -0.000 C 
BRANCH  19  20
ATOM     20  C   UNL     1       6.961  16.706  21.066  1.00  0.00    -0.000 C 
BRANCH  20  21
ATOM     21  C   UNL     1       7.968  17.737  21.604  1.00  0.00    -0.000 C 
BRANCH  21  22
ATOM     22  C   UNL     1       8.026  17.840  23.140  1.00  0.00    -0.000 C 
BRANCH  22  23
ATOM     23  C   UNL     1       7.577  16.554  23.871  1.00  0.00    -0.000 C 
BRANCH  23  24
ATOM     24  C   UNL     1       7.469  16.716  25.399  1.00  0.00    -0.000 C 
BRANCH  24  25
ATOM     25  C   UNL     1       8.624  17.541  25.986  1.00  0.00    -0.003 C 
ATOM     26  C   UNL     1       8.289  18.027  27.393  1.00  0.00     0.004 C 
ENDBRANCH  24  25
ENDBRANCH  23  24
ENDBRANCH  22  23
ENDBRANCH  21  22
ENDBRANCH  20  21
ENDBRANCH  19  20
ENDBRANCH  18  19
ENDBRANCH  17  18
ENDBRANCH  16  17
ENDBRANCH  15  16
ENDBRANCH   1  15
TORSDOF 22
ENDMDL
MODEL 9
REMARK VINA RESULT:     3.186      1.510      2.467
REMARK INTER + INTRA:           6.064
REMARK INTER:                   5.465
REMARK INTRA:                   0.599
REMARK UNBOUND:                -1.219
REMARK SMILES CCCCCCCCCCCCCCCCCCCCCCCC(=O)[O-]
REMARK SMILES IDX 13 1 14 2 15 3 16 4 17 5 18 6 19 7 20 8 21 9 22 10 23 11
REMARK SMILES IDX 24 12 25 13 26 14 12 15 11 16 10 17 9 18 8 19 7 20 6 21 5 22
REMARK SMILES IDX 4 23 3 24 2 25 1 26
REMARK H PARENT
REMARK Flexibility Score: inf
ROOT
ATOM      1  C   UNL     1       5.487  15.240  19.366  1.00  0.00     0.000 C 
ENDROOT
BRANCH   1   2
ATOM      2  C   UNL     1       5.824  15.772  20.769  1.00  0.00     0.000 C 
BRANCH   2   3
ATOM      3  C   UNL     1       6.252  17.250  20.758  1.00  0.00     0.000 C 
BRANCH   3   4
ATOM      4  C   UNL     1       5.240  18.168  21.462  1.00  0.00     0.000 C 
BRANCH   4   5
ATOM      5  C   UNL     1       5.917  19.296  22.258  1.00  0.00     0.000 C 
BRANCH   5   6
ATOM      6  C   UNL     1       5.096  19.723  23.486  1.00  0.00     0.000 C 
BRANCH   6   7
ATOM      7  C   UNL     1       5.645  19.134  24.797  1.00  0.00     0.000 C 
BRANCH   7   8
ATOM      8  C   UNL     1       5.385  17.623  24.930  1.00  0.00     0.000 C 
BRANCH   8   9
ATOM      9  C   UNL     1       6.447  16.719  24.277  1.00  0.00     0.000 C 
BRANCH   9  10
ATOM     10  C   UNL     1       7.742  16.630  25.097  1.00  0.00     0.006 C 
BRANCH  10  11
ATOM     11  C   UNL     1       8.423  17.998  25.201  1.00  0.00     0.053 C 
BRANCH  11  12
ATOM     12  C   UNL     1       9.095  18.351  23.911  1.00  0.00     0.041 C 
ATOM     13  O   UNL     1      10.177  18.996  23.916  1.00  0.00    -0.550 OA
ATOM     14  O   UNL     1       8.500  18.014  22.701  1.00  0.00    -0.550 OA
ENDBRANCH  11  12
ENDBRANCH  10  11
ENDBRANCH   9  10
ENDBRANCH   8   9
ENDBRANCH   7   8
ENDBRANCH   6   7
ENDBRANCH   5   6
ENDBRANCH   4   5
ENDBRANCH   3   4
ENDBRANCH   2   3
ENDBRANCH   1   2
BRANCH   1  15
ATOM     15  C   UNL     1       6.480  14.168  18.885  1.00  0.00     0.000 C 
BRANCH  15  16
ATOM     16  C   UNL     1       5.970  13.393  17.655  1.00  0.00     0.000 C 
BRANCH  16  17
ATOM     17  C   UNL     1       5.889  14.222  16.360  1.00  0.00     0.000 C 
BRANCH  17  18
ATOM     18  C   UNL     1       4.655  13.873  15.508  1.00  0.00    -0.000 C 
BRANCH  18  19
ATOM     19  C   UNL     1       3.335  14.217  16.219  1.00  0.00    -0.000 C 
BRANCH  19  20
ATOM     20  C   UNL     1       2.158  13.353  15.731  1.00  0.00    -0.000 C 
BRANCH  20  21
ATOM     21  C   UNL     1       1.538  13.879  14.426  1.00  0.00    -0.000 C 
BRANCH  21  22
ATOM     22  C   UNL     1       2.553  14.439  13.411  1.00  0.00    -0.000 C 
BRANCH  22  23
ATOM     23  C   UNL     1       3.121  13.376  12.444  1.00  0.00    -0.000 C 
BRANCH  23  24
ATOM     24  C   UNL     1       4.004  13.964  11.327  1.00  0.00    -0.000 C 
BRANCH  24  25
ATOM     25  C   UNL     1       4.721  12.876  10.510  1.00  0.00    -0.003 C 
ATOM     26  C   UNL     1       4.771  13.247   9.031  1.00  0.00     0.004 C 
ENDBRANCH  24  25
ENDBRANCH  23  24
ENDBRANCH  22  23
ENDBRANCH  21  22
ENDBRANCH  20  21
ENDBRANCH  19  20
ENDBRANCH  18  19
ENDBRANCH  17  18
ENDBRANCH  16  17
ENDBRANCH  15  16
ENDBRANCH   1  15
TORSDOF 22
ENDMDL
