MODEL 1
REMARK VINA RESULT:    -6.323      0.000      0.000
REMARK INTER + INTRA:          -7.419
REMARK INTER:                  -7.617
REMARK INTRA:                   0.198
REMARK UNBOUND:                 0.198
REMARK SMILES O=c1c(O)c(-c2ccc(O)c(O)c2)oc2cc(O)cc(O)c12
REMARK SMILES IDX 5 1 3 2 2 3 1 4 22 5 20 6 19 7 17 8 16 9 15 10 14 11 6 12
REMARK SMILES IDX 7 13 8 14 9 15 13 16 11 17 10 18 12 20 4 22 21 24 18 26
REMARK H PARENT 10 19 12 21 4 23 21 25 18 27
REMARK Flexibility Score: inf
ROOT
ATOM      1  C   UNL     1    -143.447  59.927  -2.860  1.00  0.00     0.180 A 
ATOM      2  C   UNL     1    -144.305  60.961  -2.447  1.00  0.00     0.208 A 
ATOM      3  C   UNL     1    -144.116  62.251  -2.968  1.00  0.00     0.238 A 
ATOM      4  O   UNL     1    -144.854  63.183  -2.554  1.00  0.00    -0.285 OA
ATOM      5  C   UNL     1    -143.084  62.488  -3.908  1.00  0.00     0.111 A 
ATOM      6  C   UNL     1    -142.828  63.746  -4.530  1.00  0.00     0.134 A 
ATOM      7  C   UNL     1    -141.698  63.897  -5.344  1.00  0.00     0.093 A 
ATOM      8  C   UNL     1    -140.853  62.820  -5.610  1.00  0.00     0.123 A 
ATOM      9  C   UNL     1    -141.127  61.570  -5.053  1.00  0.00     0.094 A 
ATOM     10  C   UNL     1    -142.226  61.397  -4.209  1.00  0.00     0.146 A 
ATOM     11  O   UNL     1    -142.447  60.195  -3.692  1.00  0.00    -0.452 OA
ENDROOT
BRANCH   1  12
ATOM     12  C   UNL     1    -143.598  58.536  -2.375  1.00  0.00     0.025 A 
ATOM     13  C   UNL     1    -142.463  57.720  -2.250  1.00  0.00     0.016 A 
ATOM     14  C   UNL     1    -142.585  56.399  -1.813  1.00  0.00     0.051 A 
ATOM     15  C   UNL     1    -143.846  55.869  -1.510  1.00  0.00     0.157 A 
ATOM     16  C   UNL     1    -144.865  57.994  -2.089  1.00  0.00     0.062 A 
ATOM     17  C   UNL     1    -144.988  56.666  -1.652  1.00  0.00     0.158 A 
BRANCH  15  18
ATOM     18  O   UNL     1    -143.972  54.552  -1.073  1.00  0.00    -0.504 OA
ATOM     19  H   UNL     1    -144.016  54.323  -0.087  1.00  0.00     0.293 HD
ENDBRANCH  15  18
BRANCH  17  20
ATOM     20  O   UNL     1    -146.243  56.133  -1.364  1.00  0.00    -0.504 OA
ATOM     21  H   UNL     1    -146.813  55.700  -2.081  1.00  0.00     0.293 HD
ENDBRANCH  17  20
ENDBRANCH   1  12
BRANCH   2  22
ATOM     22  O   UNL     1    -145.305  60.710  -1.503  1.00  0.00    -0.502 OA
ATOM     23  H   UNL     1    -145.211  60.003  -0.785  1.00  0.00     0.293 HD
ENDBRANCH   2  22
BRANCH   6  24
ATOM     24  O   UNL     1    -143.660  64.862  -4.406  1.00  0.00    -0.507 OA
ATOM     25  H   UNL     1    -144.257  65.219  -5.138  1.00  0.00     0.293 HD
ENDBRANCH   6  24
BRANCH   8  26
ATOM     26  O   UNL     1    -139.747  63.002  -6.437  1.00  0.00    -0.508 OA
ATOM     27  H   UNL     1    -138.833  63.219  -6.059  1.00  0.00     0.293 HD
ENDBRANCH   8  26
TORSDOF 6
ENDMDL
MODEL 2
REMARK VINA RESULT:    -6.159      7.533     10.251
REMARK INTER + INTRA:          -7.221
REMARK INTER:                  -6.886
REMARK INTRA:                  -0.335
REMARK UNBOUND:                 0.198
REMARK SMILES O=c1c(O)c(-c2ccc(O)c(O)c2)oc2cc(O)cc(O)c12
REMARK SMILES IDX 5 1 3 2 2 3 1 4 22 5 20 6 19 7 17 8 16 9 15 10 14 11 6 12
REMARK SMILES IDX 7 13 8 14 9 15 13 16 11 17 10 18 12 20 4 22 21 24 18 26
REMARK H PARENT 10 19 12 21 4 23 21 25 18 27
REMARK Flexibility Score: inf
ROOT
ATOM      1  C   UNL     1    -140.321  60.255   4.270  1.00  0.00     0.180 A 
ATOM      2  C   UNL     1    -139.573  60.223   3.081  1.00  0.00     0.208 A 
ATOM      3  C   UNL     1    -139.358  58.990   2.444  1.00  0.00     0.238 A 
ATOM      4  O   UNL     1    -138.642  58.962   1.409  1.00  0.00    -0.285 OA
ATOM      5  C   UNL     1    -139.909  57.808   2.994  1.00  0.00     0.111 A 
ATOM      6  C   UNL     1    -139.788  56.511   2.412  1.00  0.00     0.134 A 
ATOM      7  C   UNL     1    -140.261  55.393   3.111  1.00  0.00     0.093 A 
ATOM      8  C   UNL     1    -140.906  55.532   4.340  1.00  0.00     0.123 A 
ATOM      9  C   UNL     1    -141.082  56.802   4.891  1.00  0.00     0.094 A 
ATOM     10  C   UNL     1    -140.589  57.932   4.234  1.00  0.00     0.146 A 
ATOM     11  O   UNL     1    -140.768  59.121   4.797  1.00  0.00    -0.452 OA
ENDROOT
BRANCH   1  12
ATOM     12  C   UNL     1    -140.611  61.519   4.986  1.00  0.00     0.025 A 
ATOM     13  C   UNL     1    -139.764  61.934   6.026  1.00  0.00     0.016 A 
ATOM     14  C   UNL     1    -140.030  63.112   6.728  1.00  0.00     0.051 A 
ATOM     15  C   UNL     1    -141.155  63.885   6.410  1.00  0.00     0.157 A 
ATOM     16  C   UNL     1    -141.750  62.287   4.683  1.00  0.00     0.062 A 
ATOM     17  C   UNL     1    -142.018  63.470   5.389  1.00  0.00     0.158 A 
BRANCH  15  18
ATOM     18  O   UNL     1    -141.422  65.062   7.107  1.00  0.00    -0.504 OA
ATOM     19  H   UNL     1    -140.897  65.911   6.934  1.00  0.00     0.293 HD
ENDBRANCH  15  18
BRANCH  17  20
ATOM     20  O   UNL     1    -143.144  64.233   5.085  1.00  0.00    -0.504 OA
ATOM     21  H   UNL     1    -143.070  65.106   4.574  1.00  0.00     0.293 HD
ENDBRANCH  17  20
ENDBRANCH   1  12
BRANCH   2  22
ATOM     22  O   UNL     1    -139.020  61.399   2.566  1.00  0.00    -0.502 OA
ATOM     23  H   UNL     1    -138.737  62.172   3.155  1.00  0.00     0.293 HD
ENDBRANCH   2  22
BRANCH   6  24
ATOM     24  O   UNL     1    -139.244  56.270   1.147  1.00  0.00    -0.507 OA
ATOM     25  H   UNL     1    -139.187  55.363   0.709  1.00  0.00     0.293 HD
ENDBRANCH   6  24
BRANCH   8  26
ATOM     26  O   UNL     1    -141.378  54.399   5.000  1.00  0.00    -0.508 OA
ATOM     27  H   UNL     1    -141.132  53.466   4.691  1.00  0.00     0.293 HD
ENDBRANCH   8  26
TORSDOF 6
ENDMDL
MODEL 3
REMARK VINA RESULT:    -6.092      1.620      3.306
REMARK INTER + INTRA:          -7.140
REMARK INTER:                  -7.671
REMARK INTRA:                   0.531
REMARK UNBOUND:                 0.198
REMARK SMILES O=c1c(O)c(-c2ccc(O)c(O)c2)oc2cc(O)cc(O)c12
REMARK SMILES IDX 5 1 3 2 2 3 1 4 22 5 20 6 19 7 17 8 16 9 15 10 14 11 6 12
REMARK SMILES IDX 7 13 8 14 9 15 13 16 11 17 10 18 12 20 4 22 21 24 18 26
REMARK H PARENT 10 19 12 21 4 23 21 25 18 27
REMARK Flexibility Score: inf
ROOT
ATOM      1  C   UNL     1    -144.025  60.249  -2.759  1.00  0.00     0.180 A 
ATOM      2  C   UNL     1    -142.891  60.903  -3.269  1.00  0.00     0.208 A 
ATOM      3  C   UNL     1    -142.989  62.256  -3.630  1.00  0.00     0.238 A 
ATOM      4  O   UNL     1    -141.984  62.821  -4.136  1.00  0.00    -0.285 OA
ATOM      5  C   UNL     1    -144.215  62.943  -3.462  1.00  0.00     0.111 A 
ATOM      6  C   UNL     1    -144.417  64.324  -3.757  1.00  0.00     0.134 A 
ATOM      7  C   UNL     1    -145.707  64.866  -3.676  1.00  0.00     0.093 A 
ATOM      8  C   UNL     1    -146.787  64.095  -3.249  1.00  0.00     0.123 A 
ATOM      9  C   UNL     1    -146.589  62.758  -2.901  1.00  0.00     0.094 A 
ATOM     10  C   UNL     1    -145.322  62.179  -3.006  1.00  0.00     0.146 A 
ATOM     11  O   UNL     1    -145.178  60.902  -2.675  1.00  0.00    -0.452 OA
ENDROOT
BRANCH   1  12
ATOM     12  C   UNL     1    -143.993  58.831  -2.333  1.00  0.00     0.025 A 
ATOM     13  C   UNL     1    -142.771  58.141  -2.319  1.00  0.00     0.016 A 
ATOM     14  C   UNL     1    -142.720  56.797  -1.940  1.00  0.00     0.051 A 
ATOM     15  C   UNL     1    -143.894  56.119  -1.584  1.00  0.00     0.157 A 
ATOM     16  C   UNL     1    -145.172  58.141  -1.995  1.00  0.00     0.062 A 
ATOM     17  C   UNL     1    -145.122  56.791  -1.616  1.00  0.00     0.158 A 
BRANCH  15  18
ATOM     18  O   UNL     1    -143.848  54.779  -1.204  1.00  0.00    -0.504 OA
ATOM     19  H   UNL     1    -143.866  54.505  -0.229  1.00  0.00     0.293 HD
ENDBRANCH  15  18
BRANCH  17  20
ATOM     20  O   UNL     1    -146.289  56.111  -1.275  1.00  0.00    -0.504 OA
ATOM     21  H   UNL     1    -146.262  55.213  -0.805  1.00  0.00     0.293 HD
ENDBRANCH  17  20
ENDBRANCH   1  12
BRANCH   2  22
ATOM     22  O   UNL     1    -141.695  60.201  -3.447  1.00  0.00    -0.502 OA
ATOM     23  H   UNL     1    -141.637  59.355  -4.001  1.00  0.00     0.293 HD
ENDBRANCH   2  22
BRANCH   6  24
ATOM     24  O   UNL     1    -143.391  65.207  -4.104  1.00  0.00    -0.507 OA
ATOM     25  H   UNL     1    -142.544  65.341  -3.571  1.00  0.00     0.293 HD
ENDBRANCH   6  24
BRANCH   8  26
ATOM     26  O   UNL     1    -148.052  64.672  -3.165  1.00  0.00    -0.508 OA
ATOM     27  H   UNL     1    -148.848  64.153  -2.812  1.00  0.00     0.293 HD
ENDBRANCH   8  26
TORSDOF 6
ENDMDL
MODEL 4
REMARK VINA RESULT:    -5.985      3.181      4.547
REMARK INTER + INTRA:          -7.011
REMARK INTER:                  -6.827
REMARK INTRA:                  -0.184
REMARK UNBOUND:                 0.198
REMARK SMILES O=c1c(O)c(-c2ccc(O)c(O)c2)oc2cc(O)cc(O)c12
REMARK SMILES IDX 5 1 3 2 2 3 1 4 22 5 20 6 19 7 17 8 16 9 15 10 14 11 6 12
REMARK SMILES IDX 7 13 8 14 9 15 13 16 11 17 10 18 12 20 4 22 21 24 18 26
REMARK H PARENT 10 19 12 21 4 23 21 25 18 27
REMARK Flexibility Score: inf
ROOT
ATOM      1  C   UNL     1    -145.096  63.050  -2.894  1.00  0.00     0.180 A 
ATOM      2  C   UNL     1    -146.429  63.308  -3.255  1.00  0.00     0.208 A 
ATOM      3  C   UNL     1    -146.879  64.638  -3.298  1.00  0.00     0.238 A 
ATOM      4  O   UNL     1    -148.087  64.859  -3.570  1.00  0.00    -0.285 OA
ATOM      5  C   UNL     1    -145.985  65.694  -2.997  1.00  0.00     0.111 A 
ATOM      6  C   UNL     1    -146.321  67.079  -3.048  1.00  0.00     0.134 A 
ATOM      7  C   UNL     1    -145.395  68.031  -2.602  1.00  0.00     0.093 A 
ATOM      8  C   UNL     1    -144.125  67.653  -2.168  1.00  0.00     0.123 A 
ATOM      9  C   UNL     1    -143.765  66.305  -2.170  1.00  0.00     0.094 A 
ATOM     10  C   UNL     1    -144.679  65.329  -2.575  1.00  0.00     0.146 A 
ATOM     11  O   UNL     1    -144.301  64.057  -2.552  1.00  0.00    -0.452 OA
ENDROOT
BRANCH   1  12
ATOM     12  C   UNL     1    -144.543  61.677  -2.850  1.00  0.00     0.025 A 
ATOM     13  C   UNL     1    -143.592  61.284  -3.806  1.00  0.00     0.016 A 
ATOM     14  C   UNL     1    -143.072  59.988  -3.796  1.00  0.00     0.051 A 
ATOM     15  C   UNL     1    -143.507  59.060  -2.839  1.00  0.00     0.157 A 
ATOM     16  C   UNL     1    -144.991  60.737  -1.905  1.00  0.00     0.062 A 
ATOM     17  C   UNL     1    -144.471  59.434  -1.896  1.00  0.00     0.158 A 
BRANCH  15  18
ATOM     18  O   UNL     1    -142.989  57.766  -2.825  1.00  0.00    -0.504 OA
ATOM     19  H   UNL     1    -143.594  56.955  -2.778  1.00  0.00     0.293 HD
ENDBRANCH  15  18
BRANCH  17  20
ATOM     20  O   UNL     1    -144.911  58.505  -0.955  1.00  0.00    -0.504 OA
ATOM     21  H   UNL     1    -145.767  58.648  -0.429  1.00  0.00     0.293 HD
ENDBRANCH  17  20
ENDBRANCH   1  12
BRANCH   2  22
ATOM     22  O   UNL     1    -147.301  62.251  -3.529  1.00  0.00    -0.502 OA
ATOM     23  H   UNL     1    -147.900  62.236  -4.346  1.00  0.00     0.293 HD
ENDBRANCH   2  22
BRANCH   6  24
ATOM     24  O   UNL     1    -147.529  67.572  -3.550  1.00  0.00    -0.507 OA
ATOM     25  H   UNL     1    -147.930  68.465  -3.307  1.00  0.00     0.293 HD
ENDBRANCH   6  24
BRANCH   8  26
ATOM     26  O   UNL     1    -143.224  68.629  -1.747  1.00  0.00    -0.508 OA
ATOM     27  H   UNL     1    -142.415  68.394  -1.184  1.00  0.00     0.293 HD
ENDBRANCH   8  26
TORSDOF 6
ENDMDL
MODEL 5
REMARK VINA RESULT:    -5.949      6.561      7.475
REMARK INTER + INTRA:          -6.968
REMARK INTER:                  -6.696
REMARK INTRA:                  -0.271
REMARK UNBOUND:                 0.198
REMARK SMILES O=c1c(O)c(-c2ccc(O)c(O)c2)oc2cc(O)cc(O)c12
REMARK SMILES IDX 5 1 3 2 2 3 1 4 22 5 20 6 19 7 17 8 16 9 15 10 14 11 6 12
REMARK SMILES IDX 7 13 8 14 9 15 13 16 11 17 10 18 12 20 4 22 21 24 18 26
REMARK H PARENT 10 19 12 21 4 23 21 25 18 27
REMARK Flexibility Score: inf
ROOT
ATOM      1  C   UNL     1    -140.864  58.386   3.031  1.00  0.00     0.180 A 
ATOM      2  C   UNL     1    -141.362  58.812   4.274  1.00  0.00     0.208 A 
ATOM      3  C   UNL     1    -140.758  59.908   4.912  1.00  0.00     0.238 A 
ATOM      4  O   UNL     1    -141.175  60.251   6.049  1.00  0.00    -0.285 OA
ATOM      5  C   UNL     1    -139.675  60.574   4.290  1.00  0.00     0.111 A 
ATOM      6  C   UNL     1    -139.013  61.719   4.826  1.00  0.00     0.134 A 
ATOM      7  C   UNL     1    -137.868  62.216   4.190  1.00  0.00     0.093 A 
ATOM      8  C   UNL     1    -137.400  61.651   3.005  1.00  0.00     0.123 A 
ATOM      9  C   UNL     1    -138.074  60.567   2.440  1.00  0.00     0.094 A 
ATOM     10  C   UNL     1    -139.197  60.027   3.070  1.00  0.00     0.146 A 
ATOM     11  O   UNL     1    -139.804  58.990   2.506  1.00  0.00    -0.452 OA
ENDROOT
BRANCH   1  12
ATOM     12  C   UNL     1    -141.464  57.255   2.287  1.00  0.00     0.025 A 
ATOM     13  C   UNL     1    -140.762  56.043   2.188  1.00  0.00     0.016 A 
ATOM     14  C   UNL     1    -141.300  54.969   1.474  1.00  0.00     0.051 A 
ATOM     15  C   UNL     1    -142.540  55.097   0.835  1.00  0.00     0.157 A 
ATOM     16  C   UNL     1    -142.699  57.386   1.627  1.00  0.00     0.062 A 
ATOM     17  C   UNL     1    -143.239  56.308   0.908  1.00  0.00     0.158 A 
BRANCH  15  18
ATOM     18  O   UNL     1    -143.081  54.029   0.123  1.00  0.00    -0.504 OA
ATOM     19  H   UNL     1    -143.470  53.221   0.594  1.00  0.00     0.293 HD
ENDBRANCH  15  18
BRANCH  17  20
ATOM     20  O   UNL     1    -144.466  56.438   0.260  1.00  0.00    -0.504 OA
ATOM     21  H   UNL     1    -144.851  55.686  -0.301  1.00  0.00     0.293 HD
ENDBRANCH  17  20
ENDBRANCH   1  12
BRANCH   2  22
ATOM     22  O   UNL     1    -142.420  58.127   4.880  1.00  0.00    -0.502 OA
ATOM     23  H   UNL     1    -142.756  58.355   5.808  1.00  0.00     0.293 HD
ENDBRANCH   2  22
BRANCH   6  24
ATOM     24  O   UNL     1    -139.452  62.417   5.955  1.00  0.00    -0.507 OA
ATOM     25  H   UNL     1    -139.230  63.381   6.156  1.00  0.00     0.293 HD
ENDBRANCH   6  24
BRANCH   8  26
ATOM     26  O   UNL     1    -136.267  62.181   2.391  1.00  0.00    -0.508 OA
ATOM     27  H   UNL     1    -135.872  61.763   1.557  1.00  0.00     0.293 HD
ENDBRANCH   8  26
TORSDOF 6
ENDMDL
MODEL 6
REMARK VINA RESULT:    -5.897      1.877      6.627
REMARK INTER + INTRA:          -6.905
REMARK INTER:                  -7.028
REMARK INTRA:                   0.123
REMARK UNBOUND:                 0.198
REMARK SMILES O=c1c(O)c(-c2ccc(O)c(O)c2)oc2cc(O)cc(O)c12
REMARK SMILES IDX 5 1 3 2 2 3 1 4 22 5 20 6 19 7 17 8 16 9 15 10 14 11 6 12
REMARK SMILES IDX 7 13 8 14 9 15 13 16 11 17 10 18 12 20 4 22 21 24 18 26
REMARK H PARENT 10 19 12 21 4 23 21 25 18 27
REMARK Flexibility Score: inf
ROOT
ATOM      1  C   UNL     1    -143.488  59.868  -2.113  1.00  0.00     0.180 A 
ATOM      2  C   UNL     1    -144.409  59.457  -1.134  1.00  0.00     0.208 A 
ATOM      3  C   UNL     1    -144.295  58.167  -0.590  1.00  0.00     0.238 A 
ATOM      4  O   UNL     1    -145.155  57.786   0.247  1.00  0.00    -0.285 OA
ATOM      5  C   UNL     1    -143.251  57.312  -1.017  1.00  0.00     0.111 A 
ATOM      6  C   UNL     1    -143.017  56.001  -0.505  1.00  0.00     0.134 A 
ATOM      7  C   UNL     1    -142.035  55.194  -1.095  1.00  0.00     0.093 A 
ATOM      8  C   UNL     1    -141.238  55.673  -2.134  1.00  0.00     0.123 A 
ATOM      9  C   UNL     1    -141.420  56.974  -2.604  1.00  0.00     0.094 A 
ATOM     10  C   UNL     1    -142.414  57.790  -2.060  1.00  0.00     0.146 A 
ATOM     11  O   UNL     1    -142.561  59.019  -2.541  1.00  0.00    -0.452 OA
ENDROOT
BRANCH   1  12
ATOM     12  C   UNL     1    -143.529  61.220  -2.716  1.00  0.00     0.025 A 
ATOM     13  C   UNL     1    -142.337  61.946  -2.865  1.00  0.00     0.016 A 
ATOM     14  C   UNL     1    -142.355  63.231  -3.412  1.00  0.00     0.051 A 
ATOM     15  C   UNL     1    -143.567  63.815  -3.804  1.00  0.00     0.157 A 
ATOM     16  C   UNL     1    -144.746  61.817  -3.091  1.00  0.00     0.062 A 
ATOM     17  C   UNL     1    -144.764  63.109  -3.639  1.00  0.00     0.158 A 
BRANCH  15  18
ATOM     18  O   UNL     1    -143.589  65.096  -4.351  1.00  0.00    -0.504 OA
ATOM     19  H   UNL     1    -144.423  65.670  -4.322  1.00  0.00     0.293 HD
ENDBRANCH  15  18
BRANCH  17  20
ATOM     20  O   UNL     1    -145.970  63.697  -4.016  1.00  0.00    -0.504 OA
ATOM     21  H   UNL     1    -146.608  63.236  -4.656  1.00  0.00     0.293 HD
ENDBRANCH  17  20
ENDBRANCH   1  12
BRANCH   2  22
ATOM     22  O   UNL     1    -145.445  60.309  -0.741  1.00  0.00    -0.502 OA
ATOM     23  H   UNL     1    -145.757  61.086  -1.310  1.00  0.00     0.293 HD
ENDBRANCH   2  22
BRANCH   6  24
ATOM     24  O   UNL     1    -143.694  55.459   0.591  1.00  0.00    -0.507 OA
ATOM     25  H   UNL     1    -143.348  55.464   1.540  1.00  0.00     0.293 HD
ENDBRANCH   6  24
BRANCH   8  26
ATOM     26  O   UNL     1    -140.261  54.848  -2.686  1.00  0.00    -0.508 OA
ATOM     27  H   UNL     1    -139.287  55.125  -2.713  1.00  0.00     0.293 HD
ENDBRANCH   8  26
TORSDOF 6
ENDMDL
MODEL 7
REMARK VINA RESULT:    -5.882      1.450      2.911
REMARK INTER + INTRA:          -6.887
REMARK INTER:                  -6.610
REMARK INTRA:                  -0.277
REMARK UNBOUND:                 0.198
REMARK SMILES O=c1c(O)c(-c2ccc(O)c(O)c2)oc2cc(O)cc(O)c12
REMARK SMILES IDX 5 1 3 2 2 3 1 4 22 5 20 6 19 7 17 8 16 9 15 10 14 11 6 12
REMARK SMILES IDX 7 13 8 14 9 15 13 16 11 17 10 18 12 20 4 22 21 24 18 26
REMARK H PARENT 10 19 12 21 4 23 21 25 18 27
REMARK Flexibility Score: inf
ROOT
ATOM      1  C   UNL     1    -143.075  59.973  -2.634  1.00  0.00     0.180 A 
ATOM      2  C   UNL     1    -142.281  59.935  -3.792  1.00  0.00     0.208 A 
ATOM      3  C   UNL     1    -142.141  61.102  -4.561  1.00  0.00     0.238 A 
ATOM      4  O   UNL     1    -141.472  61.048  -5.626  1.00  0.00    -0.285 OA
ATOM      5  C   UNL     1    -142.784  62.296  -4.152  1.00  0.00     0.111 A 
ATOM      6  C   UNL     1    -142.679  63.546  -4.833  1.00  0.00     0.134 A 
ATOM      7  C   UNL     1    -143.463  64.628  -4.413  1.00  0.00     0.093 A 
ATOM      8  C   UNL     1    -144.298  64.524  -3.301  1.00  0.00     0.123 A 
ATOM      9  C   UNL     1    -144.364  63.323  -2.593  1.00  0.00     0.094 A 
ATOM     10  C   UNL     1    -143.621  62.216  -3.008  1.00  0.00     0.146 A 
ATOM     11  O   UNL     1    -143.719  61.089  -2.314  1.00  0.00    -0.452 OA
ENDROOT
BRANCH   1  12
ATOM     12  C   UNL     1    -143.250  58.790  -1.759  1.00  0.00     0.025 A 
ATOM     13  C   UNL     1    -142.213  58.413  -0.891  1.00  0.00     0.016 A 
ATOM     14  C   UNL     1    -142.348  57.290  -0.072  1.00  0.00     0.051 A 
ATOM     15  C   UNL     1    -143.516  56.517  -0.121  1.00  0.00     0.157 A 
ATOM     16  C   UNL     1    -144.413  58.001  -1.819  1.00  0.00     0.062 A 
ATOM     17  C   UNL     1    -144.548  56.871  -0.998  1.00  0.00     0.158 A 
BRANCH  15  18
ATOM     18  O   UNL     1    -143.656  55.397   0.695  1.00  0.00    -0.504 OA
ATOM     19  H   UNL     1    -142.851  54.876   1.022  1.00  0.00     0.293 HD
ENDBRANCH  15  18
BRANCH  17  20
ATOM     20  O   UNL     1    -145.703  56.093  -1.055  1.00  0.00    -0.504 OA
ATOM     21  H   UNL     1    -146.518  56.312  -0.492  1.00  0.00     0.293 HD
ENDBRANCH  17  20
ENDBRANCH   1  12
BRANCH   2  22
ATOM     22  O   UNL     1    -141.671  58.741  -4.190  1.00  0.00    -0.502 OA
ATOM     23  H   UNL     1    -141.009  58.246  -3.604  1.00  0.00     0.293 HD
ENDBRANCH   2  22
BRANCH   6  24
ATOM     24  O   UNL     1    -141.807  63.784  -5.898  1.00  0.00    -0.507 OA
ATOM     25  H   UNL     1    -142.084  63.834  -6.868  1.00  0.00     0.293 HD
ENDBRANCH   6  24
BRANCH   8  26
ATOM     26  O   UNL     1    -145.052  65.626  -2.902  1.00  0.00    -0.508 OA
ATOM     27  H   UNL     1    -145.572  66.181  -3.572  1.00  0.00     0.293 HD
ENDBRANCH   8  26
TORSDOF 6
ENDMDL
MODEL 8
REMARK VINA RESULT:    -5.865      1.712      7.124
REMARK INTER + INTRA:          -6.867
REMARK INTER:                  -6.696
REMARK INTRA:                  -0.171
REMARK UNBOUND:                 0.198
REMARK SMILES O=c1c(O)c(-c2ccc(O)c(O)c2)oc2cc(O)cc(O)c12
REMARK SMILES IDX 5 1 3 2 2 3 1 4 22 5 20 6 19 7 17 8 16 9 15 10 14 11 6 12
REMARK SMILES IDX 7 13 8 14 9 15 13 16 11 17 10 18 12 20 4 22 21 24 18 26
REMARK H PARENT 10 19 12 21 4 23 21 25 18 27
REMARK Flexibility Score: inf
ROOT
ATOM      1  C   UNL     1    -142.201  60.242  -2.790  1.00  0.00     0.180 A 
ATOM      2  C   UNL     1    -141.171  59.885  -1.903  1.00  0.00     0.208 A 
ATOM      3  C   UNL     1    -141.354  58.781  -1.055  1.00  0.00     0.238 A 
ATOM      4  O   UNL     1    -140.450  58.499  -0.226  1.00  0.00    -0.285 OA
ATOM      5  C   UNL     1    -142.557  58.037  -1.117  1.00  0.00     0.111 A 
ATOM      6  C   UNL     1    -142.833  56.877  -0.333  1.00  0.00     0.134 A 
ATOM      7  C   UNL     1    -144.108  56.298  -0.383  1.00  0.00     0.093 A 
ATOM      8  C   UNL     1    -145.094  56.797  -1.233  1.00  0.00     0.123 A 
ATOM      9  C   UNL     1    -144.815  57.896  -2.047  1.00  0.00     0.094 A 
ATOM     10  C   UNL     1    -143.565  58.516  -1.994  1.00  0.00     0.146 A 
ATOM     11  O   UNL     1    -143.344  59.565  -2.778  1.00  0.00    -0.452 OA
ENDROOT
BRANCH   1  12
ATOM     12  C   UNL     1    -142.073  61.378  -3.731  1.00  0.00     0.025 A 
ATOM     13  C   UNL     1    -141.108  61.325  -4.750  1.00  0.00     0.016 A 
ATOM     14  C   UNL     1    -140.955  62.394  -5.637  1.00  0.00     0.051 A 
ATOM     15  C   UNL     1    -141.755  63.538  -5.508  1.00  0.00     0.157 A 
ATOM     16  C   UNL     1    -142.859  62.536  -3.593  1.00  0.00     0.062 A 
ATOM     17  C   UNL     1    -142.705  63.611  -4.482  1.00  0.00     0.158 A 
BRANCH  15  18
ATOM     18  O   UNL     1    -141.607  64.606  -6.391  1.00  0.00    -0.504 OA
ATOM     19  H   UNL     1    -141.628  64.470  -7.395  1.00  0.00     0.293 HD
ENDBRANCH  15  18
BRANCH  17  20
ATOM     20  O   UNL     1    -143.489  64.755  -4.348  1.00  0.00    -0.504 OA
ATOM     21  H   UNL     1    -143.176  65.656  -4.691  1.00  0.00     0.293 HD
ENDBRANCH  17  20
ENDBRANCH   1  12
BRANCH   2  22
ATOM     22  O   UNL     1    -140.000  60.646  -1.842  1.00  0.00    -0.502 OA
ATOM     23  H   UNL     1    -139.185  60.350  -1.319  1.00  0.00     0.293 HD
ENDBRANCH   2  22
BRANCH   6  24
ATOM     24  O   UNL     1    -141.891  56.242   0.480  1.00  0.00    -0.507 OA
ATOM     25  H   UNL     1    -141.776  56.414   1.468  1.00  0.00     0.293 HD
ENDBRANCH   6  24
BRANCH   8  26
ATOM     26  O   UNL     1    -146.345  56.186  -1.267  1.00  0.00    -0.508 OA
ATOM     27  H   UNL     1    -146.544  55.356  -0.721  1.00  0.00     0.293 HD
ENDBRANCH   8  26
TORSDOF 6
ENDMDL
