MODEL 1
REMARK VINA RESULT:    -4.295      0.000      0.000
REMARK INTER + INTRA:         -14.209
REMARK INTER:                  -9.819
REMARK INTRA:                  -4.389
REMARK UNBOUND:                -4.389
REMARK SMILES CCCCCCCCCCCCCCCCCCCCCCCC(=O)[O-]
REMARK SMILES IDX 13 1 14 2 15 3 16 4 17 5 18 6 19 7 20 8 21 9 22 10 23 11
REMARK SMILES IDX 24 12 25 13 26 14 12 15 11 16 10 17 9 18 8 19 7 20 6 21 5 22
REMARK SMILES IDX 4 23 3 24 2 25 1 26
REMARK H PARENT
REMARK Flexibility Score: inf
ROOT
ATOM      1  C   UNL     1       8.874 -18.695  21.159  1.00  0.00     0.000 C 
ENDROOT
BRANCH   1   2
ATOM      2  C   UNL     1       7.831 -18.280  22.205  1.00  0.00     0.000 C 
BRANCH   2   3
ATOM      3  C   UNL     1       7.053 -19.498  22.721  1.00  0.00     0.000 C 
BRANCH   3   4
ATOM      4  C   UNL     1       7.388 -19.778  24.193  1.00  0.00     0.000 C 
BRANCH   4   5
ATOM      5  C   UNL     1       8.132 -21.110  24.401  1.00  0.00     0.000 C 
BRANCH   5   6
ATOM      6  C   UNL     1       8.438 -21.904  23.113  1.00  0.00     0.000 C 
BRANCH   6   7
ATOM      7  C   UNL     1       9.918 -21.907  22.681  1.00  0.00     0.000 C 
BRANCH   7   8
ATOM      8  C   UNL     1      10.906 -21.452  23.769  1.00  0.00     0.000 C 
BRANCH   8   9
ATOM      9  C   UNL     1      11.482 -20.040  23.524  1.00  0.00     0.000 C 
BRANCH   9  10
ATOM     10  C   UNL     1      11.285 -19.111  24.733  1.00  0.00     0.006 C 
BRANCH  10  11
ATOM     11  C   UNL     1      11.290 -19.875  26.064  1.00  0.00     0.053 C 
BRANCH  11  12
ATOM     12  C   UNL     1      10.531 -19.148  27.132  1.00  0.00     0.041 C 
ATOM     13  O   UNL     1      10.992 -19.076  28.300  1.00  0.00    -0.550 OA
ATOM     14  O   UNL     1       9.327 -18.526  26.827  1.00  0.00    -0.550 OA
ENDBRANCH  11  12
ENDBRANCH  10  11
ENDBRANCH   9  10
ENDBRANCH   8   9
ENDBRANCH   7   8
ENDBRANCH   6   7
ENDBRANCH   5   6
ENDBRANCH   4   5
ENDBRANCH   3   4
ENDBRANCH   2   3
ENDBRANCH   1   2
BRANCH   1  15
ATOM     15  C   UNL     1      10.050 -17.709  21.061  1.00  0.00     0.000 C 
BRANCH  15  16
ATOM     16  C   UNL     1       9.816 -16.391  21.827  1.00  0.00     0.000 C 
BRANCH  16  17
ATOM     17  C   UNL     1      10.830 -16.185  22.963  1.00  0.00     0.000 C 
BRANCH  17  18
ATOM     18  C   UNL     1      10.419 -14.997  23.845  1.00  0.00    -0.000 C 
BRANCH  18  19
ATOM     19  C   UNL     1       9.691 -15.430  25.130  1.00  0.00    -0.000 C 
BRANCH  19  20
ATOM     20  C   UNL     1       8.238 -14.932  25.247  1.00  0.00    -0.000 C 
BRANCH  20  21
ATOM     21  C   UNL     1       7.182 -16.001  24.894  1.00  0.00    -0.000 C 
BRANCH  21  22
ATOM     22  C   UNL     1       6.115 -15.457  23.932  1.00  0.00    -0.000 C 
BRANCH  22  23
ATOM     23  C   UNL     1       6.759 -14.733  22.739  1.00  0.00    -0.000 C 
BRANCH  23  24
ATOM     24  C   UNL     1       5.711 -14.023  21.855  1.00  0.00    -0.000 C 
BRANCH  24  25
ATOM     25  C   UNL     1       6.045 -14.063  20.354  1.00  0.00    -0.003 C 
ATOM     26  C   UNL     1       6.825 -15.311  19.946  1.00  0.00     0.004 C 
ENDBRANCH  24  25
ENDBRANCH  23  24
ENDBRANCH  22  23
ENDBRANCH  21  22
ENDBRANCH  20  21
ENDBRANCH  19  20
ENDBRANCH  18  19
ENDBRANCH  17  18
ENDBRANCH  16  17
ENDBRANCH  15  16
ENDBRANCH   1  15
TORSDOF 22
ENDMDL
MODEL 2
REMARK VINA RESULT:    -4.281      1.766      3.468
REMARK INTER + INTRA:         -14.176
REMARK INTER:                  -9.960
REMARK INTRA:                  -4.216
REMARK UNBOUND:                -4.389
REMARK SMILES CCCCCCCCCCCCCCCCCCCCCCCC(=O)[O-]
REMARK SMILES IDX 13 1 14 2 15 3 16 4 17 5 18 6 19 7 20 8 21 9 22 10 23 11
REMARK SMILES IDX 24 12 25 13 26 14 12 15 11 16 10 17 9 18 8 19 7 20 6 21 5 22
REMARK SMILES IDX 4 23 3 24 2 25 1 26
REMARK H PARENT
REMARK Flexibility Score: inf
ROOT
ATOM      1  C   UNL     1       7.483 -17.149  20.466  1.00  0.00     0.000 C 
ENDROOT
BRANCH   1   2
ATOM      2  C   UNL     1       8.221 -18.168  21.344  1.00  0.00     0.000 C 
BRANCH   2   3
ATOM      3  C   UNL     1       8.201 -19.564  20.704  1.00  0.00     0.000 C 
BRANCH   3   4
ATOM      4  C   UNL     1       7.166 -20.466  21.392  1.00  0.00     0.000 C 
BRANCH   4   5
ATOM      5  C   UNL     1       6.890 -20.065  22.853  1.00  0.00     0.000 C 
BRANCH   5   6
ATOM      6  C   UNL     1       7.802 -20.732  23.906  1.00  0.00     0.000 C 
BRANCH   6   7
ATOM      7  C   UNL     1       8.643 -21.915  23.389  1.00  0.00     0.000 C 
BRANCH   7   8
ATOM      8  C   UNL     1      10.161 -21.662  23.368  1.00  0.00     0.000 C 
BRANCH   8   9
ATOM      9  C   UNL     1      10.545 -20.200  23.688  1.00  0.00     0.000 C 
BRANCH   9  10
ATOM     10  C   UNL     1      11.261 -20.067  25.042  1.00  0.00     0.006 C 
BRANCH  10  11
ATOM     11  C   UNL     1      12.413 -19.055  24.996  1.00  0.00     0.053 C 
BRANCH  11  12
ATOM     12  C   UNL     1      13.748 -19.718  25.149  1.00  0.00     0.041 C 
ATOM     13  O   UNL     1      14.629 -19.207  25.887  1.00  0.00    -0.550 OA
ATOM     14  O   UNL     1      14.008 -20.917  24.498  1.00  0.00    -0.550 OA
ENDBRANCH  11  12
ENDBRANCH  10  11
ENDBRANCH   9  10
ENDBRANCH   8   9
ENDBRANCH   7   8
ENDBRANCH   6   7
ENDBRANCH   5   6
ENDBRANCH   4   5
ENDBRANCH   3   4
ENDBRANCH   2   3
ENDBRANCH   1   2
BRANCH   1  15
ATOM     15  C   UNL     1       7.693 -15.697  20.928  1.00  0.00     0.000 C 
BRANCH  15  16
ATOM     16  C   UNL     1       6.496 -14.773  20.621  1.00  0.00     0.000 C 
BRANCH  16  17
ATOM     17  C   UNL     1       5.946 -14.088  21.881  1.00  0.00     0.000 C 
BRANCH  17  18
ATOM     18  C   UNL     1       6.713 -14.554  23.127  1.00  0.00    -0.000 C 
BRANCH  18  19
ATOM     19  C   UNL     1       5.870 -15.457  24.044  1.00  0.00    -0.000 C 
BRANCH  19  20
ATOM     20  C   UNL     1       6.504 -16.825  24.362  1.00  0.00    -0.000 C 
BRANCH  20  21
ATOM     21  C   UNL     1       6.777 -17.051  25.865  1.00  0.00    -0.000 C 
BRANCH  21  22
ATOM     22  C   UNL     1       8.280 -17.152  26.165  1.00  0.00    -0.000 C 
BRANCH  22  23
ATOM     23  C   UNL     1       9.113 -17.055  24.878  1.00  0.00    -0.000 C 
BRANCH  23  24
ATOM     24  C   UNL     1      10.189 -15.952  24.963  1.00  0.00    -0.000 C 
BRANCH  24  25
ATOM     25  C   UNL     1      10.325 -15.124  23.673  1.00  0.00    -0.003 C 
ATOM     26  C   UNL     1      11.075 -15.861  22.565  1.00  0.00     0.004 C 
ENDBRANCH  24  25
ENDBRANCH  23  24
ENDBRANCH  22  23
ENDBRANCH  21  22
ENDBRANCH  20  21
ENDBRANCH  19  20
ENDBRANCH  18  19
ENDBRANCH  17  18
ENDBRANCH  16  17
ENDBRANCH  15  16
ENDBRANCH   1  15
TORSDOF 22
ENDMDL
MODEL 3
REMARK VINA RESULT:    -4.272      2.018      3.748
REMARK INTER + INTRA:         -14.157
REMARK INTER:                 -10.275
REMARK INTRA:                  -3.881
REMARK UNBOUND:                -4.389
REMARK SMILES CCCCCCCCCCCCCCCCCCCCCCCC(=O)[O-]
REMARK SMILES IDX 13 1 14 2 15 3 16 4 17 5 18 6 19 7 20 8 21 9 22 10 23 11
REMARK SMILES IDX 24 12 25 13 26 14 12 15 11 16 10 17 9 18 8 19 7 20 6 21 5 22
REMARK SMILES IDX 4 23 3 24 2 25 1 26
REMARK H PARENT
REMARK Flexibility Score: inf
ROOT
ATOM      1  C   UNL     1       7.446 -19.749  22.580  1.00  0.00     0.000 C 
ENDROOT
BRANCH   1   2
ATOM      2  C   UNL     1       6.966 -20.462  21.309  1.00  0.00     0.000 C 
BRANCH   2   3
ATOM      3  C   UNL     1       8.131 -21.161  20.596  1.00  0.00     0.000 C 
BRANCH   3   4
ATOM      4  C   UNL     1       8.341 -22.578  21.150  1.00  0.00     0.000 C 
BRANCH   4   5
ATOM      5  C   UNL     1       9.825 -22.936  21.348  1.00  0.00     0.000 C 
BRANCH   5   6
ATOM      6  C   UNL     1      10.402 -22.616  22.743  1.00  0.00     0.000 C 
BRANCH   6   7
ATOM      7  C   UNL     1      11.541 -21.579  22.761  1.00  0.00     0.000 C 
BRANCH   7   8
ATOM      8  C   UNL     1      11.345 -20.426  23.762  1.00  0.00     0.000 C 
BRANCH   8   9
ATOM      9  C   UNL     1      10.892 -19.107  23.099  1.00  0.00     0.000 C 
BRANCH   9  10
ATOM     10  C   UNL     1      11.331 -17.870  23.900  1.00  0.00     0.006 C 
BRANCH  10  11
ATOM     11  C   UNL     1      11.687 -16.684  22.993  1.00  0.00     0.053 C 
BRANCH  11  12
ATOM     12  C   UNL     1      11.418 -15.368  23.659  1.00  0.00     0.041 C 
ATOM     13  O   UNL     1      11.811 -14.298  23.129  1.00  0.00    -0.550 OA
ATOM     14  O   UNL     1      10.707 -15.325  24.851  1.00  0.00    -0.550 OA
ENDBRANCH  11  12
ENDBRANCH  10  11
ENDBRANCH   9  10
ENDBRANCH   8   9
ENDBRANCH   7   8
ENDBRANCH   6   7
ENDBRANCH   5   6
ENDBRANCH   4   5
ENDBRANCH   3   4
ENDBRANCH   2   3
ENDBRANCH   1   2
BRANCH   1  15
ATOM     15  C   UNL     1       6.870 -20.363  23.867  1.00  0.00     0.000 C 
BRANCH  15  16
ATOM     16  C   UNL     1       7.930 -21.054  24.750  1.00  0.00     0.000 C 
BRANCH  16  17
ATOM     17  C   UNL     1       7.569 -21.010  26.242  1.00  0.00     0.000 C 
BRANCH  17  18
ATOM     18  C   UNL     1       7.372 -19.560  26.708  1.00  0.00    -0.000 C 
BRANCH  18  19
ATOM     19  C   UNL     1       8.577 -18.660  26.385  1.00  0.00    -0.000 C 
BRANCH  19  20
ATOM     20  C   UNL     1       8.225 -17.185  26.110  1.00  0.00    -0.000 C 
BRANCH  20  21
ATOM     21  C   UNL     1       6.716 -16.932  25.906  1.00  0.00    -0.000 C 
BRANCH  21  22
ATOM     22  C   UNL     1       6.380 -16.622  24.439  1.00  0.00    -0.000 C 
BRANCH  22  23
ATOM     23  C   UNL     1       7.653 -16.357  23.621  1.00  0.00    -0.000 C 
BRANCH  23  24
ATOM     24  C   UNL     1       7.728 -14.900  23.117  1.00  0.00    -0.000 C 
BRANCH  24  25
ATOM     25  C   UNL     1       6.350 -14.248  22.914  1.00  0.00    -0.003 C 
ATOM     26  C   UNL     1       5.968 -14.100  21.442  1.00  0.00     0.004 C 
ENDBRANCH  24  25
ENDBRANCH  23  24
ENDBRANCH  22  23
ENDBRANCH  21  22
ENDBRANCH  20  21
ENDBRANCH  19  20
ENDBRANCH  18  19
ENDBRANCH  17  18
ENDBRANCH  16  17
ENDBRANCH  15  16
ENDBRANCH   1  15
TORSDOF 22
ENDMDL
MODEL 4
REMARK VINA RESULT:    -4.257      2.520      6.367
REMARK INTER + INTRA:         -14.120
REMARK INTER:                 -10.490
REMARK INTRA:                  -3.630
REMARK UNBOUND:                -4.389
REMARK SMILES CCCCCCCCCCCCCCCCCCCCCCCC(=O)[O-]
REMARK SMILES IDX 13 1 14 2 15 3 16 4 17 5 18 6 19 7 20 8 21 9 22 10 23 11
REMARK SMILES IDX 24 12 25 13 26 14 12 15 11 16 10 17 9 18 8 19 7 20 6 21 5 22
REMARK SMILES IDX 4 23 3 24 2 25 1 26
REMARK H PARENT
REMARK Flexibility Score: inf
ROOT
ATOM      1  C   UNL     1       6.753 -17.195  24.531  1.00  0.00     0.000 C 
ENDROOT
BRANCH   1   2
ATOM      2  C   UNL     1       6.101 -15.904  24.019  1.00  0.00     0.000 C 
BRANCH   2   3
ATOM      3  C   UNL     1       7.118 -14.755  23.970  1.00  0.00     0.000 C 
BRANCH   3   4
ATOM      4  C   UNL     1       6.749 -13.744  22.876  1.00  0.00     0.000 C 
BRANCH   4   5
ATOM      5  C   UNL     1       5.819 -14.331  21.799  1.00  0.00     0.000 C 
BRANCH   5   6
ATOM      6  C   UNL     1       6.376 -14.308  20.359  1.00  0.00     0.000 C 
BRANCH   6   7
ATOM      7  C   UNL     1       6.775 -15.682  19.787  1.00  0.00     0.000 C 
BRANCH   7   8
ATOM      8  C   UNL     1       7.669 -16.527  20.712  1.00  0.00     0.000 C 
BRANCH   8   9
ATOM      9  C   UNL     1       7.812 -17.996  20.254  1.00  0.00     0.000 C 
BRANCH   9  10
ATOM     10  C   UNL     1       7.776 -18.981  21.434  1.00  0.00     0.006 C 
BRANCH  10  11
ATOM     11  C   UNL     1       7.130 -20.321  21.056  1.00  0.00     0.053 C 
BRANCH  11  12
ATOM     12  C   UNL     1       8.147 -21.334  20.628  1.00  0.00     0.041 C 
ATOM     13  O   UNL     1       8.557 -22.203  21.440  1.00  0.00    -0.550 OA
ATOM     14  O   UNL     1       8.620 -21.335  19.323  1.00  0.00    -0.550 OA
ENDBRANCH  11  12
ENDBRANCH  10  11
ENDBRANCH   9  10
ENDBRANCH   8   9
ENDBRANCH   7   8
ENDBRANCH   6   7
ENDBRANCH   5   6
ENDBRANCH   4   5
ENDBRANCH   3   4
ENDBRANCH   2   3
ENDBRANCH   1   2
BRANCH   1  15
ATOM     15  C   UNL     1       7.216 -17.093  25.994  1.00  0.00     0.000 C 
BRANCH  15  16
ATOM     16  C   UNL     1       7.908 -18.370  26.513  1.00  0.00     0.000 C 
BRANCH  16  17
ATOM     17  C   UNL     1       6.903 -19.425  26.999  1.00  0.00     0.000 C 
BRANCH  17  18
ATOM     18  C   UNL     1       7.202 -20.791  26.364  1.00  0.00    -0.000 C 
BRANCH  18  19
ATOM     19  C   UNL     1       7.767 -20.674  24.938  1.00  0.00    -0.000 C 
BRANCH  19  20
ATOM     20  C   UNL     1       9.111 -21.395  24.716  1.00  0.00    -0.000 C 
BRANCH  20  21
ATOM     21  C   UNL     1      10.346 -20.502  24.964  1.00  0.00    -0.000 C 
BRANCH  21  22
ATOM     22  C   UNL     1      10.803 -19.786  23.684  1.00  0.00    -0.000 C 
BRANCH  22  23
ATOM     23  C   UNL     1      10.317 -18.329  23.658  1.00  0.00    -0.000 C 
BRANCH  23  24
ATOM     24  C   UNL     1      10.918 -17.493  24.808  1.00  0.00    -0.000 C 
BRANCH  24  25
ATOM     25  C   UNL     1      11.677 -16.244  24.329  1.00  0.00    -0.003 C 
ATOM     26  C   UNL     1      10.754 -15.072  23.999  1.00  0.00     0.004 C 
ENDBRANCH  24  25
ENDBRANCH  23  24
ENDBRANCH  22  23
ENDBRANCH  21  22
ENDBRANCH  20  21
ENDBRANCH  19  20
ENDBRANCH  18  19
ENDBRANCH  17  18
ENDBRANCH  16  17
ENDBRANCH  15  16
ENDBRANCH   1  15
TORSDOF 22
ENDMDL
MODEL 5
REMARK VINA RESULT:    -4.238      1.783      5.419
REMARK INTER + INTRA:         -14.078
REMARK INTER:                  -9.399
REMARK INTRA:                  -4.679
REMARK UNBOUND:                -4.389
REMARK SMILES CCCCCCCCCCCCCCCCCCCCCCCC(=O)[O-]
REMARK SMILES IDX 13 1 14 2 15 3 16 4 17 5 18 6 19 7 20 8 21 9 22 10 23 11
REMARK SMILES IDX 24 12 25 13 26 14 12 15 11 16 10 17 9 18 8 19 7 20 6 21 5 22
REMARK SMILES IDX 4 23 3 24 2 25 1 26
REMARK H PARENT
REMARK Flexibility Score: inf
ROOT
ATOM      1  C   UNL     1       7.840 -17.395  22.509  1.00  0.00     0.000 C 
ENDROOT
BRANCH   1   2
ATOM      2  C   UNL     1       7.628 -15.875  22.490  1.00  0.00     0.000 C 
BRANCH   2   3
ATOM      3  C   UNL     1       7.053 -15.382  23.825  1.00  0.00     0.000 C 
BRANCH   3   4
ATOM      4  C   UNL     1       8.127 -14.657  24.649  1.00  0.00     0.000 C 
BRANCH   4   5
ATOM      5  C   UNL     1       8.203 -15.146  26.107  1.00  0.00     0.000 C 
BRANCH   5   6
ATOM      6  C   UNL     1       7.918 -16.649  26.316  1.00  0.00     0.000 C 
BRANCH   6   7
ATOM      7  C   UNL     1       9.137 -17.577  26.151  1.00  0.00     0.000 C 
BRANCH   7   8
ATOM      8  C   UNL     1      10.490 -16.850  26.060  1.00  0.00     0.000 C 
BRANCH   8   9
ATOM      9  C   UNL     1      11.178 -17.000  24.685  1.00  0.00     0.000 C 
BRANCH   9  10
ATOM     10  C   UNL     1      10.971 -18.398  24.079  1.00  0.00     0.006 C 
BRANCH  10  11
ATOM     11  C   UNL     1      12.237 -19.261  24.156  1.00  0.00     0.053 C 
BRANCH  11  12
ATOM     12  C   UNL     1      12.074 -20.415  25.099  1.00  0.00     0.041 C 
ATOM     13  O   UNL     1      12.379 -21.579  24.734  1.00  0.00    -0.550 OA
ATOM     14  O   UNL     1      11.612 -20.197  26.390  1.00  0.00    -0.550 OA
ENDBRANCH  11  12
ENDBRANCH  10  11
ENDBRANCH   9  10
ENDBRANCH   8   9
ENDBRANCH   7   8
ENDBRANCH   6   7
ENDBRANCH   5   6
ENDBRANCH   4   5
ENDBRANCH   3   4
ENDBRANCH   2   3
ENDBRANCH   1   2
BRANCH   1  15
ATOM     15  C   UNL     1       6.764 -18.139  23.318  1.00  0.00     0.000 C 
BRANCH  15  16
ATOM     16  C   UNL     1       6.874 -19.675  23.224  1.00  0.00     0.000 C 
BRANCH  16  17
ATOM     17  C   UNL     1       7.117 -20.330  24.592  1.00  0.00     0.000 C 
BRANCH  17  18
ATOM     18  C   UNL     1       8.265 -21.346  24.508  1.00  0.00    -0.000 C 
BRANCH  18  19
ATOM     19  C   UNL     1       9.058 -21.244  23.194  1.00  0.00    -0.000 C 
BRANCH  19  20
ATOM     20  C   UNL     1       9.607 -22.583  22.665  1.00  0.00    -0.000 C 
BRANCH  20  21
ATOM     21  C   UNL     1       8.992 -23.021  21.319  1.00  0.00    -0.000 C 
BRANCH  21  22
ATOM     22  C   UNL     1       7.994 -21.985  20.780  1.00  0.00    -0.000 C 
BRANCH  22  23
ATOM     23  C   UNL     1       8.548 -21.272  19.537  1.00  0.00    -0.000 C 
BRANCH  23  24
ATOM     24  C   UNL     1       8.902 -19.797  19.820  1.00  0.00    -0.000 C 
BRANCH  24  25
ATOM     25  C   UNL     1      10.369 -19.583  20.228  1.00  0.00    -0.003 C 
ATOM     26  C   UNL     1      10.742 -18.109  20.375  1.00  0.00     0.004 C 
ENDBRANCH  24  25
ENDBRANCH  23  24
ENDBRANCH  22  23
ENDBRANCH  21  22
ENDBRANCH  20  21
ENDBRANCH  19  20
ENDBRANCH  18  19
ENDBRANCH  17  18
ENDBRANCH  16  17
ENDBRANCH  15  16
ENDBRANCH   1  15
TORSDOF 22
ENDMDL
MODEL 6
REMARK VINA RESULT:    -4.233      2.447      6.830
REMARK INTER + INTRA:         -14.066
REMARK INTER:                  -9.029
REMARK INTRA:                  -5.037
REMARK UNBOUND:                -4.389
REMARK SMILES CCCCCCCCCCCCCCCCCCCCCCCC(=O)[O-]
REMARK SMILES IDX 13 1 14 2 15 3 16 4 17 5 18 6 19 7 20 8 21 9 22 10 23 11
REMARK SMILES IDX 24 12 25 13 26 14 12 15 11 16 10 17 9 18 8 19 7 20 6 21 5 22
REMARK SMILES IDX 4 23 3 24 2 25 1 26
REMARK H PARENT
REMARK Flexibility Score: inf
ROOT
ATOM      1  C   UNL     1       7.266 -19.844  22.070  1.00  0.00     0.000 C 
ENDROOT
BRANCH   1   2
ATOM      2  C   UNL     1       8.424 -18.936  21.636  1.00  0.00     0.000 C 
BRANCH   2   3
ATOM      3  C   UNL     1       9.722 -19.739  21.471  1.00  0.00     0.000 C 
BRANCH   3   4
ATOM      4  C   UNL     1      10.841 -19.157  22.346  1.00  0.00     0.000 C 
BRANCH   4   5
ATOM      5  C   UNL     1      10.385 -17.951  23.187  1.00  0.00     0.000 C 
BRANCH   5   6
ATOM      6  C   UNL     1      10.727 -18.026  24.690  1.00  0.00     0.000 C 
BRANCH   6   7
ATOM      7  C   UNL     1      10.652 -16.686  25.448  1.00  0.00     0.000 C 
BRANCH   7   8
ATOM      8  C   UNL     1       9.611 -16.647  26.581  1.00  0.00     0.000 C 
BRANCH   8   9
ATOM      9  C   UNL     1       8.411 -17.592  26.346  1.00  0.00     0.000 C 
BRANCH   9  10
ATOM     10  C   UNL     1       7.139 -16.830  25.940  1.00  0.00     0.006 C 
BRANCH  10  11
ATOM     11  C   UNL     1       6.963 -16.758  24.418  1.00  0.00     0.053 C 
BRANCH  11  12
ATOM     12  C   UNL     1       7.000 -15.347  23.915  1.00  0.00     0.041 C 
ATOM     13  O   UNL     1       6.295 -15.005  22.931  1.00  0.00    -0.550 OA
ATOM     14  O   UNL     1       7.794 -14.403  24.553  1.00  0.00    -0.550 OA
ENDBRANCH  11  12
ENDBRANCH  10  11
ENDBRANCH   9  10
ENDBRANCH   8   9
ENDBRANCH   7   8
ENDBRANCH   6   7
ENDBRANCH   5   6
ENDBRANCH   4   5
ENDBRANCH   3   4
ENDBRANCH   2   3
ENDBRANCH   1   2
BRANCH   1  15
ATOM     15  C   UNL     1       7.721 -21.011  22.963  1.00  0.00     0.000 C 
BRANCH  15  16
ATOM     16  C   UNL     1       7.639 -20.702  24.472  1.00  0.00     0.000 C 
BRANCH  16  17
ATOM     17  C   UNL     1       8.887 -21.171  25.235  1.00  0.00     0.000 C 
BRANCH  17  18
ATOM     18  C   UNL     1       9.762 -22.063  24.343  1.00  0.00    -0.000 C 
BRANCH  18  19
ATOM     19  C   UNL     1      11.018 -22.581  25.065  1.00  0.00    -0.000 C 
BRANCH  19  20
ATOM     20  C   UNL     1      12.353 -22.142  24.433  1.00  0.00    -0.000 C 
BRANCH  20  21
ATOM     21  C   UNL     1      12.965 -20.882  25.080  1.00  0.00    -0.000 C 
BRANCH  21  22
ATOM     22  C   UNL     1      13.878 -21.230  26.265  1.00  0.00    -0.000 C 
BRANCH  22  23
ATOM     23  C   UNL     1      13.165 -20.993  27.605  1.00  0.00    -0.000 C 
BRANCH  23  24
ATOM     24  C   UNL     1      12.392 -19.657  27.625  1.00  0.00    -0.000 C 
BRANCH  24  25
ATOM     25  C   UNL     1      10.933 -19.796  28.090  1.00  0.00    -0.003 C 
ATOM     26  C   UNL     1      10.596 -21.199  28.594  1.00  0.00     0.004 C 
ENDBRANCH  24  25
ENDBRANCH  23  24
ENDBRANCH  22  23
ENDBRANCH  21  22
ENDBRANCH  20  21
ENDBRANCH  19  20
ENDBRANCH  18  19
ENDBRANCH  17  18
ENDBRANCH  16  17
ENDBRANCH  15  16
ENDBRANCH   1  15
TORSDOF 22
ENDMDL
MODEL 7
REMARK VINA RESULT:    -4.209      1.946      3.932
REMARK INTER + INTRA:         -14.012
REMARK INTER:                 -10.360
REMARK INTRA:                  -3.652
REMARK UNBOUND:                -4.389
REMARK SMILES CCCCCCCCCCCCCCCCCCCCCCCC(=O)[O-]
REMARK SMILES IDX 13 1 14 2 15 3 16 4 17 5 18 6 19 7 20 8 21 9 22 10 23 11
REMARK SMILES IDX 24 12 25 13 26 14 12 15 11 16 10 17 9 18 8 19 7 20 6 21 5 22
REMARK SMILES IDX 4 23 3 24 2 25 1 26
REMARK H PARENT
REMARK Flexibility Score: inf
ROOT
ATOM      1  C   UNL     1       7.503 -17.507  19.805  1.00  0.00     0.000 C 
ENDROOT
BRANCH   1   2
ATOM      2  C   UNL     1       8.131 -18.651  20.613  1.00  0.00     0.000 C 
BRANCH   2   3
ATOM      3  C   UNL     1       8.023 -18.383  22.121  1.00  0.00     0.000 C 
BRANCH   3   4
ATOM      4  C   UNL     1       7.071 -19.386  22.788  1.00  0.00     0.000 C 
BRANCH   4   5
ATOM      5  C   UNL     1       7.708 -20.771  23.007  1.00  0.00     0.000 C 
BRANCH   5   6
ATOM      6  C   UNL     1       8.339 -20.995  24.398  1.00  0.00     0.000 C 
BRANCH   6   7
ATOM      7  C   UNL     1       7.410 -20.712  25.594  1.00  0.00     0.000 C 
BRANCH   7   8
ATOM      8  C   UNL     1       8.124 -20.616  26.954  1.00  0.00     0.000 C 
BRANCH   8   9
ATOM      9  C   UNL     1       9.638 -20.914  26.875  1.00  0.00     0.000 C 
BRANCH   9  10
ATOM     10  C   UNL     1      10.439 -20.159  27.948  1.00  0.00     0.006 C 
BRANCH  10  11
ATOM     11  C   UNL     1      11.669 -20.945  28.420  1.00  0.00     0.053 C 
BRANCH  11  12
ATOM     12  C   UNL     1      11.741 -21.031  29.914  1.00  0.00     0.041 C 
ATOM     13  O   UNL     1      12.692 -20.490  30.535  1.00  0.00    -0.550 OA
ATOM     14  O   UNL     1      10.741 -21.683  30.622  1.00  0.00    -0.550 OA
ENDBRANCH  11  12
ENDBRANCH  10  11
ENDBRANCH   9  10
ENDBRANCH   8   9
ENDBRANCH   7   8
ENDBRANCH   6   7
ENDBRANCH   5   6
ENDBRANCH   4   5
ENDBRANCH   3   4
ENDBRANCH   2   3
ENDBRANCH   1   2
BRANCH   1  15
ATOM     15  C   UNL     1       7.865 -16.117  20.353  1.00  0.00     0.000 C 
BRANCH  15  16
ATOM     16  C   UNL     1       6.712 -15.097  20.259  1.00  0.00     0.000 C 
BRANCH  16  17
ATOM     17  C   UNL     1       6.402 -14.436  21.611  1.00  0.00     0.000 C 
BRANCH  17  18
ATOM     18  C   UNL     1       7.390 -14.914  22.685  1.00  0.00    -0.000 C 
BRANCH  18  19
ATOM     19  C   UNL     1       6.770 -14.950  24.092  1.00  0.00    -0.000 C 
BRANCH  19  20
ATOM     20  C   UNL     1       6.058 -16.269  24.450  1.00  0.00    -0.000 C 
BRANCH  20  21
ATOM     21  C   UNL     1       6.676 -17.004  25.658  1.00  0.00    -0.000 C 
BRANCH  21  22
ATOM     22  C   UNL     1       7.858 -16.228  26.258  1.00  0.00    -0.000 C 
BRANCH  22  23
ATOM     23  C   UNL     1       9.109 -17.115  26.365  1.00  0.00    -0.000 C 
BRANCH  23  24
ATOM     24  C   UNL     1      10.354 -16.441  25.750  1.00  0.00    -0.000 C 
BRANCH  24  25
ATOM     25  C   UNL     1      11.489 -17.428  25.424  1.00  0.00    -0.003 C 
ATOM     26  C   UNL     1      11.079 -18.502  24.418  1.00  0.00     0.004 C 
ENDBRANCH  24  25
ENDBRANCH  23  24
ENDBRANCH  22  23
ENDBRANCH  21  22
ENDBRANCH  20  21
ENDBRANCH  19  20
ENDBRANCH  18  19
ENDBRANCH  17  18
ENDBRANCH  16  17
ENDBRANCH  15  16
ENDBRANCH   1  15
TORSDOF 22
ENDMDL
MODEL 8
REMARK VINA RESULT:    -4.204      2.395      6.124
REMARK INTER + INTRA:         -14.001
REMARK INTER:                  -9.693
REMARK INTRA:                  -4.308
REMARK UNBOUND:                -4.389
REMARK SMILES CCCCCCCCCCCCCCCCCCCCCCCC(=O)[O-]
REMARK SMILES IDX 13 1 14 2 15 3 16 4 17 5 18 6 19 7 20 8 21 9 22 10 23 11
REMARK SMILES IDX 24 12 25 13 26 14 12 15 11 16 10 17 9 18 8 19 7 20 6 21 5 22
REMARK SMILES IDX 4 23 3 24 2 25 1 26
REMARK H PARENT
REMARK Flexibility Score: inf
ROOT
ATOM      1  C   UNL     1       9.380 -21.319  24.412  1.00  0.00     0.000 C 
ENDROOT
BRANCH   1   2
ATOM      2  C   UNL     1       7.863 -21.141  24.561  1.00  0.00     0.000 C 
BRANCH   2   3
ATOM      3  C   UNL     1       7.488 -19.654  24.634  1.00  0.00     0.000 C 
BRANCH   3   4
ATOM      4  C   UNL     1       7.477 -19.163  26.088  1.00  0.00     0.000 C 
BRANCH   4   5
ATOM      5  C   UNL     1       8.150 -17.790  26.268  1.00  0.00     0.000 C 
BRANCH   5   6
ATOM      6  C   UNL     1       9.681 -17.825  26.465  1.00  0.00     0.000 C 
BRANCH   6   7
ATOM      7  C   UNL     1      10.416 -16.515  26.122  1.00  0.00     0.000 C 
BRANCH   7   8
ATOM      8  C   UNL     1      10.783 -16.355  24.635  1.00  0.00     0.000 C 
BRANCH   8   9
ATOM      9  C   UNL     1      10.319 -15.012  24.029  1.00  0.00     0.000 C 
BRANCH   9  10
ATOM     10  C   UNL     1       8.815 -14.768  24.233  1.00  0.00     0.006 C 
BRANCH  10  11
ATOM     11  C   UNL     1       7.953 -15.590  23.265  1.00  0.00     0.053 C 
BRANCH  11  12
ATOM     12  C   UNL     1       6.492 -15.307  23.435  1.00  0.00     0.041 C 
ATOM     13  O   UNL     1       5.931 -14.424  22.737  1.00  0.00    -0.550 OA
ATOM     14  O   UNL     1       5.744 -16.041  24.346  1.00  0.00    -0.550 OA
ENDBRANCH  11  12
ENDBRANCH  10  11
ENDBRANCH   9  10
ENDBRANCH   8   9
ENDBRANCH   7   8
ENDBRANCH   6   7
ENDBRANCH   5   6
ENDBRANCH   4   5
ENDBRANCH   3   4
ENDBRANCH   2   3
ENDBRANCH   1   2
BRANCH   1  15
ATOM     15  C   UNL     1       9.762 -22.620  23.685  1.00  0.00     0.000 C 
BRANCH  15  16
ATOM     16  C   UNL     1       9.922 -22.450  22.160  1.00  0.00     0.000 C 
BRANCH  16  17
ATOM     17  C   UNL     1       8.685 -22.925  21.384  1.00  0.00     0.000 C 
BRANCH  17  18
ATOM     18  C   UNL     1       8.271 -21.883  20.335  1.00  0.00    -0.000 C 
BRANCH  18  19
ATOM     19  C   UNL     1       7.632 -20.630  20.958  1.00  0.00    -0.000 C 
BRANCH  19  20
ATOM     20  C   UNL     1       8.337 -19.305  20.608  1.00  0.00    -0.000 C 
BRANCH  20  21
ATOM     21  C   UNL     1       9.319 -18.815  21.695  1.00  0.00    -0.000 C 
BRANCH  21  22
ATOM     22  C   UNL     1      10.282 -17.746  21.157  1.00  0.00    -0.000 C 
BRANCH  22  23
ATOM     23  C   UNL     1      11.746 -18.127  21.432  1.00  0.00    -0.000 C 
BRANCH  23  24
ATOM     24  C   UNL     1      11.868 -19.238  22.497  1.00  0.00    -0.000 C 
BRANCH  24  25
ATOM     25  C   UNL     1      12.898 -20.322  22.140  1.00  0.00    -0.003 C 
ATOM     26  C   UNL     1      12.800 -20.788  20.688  1.00  0.00     0.004 C 
ENDBRANCH  24  25
ENDBRANCH  23  24
ENDBRANCH  22  23
ENDBRANCH  21  22
ENDBRANCH  20  21
ENDBRANCH  19  20
ENDBRANCH  18  19
ENDBRANCH  17  18
ENDBRANCH  16  17
ENDBRANCH  15  16
ENDBRANCH   1  15
TORSDOF 22
ENDMDL
MODEL 9
REMARK VINA RESULT:    -4.202      1.978      5.240
REMARK INTER + INTRA:         -13.995
REMARK INTER:                  -9.425
REMARK INTRA:                  -4.570
REMARK UNBOUND:                -4.389
REMARK SMILES CCCCCCCCCCCCCCCCCCCCCCCC(=O)[O-]
REMARK SMILES IDX 13 1 14 2 15 3 16 4 17 5 18 6 19 7 20 8 21 9 22 10 23 11
REMARK SMILES IDX 24 12 25 13 26 14 12 15 11 16 10 17 9 18 8 19 7 20 6 21 5 22
REMARK SMILES IDX 4 23 3 24 2 25 1 26
REMARK H PARENT
REMARK Flexibility Score: inf
ROOT
ATOM      1  C   UNL     1       6.686 -16.616  25.190  1.00  0.00     0.000 C 
ENDROOT
BRANCH   1   2
ATOM      2  C   UNL     1       6.514 -15.840  23.877  1.00  0.00     0.000 C 
BRANCH   2   3
ATOM      3  C   UNL     1       7.160 -14.451  23.969  1.00  0.00     0.000 C 
BRANCH   3   4
ATOM      4  C   UNL     1       8.421 -14.491  24.844  1.00  0.00     0.000 C 
BRANCH   4   5
ATOM      5  C   UNL     1       9.725 -14.391  24.030  1.00  0.00     0.000 C 
BRANCH   5   6
ATOM      6  C   UNL     1      10.763 -15.500  24.306  1.00  0.00     0.000 C 
BRANCH   6   7
ATOM      7  C   UNL     1      10.499 -16.347  25.565  1.00  0.00     0.000 C 
BRANCH   7   8
ATOM      8  C   UNL     1      10.841 -17.841  25.418  1.00  0.00     0.000 C 
BRANCH   8   9
ATOM      9  C   UNL     1      10.822 -18.333  23.954  1.00  0.00     0.000 C 
BRANCH   9  10
ATOM     10  C   UNL     1      11.930 -19.360  23.669  1.00  0.00     0.006 C 
BRANCH  10  11
ATOM     11  C   UNL     1      12.646 -19.817  24.948  1.00  0.00     0.053 C 
BRANCH  11  12
ATOM     12  C   UNL     1      14.093 -19.432  24.949  1.00  0.00     0.041 C 
ATOM     13  O   UNL     1      14.642 -19.023  23.894  1.00  0.00    -0.550 OA
ATOM     14  O   UNL     1      14.829 -19.497  26.125  1.00  0.00    -0.550 OA
ENDBRANCH  11  12
ENDBRANCH  10  11
ENDBRANCH   9  10
ENDBRANCH   8   9
ENDBRANCH   7   8
ENDBRANCH   6   7
ENDBRANCH   5   6
ENDBRANCH   4   5
ENDBRANCH   3   4
ENDBRANCH   2   3
ENDBRANCH   1   2
BRANCH   1  15
ATOM     15  C   UNL     1       7.211 -18.046  24.977  1.00  0.00     0.000 C 
BRANCH  15  16
ATOM     16  C   UNL     1       7.110 -18.530  23.516  1.00  0.00     0.000 C 
BRANCH  16  17
ATOM     17  C   UNL     1       6.735 -20.016  23.415  1.00  0.00     0.000 C 
BRANCH  17  18
ATOM     18  C   UNL     1       7.855 -20.896  23.989  1.00  0.00    -0.000 C 
BRANCH  18  19
ATOM     19  C   UNL     1       8.843 -21.380  22.914  1.00  0.00    -0.000 C 
BRANCH  19  20
ATOM     20  C   UNL     1       8.190 -21.814  21.587  1.00  0.00    -0.000 C 
BRANCH  20  21
ATOM     21  C   UNL     1       8.417 -20.821  20.427  1.00  0.00    -0.000 C 
BRANCH  21  22
ATOM     22  C   UNL     1       9.576 -19.856  20.717  1.00  0.00    -0.000 C 
BRANCH  22  23
ATOM     23  C   UNL     1       9.535 -18.640  19.777  1.00  0.00    -0.000 C 
BRANCH  23  24
ATOM     24  C   UNL     1      10.020 -17.350  20.473  1.00  0.00    -0.000 C 
BRANCH  24  25
ATOM     25  C   UNL     1       8.900 -16.582  21.193  1.00  0.00    -0.003 C 
ATOM     26  C   UNL     1       7.604 -16.514  20.386  1.00  0.00     0.004 C 
ENDBRANCH  24  25
ENDBRANCH  23  24
ENDBRANCH  22  23
ENDBRANCH  21  22
ENDBRANCH  20  21
ENDBRANCH  19  20
ENDBRANCH  18  19
ENDBRANCH  17  18
ENDBRANCH  16  17
ENDBRANCH  15  16
ENDBRANCH   1  15
TORSDOF 22
ENDMDL
