MODEL 1
REMARK VINA RESULT:    -6.610      0.000      0.000
REMARK INTER + INTRA:          -8.257
REMARK INTER:                  -7.962
REMARK INTRA:                  -0.294
REMARK UNBOUND:                -0.294
REMARK SMILES O=c1c(O)c(-c2ccc(O)c(O)c2)oc2cc(O)cc(O)c12
REMARK SMILES IDX 5 1 3 2 2 3 1 4 22 5 20 6 19 7 17 8 16 9 15 10 14 11 6 12
REMARK SMILES IDX 7 13 8 14 9 15 13 16 11 17 10 18 12 20 4 22 21 24 18 26
REMARK H PARENT 10 19 12 21 4 23 21 25 18 27
REMARK Flexibility Score: inf
ROOT
ATOM      1  C   UNL     1     139.008 134.686 146.221  1.00  0.00     0.180 A 
ATOM      2  C   UNL     1     140.361 134.551 145.852  1.00  0.00     0.208 A 
ATOM      3  C   UNL     1     141.112 135.710 145.598  1.00  0.00     0.238 A 
ATOM      4  O   UNL     1     142.327 135.602 145.277  1.00  0.00    -0.285 OA
ATOM      5  C   UNL     1     140.498 136.975 145.697  1.00  0.00     0.111 A 
ATOM      6  C   UNL     1     141.183 138.190 145.453  1.00  0.00     0.134 A 
ATOM      7  C   UNL     1     140.499 139.409 145.563  1.00  0.00     0.093 A 
ATOM      8  C   UNL     1     139.147 139.438 145.910  1.00  0.00     0.123 A 
ATOM      9  C   UNL     1     138.464 138.241 146.153  1.00  0.00     0.094 A 
ATOM     10  C   UNL     1     139.128 137.016 146.050  1.00  0.00     0.146 A 
ATOM     11  O   UNL     1     138.458 135.894 146.290  1.00  0.00    -0.452 OA
ENDROOT
BRANCH   1  12
ATOM     12  C   UNL     1     138.155 133.513 146.524  1.00  0.00     0.025 A 
ATOM     13  C   UNL     1     137.586 132.784 145.468  1.00  0.00     0.016 A 
ATOM     14  C   UNL     1     136.761 131.687 145.730  1.00  0.00     0.051 A 
ATOM     15  C   UNL     1     136.481 131.314 147.051  1.00  0.00     0.157 A 
ATOM     16  C   UNL     1     137.855 133.147 147.848  1.00  0.00     0.062 A 
ATOM     17  C   UNL     1     137.026 132.048 148.112  1.00  0.00     0.158 A 
BRANCH  15  18
ATOM     18  O   UNL     1     135.660 130.219 147.317  1.00  0.00    -0.504 OA
ATOM     19  H   UNL     1     134.960 129.909 146.654  1.00  0.00     0.293 HD
ENDBRANCH  15  18
BRANCH  17  20
ATOM     20  O   UNL     1     136.734 131.683 149.425  1.00  0.00    -0.504 OA
ATOM     21  H   UNL     1     135.830 131.305 149.681  1.00  0.00     0.293 HD
ENDBRANCH  17  20
ENDBRANCH   1  12
BRANCH   2  22
ATOM     22  O   UNL     1     140.933 133.284 145.712  1.00  0.00    -0.502 OA
ATOM     23  H   UNL     1     140.671 132.503 146.299  1.00  0.00     0.293 HD
ENDBRANCH   2  22
BRANCH   6  24
ATOM     24  O   UNL     1     142.534 138.194 145.104  1.00  0.00    -0.507 OA
ATOM     25  H   UNL     1     142.899 138.816 144.391  1.00  0.00     0.293 HD
ENDBRANCH   6  24
BRANCH   8  26
ATOM     26  O   UNL     1     138.490 140.662 146.013  1.00  0.00    -0.508 OA
ATOM     27  H   UNL     1     138.010 140.937 146.862  1.00  0.00     0.293 HD
ENDBRANCH   8  26
TORSDOF 6
ENDMDL
MODEL 2
REMARK VINA RESULT:    -6.438      2.758      4.702
REMARK INTER + INTRA:          -8.049
REMARK INTER:                  -7.743
REMARK INTRA:                  -0.306
REMARK UNBOUND:                -0.294
REMARK SMILES O=c1c(O)c(-c2ccc(O)c(O)c2)oc2cc(O)cc(O)c12
REMARK SMILES IDX 5 1 3 2 2 3 1 4 22 5 20 6 19 7 17 8 16 9 15 10 14 11 6 12
REMARK SMILES IDX 7 13 8 14 9 15 13 16 11 17 10 18 12 20 4 22 21 24 18 26
REMARK H PARENT 10 19 12 21 4 23 21 25 18 27
REMARK Flexibility Score: inf
ROOT
ATOM      1  C   UNL     1     136.225 133.214 147.894  1.00  0.00     0.180 A 
ATOM      2  C   UNL     1     136.230 132.360 146.774  1.00  0.00     0.208 A 
ATOM      3  C   UNL     1     137.229 132.523 145.802  1.00  0.00     0.238 A 
ATOM      4  O   UNL     1     137.249 131.757 144.799  1.00  0.00    -0.285 OA
ATOM      5  C   UNL     1     138.191 133.542 145.954  1.00  0.00     0.111 A 
ATOM      6  C   UNL     1     139.228 133.776 145.019  1.00  0.00     0.134 A 
ATOM      7  C   UNL     1     140.141 134.817 145.237  1.00  0.00     0.093 A 
ATOM      8  C   UNL     1     140.038 135.629 146.369  1.00  0.00     0.123 A 
ATOM      9  C   UNL     1     139.016 135.403 147.297  1.00  0.00     0.094 A 
ATOM     10  C   UNL     1     138.097 134.370 147.098  1.00  0.00     0.146 A 
ATOM     11  O   UNL     1     137.139 134.174 147.997  1.00  0.00    -0.452 OA
ENDROOT
BRANCH   1  12
ATOM     12  C   UNL     1     135.215 133.093 148.971  1.00  0.00     0.025 A 
ATOM     13  C   UNL     1     133.962 133.705 148.813  1.00  0.00     0.016 A 
ATOM     14  C   UNL     1     133.001 133.622 149.824  1.00  0.00     0.051 A 
ATOM     15  C   UNL     1     133.286 132.939 151.014  1.00  0.00     0.157 A 
ATOM     16  C   UNL     1     135.504 132.426 150.175  1.00  0.00     0.062 A 
ATOM     17  C   UNL     1     134.542 132.344 151.191  1.00  0.00     0.158 A 
BRANCH  15  18
ATOM     18  O   UNL     1     132.331 132.852 152.025  1.00  0.00    -0.504 OA
ATOM     19  H   UNL     1     131.785 132.010 152.166  1.00  0.00     0.293 HD
ENDBRANCH  15  18
BRANCH  17  20
ATOM     20  O   UNL     1     134.827 131.678 152.382  1.00  0.00    -0.504 OA
ATOM     21  H   UNL     1     135.076 130.696 152.393  1.00  0.00     0.293 HD
ENDBRANCH  17  20
ENDBRANCH   1  12
BRANCH   2  22
ATOM     22  O   UNL     1     135.236 131.390 146.620  1.00  0.00    -0.502 OA
ATOM     23  H   UNL     1     134.251 131.620 146.597  1.00  0.00     0.293 HD
ENDBRANCH   2  22
BRANCH   6  24
ATOM     24  O   UNL     1     139.358 132.982 143.878  1.00  0.00    -0.507 OA
ATOM     25  H   UNL     1     139.769 132.056 143.917  1.00  0.00     0.293 HD
ENDBRANCH   6  24
BRANCH   8  26
ATOM     26  O   UNL     1     140.957 136.657 146.563  1.00  0.00    -0.508 OA
ATOM     27  H   UNL     1     141.732 136.803 145.926  1.00  0.00     0.293 HD
ENDBRANCH   8  26
TORSDOF 6
ENDMDL
MODEL 3
REMARK VINA RESULT:    -6.261      9.202     11.372
REMARK INTER + INTRA:          -7.837
REMARK INTER:                  -7.515
REMARK INTRA:                  -0.322
REMARK UNBOUND:                -0.294
REMARK SMILES O=c1c(O)c(-c2ccc(O)c(O)c2)oc2cc(O)cc(O)c12
REMARK SMILES IDX 5 1 3 2 2 3 1 4 22 5 20 6 19 7 17 8 16 9 15 10 14 11 6 12
REMARK SMILES IDX 7 13 8 14 9 15 13 16 11 17 10 18 12 20 4 22 21 24 18 26
REMARK H PARENT 10 19 12 21 4 23 21 25 18 27
REMARK Flexibility Score: inf
ROOT
ATOM      1  C   UNL     1     132.109 135.776 153.856  1.00  0.00     0.180 A 
ATOM      2  C   UNL     1     130.731 135.796 154.148  1.00  0.00     0.208 A 
ATOM      3  C   UNL     1     130.225 136.819 154.964  1.00  0.00     0.238 A 
ATOM      4  O   UNL     1     128.991 136.853 155.223  1.00  0.00    -0.285 OA
ATOM      5  C   UNL     1     131.102 137.790 155.488  1.00  0.00     0.111 A 
ATOM      6  C   UNL     1     130.674 138.852 156.322  1.00  0.00     0.134 A 
ATOM      7  C   UNL     1     131.610 139.774 156.813  1.00  0.00     0.093 A 
ATOM      8  C   UNL     1     132.963 139.655 156.488  1.00  0.00     0.123 A 
ATOM      9  C   UNL     1     133.393 138.609 155.665  1.00  0.00     0.094 A 
ATOM     10  C   UNL     1     132.475 137.681 155.165  1.00  0.00     0.146 A 
ATOM     11  O   UNL     1     132.909 136.700 154.381  1.00  0.00    -0.452 OA
ENDROOT
BRANCH   1  12
ATOM     12  C   UNL     1     132.715 134.740 152.989  1.00  0.00     0.025 A 
ATOM     13  C   UNL     1     133.149 133.532 153.557  1.00  0.00     0.016 A 
ATOM     14  C   UNL     1     133.743 132.549 152.761  1.00  0.00     0.051 A 
ATOM     15  C   UNL     1     133.926 132.767 151.389  1.00  0.00     0.157 A 
ATOM     16  C   UNL     1     132.919 134.962 151.615  1.00  0.00     0.062 A 
ATOM     17  C   UNL     1     133.517 133.978 150.816  1.00  0.00     0.158 A 
BRANCH  15  18
ATOM     18  O   UNL     1     134.515 131.788 150.590  1.00  0.00    -0.504 OA
ATOM     19  H   UNL     1     134.467 131.830 149.579  1.00  0.00     0.293 HD
ENDBRANCH  15  18
BRANCH  17  20
ATOM     20  O   UNL     1     133.712 134.197 149.453  1.00  0.00    -0.504 OA
ATOM     21  H   UNL     1     134.521 134.699 149.108  1.00  0.00     0.293 HD
ENDBRANCH  17  20
ENDBRANCH   1  12
BRANCH   2  22
ATOM     22  O   UNL     1     129.891 134.793 153.656  1.00  0.00    -0.502 OA
ATOM     23  H   UNL     1     130.210 134.090 153.002  1.00  0.00     0.293 HD
ENDBRANCH   2  22
BRANCH   6  24
ATOM     24  O   UNL     1     129.329 138.997 156.665  1.00  0.00    -0.507 OA
ATOM     25  H   UNL     1     128.586 138.661 156.062  1.00  0.00     0.293 HD
ENDBRANCH   6  24
BRANCH   8  26
ATOM     26  O   UNL     1     133.873 140.583 156.989  1.00  0.00    -0.508 OA
ATOM     27  H   UNL     1     134.187 140.552 157.952  1.00  0.00     0.293 HD
ENDBRANCH   8  26
TORSDOF 6
ENDMDL
MODEL 4
REMARK VINA RESULT:    -6.049      1.540      2.136
REMARK INTER + INTRA:          -7.581
REMARK INTER:                  -7.280
REMARK INTRA:                  -0.301
REMARK UNBOUND:                -0.294
REMARK SMILES O=c1c(O)c(-c2ccc(O)c(O)c2)oc2cc(O)cc(O)c12
REMARK SMILES IDX 5 1 3 2 2 3 1 4 22 5 20 6 19 7 17 8 16 9 15 10 14 11 6 12
REMARK SMILES IDX 7 13 8 14 9 15 13 16 11 17 10 18 12 20 4 22 21 24 18 26
REMARK H PARENT 10 19 12 21 4 23 21 25 18 27
REMARK Flexibility Score: inf
ROOT
ATOM      1  C   UNL     1     139.020 134.568 147.066  1.00  0.00     0.180 A 
ATOM      2  C   UNL     1     140.089 133.845 146.502  1.00  0.00     0.208 A 
ATOM      3  C   UNL     1     141.087 134.544 145.805  1.00  0.00     0.238 A 
ATOM      4  O   UNL     1     142.055 133.907 145.304  1.00  0.00    -0.285 OA
ATOM      5  C   UNL     1     140.993 135.943 145.668  1.00  0.00     0.111 A 
ATOM      6  C   UNL     1     141.953 136.721 144.978  1.00  0.00     0.134 A 
ATOM      7  C   UNL     1     141.783 138.110 144.876  1.00  0.00     0.093 A 
ATOM      8  C   UNL     1     140.672 138.734 145.449  1.00  0.00     0.123 A 
ATOM      9  C   UNL     1     139.720 137.971 146.132  1.00  0.00     0.094 A 
ATOM     10  C   UNL     1     139.872 136.587 146.245  1.00  0.00     0.146 A 
ATOM     11  O   UNL     1     138.956 135.886 146.903  1.00  0.00    -0.452 OA
ENDROOT
BRANCH   1  12
ATOM     12  C   UNL     1     137.939 133.905 147.831  1.00  0.00     0.025 A 
ATOM     13  C   UNL     1     138.159 133.551 149.171  1.00  0.00     0.016 A 
ATOM     14  C   UNL     1     137.161 132.906 149.906  1.00  0.00     0.051 A 
ATOM     15  C   UNL     1     135.934 132.592 149.305  1.00  0.00     0.157 A 
ATOM     16  C   UNL     1     136.714 133.571 147.227  1.00  0.00     0.062 A 
ATOM     17  C   UNL     1     135.712 132.921 147.962  1.00  0.00     0.158 A 
BRANCH  15  18
ATOM     18  O   UNL     1     134.935 131.951 150.035  1.00  0.00    -0.504 OA
ATOM     19  H   UNL     1     133.954 132.167 149.894  1.00  0.00     0.293 HD
ENDBRANCH  15  18
BRANCH  17  20
ATOM     20  O   UNL     1     134.496 132.596 147.365  1.00  0.00    -0.504 OA
ATOM     21  H   UNL     1     134.382 132.598 146.358  1.00  0.00     0.293 HD
ENDBRANCH  17  20
ENDBRANCH   1  12
BRANCH   2  22
ATOM     22  O   UNL     1     140.135 132.453 146.608  1.00  0.00    -0.502 OA
ATOM     23  H   UNL     1     140.599 131.982 147.374  1.00  0.00     0.293 HD
ENDBRANCH   2  22
BRANCH   6  24
ATOM     24  O   UNL     1     143.074 136.127 144.395  1.00  0.00    -0.507 OA
ATOM     25  H   UNL     1     143.812 135.718 144.955  1.00  0.00     0.293 HD
ENDBRANCH   6  24
BRANCH   8  26
ATOM     26  O   UNL     1     140.525 140.115 145.334  1.00  0.00    -0.508 OA
ATOM     27  H   UNL     1     139.770 140.608 145.795  1.00  0.00     0.293 HD
ENDBRANCH   8  26
TORSDOF 6
ENDMDL
MODEL 5
REMARK VINA RESULT:    -6.024      1.915      2.468
REMARK INTER + INTRA:          -7.551
REMARK INTER:                  -7.234
REMARK INTRA:                  -0.317
REMARK UNBOUND:                -0.294
REMARK SMILES O=c1c(O)c(-c2ccc(O)c(O)c2)oc2cc(O)cc(O)c12
REMARK SMILES IDX 5 1 3 2 2 3 1 4 22 5 20 6 19 7 17 8 16 9 15 10 14 11 6 12
REMARK SMILES IDX 7 13 8 14 9 15 13 16 11 17 10 18 12 20 4 22 21 24 18 26
REMARK H PARENT 10 19 12 21 4 23 21 25 18 27
REMARK Flexibility Score: inf
ROOT
ATOM      1  C   UNL     1     138.603 135.526 147.128  1.00  0.00     0.180 A 
ATOM      2  C   UNL     1     138.867 135.853 145.784  1.00  0.00     0.208 A 
ATOM      3  C   UNL     1     139.095 137.197 145.446  1.00  0.00     0.238 A 
ATOM      4  O   UNL     1     139.342 137.501 144.247  1.00  0.00    -0.285 OA
ATOM      5  C   UNL     1     139.037 138.187 146.447  1.00  0.00     0.111 A 
ATOM      6  C   UNL     1     139.251 139.563 146.190  1.00  0.00     0.134 A 
ATOM      7  C   UNL     1     139.167 140.489 147.240  1.00  0.00     0.093 A 
ATOM      8  C   UNL     1     138.873 140.068 148.538  1.00  0.00     0.123 A 
ATOM      9  C   UNL     1     138.661 138.711 148.799  1.00  0.00     0.094 A 
ATOM     10  C   UNL     1     138.742 137.772 147.768  1.00  0.00     0.146 A 
ATOM     11  O   UNL     1     138.541 136.488 148.043  1.00  0.00    -0.452 OA
ENDROOT
BRANCH   1  12
ATOM     12  C   UNL     1     138.371 134.130 147.566  1.00  0.00     0.025 A 
ATOM     13  C   UNL     1     139.470 133.303 147.846  1.00  0.00     0.016 A 
ATOM     14  C   UNL     1     139.275 131.976 148.240  1.00  0.00     0.051 A 
ATOM     15  C   UNL     1     137.978 131.455 148.345  1.00  0.00     0.157 A 
ATOM     16  C   UNL     1     137.073 133.596 147.653  1.00  0.00     0.062 A 
ATOM     17  C   UNL     1     136.876 132.265 148.047  1.00  0.00     0.158 A 
BRANCH  15  18
ATOM     18  O   UNL     1     137.779 130.133 148.741  1.00  0.00    -0.504 OA
ATOM     19  H   UNL     1     136.849 129.764 148.903  1.00  0.00     0.293 HD
ENDBRANCH  15  18
BRANCH  17  20
ATOM     20  O   UNL     1     135.588 131.738 148.139  1.00  0.00    -0.504 OA
ATOM     21  H   UNL     1     134.900 131.891 147.411  1.00  0.00     0.293 HD
ENDBRANCH  17  20
ENDBRANCH   1  12
BRANCH   2  22
ATOM     22  O   UNL     1     138.869 134.860 144.801  1.00  0.00    -0.502 OA
ATOM     23  H   UNL     1     139.716 134.554 144.340  1.00  0.00     0.293 HD
ENDBRANCH   2  22
BRANCH   6  24
ATOM     24  O   UNL     1     139.546 140.015 144.903  1.00  0.00    -0.507 OA
ATOM     25  H   UNL     1     138.829 140.390 144.292  1.00  0.00     0.293 HD
ENDBRANCH   6  24
BRANCH   8  26
ATOM     26  O   UNL     1     138.795 141.008 149.563  1.00  0.00    -0.508 OA
ATOM     27  H   UNL     1     139.502 141.064 150.287  1.00  0.00     0.293 HD
ENDBRANCH   8  26
TORSDOF 6
ENDMDL
MODEL 6
REMARK VINA RESULT:    -6.014      1.534      6.777
REMARK INTER + INTRA:          -7.538
REMARK INTER:                  -7.234
REMARK INTRA:                  -0.305
REMARK UNBOUND:                -0.294
REMARK SMILES O=c1c(O)c(-c2ccc(O)c(O)c2)oc2cc(O)cc(O)c12
REMARK SMILES IDX 5 1 3 2 2 3 1 4 22 5 20 6 19 7 17 8 16 9 15 10 14 11 6 12
REMARK SMILES IDX 7 13 8 14 9 15 13 16 11 17 10 18 12 20 4 22 21 24 18 26
REMARK H PARENT 10 19 12 21 4 23 21 25 18 27
REMARK Flexibility Score: inf
ROOT
ATOM      1  C   UNL     1     139.372 135.457 145.797  1.00  0.00     0.180 A 
ATOM      2  C   UNL     1     139.611 134.468 144.823  1.00  0.00     0.208 A 
ATOM      3  C   UNL     1     138.837 133.297 144.842  1.00  0.00     0.238 A 
ATOM      4  O   UNL     1     139.036 132.409 143.968  1.00  0.00    -0.285 OA
ATOM      5  C   UNL     1     137.856 133.125 145.839  1.00  0.00     0.111 A 
ATOM      6  C   UNL     1     137.038 131.973 145.931  1.00  0.00     0.134 A 
ATOM      7  C   UNL     1     136.090 131.873 146.960  1.00  0.00     0.093 A 
ATOM      8  C   UNL     1     135.945 132.898 147.897  1.00  0.00     0.123 A 
ATOM      9  C   UNL     1     136.750 134.038 147.812  1.00  0.00     0.094 A 
ATOM     10  C   UNL     1     137.700 134.158 146.794  1.00  0.00     0.146 A 
ATOM     11  O   UNL     1     138.448 135.254 146.732  1.00  0.00    -0.452 OA
ENDROOT
BRANCH   1  12
ATOM     12  C   UNL     1     140.133 136.727 145.832  1.00  0.00     0.025 A 
ATOM     13  C   UNL     1     141.388 136.762 146.460  1.00  0.00     0.016 A 
ATOM     14  C   UNL     1     142.114 137.954 146.524  1.00  0.00     0.051 A 
ATOM     15  C   UNL     1     141.588 139.131 145.975  1.00  0.00     0.157 A 
ATOM     16  C   UNL     1     139.601 137.915 145.300  1.00  0.00     0.062 A 
ATOM     17  C   UNL     1     140.327 139.112 145.365  1.00  0.00     0.158 A 
BRANCH  15  18
ATOM     18  O   UNL     1     142.310 140.322 146.034  1.00  0.00    -0.504 OA
ATOM     19  H   UNL     1     142.903 140.543 146.826  1.00  0.00     0.293 HD
ENDBRANCH  15  18
BRANCH  17  20
ATOM     20  O   UNL     1     139.802 140.288 144.832  1.00  0.00    -0.504 OA
ATOM     21  H   UNL     1     140.361 141.128 144.748  1.00  0.00     0.293 HD
ENDBRANCH  17  20
ENDBRANCH   1  12
BRANCH   2  22
ATOM     22  O   UNL     1     140.623 134.640 143.875  1.00  0.00    -0.502 OA
ATOM     23  H   UNL     1     141.480 135.138 144.081  1.00  0.00     0.293 HD
ENDBRANCH   2  22
BRANCH   6  24
ATOM     24  O   UNL     1     137.159 130.932 145.010  1.00  0.00    -0.507 OA
ATOM     25  H   UNL     1     136.794 131.009 144.067  1.00  0.00     0.293 HD
ENDBRANCH   6  24
BRANCH   8  26
ATOM     26  O   UNL     1     134.997 132.774 148.910  1.00  0.00    -0.508 OA
ATOM     27  H   UNL     1     134.050 133.116 148.794  1.00  0.00     0.293 HD
ENDBRANCH   8  26
TORSDOF 6
ENDMDL
MODEL 7
REMARK VINA RESULT:    -5.963      2.130      3.162
REMARK INTER + INTRA:          -7.477
REMARK INTER:                  -7.153
REMARK INTRA:                  -0.325
REMARK UNBOUND:                -0.294
REMARK SMILES O=c1c(O)c(-c2ccc(O)c(O)c2)oc2cc(O)cc(O)c12
REMARK SMILES IDX 5 1 3 2 2 3 1 4 22 5 20 6 19 7 17 8 16 9 15 10 14 11 6 12
REMARK SMILES IDX 7 13 8 14 9 15 13 16 11 17 10 18 12 20 4 22 21 24 18 26
REMARK H PARENT 10 19 12 21 4 23 21 25 18 27
REMARK Flexibility Score: inf
ROOT
ATOM      1  C   UNL     1     137.724 134.166 147.265  1.00  0.00     0.180 A 
ATOM      2  C   UNL     1     138.507 133.147 146.689  1.00  0.00     0.208 A 
ATOM      3  C   UNL     1     139.621 133.505 145.914  1.00  0.00     0.238 A 
ATOM      4  O   UNL     1     140.336 132.600 145.401  1.00  0.00    -0.285 OA
ATOM      5  C   UNL     1     139.923 134.867 145.713  1.00  0.00     0.111 A 
ATOM      6  C   UNL     1     141.025 135.311 144.942  1.00  0.00     0.134 A 
ATOM      7  C   UNL     1     141.253 136.686 144.781  1.00  0.00     0.093 A 
ATOM      8  C   UNL     1     140.403 137.622 145.373  1.00  0.00     0.123 A 
ATOM      9  C   UNL     1     139.313 137.190 146.135  1.00  0.00     0.094 A 
ATOM     10  C   UNL     1     139.069 135.825 146.309  1.00  0.00     0.146 A 
ATOM     11  O   UNL     1     138.030 135.441 147.042  1.00  0.00    -0.452 OA
ENDROOT
BRANCH   1  12
ATOM     12  C   UNL     1     136.544 133.870 148.110  1.00  0.00     0.025 A 
ATOM     13  C   UNL     1     136.716 133.670 149.489  1.00  0.00     0.016 A 
ATOM     14  C   UNL     1     135.621 133.368 150.302  1.00  0.00     0.051 A 
ATOM     15  C   UNL     1     134.341 133.246 149.745  1.00  0.00     0.157 A 
ATOM     16  C   UNL     1     135.261 133.727 147.553  1.00  0.00     0.062 A 
ATOM     17  C   UNL     1     134.162 133.421 148.367  1.00  0.00     0.158 A 
BRANCH  15  18
ATOM     18  O   UNL     1     133.244 132.948 150.552  1.00  0.00    -0.504 OA
ATOM     19  H   UNL     1     132.872 132.007 150.613  1.00  0.00     0.293 HD
ENDBRANCH  15  18
BRANCH  17  20
ATOM     20  O   UNL     1     132.889 133.286 147.814  1.00  0.00    -0.504 OA
ATOM     21  H   UNL     1     132.629 133.764 146.960  1.00  0.00     0.293 HD
ENDBRANCH  17  20
ENDBRANCH   1  12
BRANCH   2  22
ATOM     22  O   UNL     1     138.158 131.805 146.861  1.00  0.00    -0.502 OA
ATOM     23  H   UNL     1     137.235 131.452 146.644  1.00  0.00     0.293 HD
ENDBRANCH   2  22
BRANCH   6  24
ATOM     24  O   UNL     1     141.892 134.400 144.338  1.00  0.00    -0.507 OA
ATOM     25  H   UNL     1     141.920 134.276 143.333  1.00  0.00     0.293 HD
ENDBRANCH   6  24
BRANCH   8  26
ATOM     26  O   UNL     1     140.651 138.982 145.197  1.00  0.00    -0.508 OA
ATOM     27  H   UNL     1     141.550 139.319 144.876  1.00  0.00     0.293 HD
ENDBRANCH   8  26
TORSDOF 6
ENDMDL
MODEL 8
REMARK VINA RESULT:    -5.818     10.916     12.855
REMARK INTER + INTRA:          -7.303
REMARK INTER:                  -7.081
REMARK INTRA:                  -0.222
REMARK UNBOUND:                -0.294
REMARK SMILES O=c1c(O)c(-c2ccc(O)c(O)c2)oc2cc(O)cc(O)c12
REMARK SMILES IDX 5 1 3 2 2 3 1 4 22 5 20 6 19 7 17 8 16 9 15 10 14 11 6 12
REMARK SMILES IDX 7 13 8 14 9 15 13 16 11 17 10 18 12 20 4 22 21 24 18 26
REMARK H PARENT 10 19 12 21 4 23 21 25 18 27
REMARK Flexibility Score: inf
ROOT
ATOM      1  C   UNL     1     132.282 138.035 155.991  1.00  0.00     0.180 A 
ATOM      2  C   UNL     1     133.375 138.790 155.522  1.00  0.00     0.208 A 
ATOM      3  C   UNL     1     134.088 138.328 154.405  1.00  0.00     0.238 A 
ATOM      4  O   UNL     1     135.063 139.001 153.970  1.00  0.00    -0.285 OA
ATOM      5  C   UNL     1     133.713 137.117 153.789  1.00  0.00     0.111 A 
ATOM      6  C   UNL     1     134.382 136.580 152.663  1.00  0.00     0.134 A 
ATOM      7  C   UNL     1     133.953 135.363 152.113  1.00  0.00     0.093 A 
ATOM      8  C   UNL     1     132.872 134.674 152.666  1.00  0.00     0.123 A 
ATOM      9  C   UNL     1     132.207 135.199 153.779  1.00  0.00     0.094 A 
ATOM     10  C   UNL     1     132.618 136.410 154.341  1.00  0.00     0.146 A 
ATOM     11  O   UNL     1     131.966 136.889 155.394  1.00  0.00    -0.452 OA
ENDROOT
BRANCH   1  12
ATOM     12  C   UNL     1     131.469 138.465 157.151  1.00  0.00     0.025 A 
ATOM     13  C   UNL     1     131.466 137.685 158.318  1.00  0.00     0.016 A 
ATOM     14  C   UNL     1     130.690 138.060 159.418  1.00  0.00     0.051 A 
ATOM     15  C   UNL     1     129.893 139.212 159.360  1.00  0.00     0.157 A 
ATOM     16  C   UNL     1     130.653 139.609 157.091  1.00  0.00     0.062 A 
ATOM     17  C   UNL     1     129.872 139.985 158.193  1.00  0.00     0.158 A 
BRANCH  15  18
ATOM     18  O   UNL     1     129.119 139.591 160.456  1.00  0.00    -0.504 OA
ATOM     19  H   UNL     1     129.539 139.791 161.357  1.00  0.00     0.293 HD
ENDBRANCH  15  18
BRANCH  17  20
ATOM     20  O   UNL     1     129.068 141.122 158.134  1.00  0.00    -0.504 OA
ATOM     21  H   UNL     1     128.251 141.164 157.535  1.00  0.00     0.293 HD
ENDBRANCH  17  20
ENDBRANCH   1  12
BRANCH   2  22
ATOM     22  O   UNL     1     133.758 139.961 156.180  1.00  0.00    -0.502 OA
ATOM     23  H   UNL     1     134.067 139.966 157.144  1.00  0.00     0.293 HD
ENDBRANCH   2  22
BRANCH   6  24
ATOM     24  O   UNL     1     135.465 137.245 152.087  1.00  0.00    -0.507 OA
ATOM     25  H   UNL     1     135.414 138.224 151.830  1.00  0.00     0.293 HD
ENDBRANCH   6  24
BRANCH   8  26
ATOM     26  O   UNL     1     132.466 133.466 152.102  1.00  0.00    -0.508 OA
ATOM     27  H   UNL     1     132.946 133.066 151.305  1.00  0.00     0.293 HD
ENDBRANCH   8  26
TORSDOF 6
ENDMDL
MODEL 9
REMARK VINA RESULT:    -5.642      1.837      6.783
REMARK INTER + INTRA:          -7.090
REMARK INTER:                  -6.861
REMARK INTRA:                  -0.229
REMARK UNBOUND:                -0.294
REMARK SMILES O=c1c(O)c(-c2ccc(O)c(O)c2)oc2cc(O)cc(O)c12
REMARK SMILES IDX 5 1 3 2 2 3 1 4 22 5 20 6 19 7 17 8 16 9 15 10 14 11 6 12
REMARK SMILES IDX 7 13 8 14 9 15 13 16 11 17 10 18 12 20 4 22 21 24 18 26
REMARK H PARENT 10 19 12 21 4 23 21 25 18 27
REMARK Flexibility Score: inf
ROOT
ATOM      1  C   UNL     1     139.325 135.320 147.258  1.00  0.00     0.180 A 
ATOM      2  C   UNL     1     140.283 134.942 148.219  1.00  0.00     0.208 A 
ATOM      3  C   UNL     1     140.185 133.673 148.811  1.00  0.00     0.238 A 
ATOM      4  O   UNL     1     141.044 133.321 149.666  1.00  0.00    -0.285 OA
ATOM      5  C   UNL     1     139.127 132.815 148.450  1.00  0.00     0.111 A 
ATOM      6  C   UNL     1     138.955 131.523 149.003  1.00  0.00     0.134 A 
ATOM      7  C   UNL     1     137.869 130.732 148.599  1.00  0.00     0.093 A 
ATOM      8  C   UNL     1     136.955 131.206 147.656  1.00  0.00     0.123 A 
ATOM      9  C   UNL     1     137.120 132.481 147.106  1.00  0.00     0.094 A 
ATOM     10  C   UNL     1     138.195 133.284 147.495  1.00  0.00     0.146 A 
ATOM     11  O   UNL     1     138.332 134.489 146.953  1.00  0.00    -0.452 OA
ENDROOT
BRANCH   1  12
ATOM     12  C   UNL     1     139.371 136.633 146.575  1.00  0.00     0.025 A 
ATOM     13  C   UNL     1     140.383 136.887 145.636  1.00  0.00     0.016 A 
ATOM     14  C   UNL     1     140.458 138.126 144.995  1.00  0.00     0.051 A 
ATOM     15  C   UNL     1     139.532 139.134 145.296  1.00  0.00     0.157 A 
ATOM     16  C   UNL     1     138.456 137.654 146.888  1.00  0.00     0.062 A 
ATOM     17  C   UNL     1     138.532 138.898 146.247  1.00  0.00     0.158 A 
BRANCH  15  18
ATOM     18  O   UNL     1     139.602 140.371 144.657  1.00  0.00    -0.504 OA
ATOM     19  H   UNL     1     138.772 140.927 144.486  1.00  0.00     0.293 HD
ENDBRANCH  15  18
BRANCH  17  20
ATOM     20  O   UNL     1     137.621 139.908 146.554  1.00  0.00    -0.504 OA
ATOM     21  H   UNL     1     137.089 139.898 147.416  1.00  0.00     0.293 HD
ENDBRANCH  17  20
ENDBRANCH   1  12
BRANCH   2  22
ATOM     22  O   UNL     1     141.293 135.830 148.596  1.00  0.00    -0.502 OA
ATOM     23  H   UNL     1     141.449 136.710 148.119  1.00  0.00     0.293 HD
ENDBRANCH   2  22
BRANCH   6  24
ATOM     24  O   UNL     1     139.851 131.021 149.948  1.00  0.00    -0.507 OA
ATOM     25  H   UNL     1     140.837 131.257 149.925  1.00  0.00     0.293 HD
ENDBRANCH   6  24
BRANCH   8  26
ATOM     26  O   UNL     1     135.885 130.401 147.272  1.00  0.00    -0.508 OA
ATOM     27  H   UNL     1     135.249 130.003 147.954  1.00  0.00     0.293 HD
ENDBRANCH   8  26
TORSDOF 6
ENDMDL
