MODEL 1
REMARK VINA RESULT:    -3.666      0.000      0.000
REMARK INTER + INTRA:          -7.841
REMARK INTER:                  -6.238
REMARK INTRA:                  -1.603
REMARK UNBOUND:                -1.603
REMARK SMILES CCCCCCCCCCCCCC(=O)[O-]
REMARK SMILES IDX 8 1 9 2 10 3 11 4 12 5 13 6 14 7 15 8 16 9 7 10 6 11 5 12
REMARK SMILES IDX 4 13 3 14 2 15 1 16
REMARK H PARENT
REMARK Flexibility Score: inf
ROOT
ATOM      1  C   UNL     1      27.664 -13.982   0.609  1.00  0.00     0.000 C 
ENDROOT
BRANCH   1   2
ATOM      2  C   UNL     1      26.928 -13.381  -0.602  1.00  0.00     0.000 C 
BRANCH   2   3
ATOM      3  C   UNL     1      25.440 -13.106  -0.299  1.00  0.00     0.000 C 
BRANCH   3   4
ATOM      4  C   UNL     1      24.497 -13.500  -1.449  1.00  0.00     0.000 C 
BRANCH   4   5
ATOM      5  C   UNL     1      25.193 -14.342  -2.530  1.00  0.00     0.006 C 
BRANCH   5   6
ATOM      6  C   UNL     1      24.198 -14.924  -3.542  1.00  0.00     0.053 C 
BRANCH   6   7
ATOM      7  C   UNL     1      24.094 -16.414  -3.422  1.00  0.00     0.041 C 
ATOM      8  O   UNL     1      23.070 -16.940  -2.914  1.00  0.00    -0.550 OA
ATOM      9  O   UNL     1      25.146 -17.219  -3.841  1.00  0.00    -0.550 OA
ENDBRANCH   6   7
ENDBRANCH   5   6
ENDBRANCH   4   5
ENDBRANCH   3   4
ENDBRANCH   2   3
ENDBRANCH   1   2
BRANCH   1  10
ATOM     10  C   UNL     1      29.155 -13.610   0.636  1.00  0.00     0.000 C 
BRANCH  10  11
ATOM     11  C   UNL     1      30.062 -14.852   0.687  1.00  0.00    -0.000 C 
BRANCH  11  12
ATOM     12  C   UNL     1      29.385 -16.113   0.121  1.00  0.00    -0.000 C 
BRANCH  12  13
ATOM     13  C   UNL     1      29.640 -16.375  -1.375  1.00  0.00    -0.000 C 
BRANCH  13  14
ATOM     14  C   UNL     1      28.346 -16.593  -2.174  1.00  0.00    -0.000 C 
BRANCH  14  15
ATOM     15  C   UNL     1      28.341 -15.746  -3.452  1.00  0.00    -0.003 C 
ATOM     16  C   UNL     1      29.243 -14.524  -3.308  1.00  0.00     0.004 C 
ENDBRANCH  14  15
ENDBRANCH  13  14
ENDBRANCH  12  13
ENDBRANCH  11  12
ENDBRANCH  10  11
ENDBRANCH   1  10
TORSDOF 12
ENDMDL
MODEL 2
REMARK VINA RESULT:    -3.636      1.388      2.210
REMARK INTER + INTRA:          -7.790
REMARK INTER:                  -6.163
REMARK INTRA:                  -1.628
REMARK UNBOUND:                -1.603
REMARK SMILES CCCCCCCCCCCCCC(=O)[O-]
REMARK SMILES IDX 8 1 9 2 10 3 11 4 12 5 13 6 14 7 15 8 16 9 7 10 6 11 5 12
REMARK SMILES IDX 4 13 3 14 2 15 1 16
REMARK H PARENT
REMARK Flexibility Score: inf
ROOT
ATOM      1  C   UNL     1      28.865 -14.144   1.677  1.00  0.00     0.000 C 
ENDROOT
BRANCH   1   2
ATOM      2  C   UNL     1      27.854 -14.626   0.620  1.00  0.00     0.000 C 
BRANCH   2   3
ATOM      3  C   UNL     1      26.942 -13.484   0.126  1.00  0.00     0.000 C 
BRANCH   3   4
ATOM      4  C   UNL     1      26.174 -13.828  -1.162  1.00  0.00     0.000 C 
BRANCH   4   5
ATOM      5  C   UNL     1      24.685 -13.452  -1.089  1.00  0.00     0.006 C 
BRANCH   5   6
ATOM      6  C   UNL     1      23.968 -13.659  -2.429  1.00  0.00     0.053 C 
BRANCH   6   7
ATOM      7  C   UNL     1      23.540 -15.082  -2.614  1.00  0.00     0.041 C 
ATOM      8  O   UNL     1      22.724 -15.609  -1.813  1.00  0.00    -0.550 OA
ATOM      9  O   UNL     1      24.071 -15.838  -3.652  1.00  0.00    -0.550 OA
ENDBRANCH   6   7
ENDBRANCH   5   6
ENDBRANCH   4   5
ENDBRANCH   3   4
ENDBRANCH   2   3
ENDBRANCH   1   2
BRANCH   1  10
ATOM     10  C   UNL     1      29.237 -12.663   1.502  1.00  0.00     0.000 C 
BRANCH  10  11
ATOM     11  C   UNL     1      30.559 -12.484   0.735  1.00  0.00    -0.000 C 
BRANCH  11  12
ATOM     12  C   UNL     1      30.349 -12.225  -0.768  1.00  0.00    -0.000 C 
BRANCH  12  13
ATOM     13  C   UNL     1      30.670 -13.418  -1.687  1.00  0.00    -0.000 C 
BRANCH  13  14
ATOM     14  C   UNL     1      29.519 -13.765  -2.643  1.00  0.00    -0.000 C 
BRANCH  14  15
ATOM     15  C   UNL     1      29.397 -15.283  -2.826  1.00  0.00    -0.003 C 
ATOM     16  C   UNL     1      30.229 -16.033  -1.791  1.00  0.00     0.004 C 
ENDBRANCH  14  15
ENDBRANCH  13  14
ENDBRANCH  12  13
ENDBRANCH  11  12
ENDBRANCH  10  11
ENDBRANCH   1  10
TORSDOF 12
ENDMDL
MODEL 3
REMARK VINA RESULT:    -3.600      3.482      6.357
REMARK INTER + INTRA:          -7.729
REMARK INTER:                  -6.484
REMARK INTRA:                  -1.245
REMARK UNBOUND:                -1.603
REMARK SMILES CCCCCCCCCCCCCC(=O)[O-]
REMARK SMILES IDX 8 1 9 2 10 3 11 4 12 5 13 6 14 7 15 8 16 9 7 10 6 11 5 12
REMARK SMILES IDX 4 13 3 14 2 15 1 16
REMARK H PARENT
REMARK Flexibility Score: inf
ROOT
ATOM      1  C   UNL     1      27.325 -15.935  -3.206  1.00  0.00     0.000 C 
ENDROOT
BRANCH   1   2
ATOM      2  C   UNL     1      28.429 -16.523  -2.308  1.00  0.00     0.000 C 
BRANCH   2   3
ATOM      3  C   UNL     1      28.977 -15.484  -1.307  1.00  0.00     0.000 C 
BRANCH   3   4
ATOM      4  C   UNL     1      28.608 -15.788   0.155  1.00  0.00     0.000 C 
BRANCH   4   5
ATOM      5  C   UNL     1      28.901 -14.613   1.103  1.00  0.00     0.006 C 
BRANCH   5   6
ATOM      6  C   UNL     1      29.348 -13.356   0.347  1.00  0.00     0.053 C 
BRANCH   6   7
ATOM      7  C   UNL     1      29.667 -12.231   1.284  1.00  0.00     0.041 C 
ATOM      8  O   UNL     1      30.187 -11.170   0.849  1.00  0.00    -0.550 OA
ATOM      9  O   UNL     1      29.421 -12.369   2.644  1.00  0.00    -0.550 OA
ENDBRANCH   6   7
ENDBRANCH   5   6
ENDBRANCH   4   5
ENDBRANCH   3   4
ENDBRANCH   2   3
ENDBRANCH   1   2
BRANCH   1  10
ATOM     10  C   UNL     1      26.141 -16.897  -3.389  1.00  0.00     0.000 C 
BRANCH  10  11
ATOM     11  C   UNL     1      24.902 -16.190  -3.967  1.00  0.00    -0.000 C 
BRANCH  11  12
ATOM     12  C   UNL     1      23.620 -16.476  -3.163  1.00  0.00    -0.000 C 
BRANCH  12  13
ATOM     13  C   UNL     1      23.112 -15.301  -2.307  1.00  0.00    -0.000 C 
BRANCH  13  14
ATOM     14  C   UNL     1      23.977 -14.040  -2.447  1.00  0.00    -0.000 C 
BRANCH  14  15
ATOM     15  C   UNL     1      24.367 -13.486  -1.071  1.00  0.00    -0.003 C 
ATOM     16  C   UNL     1      25.883 -13.421  -0.912  1.00  0.00     0.004 C 
ENDBRANCH  14  15
ENDBRANCH  13  14
ENDBRANCH  12  13
ENDBRANCH  11  12
ENDBRANCH  10  11
ENDBRANCH   1  10
TORSDOF 12
ENDMDL
MODEL 4
REMARK VINA RESULT:    -3.568      3.874      6.336
REMARK INTER + INTRA:          -7.674
REMARK INTER:                  -6.690
REMARK INTRA:                  -0.984
REMARK UNBOUND:                -1.603
REMARK SMILES CCCCCCCCCCCCCC(=O)[O-]
REMARK SMILES IDX 8 1 9 2 10 3 11 4 12 5 13 6 14 7 15 8 16 9 7 10 6 11 5 12
REMARK SMILES IDX 4 13 3 14 2 15 1 16
REMARK H PARENT
REMARK Flexibility Score: inf
ROOT
ATOM      1  C   UNL     1      25.814 -13.594  -1.386  1.00  0.00     0.000 C 
ENDROOT
BRANCH   1   2
ATOM      2  C   UNL     1      26.451 -13.568   0.016  1.00  0.00     0.000 C 
BRANCH   2   3
ATOM      3  C   UNL     1      27.940 -13.972  -0.017  1.00  0.00     0.000 C 
BRANCH   3   4
ATOM      4  C   UNL     1      28.463 -14.493   1.333  1.00  0.00     0.000 C 
BRANCH   4   5
ATOM      5  C   UNL     1      29.139 -13.399   2.175  1.00  0.00     0.006 C 
BRANCH   5   6
ATOM      6  C   UNL     1      30.313 -12.742   1.439  1.00  0.00     0.053 C 
BRANCH   6   7
ATOM      7  C   UNL     1      30.345 -11.261   1.658  1.00  0.00     0.041 C 
ATOM      8  O   UNL     1      30.681 -10.488   0.723  1.00  0.00    -0.550 OA
ATOM      9  O   UNL     1      30.036 -10.737   2.907  1.00  0.00    -0.550 OA
ENDBRANCH   6   7
ENDBRANCH   5   6
ENDBRANCH   4   5
ENDBRANCH   3   4
ENDBRANCH   2   3
ENDBRANCH   1   2
BRANCH   1  10
ATOM     10  C   UNL     1      24.279 -13.646  -1.333  1.00  0.00     0.000 C 
BRANCH  10  11
ATOM     11  C   UNL     1      23.667 -14.103  -2.669  1.00  0.00    -0.000 C 
BRANCH  11  12
ATOM     12  C   UNL     1      23.507 -15.631  -2.763  1.00  0.00    -0.000 C 
BRANCH  12  13
ATOM     13  C   UNL     1      24.113 -16.274  -4.025  1.00  0.00    -0.000 C 
BRANCH  13  14
ATOM     14  C   UNL     1      25.433 -17.008  -3.747  1.00  0.00    -0.000 C 
BRANCH  14  15
ATOM     15  C   UNL     1      26.628 -16.055  -3.877  1.00  0.00    -0.003 C 
ATOM     16  C   UNL     1      27.691 -16.356  -2.825  1.00  0.00     0.004 C 
ENDBRANCH  14  15
ENDBRANCH  13  14
ENDBRANCH  12  13
ENDBRANCH  11  12
ENDBRANCH  10  11
ENDBRANCH   1  10
TORSDOF 12
ENDMDL
MODEL 5
REMARK VINA RESULT:    -3.508      1.764      4.677
REMARK INTER + INTRA:          -7.573
REMARK INTER:                  -6.268
REMARK INTRA:                  -1.305
REMARK UNBOUND:                -1.603
REMARK SMILES CCCCCCCCCCCCCC(=O)[O-]
REMARK SMILES IDX 8 1 9 2 10 3 11 4 12 5 13 6 14 7 15 8 16 9 7 10 6 11 5 12
REMARK SMILES IDX 4 13 3 14 2 15 1 16
REMARK H PARENT
REMARK Flexibility Score: inf
ROOT
ATOM      1  C   UNL     1      28.869 -13.623   1.397  1.00  0.00     0.000 C 
ENDROOT
BRANCH   1   2
ATOM      2  C   UNL     1      30.153 -13.573   0.549  1.00  0.00     0.000 C 
BRANCH   2   3
ATOM      3  C   UNL     1      30.148 -12.389  -0.441  1.00  0.00     0.000 C 
BRANCH   3   4
ATOM      4  C   UNL     1      30.389 -12.810  -1.901  1.00  0.00     0.000 C 
BRANCH   4   5
ATOM      5  C   UNL     1      30.237 -14.325  -2.119  1.00  0.00     0.006 C 
BRANCH   5   6
ATOM      6  C   UNL     1      28.957 -14.674  -2.888  1.00  0.00     0.053 C 
BRANCH   6   7
ATOM      7  C   UNL     1      28.436 -16.027  -2.509  1.00  0.00     0.041 C 
ATOM      8  O   UNL     1      29.094 -16.766  -1.731  1.00  0.00    -0.550 OA
ATOM      9  O   UNL     1      27.238 -16.485  -3.045  1.00  0.00    -0.550 OA
ENDBRANCH   6   7
ENDBRANCH   5   6
ENDBRANCH   4   5
ENDBRANCH   3   4
ENDBRANCH   2   3
ENDBRANCH   1   2
BRANCH   1  10
ATOM     10  C   UNL     1      27.717 -14.342   0.679  1.00  0.00     0.000 C 
BRANCH  10  11
ATOM     11  C   UNL     1      26.579 -13.379   0.298  1.00  0.00    -0.000 C 
BRANCH  11  12
ATOM     12  C   UNL     1      26.007 -13.653  -1.105  1.00  0.00    -0.000 C 
BRANCH  12  13
ATOM     13  C   UNL     1      24.478 -13.515  -1.225  1.00  0.00    -0.000 C 
BRANCH  13  14
ATOM     14  C   UNL     1      23.969 -13.713  -2.660  1.00  0.00    -0.000 C 
BRANCH  14  15
ATOM     15  C   UNL     1      23.681 -15.193  -2.940  1.00  0.00    -0.003 C 
ATOM     16  C   UNL     1      22.805 -15.801  -1.850  1.00  0.00     0.004 C 
ENDBRANCH  14  15
ENDBRANCH  13  14
ENDBRANCH  12  13
ENDBRANCH  11  12
ENDBRANCH  10  11
ENDBRANCH   1  10
TORSDOF 12
ENDMDL
MODEL 6
REMARK VINA RESULT:    -3.459      3.994      6.569
REMARK INTER + INTRA:          -7.488
REMARK INTER:                  -6.585
REMARK INTRA:                  -0.904
REMARK UNBOUND:                -1.603
REMARK SMILES CCCCCCCCCCCCCC(=O)[O-]
REMARK SMILES IDX 8 1 9 2 10 3 11 4 12 5 13 6 14 7 15 8 16 9 7 10 6 11 5 12
REMARK SMILES IDX 4 13 3 14 2 15 1 16
REMARK H PARENT
REMARK Flexibility Score: inf
ROOT
ATOM      1  C   UNL     1      27.047 -13.845  -0.242  1.00  0.00     0.000 C 
ENDROOT
BRANCH   1   2
ATOM      2  C   UNL     1      28.102 -14.964  -0.165  1.00  0.00     0.000 C 
BRANCH   2   3
ATOM      3  C   UNL     1      29.514 -14.412   0.124  1.00  0.00     0.000 C 
BRANCH   3   4
ATOM      4  C   UNL     1      29.806 -13.078  -0.583  1.00  0.00     0.000 C 
BRANCH   4   5
ATOM      5  C   UNL     1      30.874 -12.240   0.139  1.00  0.00     0.006 C 
BRANCH   5   6
ATOM      6  C   UNL     1      30.277 -11.007   0.828  1.00  0.00     0.053 C 
BRANCH   6   7
ATOM      7  C   UNL     1      30.211 -11.181   2.315  1.00  0.00     0.041 C 
ATOM      8  O   UNL     1      30.764 -10.345   3.077  1.00  0.00    -0.550 OA
ATOM      9  O   UNL     1      29.568 -12.287   2.857  1.00  0.00    -0.550 OA
ENDBRANCH   6   7
ENDBRANCH   5   6
ENDBRANCH   4   5
ENDBRANCH   3   4
ENDBRANCH   2   3
ENDBRANCH   1   2
BRANCH   1  10
ATOM     10  C   UNL     1      26.211 -13.911  -1.529  1.00  0.00     0.000 C 
BRANCH  10  11
ATOM     11  C   UNL     1      24.738 -13.540  -1.285  1.00  0.00    -0.000 C 
BRANCH  11  12
ATOM     12  C   UNL     1      23.789 -14.124  -2.347  1.00  0.00    -0.000 C 
BRANCH  12  13
ATOM     13  C   UNL     1      23.069 -15.421  -1.936  1.00  0.00    -0.000 C 
BRANCH  13  14
ATOM     14  C   UNL     1      23.199 -16.537  -2.983  1.00  0.00    -0.000 C 
BRANCH  14  15
ATOM     15  C   UNL     1      24.374 -16.265  -3.931  1.00  0.00    -0.003 C 
ATOM     16  C   UNL     1      25.556 -17.177  -3.621  1.00  0.00     0.004 C 
ENDBRANCH  14  15
ENDBRANCH  13  14
ENDBRANCH  12  13
ENDBRANCH  11  12
ENDBRANCH  10  11
ENDBRANCH   1  10
TORSDOF 12
ENDMDL
MODEL 7
REMARK VINA RESULT:    -3.447      2.876      5.767
REMARK INTER + INTRA:          -7.468
REMARK INTER:                  -5.863
REMARK INTRA:                  -1.605
REMARK UNBOUND:                -1.603
REMARK SMILES CCCCCCCCCCCCCC(=O)[O-]
REMARK SMILES IDX 8 1 9 2 10 3 11 4 12 5 13 6 14 7 15 8 16 9 7 10 6 11 5 12
REMARK SMILES IDX 4 13 3 14 2 15 1 16
REMARK H PARENT
REMARK Flexibility Score: inf
ROOT
ATOM      1  C   UNL     1      25.051 -16.459  -3.462  1.00  0.00     0.000 C 
ENDROOT
BRANCH   1   2
ATOM      2  C   UNL     1      26.354 -15.808  -3.961  1.00  0.00     0.000 C 
BRANCH   2   3
ATOM      3  C   UNL     1      27.575 -16.235  -3.120  1.00  0.00     0.000 C 
BRANCH   3   4
ATOM      4  C   UNL     1      28.776 -15.283  -3.256  1.00  0.00     0.000 C 
BRANCH   4   5
ATOM      5  C   UNL     1      29.911 -15.607  -2.272  1.00  0.00     0.006 C 
BRANCH   5   6
ATOM      6  C   UNL     1      29.582 -16.813  -1.384  1.00  0.00     0.053 C 
BRANCH   6   7
ATOM      7  C   UNL     1      30.460 -16.863  -0.170  1.00  0.00     0.041 C 
ATOM      8  O   UNL     1      31.049 -15.825   0.230  1.00  0.00    -0.550 OA
ATOM      9  O   UNL     1      30.654 -18.065   0.498  1.00  0.00    -0.550 OA
ENDBRANCH   6   7
ENDBRANCH   5   6
ENDBRANCH   4   5
ENDBRANCH   3   4
ENDBRANCH   2   3
ENDBRANCH   1   2
BRANCH   1  10
ATOM     10  C   UNL     1      23.966 -15.424  -3.127  1.00  0.00     0.000 C 
BRANCH  10  11
ATOM     11  C   UNL     1      24.565 -14.072  -2.701  1.00  0.00    -0.000 C 
BRANCH  11  12
ATOM     12  C   UNL     1      24.124 -13.638  -1.292  1.00  0.00    -0.000 C 
BRANCH  12  13
ATOM     13  C   UNL     1      25.255 -13.116  -0.386  1.00  0.00    -0.000 C 
BRANCH  13  14
ATOM     14  C   UNL     1      26.650 -13.555  -0.857  1.00  0.00    -0.000 C 
BRANCH  14  15
ATOM     15  C   UNL     1      27.516 -13.995   0.330  1.00  0.00    -0.003 C 
ATOM     16  C   UNL     1      28.810 -13.190   0.397  1.00  0.00     0.004 C 
ENDBRANCH  14  15
ENDBRANCH  13  14
ENDBRANCH  12  13
ENDBRANCH  11  12
ENDBRANCH  10  11
ENDBRANCH   1  10
TORSDOF 12
ENDMDL
MODEL 8
REMARK VINA RESULT:    -3.435      2.568      5.303
REMARK INTER + INTRA:          -7.447
REMARK INTER:                  -6.178
REMARK INTRA:                  -1.269
REMARK UNBOUND:                -1.603
REMARK SMILES CCCCCCCCCCCCCC(=O)[O-]
REMARK SMILES IDX 8 1 9 2 10 3 11 4 12 5 13 6 14 7 15 8 16 9 7 10 6 11 5 12
REMARK SMILES IDX 4 13 3 14 2 15 1 16
REMARK H PARENT
REMARK Flexibility Score: inf
ROOT
ATOM      1  C   UNL     1      26.243 -13.873  -1.483  1.00  0.00     0.000 C 
ENDROOT
BRANCH   1   2
ATOM      2  C   UNL     1      26.538 -13.519  -0.014  1.00  0.00     0.000 C 
BRANCH   2   3
ATOM      3  C   UNL     1      28.052 -13.482   0.281  1.00  0.00     0.000 C 
BRANCH   3   4
ATOM      4  C   UNL     1      28.527 -14.628   1.191  1.00  0.00     0.000 C 
BRANCH   4   5
ATOM      5  C   UNL     1      30.030 -14.919   1.050  1.00  0.00     0.006 C 
BRANCH   5   6
ATOM      6  C   UNL     1      30.389 -15.461  -0.339  1.00  0.00     0.053 C 
BRANCH   6   7
ATOM      7  C   UNL     1      30.376 -16.959  -0.370  1.00  0.00     0.041 C 
ATOM      8  O   UNL     1      30.747 -17.617   0.637  1.00  0.00    -0.550 OA
ATOM      9  O   UNL     1      29.987 -17.627  -1.524  1.00  0.00    -0.550 OA
ENDBRANCH   6   7
ENDBRANCH   5   6
ENDBRANCH   4   5
ENDBRANCH   3   4
ENDBRANCH   2   3
ENDBRANCH   1   2
BRANCH   1  10
ATOM     10  C   UNL     1      27.504 -14.302  -2.250  1.00  0.00     0.000 C 
BRANCH  10  11
ATOM     11  C   UNL     1      27.373 -15.720  -2.835  1.00  0.00    -0.000 C 
BRANCH  11  12
ATOM     12  C   UNL     1      26.300 -15.817  -3.934  1.00  0.00    -0.000 C 
BRANCH  12  13
ATOM     13  C   UNL     1      25.312 -16.988  -3.779  1.00  0.00    -0.000 C 
BRANCH  13  14
ATOM     14  C   UNL     1      23.851 -16.573  -4.004  1.00  0.00    -0.000 C 
BRANCH  14  15
ATOM     15  C   UNL     1      23.477 -15.378  -3.117  1.00  0.00    -0.003 C 
ATOM     16  C   UNL     1      22.804 -15.838  -1.828  1.00  0.00     0.004 C 
ENDBRANCH  14  15
ENDBRANCH  13  14
ENDBRANCH  12  13
ENDBRANCH  11  12
ENDBRANCH  10  11
ENDBRANCH   1  10
TORSDOF 12
ENDMDL
MODEL 9
REMARK VINA RESULT:    -3.428      1.979      4.018
REMARK INTER + INTRA:          -7.435
REMARK INTER:                  -6.173
REMARK INTRA:                  -1.262
REMARK UNBOUND:                -1.603
REMARK SMILES CCCCCCCCCCCCCC(=O)[O-]
REMARK SMILES IDX 8 1 9 2 10 3 11 4 12 5 13 6 14 7 15 8 16 9 7 10 6 11 5 12
REMARK SMILES IDX 4 13 3 14 2 15 1 16
REMARK H PARENT
REMARK Flexibility Score: inf
ROOT
ATOM      1  C   UNL     1      24.024 -13.925  -1.347  1.00  0.00     0.000 C 
ENDROOT
BRANCH   1   2
ATOM      2  C   UNL     1      23.869 -13.497  -2.818  1.00  0.00     0.000 C 
BRANCH   2   3
ATOM      3  C   UNL     1      23.771 -14.710  -3.768  1.00  0.00     0.000 C 
BRANCH   3   4
ATOM      4  C   UNL     1      24.209 -16.034  -3.119  1.00  0.00     0.000 C 
BRANCH   4   5
ATOM      5  C   UNL     1      25.419 -16.673  -3.821  1.00  0.00     0.006 C 
BRANCH   5   6
ATOM      6  C   UNL     1      26.552 -15.666  -4.055  1.00  0.00     0.053 C 
BRANCH   6   7
ATOM      7  C   UNL     1      27.852 -16.157  -3.496  1.00  0.00     0.041 C 
ATOM      8  O   UNL     1      28.938 -15.868  -4.065  1.00  0.00    -0.550 OA
ATOM      9  O   UNL     1      27.862 -16.964  -2.365  1.00  0.00    -0.550 OA
ENDBRANCH   6   7
ENDBRANCH   5   6
ENDBRANCH   4   5
ENDBRANCH   3   4
ENDBRANCH   2   3
ENDBRANCH   1   2
BRANCH   1  10
ATOM     10  C   UNL     1      25.155 -13.170  -0.631  1.00  0.00     0.000 C 
BRANCH  10  11
ATOM     11  C   UNL     1      26.544 -13.564  -1.163  1.00  0.00    -0.000 C 
BRANCH  11  12
ATOM     12  C   UNL     1      27.389 -14.325  -0.126  1.00  0.00    -0.000 C 
BRANCH  12  13
ATOM     13  C   UNL     1      27.799 -13.503   1.110  1.00  0.00    -0.000 C 
BRANCH  13  14
ATOM     14  C   UNL     1      29.240 -13.780   1.563  1.00  0.00    -0.000 C 
BRANCH  14  15
ATOM     15  C   UNL     1      30.238 -13.470   0.440  1.00  0.00    -0.003 C 
ATOM     16  C   UNL     1      30.247 -11.982   0.105  1.00  0.00     0.004 C 
ENDBRANCH  14  15
ENDBRANCH  13  14
ENDBRANCH  12  13
ENDBRANCH  11  12
ENDBRANCH  10  11
ENDBRANCH   1  10
TORSDOF 12
ENDMDL
