MODEL 1
REMARK VINA RESULT:    -4.296      0.000      0.000
REMARK INTER + INTRA:          -7.392
REMARK INTER:                  -6.807
REMARK INTRA:                  -0.585
REMARK UNBOUND:                -0.585
REMARK SMILES CCCCCCCCCCCC(=O)[O-]
REMARK SMILES IDX 7 1 8 2 9 3 10 4 11 5 12 6 13 7 14 8 6 9 5 10 4 11 3 12 2 13
REMARK SMILES IDX 1 14
REMARK H PARENT
REMARK Flexibility Score: inf
ROOT
ATOM      1  C   UNL     1      33.849  32.946  25.234  1.00  0.00     0.000 C 
ENDROOT
BRANCH   1   2
ATOM      2  C   UNL     1      34.839  33.855  25.978  1.00  0.00     0.000 C 
BRANCH   2   3
ATOM      3  C   UNL     1      36.016  33.072  26.587  1.00  0.00     0.000 C 
BRANCH   3   4
ATOM      4  C   UNL     1      36.855  33.924  27.553  1.00  0.00     0.006 C 
BRANCH   4   5
ATOM      5  C   UNL     1      36.221  35.292  27.834  1.00  0.00     0.053 C 
BRANCH   5   6
ATOM      6  C   UNL     1      36.682  35.819  29.157  1.00  0.00     0.041 C 
ATOM      7  O   UNL     1      35.878  35.895  30.123  1.00  0.00    -0.550 OA
ATOM      8  O   UNL     1      38.011  36.179  29.337  1.00  0.00    -0.550 OA
ENDBRANCH   5   6
ENDBRANCH   4   5
ENDBRANCH   3   4
ENDBRANCH   2   3
ENDBRANCH   1   2
BRANCH   1   9
ATOM      9  C   UNL     1      34.467  31.589  24.851  1.00  0.00     0.000 C 
BRANCH   9  10
ATOM     10  C   UNL     1      34.513  31.367  23.331  1.00  0.00    -0.000 C 
BRANCH  10  11
ATOM     11  C   UNL     1      33.322  32.013  22.603  1.00  0.00    -0.000 C 
BRANCH  11  12
ATOM     12  C   UNL     1      32.495  30.995  21.803  1.00  0.00    -0.000 C 
BRANCH  12  13
ATOM     13  C   UNL     1      33.012  29.557  21.960  1.00  0.00    -0.003 C 
ATOM     14  C   UNL     1      32.786  28.750  20.684  1.00  0.00     0.004 C 
ENDBRANCH  12  13
ENDBRANCH  11  12
ENDBRANCH  10  11
ENDBRANCH   9  10
ENDBRANCH   1   9
TORSDOF 10
ENDMDL
MODEL 2
REMARK VINA RESULT:    -4.266      3.966      6.861
REMARK INTER + INTRA:          -7.344
REMARK INTER:                  -6.012
REMARK INTRA:                  -1.332
REMARK UNBOUND:                -0.585
REMARK SMILES CCCCCCCCCCCC(=O)[O-]
REMARK SMILES IDX 7 1 8 2 9 3 10 4 11 5 12 6 13 7 14 8 6 9 5 10 4 11 3 12 2 13
REMARK SMILES IDX 1 14
REMARK H PARENT
REMARK Flexibility Score: inf
ROOT
ATOM      1  C   UNL     1      34.696  34.295  24.674  1.00  0.00     0.000 C 
ENDROOT
BRANCH   1   2
ATOM      2  C   UNL     1      33.932  33.333  25.597  1.00  0.00     0.000 C 
BRANCH   2   3
ATOM      3  C   UNL     1      34.387  31.872  25.434  1.00  0.00     0.000 C 
BRANCH   3   4
ATOM      4  C   UNL     1      35.104  31.623  24.097  1.00  0.00     0.006 C 
BRANCH   4   5
ATOM      5  C   UNL     1      34.454  30.498  23.282  1.00  0.00     0.053 C 
BRANCH   5   6
ATOM      6  C   UNL     1      33.694  31.064  22.124  1.00  0.00     0.041 C 
ATOM      7  O   UNL     1      33.945  30.680  20.952  1.00  0.00    -0.550 OA
ATOM      8  O   UNL     1      32.673  31.981  22.344  1.00  0.00    -0.550 OA
ENDBRANCH   5   6
ENDBRANCH   4   5
ENDBRANCH   3   4
ENDBRANCH   2   3
ENDBRANCH   1   2
BRANCH   1   9
ATOM      9  C   UNL     1      35.203  35.545  25.414  1.00  0.00     0.000 C 
BRANCH   9  10
ATOM     10  C   UNL     1      35.034  35.441  26.938  1.00  0.00    -0.000 C 
BRANCH  10  11
ATOM     11  C   UNL     1      36.377  35.284  27.672  1.00  0.00    -0.000 C 
BRANCH  11  12
ATOM     12  C   UNL     1      36.899  33.839  27.645  1.00  0.00    -0.000 C 
BRANCH  12  13
ATOM     13  C   UNL     1      38.149  33.676  26.768  1.00  0.00    -0.003 C 
ATOM     14  C   UNL     1      38.180  32.301  26.107  1.00  0.00     0.004 C 
ENDBRANCH  12  13
ENDBRANCH  11  12
ENDBRANCH  10  11
ENDBRANCH   9  10
ENDBRANCH   1   9
TORSDOF 10
ENDMDL
MODEL 3
REMARK VINA RESULT:    -4.210      2.064      3.601
REMARK INTER + INTRA:          -7.255
REMARK INTER:                  -6.581
REMARK INTRA:                  -0.674
REMARK UNBOUND:                -0.585
REMARK SMILES CCCCCCCCCCCC(=O)[O-]
REMARK SMILES IDX 7 1 8 2 9 3 10 4 11 5 12 6 13 7 14 8 6 9 5 10 4 11 3 12 2 13
REMARK SMILES IDX 1 14
REMARK H PARENT
REMARK Flexibility Score: inf
ROOT
ATOM      1  C   UNL     1      33.713  31.822  21.905  1.00  0.00     0.000 C 
ENDROOT
BRANCH   1   2
ATOM      2  C   UNL     1      33.575  32.719  23.145  1.00  0.00     0.000 C 
BRANCH   2   3
ATOM      3  C   UNL     1      34.085  32.037  24.426  1.00  0.00     0.000 C 
BRANCH   3   4
ATOM      4  C   UNL     1      33.924  32.924  25.672  1.00  0.00     0.006 C 
BRANCH   4   5
ATOM      5  C   UNL     1      35.218  33.660  26.041  1.00  0.00     0.053 C 
BRANCH   5   6
ATOM      6  C   UNL     1      34.973  35.134  26.128  1.00  0.00     0.041 C 
ATOM      7  O   UNL     1      34.747  35.801  25.085  1.00  0.00    -0.550 OA
ATOM      8  O   UNL     1      34.945  35.762  27.367  1.00  0.00    -0.550 OA
ENDBRANCH   5   6
ENDBRANCH   4   5
ENDBRANCH   3   4
ENDBRANCH   2   3
ENDBRANCH   1   2
BRANCH   1   9
ATOM      9  C   UNL     1      32.509  30.880  21.722  1.00  0.00     0.000 C 
BRANCH   9  10
ATOM     10  C   UNL     1      32.890  29.398  21.860  1.00  0.00    -0.000 C 
BRANCH  10  11
ATOM     11  C   UNL     1      32.636  28.600  20.570  1.00  0.00    -0.000 C 
BRANCH  11  12
ATOM     12  C   UNL     1      33.729  28.824  19.513  1.00  0.00    -0.000 C 
BRANCH  12  13
ATOM     13  C   UNL     1      33.166  29.329  18.176  1.00  0.00    -0.003 C 
ATOM     14  C   UNL     1      33.182  30.854  18.115  1.00  0.00     0.004 C 
ENDBRANCH  12  13
ENDBRANCH  11  12
ENDBRANCH  10  11
ENDBRANCH   9  10
ENDBRANCH   1   9
TORSDOF 10
ENDMDL
MODEL 4
REMARK VINA RESULT:    -4.196      1.052      1.601
REMARK INTER + INTRA:          -7.234
REMARK INTER:                  -6.844
REMARK INTRA:                  -0.391
REMARK UNBOUND:                -0.585
REMARK SMILES CCCCCCCCCCCC(=O)[O-]
REMARK SMILES IDX 7 1 8 2 9 3 10 4 11 5 12 6 13 7 14 8 6 9 5 10 4 11 3 12 2 13
REMARK SMILES IDX 1 14
REMARK H PARENT
REMARK Flexibility Score: inf
ROOT
ATOM      1  C   UNL     1      34.973  33.778  26.010  1.00  0.00     0.000 C 
ENDROOT
BRANCH   1   2
ATOM      2  C   UNL     1      36.235  33.222  26.687  1.00  0.00     0.000 C 
BRANCH   2   3
ATOM      3  C   UNL     1      36.684  34.075  27.887  1.00  0.00     0.000 C 
BRANCH   3   4
ATOM      4  C   UNL     1      35.910  35.398  27.994  1.00  0.00     0.006 C 
BRANCH   4   5
ATOM      5  C   UNL     1      36.100  36.082  29.354  1.00  0.00     0.053 C 
BRANCH   5   6
ATOM      6  C   UNL     1      37.233  37.058  29.293  1.00  0.00     0.041 C 
ATOM      7  O   UNL     1      37.003  38.285  29.131  1.00  0.00    -0.550 OA
ATOM      8  O   UNL     1      38.539  36.619  29.465  1.00  0.00    -0.550 OA
ENDBRANCH   5   6
ENDBRANCH   4   5
ENDBRANCH   3   4
ENDBRANCH   2   3
ENDBRANCH   1   2
BRANCH   1   9
ATOM      9  C   UNL     1      34.038  32.666  25.501  1.00  0.00     0.000 C 
BRANCH   9  10
ATOM     10  C   UNL     1      33.572  32.898  24.055  1.00  0.00    -0.000 C 
BRANCH  10  11
ATOM     11  C   UNL     1      33.872  31.699  23.138  1.00  0.00    -0.000 C 
BRANCH  11  12
ATOM     12  C   UNL     1      33.088  31.754  21.818  1.00  0.00    -0.000 C 
BRANCH  12  13
ATOM     13  C   UNL     1      32.444  30.409  21.453  1.00  0.00    -0.003 C 
ATOM     14  C   UNL     1      33.212  29.246  22.076  1.00  0.00     0.004 C 
ENDBRANCH  12  13
ENDBRANCH  11  12
ENDBRANCH  10  11
ENDBRANCH   9  10
ENDBRANCH   1   9
TORSDOF 10
ENDMDL
MODEL 5
REMARK VINA RESULT:    -4.167      4.852      8.207
REMARK INTER + INTRA:          -7.188
REMARK INTER:                  -6.647
REMARK INTRA:                  -0.541
REMARK UNBOUND:                -0.585
REMARK SMILES CCCCCCCCCCCC(=O)[O-]
REMARK SMILES IDX 7 1 8 2 9 3 10 4 11 5 12 6 13 7 14 8 6 9 5 10 4 11 3 12 2 13
REMARK SMILES IDX 1 14
REMARK H PARENT
REMARK Flexibility Score: inf
ROOT
ATOM      1  C   UNL     1      33.832  33.234  24.446  1.00  0.00     0.000 C 
ENDROOT
BRANCH   1   2
ATOM      2  C   UNL     1      33.724  32.243  23.277  1.00  0.00     0.000 C 
BRANCH   2   3
ATOM      3  C   UNL     1      34.420  30.903  23.574  1.00  0.00     0.000 C 
BRANCH   3   4
ATOM      4  C   UNL     1      34.427  29.959  22.360  1.00  0.00     0.006 C 
BRANCH   4   5
ATOM      5  C   UNL     1      33.509  30.445  21.232  1.00  0.00     0.053 C 
BRANCH   5   6
ATOM      6  C   UNL     1      32.741  29.297  20.653  1.00  0.00     0.041 C 
ATOM      7  O   UNL     1      31.819  28.754  21.316  1.00  0.00    -0.550 OA
ATOM      8  O   UNL     1      33.011  28.861  19.362  1.00  0.00    -0.550 OA
ENDBRANCH   5   6
ENDBRANCH   4   5
ENDBRANCH   3   4
ENDBRANCH   2   3
ENDBRANCH   1   2
BRANCH   1   9
ATOM      9  C   UNL     1      34.553  32.632  25.665  1.00  0.00     0.000 C 
BRANCH   9  10
ATOM     10  C   UNL     1      35.506  33.630  26.343  1.00  0.00    -0.000 C 
BRANCH  10  11
ATOM     11  C   UNL     1      34.971  35.072  26.310  1.00  0.00    -0.000 C 
BRANCH  11  12
ATOM     12  C   UNL     1      35.701  35.994  27.299  1.00  0.00    -0.000 C 
BRANCH  12  13
ATOM     13  C   UNL     1      36.370  35.223  28.447  1.00  0.00    -0.003 C 
ATOM     14  C   UNL     1      36.082  35.882  29.793  1.00  0.00     0.004 C 
ENDBRANCH  12  13
ENDBRANCH  11  12
ENDBRANCH  10  11
ENDBRANCH   9  10
ENDBRANCH   1   9
TORSDOF 10
ENDMDL
MODEL 6
REMARK VINA RESULT:    -4.146      1.384      2.239
REMARK INTER + INTRA:          -7.154
REMARK INTER:                  -6.083
REMARK INTRA:                  -1.071
REMARK UNBOUND:                -0.585
REMARK SMILES CCCCCCCCCCCC(=O)[O-]
REMARK SMILES IDX 7 1 8 2 9 3 10 4 11 5 12 6 13 7 14 8 6 9 5 10 4 11 3 12 2 13
REMARK SMILES IDX 1 14
REMARK H PARENT
REMARK Flexibility Score: inf
ROOT
ATOM      1  C   UNL     1      36.137  32.285  24.820  1.00  0.00     0.000 C 
ENDROOT
BRANCH   1   2
ATOM      2  C   UNL     1      34.848  32.371  25.650  1.00  0.00     0.000 C 
BRANCH   2   3
ATOM      3  C   UNL     1      34.376  33.821  25.859  1.00  0.00     0.000 C 
BRANCH   3   4
ATOM      4  C   UNL     1      35.536  34.782  26.165  1.00  0.00     0.006 C 
BRANCH   4   5
ATOM      5  C   UNL     1      35.212  35.749  27.309  1.00  0.00     0.053 C 
BRANCH   5   6
ATOM      6  C   UNL     1      36.034  35.422  28.517  1.00  0.00     0.041 C 
ATOM      7  O   UNL     1      35.955  36.138  29.550  1.00  0.00    -0.550 OA
ATOM      8  O   UNL     1      36.850  34.298  28.519  1.00  0.00    -0.550 OA
ENDBRANCH   5   6
ENDBRANCH   4   5
ENDBRANCH   3   4
ENDBRANCH   2   3
ENDBRANCH   1   2
BRANCH   1   9
ATOM      9  C   UNL     1      36.079  31.179  23.752  1.00  0.00     0.000 C 
BRANCH   9  10
ATOM     10  C   UNL     1      34.662  30.613  23.560  1.00  0.00    -0.000 C 
BRANCH  10  11
ATOM     11  C   UNL     1      34.330  30.338  22.084  1.00  0.00    -0.000 C 
BRANCH  11  12
ATOM     12  C   UNL     1      33.280  31.309  21.524  1.00  0.00    -0.000 C 
BRANCH  12  13
ATOM     13  C   UNL     1      32.876  32.393  22.533  1.00  0.00    -0.003 C 
ATOM     14  C   UNL     1      33.419  33.758  22.120  1.00  0.00     0.004 C 
ENDBRANCH  12  13
ENDBRANCH  11  12
ENDBRANCH  10  11
ENDBRANCH   9  10
ENDBRANCH   1   9
TORSDOF 10
ENDMDL
MODEL 7
REMARK VINA RESULT:    -4.127      2.566      3.630
REMARK INTER + INTRA:          -7.124
REMARK INTER:                  -6.104
REMARK INTRA:                  -1.021
REMARK UNBOUND:                -0.585
REMARK SMILES CCCCCCCCCCCC(=O)[O-]
REMARK SMILES IDX 7 1 8 2 9 3 10 4 11 5 12 6 13 7 14 8 6 9 5 10 4 11 3 12 2 13
REMARK SMILES IDX 1 14
REMARK H PARENT
REMARK Flexibility Score: inf
ROOT
ATOM      1  C   UNL     1      37.815  33.956  27.037  1.00  0.00     0.000 C 
ENDROOT
BRANCH   1   2
ATOM      2  C   UNL     1      36.654  34.281  27.989  1.00  0.00     0.000 C 
BRANCH   2   3
ATOM      3  C   UNL     1      35.753  35.410  27.458  1.00  0.00     0.000 C 
BRANCH   3   4
ATOM      4  C   UNL     1      35.261  36.347  28.572  1.00  0.00     0.006 C 
BRANCH   4   5
ATOM      5  C   UNL     1      36.251  36.446  29.738  1.00  0.00     0.053 C 
BRANCH   5   6
ATOM      6  C   UNL     1      37.359  37.395  29.403  1.00  0.00     0.041 C 
ATOM      7  O   UNL     1      38.553  36.995  29.387  1.00  0.00    -0.550 OA
ATOM      8  O   UNL     1      37.069  38.709  29.061  1.00  0.00    -0.550 OA
ENDBRANCH   5   6
ENDBRANCH   4   5
ENDBRANCH   3   4
ENDBRANCH   2   3
ENDBRANCH   1   2
BRANCH   1   9
ATOM      9  C   UNL     1      37.649  32.589  26.349  1.00  0.00     0.000 C 
BRANCH   9  10
ATOM     10  C   UNL     1      37.281  32.715  24.862  1.00  0.00    -0.000 C 
BRANCH  10  11
ATOM     11  C   UNL     1      35.960  32.006  24.518  1.00  0.00    -0.000 C 
BRANCH  11  12
ATOM     12  C   UNL     1      34.966  32.008  25.690  1.00  0.00    -0.000 C 
BRANCH  12  13
ATOM     13  C   UNL     1      33.807  32.993  25.483  1.00  0.00    -0.003 C 
ATOM     14  C   UNL     1      33.720  33.440  24.026  1.00  0.00     0.004 C 
ENDBRANCH  12  13
ENDBRANCH  11  12
ENDBRANCH  10  11
ENDBRANCH   9  10
ENDBRANCH   1   9
TORSDOF 10
ENDMDL
MODEL 8
REMARK VINA RESULT:    -4.118      4.170      7.950
REMARK INTER + INTRA:          -7.109
REMARK INTER:                  -6.539
REMARK INTRA:                  -0.571
REMARK UNBOUND:                -0.585
REMARK SMILES CCCCCCCCCCCC(=O)[O-]
REMARK SMILES IDX 7 1 8 2 9 3 10 4 11 5 12 6 13 7 14 8 6 9 5 10 4 11 3 12 2 13
REMARK SMILES IDX 1 14
REMARK H PARENT
REMARK Flexibility Score: inf
ROOT
ATOM      1  C   UNL     1      35.167  34.424  25.558  1.00  0.00     0.000 C 
ENDROOT
BRANCH   1   2
ATOM      2  C   UNL     1      33.958  33.478  25.599  1.00  0.00     0.000 C 
BRANCH   2   3
ATOM      3  C   UNL     1      34.357  32.002  25.421  1.00  0.00     0.000 C 
BRANCH   3   4
ATOM      4  C   UNL     1      34.314  31.552  23.951  1.00  0.00     0.006 C 
BRANCH   4   5
ATOM      5  C   UNL     1      33.389  32.425  23.095  1.00  0.00     0.053 C 
BRANCH   5   6
ATOM      6  C   UNL     1      33.094  31.751  21.792  1.00  0.00     0.041 C 
ATOM      7  O   UNL     1      32.377  30.717  21.762  1.00  0.00    -0.550 OA
ATOM      8  O   UNL     1      33.570  32.293  20.605  1.00  0.00    -0.550 OA
ENDBRANCH   5   6
ENDBRANCH   4   5
ENDBRANCH   3   4
ENDBRANCH   2   3
ENDBRANCH   1   2
BRANCH   1   9
ATOM      9  C   UNL     1      35.482  35.040  26.933  1.00  0.00     0.000 C 
BRANCH   9  10
ATOM     10  C   UNL     1      36.590  34.282  27.682  1.00  0.00    -0.000 C 
BRANCH  10  11
ATOM     11  C   UNL     1      37.002  34.981  28.990  1.00  0.00    -0.000 C 
BRANCH  11  12
ATOM     12  C   UNL     1      35.998  36.058  29.425  1.00  0.00    -0.000 C 
BRANCH  12  13
ATOM     13  C   UNL     1      36.653  37.432  29.632  1.00  0.00    -0.003 C 
ATOM     14  C   UNL     1      37.543  37.799  28.448  1.00  0.00     0.004 C 
ENDBRANCH  12  13
ENDBRANCH  11  12
ENDBRANCH  10  11
ENDBRANCH   9  10
ENDBRANCH   1   9
TORSDOF 10
ENDMDL
MODEL 9
REMARK VINA RESULT:    -4.097      3.687      7.790
REMARK INTER + INTRA:          -7.077
REMARK INTER:                  -6.097
REMARK INTRA:                  -0.980
REMARK UNBOUND:                -0.585
REMARK SMILES CCCCCCCCCCCC(=O)[O-]
REMARK SMILES IDX 7 1 8 2 9 3 10 4 11 5 12 6 13 7 14 8 6 9 5 10 4 11 3 12 2 13
REMARK SMILES IDX 1 14
REMARK H PARENT
REMARK Flexibility Score: inf
ROOT
ATOM      1  C   UNL     1      35.672  36.235  27.301  1.00  0.00     0.000 C 
ENDROOT
BRANCH   1   2
ATOM      2  C   UNL     1      35.699  35.091  26.277  1.00  0.00     0.000 C 
BRANCH   2   3
ATOM      3  C   UNL     1      36.184  33.764  26.887  1.00  0.00     0.000 C 
BRANCH   3   4
ATOM      4  C   UNL     1      35.677  32.537  26.112  1.00  0.00     0.006 C 
BRANCH   4   5
ATOM      5  C   UNL     1      34.197  32.654  25.728  1.00  0.00     0.053 C 
BRANCH   5   6
ATOM      6  C   UNL     1      33.990  32.216  24.312  1.00  0.00     0.041 C 
ATOM      7  O   UNL     1      34.437  31.107  23.920  1.00  0.00    -0.550 OA
ATOM      8  O   UNL     1      33.258  33.011  23.439  1.00  0.00    -0.550 OA
ENDBRANCH   5   6
ENDBRANCH   4   5
ENDBRANCH   3   4
ENDBRANCH   2   3
ENDBRANCH   1   2
BRANCH   1   9
ATOM      9  C   UNL     1      35.633  35.726  28.753  1.00  0.00     0.000 C 
BRANCH   9  10
ATOM     10  C   UNL     1      36.291  36.703  29.742  1.00  0.00    -0.000 C 
BRANCH  10  11
ATOM     11  C   UNL     1      36.975  37.886  29.036  1.00  0.00    -0.000 C 
BRANCH  11  12
ATOM     12  C   UNL     1      38.473  37.985  29.366  1.00  0.00    -0.000 C 
BRANCH  12  13
ATOM     13  C   UNL     1      39.177  36.620  29.342  1.00  0.00    -0.003 C 
ATOM     14  C   UNL     1      39.510  36.200  27.913  1.00  0.00     0.004 C 
ENDBRANCH  12  13
ENDBRANCH  11  12
ENDBRANCH  10  11
ENDBRANCH   9  10
ENDBRANCH   1   9
TORSDOF 10
ENDMDL
