MODEL 1
REMARK VINA RESULT:    -4.912      0.000      0.000
REMARK INTER + INTRA:         -15.291
REMARK INTER:                 -11.230
REMARK INTRA:                  -4.061
REMARK UNBOUND:                -4.061
REMARK SMILES CCCCCCCCCCCCCCCCCCCCCCCC(=O)[O-]
REMARK SMILES IDX 13 1 14 2 15 3 16 4 17 5 18 6 19 7 20 8 21 9 22 10 23 11
REMARK SMILES IDX 24 12 25 13 26 14 12 15 11 16 10 17 9 18 8 19 7 20 6 21 5 22
REMARK SMILES IDX 4 23 3 24 2 25 1 26
REMARK H PARENT
REMARK Flexibility Score: inf
ROOT
ATOM      1  C   UNL     1      20.873  23.346  10.045  1.00  0.00     0.000 C 
ENDROOT
BRANCH   1   2
ATOM      2  C   UNL     1      21.699  23.300   8.742  1.00  0.00     0.000 C 
BRANCH   2   3
ATOM      3  C   UNL     1      21.731  21.938   8.016  1.00  0.00     0.000 C 
BRANCH   3   4
ATOM      4  C   UNL     1      21.558  22.016   6.482  1.00  0.00     0.000 C 
BRANCH   4   5
ATOM      5  C   UNL     1      22.208  20.846   5.721  1.00  0.00     0.000 C 
BRANCH   5   6
ATOM      6  C   UNL     1      21.734  20.669   4.267  1.00  0.00     0.000 C 
BRANCH   6   7
ATOM      7  C   UNL     1      20.348  21.264   3.956  1.00  0.00     0.000 C 
BRANCH   7   8
ATOM      8  C   UNL     1      19.241  20.201   3.888  1.00  0.00     0.000 C 
BRANCH   8   9
ATOM      9  C   UNL     1      19.792  18.812   4.242  1.00  0.00     0.000 C 
BRANCH   9  10
ATOM     10  C   UNL     1      19.062  18.166   5.433  1.00  0.00     0.006 C 
BRANCH  10  11
ATOM     11  C   UNL     1      19.984  17.413   6.407  1.00  0.00     0.053 C 
BRANCH  11  12
ATOM     12  C   UNL     1      19.397  16.105   6.839  1.00  0.00     0.041 C 
ATOM     13  O   UNL     1      20.084  15.294   7.515  1.00  0.00    -0.550 OA
ATOM     14  O   UNL     1      18.108  15.759   6.452  1.00  0.00    -0.550 OA
ENDBRANCH  11  12
ENDBRANCH  10  11
ENDBRANCH   9  10
ENDBRANCH   8   9
ENDBRANCH   7   8
ENDBRANCH   6   7
ENDBRANCH   5   6
ENDBRANCH   4   5
ENDBRANCH   3   4
ENDBRANCH   2   3
ENDBRANCH   1   2
BRANCH   1  15
ATOM     15  C   UNL     1      19.733  24.381  10.062  1.00  0.00     0.000 C 
BRANCH  15  16
ATOM     16  C   UNL     1      19.480  25.007   8.679  1.00  0.00     0.000 C 
BRANCH  16  17
ATOM     17  C   UNL     1      18.012  25.418   8.483  1.00  0.00     0.000 C 
BRANCH  17  18
ATOM     18  C   UNL     1      17.157  24.279   7.900  1.00  0.00    -0.000 C 
BRANCH  18  19
ATOM     19  C   UNL     1      17.629  23.845   6.502  1.00  0.00    -0.000 C 
BRANCH  19  20
ATOM     20  C   UNL     1      18.043  22.363   6.456  1.00  0.00    -0.000 C 
BRANCH  20  21
ATOM     21  C   UNL     1      17.364  21.529   7.554  1.00  0.00    -0.000 C 
BRANCH  21  22
ATOM     22  C   UNL     1      18.368  20.685   8.358  1.00  0.00    -0.000 C 
BRANCH  22  23
ATOM     23  C   UNL     1      18.056  20.665   9.866  1.00  0.00    -0.000 C 
BRANCH  23  24
ATOM     24  C   UNL     1      16.880  21.559  10.296  1.00  0.00    -0.000 C 
BRANCH  24  25
ATOM     25  C   UNL     1      17.207  22.434  11.515  1.00  0.00    -0.003 C 
ATOM     26  C   UNL     1      18.449  21.924  12.240  1.00  0.00     0.004 C 
ENDBRANCH  24  25
ENDBRANCH  23  24
ENDBRANCH  22  23
ENDBRANCH  21  22
ENDBRANCH  20  21
ENDBRANCH  19  20
ENDBRANCH  18  19
ENDBRANCH  17  18
ENDBRANCH  16  17
ENDBRANCH  15  16
ENDBRANCH   1  15
TORSDOF 22
ENDMDL
MODEL 2
REMARK VINA RESULT:    -4.887      1.844      4.511
REMARK INTER + INTRA:         -15.234
REMARK INTER:                 -11.821
REMARK INTRA:                  -3.413
REMARK UNBOUND:                -4.061
REMARK SMILES CCCCCCCCCCCCCCCCCCCCCCCC(=O)[O-]
REMARK SMILES IDX 13 1 14 2 15 3 16 4 17 5 18 6 19 7 20 8 21 9 22 10 23 11
REMARK SMILES IDX 24 12 25 13 26 14 12 15 11 16 10 17 9 18 8 19 7 20 6 21 5 22
REMARK SMILES IDX 4 23 3 24 2 25 1 26
REMARK H PARENT
REMARK Flexibility Score: inf
ROOT
ATOM      1  C   UNL     1      19.127  25.967   9.213  1.00  0.00     0.000 C 
ENDROOT
BRANCH   1   2
ATOM      2  C   UNL     1      17.655  25.924   8.750  1.00  0.00     0.000 C 
BRANCH   2   3
ATOM      3  C   UNL     1      17.131  24.542   8.307  1.00  0.00     0.000 C 
BRANCH   3   4
ATOM      4  C   UNL     1      17.249  24.259   6.792  1.00  0.00     0.000 C 
BRANCH   4   5
ATOM      5  C   UNL     1      17.765  22.846   6.460  1.00  0.00     0.000 C 
BRANCH   5   6
ATOM      6  C   UNL     1      19.265  22.762   6.121  1.00  0.00     0.000 C 
BRANCH   6   7
ATOM      7  C   UNL     1      19.611  21.873   4.911  1.00  0.00     0.000 C 
BRANCH   7   8
ATOM      8  C   UNL     1      21.003  21.233   5.015  1.00  0.00     0.000 C 
BRANCH   8   9
ATOM      9  C   UNL     1      21.702  21.653   6.317  1.00  0.00     0.000 C 
BRANCH   9  10
ATOM     10  C   UNL     1      21.901  20.479   7.293  1.00  0.00     0.006 C 
BRANCH  10  11
ATOM     11  C   UNL     1      23.322  19.891   7.295  1.00  0.00     0.053 C 
BRANCH  11  12
ATOM     12  C   UNL     1      23.505  18.859   6.226  1.00  0.00     0.041 C 
ATOM     13  O   UNL     1      22.553  18.097   5.911  1.00  0.00    -0.550 OA
ATOM     14  O   UNL     1      24.742  18.704   5.613  1.00  0.00    -0.550 OA
ENDBRANCH  11  12
ENDBRANCH  10  11
ENDBRANCH   9  10
ENDBRANCH   8   9
ENDBRANCH   7   8
ENDBRANCH   6   7
ENDBRANCH   5   6
ENDBRANCH   4   5
ENDBRANCH   3   4
ENDBRANCH   2   3
ENDBRANCH   1   2
BRANCH   1  15
ATOM     15  C   UNL     1      19.915  24.660   9.013  1.00  0.00     0.000 C 
BRANCH  15  16
ATOM     16  C   UNL     1      20.117  23.882  10.324  1.00  0.00     0.000 C 
BRANCH  16  17
ATOM     17  C   UNL     1      19.652  22.421  10.216  1.00  0.00     0.000 C 
BRANCH  17  18
ATOM     18  C   UNL     1      18.812  21.981  11.428  1.00  0.00    -0.000 C 
BRANCH  18  19
ATOM     19  C   UNL     1      17.315  21.871  11.098  1.00  0.00    -0.000 C 
BRANCH  19  20
ATOM     20  C   UNL     1      17.064  21.508   9.623  1.00  0.00    -0.000 C 
BRANCH  20  21
ATOM     21  C   UNL     1      17.306  20.017   9.336  1.00  0.00    -0.000 C 
BRANCH  21  22
ATOM     22  C   UNL     1      18.403  19.792   8.281  1.00  0.00    -0.000 C 
BRANCH  22  23
ATOM     23  C   UNL     1      17.889  19.044   7.038  1.00  0.00    -0.000 C 
BRANCH  23  24
ATOM     24  C   UNL     1      18.939  18.171   6.327  1.00  0.00    -0.000 C 
BRANCH  24  25
ATOM     25  C   UNL     1      18.710  16.666   6.539  1.00  0.00    -0.003 C 
ATOM     26  C   UNL     1      20.005  15.963   6.934  1.00  0.00     0.004 C 
ENDBRANCH  24  25
ENDBRANCH  23  24
ENDBRANCH  22  23
ENDBRANCH  21  22
ENDBRANCH  20  21
ENDBRANCH  19  20
ENDBRANCH  18  19
ENDBRANCH  17  18
ENDBRANCH  16  17
ENDBRANCH  15  16
ENDBRANCH   1  15
TORSDOF 22
ENDMDL
MODEL 3
REMARK VINA RESULT:    -4.831      1.353      3.808
REMARK INTER + INTRA:         -15.105
REMARK INTER:                 -11.143
REMARK INTRA:                  -3.962
REMARK UNBOUND:                -4.061
REMARK SMILES CCCCCCCCCCCCCCCCCCCCCCCC(=O)[O-]
REMARK SMILES IDX 13 1 14 2 15 3 16 4 17 5 18 6 19 7 20 8 21 9 22 10 23 11
REMARK SMILES IDX 24 12 25 13 26 14 12 15 11 16 10 17 9 18 8 19 7 20 6 21 5 22
REMARK SMILES IDX 4 23 3 24 2 25 1 26
REMARK H PARENT
REMARK Flexibility Score: inf
ROOT
ATOM      1  C   UNL     1      20.081  24.368   9.378  1.00  0.00     0.000 C 
ENDROOT
BRANCH   1   2
ATOM      2  C   UNL     1      20.153  23.024  10.134  1.00  0.00     0.000 C 
BRANCH   2   3
ATOM      3  C   UNL     1      18.897  22.642  10.946  1.00  0.00     0.000 C 
BRANCH   3   4
ATOM      4  C   UNL     1      18.372  21.211  10.694  1.00  0.00     0.000 C 
BRANCH   4   5
ATOM      5  C   UNL     1      18.382  20.795   9.210  1.00  0.00     0.000 C 
BRANCH   5   6
ATOM      6  C   UNL     1      17.169  19.960   8.758  1.00  0.00     0.000 C 
BRANCH   6   7
ATOM      7  C   UNL     1      17.268  19.386   7.332  1.00  0.00     0.000 C 
BRANCH   7   8
ATOM      8  C   UNL     1      18.299  18.253   7.212  1.00  0.00     0.000 C 
BRANCH   8   9
ATOM      9  C   UNL     1      18.366  17.723   5.772  1.00  0.00     0.000 C 
BRANCH   9  10
ATOM     10  C   UNL     1      19.764  17.873   5.146  1.00  0.00     0.006 C 
BRANCH  10  11
ATOM     11  C   UNL     1      20.924  17.698   6.139  1.00  0.00     0.053 C 
BRANCH  11  12
ATOM     12  C   UNL     1      21.386  16.275   6.221  1.00  0.00     0.041 C 
ATOM     13  O   UNL     1      22.122  15.795   5.318  1.00  0.00    -0.550 OA
ATOM     14  O   UNL     1      20.962  15.466   7.267  1.00  0.00    -0.550 OA
ENDBRANCH  11  12
ENDBRANCH  10  11
ENDBRANCH   9  10
ENDBRANCH   8   9
ENDBRANCH   7   8
ENDBRANCH   6   7
ENDBRANCH   5   6
ENDBRANCH   4   5
ENDBRANCH   3   4
ENDBRANCH   2   3
ENDBRANCH   1   2
BRANCH   1  15
ATOM     15  C   UNL     1      19.194  25.441  10.033  1.00  0.00     0.000 C 
BRANCH  15  16
ATOM     16  C   UNL     1      17.882  25.678   9.265  1.00  0.00     0.000 C 
BRANCH  16  17
ATOM     17  C   UNL     1      17.903  25.049   7.862  1.00  0.00     0.000 C 
BRANCH  17  18
ATOM     18  C   UNL     1      16.883  23.906   7.717  1.00  0.00    -0.000 C 
BRANCH  18  19
ATOM     19  C   UNL     1      17.146  23.038   6.476  1.00  0.00    -0.000 C 
BRANCH  19  20
ATOM     20  C   UNL     1      18.643  22.946   6.129  1.00  0.00    -0.000 C 
BRANCH  20  21
ATOM     21  C   UNL     1      19.016  21.599   5.489  1.00  0.00    -0.000 C 
BRANCH  21  22
ATOM     22  C   UNL     1      20.308  21.680   4.658  1.00  0.00    -0.000 C 
BRANCH  22  23
ATOM     23  C   UNL     1      21.550  21.216   5.440  1.00  0.00    -0.000 C 
BRANCH  23  24
ATOM     24  C   UNL     1      21.788  21.951   6.772  1.00  0.00    -0.000 C 
BRANCH  24  25
ATOM     25  C   UNL     1      22.040  20.994   7.947  1.00  0.00    -0.003 C 
ATOM     26  C   UNL     1      23.264  20.120   7.691  1.00  0.00     0.004 C 
ENDBRANCH  24  25
ENDBRANCH  23  24
ENDBRANCH  22  23
ENDBRANCH  21  22
ENDBRANCH  20  21
ENDBRANCH  19  20
ENDBRANCH  18  19
ENDBRANCH  17  18
ENDBRANCH  16  17
ENDBRANCH  15  16
ENDBRANCH   1  15
TORSDOF 22
ENDMDL
MODEL 4
REMARK VINA RESULT:    -4.710      2.015      5.286
REMARK INTER + INTRA:         -14.829
REMARK INTER:                 -11.079
REMARK INTRA:                  -3.750
REMARK UNBOUND:                -4.061
REMARK SMILES CCCCCCCCCCCCCCCCCCCCCCCC(=O)[O-]
REMARK SMILES IDX 13 1 14 2 15 3 16 4 17 5 18 6 19 7 20 8 21 9 22 10 23 11
REMARK SMILES IDX 24 12 25 13 26 14 12 15 11 16 10 17 9 18 8 19 7 20 6 21 5 22
REMARK SMILES IDX 4 23 3 24 2 25 1 26
REMARK H PARENT
REMARK Flexibility Score: inf
ROOT
ATOM      1  C   UNL     1      20.483  23.831   9.502  1.00  0.00     0.000 C 
ENDROOT
BRANCH   1   2
ATOM      2  C   UNL     1      19.804  24.942  10.332  1.00  0.00     0.000 C 
BRANCH   2   3
ATOM      3  C   UNL     1      19.065  26.028   9.522  1.00  0.00     0.000 C 
BRANCH   3   4
ATOM      4  C   UNL     1      17.630  25.651   9.090  1.00  0.00     0.000 C 
BRANCH   4   5
ATOM      5  C   UNL     1      17.534  25.116   7.648  1.00  0.00     0.000 C 
BRANCH   5   6
ATOM      6  C   UNL     1      16.962  23.692   7.518  1.00  0.00     0.000 C 
BRANCH   6   7
ATOM      7  C   UNL     1      17.468  22.896   6.300  1.00  0.00     0.000 C 
BRANCH   7   8
ATOM      8  C   UNL     1      19.001  22.871   6.194  1.00  0.00     0.000 C 
BRANCH   8   9
ATOM      9  C   UNL     1      19.469  21.725   5.286  1.00  0.00     0.000 C 
BRANCH   9  10
ATOM     10  C   UNL     1      20.995  21.522   5.319  1.00  0.00     0.006 C 
BRANCH  10  11
ATOM     11  C   UNL     1      21.640  21.797   6.687  1.00  0.00     0.053 C 
BRANCH  11  12
ATOM     12  C   UNL     1      22.414  20.618   7.191  1.00  0.00     0.041 C 
ATOM     13  O   UNL     1      23.051  20.695   8.275  1.00  0.00    -0.550 OA
ATOM     14  O   UNL     1      22.472  19.452   6.440  1.00  0.00    -0.550 OA
ENDBRANCH  11  12
ENDBRANCH  10  11
ENDBRANCH   9  10
ENDBRANCH   8   9
ENDBRANCH   7   8
ENDBRANCH   6   7
ENDBRANCH   5   6
ENDBRANCH   4   5
ENDBRANCH   3   4
ENDBRANCH   2   3
ENDBRANCH   1   2
BRANCH   1  15
ATOM     15  C   UNL     1      20.083  22.394   9.880  1.00  0.00     0.000 C 
BRANCH  15  16
ATOM     16  C   UNL     1      18.731  22.327  10.612  1.00  0.00     0.000 C 
BRANCH  16  17
ATOM     17  C   UNL     1      17.925  21.074  10.238  1.00  0.00     0.000 C 
BRANCH  17  18
ATOM     18  C   UNL     1      18.351  20.484   8.882  1.00  0.00    -0.000 C 
BRANCH  18  19
ATOM     19  C   UNL     1      17.420  19.355   8.412  1.00  0.00    -0.000 C 
BRANCH  19  20
ATOM     20  C   UNL     1      17.268  19.318   6.881  1.00  0.00    -0.000 C 
BRANCH  20  21
ATOM     21  C   UNL     1      18.183  18.271   6.225  1.00  0.00    -0.000 C 
BRANCH  21  22
ATOM     22  C   UNL     1      18.222  16.949   7.010  1.00  0.00    -0.000 C 
BRANCH  22  23
ATOM     23  C   UNL     1      19.149  15.902   6.367  1.00  0.00    -0.000 C 
BRANCH  23  24
ATOM     24  C   UNL     1      20.392  15.538   7.200  1.00  0.00    -0.000 C 
BRANCH  24  25
ATOM     25  C   UNL     1      21.709  15.795   6.453  1.00  0.00    -0.003 C 
ATOM     26  C   UNL     1      21.451  16.373   5.065  1.00  0.00     0.004 C 
ENDBRANCH  24  25
ENDBRANCH  23  24
ENDBRANCH  22  23
ENDBRANCH  21  22
ENDBRANCH  20  21
ENDBRANCH  19  20
ENDBRANCH  18  19
ENDBRANCH  17  18
ENDBRANCH  16  17
ENDBRANCH  15  16
ENDBRANCH   1  15
TORSDOF 22
ENDMDL
MODEL 5
REMARK VINA RESULT:    -4.612      3.120      6.656
REMARK INTER + INTRA:         -14.605
REMARK INTER:                 -10.501
REMARK INTRA:                  -4.104
REMARK UNBOUND:                -4.061
REMARK SMILES CCCCCCCCCCCCCCCCCCCCCCCC(=O)[O-]
REMARK SMILES IDX 13 1 14 2 15 3 16 4 17 5 18 6 19 7 20 8 21 9 22 10 23 11
REMARK SMILES IDX 24 12 25 13 26 14 12 15 11 16 10 17 9 18 8 19 7 20 6 21 5 22
REMARK SMILES IDX 4 23 3 24 2 25 1 26
REMARK H PARENT
REMARK Flexibility Score: inf
ROOT
ATOM      1  C   UNL     1      21.324  21.313   7.297  1.00  0.00     0.000 C 
ENDROOT
BRANCH   1   2
ATOM      2  C   UNL     1      20.592  22.663   7.137  1.00  0.00     0.000 C 
BRANCH   2   3
ATOM      3  C   UNL     1      19.449  22.688   6.100  1.00  0.00     0.000 C 
BRANCH   3   4
ATOM      4  C   UNL     1      18.152  23.376   6.581  1.00  0.00     0.000 C 
BRANCH   4   5
ATOM      5  C   UNL     1      16.901  22.481   6.490  1.00  0.00     0.000 C 
BRANCH   5   6
ATOM      6  C   UNL     1      17.156  20.978   6.711  1.00  0.00     0.000 C 
BRANCH   6   7
ATOM      7  C   UNL     1      16.939  20.486   8.154  1.00  0.00     0.000 C 
BRANCH   7   8
ATOM      8  C   UNL     1      18.234  20.464   8.981  1.00  0.00     0.000 C 
BRANCH   8   9
ATOM      9  C   UNL     1      18.050  21.219  10.306  1.00  0.00     0.000 C 
BRANCH   9  10
ATOM     10  C   UNL     1      17.012  22.352  10.210  1.00  0.00     0.006 C 
BRANCH  10  11
ATOM     11  C   UNL     1      17.394  23.627  10.978  1.00  0.00     0.053 C 
BRANCH  11  12
ATOM     12  C   UNL     1      17.932  24.691  10.072  1.00  0.00     0.041 C 
ATOM     13  O   UNL     1      19.176  24.813   9.907  1.00  0.00    -0.550 OA
ATOM     14  O   UNL     1      17.064  25.578   9.449  1.00  0.00    -0.550 OA
ENDBRANCH  11  12
ENDBRANCH  10  11
ENDBRANCH   9  10
ENDBRANCH   8   9
ENDBRANCH   7   8
ENDBRANCH   6   7
ENDBRANCH   5   6
ENDBRANCH   4   5
ENDBRANCH   3   4
ENDBRANCH   2   3
ENDBRANCH   1   2
BRANCH   1  15
ATOM     15  C   UNL     1      22.445  21.298   8.351  1.00  0.00     0.000 C 
BRANCH  15  16
ATOM     16  C   UNL     1      23.608  20.365   7.968  1.00  0.00     0.000 C 
BRANCH  16  17
ATOM     17  C   UNL     1      23.148  19.181   7.102  1.00  0.00     0.000 C 
BRANCH  17  18
ATOM     18  C   UNL     1      24.017  19.001   5.845  1.00  0.00    -0.000 C 
BRANCH  18  19
ATOM     19  C   UNL     1      23.293  19.442   4.562  1.00  0.00    -0.000 C 
BRANCH  19  20
ATOM     20  C   UNL     1      21.998  18.647   4.315  1.00  0.00    -0.000 C 
BRANCH  20  21
ATOM     21  C   UNL     1      20.760  19.555   4.229  1.00  0.00    -0.000 C 
BRANCH  21  22
ATOM     22  C   UNL     1      19.528  18.936   4.912  1.00  0.00    -0.000 C 
BRANCH  22  23
ATOM     23  C   UNL     1      19.881  18.180   6.206  1.00  0.00    -0.000 C 
BRANCH  23  24
ATOM     24  C   UNL     1      19.103  16.870   6.423  1.00  0.00    -0.000 C 
BRANCH  24  25
ATOM     25  C   UNL     1      19.960  15.762   7.052  1.00  0.00    -0.003 C 
ATOM     26  C   UNL     1      21.417  15.876   6.612  1.00  0.00     0.004 C 
ENDBRANCH  24  25
ENDBRANCH  23  24
ENDBRANCH  22  23
ENDBRANCH  21  22
ENDBRANCH  20  21
ENDBRANCH  19  20
ENDBRANCH  18  19
ENDBRANCH  17  18
ENDBRANCH  16  17
ENDBRANCH  15  16
ENDBRANCH   1  15
TORSDOF 22
ENDMDL
MODEL 6
REMARK VINA RESULT:    -4.555      2.425      2.825
REMARK INTER + INTRA:         -14.475
REMARK INTER:                 -11.021
REMARK INTRA:                  -3.454
REMARK UNBOUND:                -4.061
REMARK SMILES CCCCCCCCCCCCCCCCCCCCCCCC(=O)[O-]
REMARK SMILES IDX 13 1 14 2 15 3 16 4 17 5 18 6 19 7 20 8 21 9 22 10 23 11
REMARK SMILES IDX 24 12 25 13 26 14 12 15 11 16 10 17 9 18 8 19 7 20 6 21 5 22
REMARK SMILES IDX 4 23 3 24 2 25 1 26
REMARK H PARENT
REMARK Flexibility Score: inf
ROOT
ATOM      1  C   UNL     1      20.826  23.676   9.687  1.00  0.00     0.000 C 
ENDROOT
BRANCH   1   2
ATOM      2  C   UNL     1      21.641  23.520   8.384  1.00  0.00     0.000 C 
BRANCH   2   3
ATOM      3  C   UNL     1      21.768  22.081   7.841  1.00  0.00     0.000 C 
BRANCH   3   4
ATOM      4  C   UNL     1      21.222  21.878   6.410  1.00  0.00     0.000 C 
BRANCH   4   5
ATOM      5  C   UNL     1      22.163  21.075   5.492  1.00  0.00     0.000 C 
BRANCH   5   6
ATOM      6  C   UNL     1      21.466  20.299   4.360  1.00  0.00     0.000 C 
BRANCH   6   7
ATOM      7  C   UNL     1      20.251  19.458   4.798  1.00  0.00     0.000 C 
BRANCH   7   8
ATOM      8  C   UNL     1      20.649  18.156   5.510  1.00  0.00     0.000 C 
BRANCH   8   9
ATOM      9  C   UNL     1      21.650  17.353   4.666  1.00  0.00     0.000 C 
BRANCH   9  10
ATOM     10  C   UNL     1      22.801  16.767   5.503  1.00  0.00     0.006 C 
BRANCH  10  11
ATOM     11  C   UNL     1      24.099  16.529   4.713  1.00  0.00     0.053 C 
BRANCH  11  12
ATOM     12  C   UNL     1      25.110  17.607   4.955  1.00  0.00     0.041 C 
ATOM     13  O   UNL     1      26.323  17.413   4.672  1.00  0.00    -0.550 OA
ATOM     14  O   UNL     1      24.723  18.806   5.539  1.00  0.00    -0.550 OA
ENDBRANCH  11  12
ENDBRANCH  10  11
ENDBRANCH   9  10
ENDBRANCH   8   9
ENDBRANCH   7   8
ENDBRANCH   6   7
ENDBRANCH   5   6
ENDBRANCH   4   5
ENDBRANCH   3   4
ENDBRANCH   2   3
ENDBRANCH   1   2
BRANCH   1  15
ATOM     15  C   UNL     1      19.827  24.846   9.698  1.00  0.00     0.000 C 
BRANCH  15  16
ATOM     16  C   UNL     1      19.044  24.971   8.379  1.00  0.00     0.000 C 
BRANCH  16  17
ATOM     17  C   UNL     1      17.526  24.851   8.587  1.00  0.00     0.000 C 
BRANCH  17  18
ATOM     18  C   UNL     1      16.875  23.865   7.600  1.00  0.00    -0.000 C 
BRANCH  18  19
ATOM     19  C   UNL     1      17.763  23.584   6.377  1.00  0.00    -0.000 C 
BRANCH  19  20
ATOM     20  C   UNL     1      18.018  22.081   6.169  1.00  0.00    -0.000 C 
BRANCH  20  21
ATOM     21  C   UNL     1      17.259  21.210   7.183  1.00  0.00    -0.000 C 
BRANCH  21  22
ATOM     22  C   UNL     1      18.203  20.423   8.108  1.00  0.00    -0.000 C 
BRANCH  22  23
ATOM     23  C   UNL     1      17.515  19.954   9.402  1.00  0.00    -0.000 C 
BRANCH  23  24
ATOM     24  C   UNL     1      16.875  21.076  10.239  1.00  0.00    -0.000 C 
BRANCH  24  25
ATOM     25  C   UNL     1      17.912  22.001  10.895  1.00  0.00    -0.003 C 
ATOM     26  C   UNL     1      17.233  23.110  11.693  1.00  0.00     0.004 C 
ENDBRANCH  24  25
ENDBRANCH  23  24
ENDBRANCH  22  23
ENDBRANCH  21  22
ENDBRANCH  20  21
ENDBRANCH  19  20
ENDBRANCH  18  19
ENDBRANCH  17  18
ENDBRANCH  16  17
ENDBRANCH  15  16
ENDBRANCH   1  15
TORSDOF 22
ENDMDL
MODEL 7
REMARK VINA RESULT:    -4.548      2.674      6.876
REMARK INTER + INTRA:         -14.457
REMARK INTER:                 -11.010
REMARK INTRA:                  -3.447
REMARK UNBOUND:                -4.061
REMARK SMILES CCCCCCCCCCCCCCCCCCCCCCCC(=O)[O-]
REMARK SMILES IDX 13 1 14 2 15 3 16 4 17 5 18 6 19 7 20 8 21 9 22 10 23 11
REMARK SMILES IDX 24 12 25 13 26 14 12 15 11 16 10 17 9 18 8 19 7 20 6 21 5 22
REMARK SMILES IDX 4 23 3 24 2 25 1 26
REMARK H PARENT
REMARK Flexibility Score: inf
ROOT
ATOM      1  C   UNL     1      22.116  20.844   7.574  1.00  0.00     0.000 C 
ENDROOT
BRANCH   1   2
ATOM      2  C   UNL     1      21.288  22.071   7.133  1.00  0.00     0.000 C 
BRANCH   2   3
ATOM      3  C   UNL     1      20.721  22.018   5.700  1.00  0.00     0.000 C 
BRANCH   3   4
ATOM      4  C   UNL     1      19.230  22.408   5.577  1.00  0.00     0.000 C 
BRANCH   4   5
ATOM      5  C   UNL     1      18.479  22.430   6.922  1.00  0.00     0.000 C 
BRANCH   5   6
ATOM      6  C   UNL     1      17.174  23.247   6.927  1.00  0.00     0.000 C 
BRANCH   6   7
ATOM      7  C   UNL     1      17.284  24.648   7.558  1.00  0.00     0.000 C 
BRANCH   7   8
ATOM      8  C   UNL     1      18.589  24.852   8.342  1.00  0.00     0.000 C 
BRANCH   8   9
ATOM      9  C   UNL     1      18.302  25.077   9.834  1.00  0.00     0.000 C 
BRANCH   9  10
ATOM     10  C   UNL     1      17.096  24.264  10.340  1.00  0.00     0.006 C 
BRANCH  10  11
ATOM     11  C   UNL     1      17.461  23.125  11.304  1.00  0.00     0.053 C 
BRANCH  11  12
ATOM     12  C   UNL     1      18.142  21.990  10.603  1.00  0.00     0.041 C 
ATOM     13  O   UNL     1      19.396  21.983  10.479  1.00  0.00    -0.550 OA
ATOM     14  O   UNL     1      17.389  20.966  10.044  1.00  0.00    -0.550 OA
ENDBRANCH  11  12
ENDBRANCH  10  11
ENDBRANCH   9  10
ENDBRANCH   8   9
ENDBRANCH   7   8
ENDBRANCH   6   7
ENDBRANCH   5   6
ENDBRANCH   4   5
ENDBRANCH   3   4
ENDBRANCH   2   3
ENDBRANCH   1   2
BRANCH   1  15
ATOM     15  C   UNL     1      22.394  19.811   6.468  1.00  0.00     0.000 C 
BRANCH  15  16
ATOM     16  C   UNL     1      23.719  19.057   6.679  1.00  0.00     0.000 C 
BRANCH  16  17
ATOM     17  C   UNL     1      24.400  18.688   5.352  1.00  0.00     0.000 C 
BRANCH  17  18
ATOM     18  C   UNL     1      24.191  17.210   4.976  1.00  0.00    -0.000 C 
BRANCH  18  19
ATOM     19  C   UNL     1      23.073  17.020   3.939  1.00  0.00    -0.000 C 
BRANCH  19  20
ATOM     20  C   UNL     1      21.970  16.067   4.432  1.00  0.00    -0.000 C 
BRANCH  20  21
ATOM     21  C   UNL     1      22.238  15.543   5.852  1.00  0.00    -0.000 C 
BRANCH  21  22
ATOM     22  C   UNL     1      21.052  15.786   6.802  1.00  0.00    -0.000 C 
BRANCH  22  23
ATOM     23  C   UNL     1      19.773  16.214   6.062  1.00  0.00    -0.000 C 
BRANCH  23  24
ATOM     24  C   UNL     1      18.873  17.194   6.836  1.00  0.00    -0.000 C 
BRANCH  24  25
ATOM     25  C   UNL     1      18.904  18.618   6.259  1.00  0.00    -0.003 C 
ATOM     26  C   UNL     1      19.378  18.614   4.809  1.00  0.00     0.004 C 
ENDBRANCH  24  25
ENDBRANCH  23  24
ENDBRANCH  22  23
ENDBRANCH  21  22
ENDBRANCH  20  21
ENDBRANCH  19  20
ENDBRANCH  18  19
ENDBRANCH  17  18
ENDBRANCH  16  17
ENDBRANCH  15  16
ENDBRANCH   1  15
TORSDOF 22
ENDMDL
MODEL 8
REMARK VINA RESULT:    -4.541      2.285      3.962
REMARK INTER + INTRA:         -14.443
REMARK INTER:                 -11.709
REMARK INTRA:                  -2.733
REMARK UNBOUND:                -4.061
REMARK SMILES CCCCCCCCCCCCCCCCCCCCCCCC(=O)[O-]
REMARK SMILES IDX 13 1 14 2 15 3 16 4 17 5 18 6 19 7 20 8 21 9 22 10 23 11
REMARK SMILES IDX 24 12 25 13 26 14 12 15 11 16 10 17 9 18 8 19 7 20 6 21 5 22
REMARK SMILES IDX 4 23 3 24 2 25 1 26
REMARK H PARENT
REMARK Flexibility Score: inf
ROOT
ATOM      1  C   UNL     1      22.073  20.127   6.718  1.00  0.00     0.000 C 
ENDROOT
BRANCH   1   2
ATOM      2  C   UNL     1      23.148  19.186   6.135  1.00  0.00     0.000 C 
BRANCH   2   3
ATOM      3  C   UNL     1      23.389  19.302   4.615  1.00  0.00     0.000 C 
BRANCH   3   4
ATOM      4  C   UNL     1      24.668  18.602   4.105  1.00  0.00     0.000 C 
BRANCH   4   5
ATOM      5  C   UNL     1      25.123  17.419   4.981  1.00  0.00     0.000 C 
BRANCH   5   6
ATOM      6  C   UNL     1      24.997  16.033   4.322  1.00  0.00     0.000 C 
BRANCH   6   7
ATOM      7  C   UNL     1      23.554  15.572   4.043  1.00  0.00     0.000 C 
BRANCH   7   8
ATOM      8  C   UNL     1      22.724  15.392   5.323  1.00  0.00     0.000 C 
BRANCH   8   9
ATOM      9  C   UNL     1      21.333  16.022   5.167  1.00  0.00     0.000 C 
BRANCH   9  10
ATOM     10  C   UNL     1      20.681  16.371   6.517  1.00  0.00     0.006 C 
BRANCH  10  11
ATOM     11  C   UNL     1      19.220  15.913   6.652  1.00  0.00     0.053 C 
BRANCH  11  12
ATOM     12  C   UNL     1      19.068  14.801   7.644  1.00  0.00     0.041 C 
ATOM     13  O   UNL     1      17.954  14.230   7.789  1.00  0.00    -0.550 OA
ATOM     14  O   UNL     1      20.141  14.430   8.443  1.00  0.00    -0.550 OA
ENDBRANCH  11  12
ENDBRANCH  10  11
ENDBRANCH   9  10
ENDBRANCH   8   9
ENDBRANCH   7   8
ENDBRANCH   6   7
ENDBRANCH   5   6
ENDBRANCH   4   5
ENDBRANCH   3   4
ENDBRANCH   2   3
ENDBRANCH   1   2
BRANCH   1  15
ATOM     15  C   UNL     1      21.774  21.381   5.878  1.00  0.00     0.000 C 
BRANCH  15  16
ATOM     16  C   UNL     1      20.678  22.265   6.499  1.00  0.00     0.000 C 
BRANCH  16  17
ATOM     17  C   UNL     1      19.428  22.358   5.611  1.00  0.00     0.000 C 
BRANCH  17  18
ATOM     18  C   UNL     1      18.128  22.424   6.433  1.00  0.00    -0.000 C 
BRANCH  18  19
ATOM     19  C   UNL     1      17.524  23.837   6.466  1.00  0.00    -0.000 C 
BRANCH  19  20
ATOM     20  C   UNL     1      17.420  24.398   7.896  1.00  0.00    -0.000 C 
BRANCH  20  21
ATOM     21  C   UNL     1      18.747  24.995   8.390  1.00  0.00    -0.000 C 
BRANCH  21  22
ATOM     22  C   UNL     1      19.043  24.639   9.858  1.00  0.00    -0.000 C 
BRANCH  22  23
ATOM     23  C   UNL     1      19.850  23.337  10.004  1.00  0.00    -0.000 C 
BRANCH  23  24
ATOM     24  C   UNL     1      19.450  22.457  11.201  1.00  0.00    -0.000 C 
BRANCH  24  25
ATOM     25  C   UNL     1      18.238  21.560  10.907  1.00  0.00    -0.003 C 
ATOM     26  C   UNL     1      18.347  20.927   9.523  1.00  0.00     0.004 C 
ENDBRANCH  24  25
ENDBRANCH  23  24
ENDBRANCH  22  23
ENDBRANCH  21  22
ENDBRANCH  20  21
ENDBRANCH  19  20
ENDBRANCH  18  19
ENDBRANCH  17  18
ENDBRANCH  16  17
ENDBRANCH  15  16
ENDBRANCH   1  15
TORSDOF 22
ENDMDL
MODEL 9
REMARK VINA RESULT:    -4.497      1.244      2.752
REMARK INTER + INTRA:         -14.342
REMARK INTER:                 -10.429
REMARK INTRA:                  -3.913
REMARK UNBOUND:                -4.061
REMARK SMILES CCCCCCCCCCCCCCCCCCCCCCCC(=O)[O-]
REMARK SMILES IDX 13 1 14 2 15 3 16 4 17 5 18 6 19 7 20 8 21 9 22 10 23 11
REMARK SMILES IDX 24 12 25 13 26 14 12 15 11 16 10 17 9 18 8 19 7 20 6 21 5 22
REMARK SMILES IDX 4 23 3 24 2 25 1 26
REMARK H PARENT
REMARK Flexibility Score: inf
ROOT
ATOM      1  C   UNL     1      20.584  23.464   9.007  1.00  0.00     0.000 C 
ENDROOT
BRANCH   1   2
ATOM      2  C   UNL     1      21.760  22.776   8.282  1.00  0.00     0.000 C 
BRANCH   2   3
ATOM      3  C   UNL     1      21.563  21.281   7.953  1.00  0.00     0.000 C 
BRANCH   3   4
ATOM      4  C   UNL     1      22.866  20.451   7.903  1.00  0.00     0.000 C 
BRANCH   4   5
ATOM      5  C   UNL     1      23.105  19.747   6.554  1.00  0.00     0.000 C 
BRANCH   5   6
ATOM      6  C   UNL     1      22.252  20.270   5.384  1.00  0.00     0.000 C 
BRANCH   6   7
ATOM      7  C   UNL     1      21.696  19.183   4.445  1.00  0.00     0.000 C 
BRANCH   7   8
ATOM      8  C   UNL     1      20.161  19.166   4.390  1.00  0.00     0.000 C 
BRANCH   8   9
ATOM      9  C   UNL     1      19.608  17.826   4.898  1.00  0.00     0.000 C 
BRANCH   9  10
ATOM     10  C   UNL     1      19.938  17.567   6.379  1.00  0.00     0.006 C 
BRANCH  10  11
ATOM     11  C   UNL     1      19.777  16.102   6.816  1.00  0.00     0.053 C 
BRANCH  11  12
ATOM     12  C   UNL     1      18.351  15.756   7.112  1.00  0.00     0.041 C 
ATOM     13  O   UNL     1      17.932  14.583   6.923  1.00  0.00    -0.550 OA
ATOM     14  O   UNL     1      17.472  16.739   7.547  1.00  0.00    -0.550 OA
ENDBRANCH  11  12
ENDBRANCH  10  11
ENDBRANCH   9  10
ENDBRANCH   8   9
ENDBRANCH   7   8
ENDBRANCH   6   7
ENDBRANCH   5   6
ENDBRANCH   4   5
ENDBRANCH   3   4
ENDBRANCH   2   3
ENDBRANCH   1   2
BRANCH   1  15
ATOM     15  C   UNL     1      20.580  23.313  10.539  1.00  0.00     0.000 C 
BRANCH  15  16
ATOM     16  C   UNL     1      19.505  22.331  11.035  1.00  0.00     0.000 C 
BRANCH  16  17
ATOM     17  C   UNL     1      18.285  22.277  10.102  1.00  0.00     0.000 C 
BRANCH  17  18
ATOM     18  C   UNL     1      18.054  20.872   9.518  1.00  0.00    -0.000 C 
BRANCH  18  19
ATOM     19  C   UNL     1      17.269  20.905   8.197  1.00  0.00    -0.000 C 
BRANCH  19  20
ATOM     20  C   UNL     1      18.189  20.848   6.965  1.00  0.00    -0.000 C 
BRANCH  20  21
ATOM     21  C   UNL     1      18.357  22.221   6.294  1.00  0.00    -0.000 C 
BRANCH  21  22
ATOM     22  C   UNL     1      17.193  23.176   6.608  1.00  0.00    -0.000 C 
BRANCH  22  23
ATOM     23  C   UNL     1      17.665  24.518   7.195  1.00  0.00    -0.000 C 
BRANCH  23  24
ATOM     24  C   UNL     1      16.955  24.943   8.493  1.00  0.00    -0.000 C 
BRANCH  24  25
ATOM     25  C   UNL     1      17.834  25.819   9.398  1.00  0.00    -0.003 C 
ATOM     26  C   UNL     1      18.638  26.824   8.578  1.00  0.00     0.004 C 
ENDBRANCH  24  25
ENDBRANCH  23  24
ENDBRANCH  22  23
ENDBRANCH  21  22
ENDBRANCH  20  21
ENDBRANCH  19  20
ENDBRANCH  18  19
ENDBRANCH  17  18
ENDBRANCH  16  17
ENDBRANCH  15  16
ENDBRANCH   1  15
TORSDOF 22
ENDMDL
