MODEL 1
REMARK VINA RESULT:    -9.139      0.000      0.000
REMARK INTER + INTRA:         -11.210
REMARK INTER:                 -11.009
REMARK INTRA:                  -0.201
REMARK UNBOUND:                -0.201
REMARK SMILES O=c1c(O)c(-c2ccc(O)c(O)c2)oc2cc(O)cc(O)c12
REMARK SMILES IDX 5 1 3 2 2 3 1 4 22 5 20 6 19 7 17 8 16 9 15 10 14 11 6 12
REMARK SMILES IDX 7 13 8 14 9 15 13 16 11 17 10 18 12 20 4 22 21 24 18 26
REMARK H PARENT 10 19 12 21 4 23 21 25 18 27
REMARK Flexibility Score: inf
ROOT
ATOM      1  C   UNL     1       9.953 -46.171  35.689  1.00  0.00     0.180 A 
ATOM      2  C   UNL     1       9.130 -46.694  36.701  1.00  0.00     0.208 A 
ATOM      3  C   UNL     1       9.708 -47.062  37.927  1.00  0.00     0.238 A 
ATOM      4  O   UNL     1       8.974 -47.580  38.809  1.00  0.00    -0.285 OA
ATOM      5  C   UNL     1      11.097 -46.885  38.131  1.00  0.00     0.111 A 
ATOM      6  C   UNL     1      11.782 -47.185  39.347  1.00  0.00     0.134 A 
ATOM      7  C   UNL     1      13.179 -47.094  39.393  1.00  0.00     0.093 A 
ATOM      8  C   UNL     1      13.909 -46.654  38.291  1.00  0.00     0.123 A 
ATOM      9  C   UNL     1      13.244 -46.300  37.115  1.00  0.00     0.094 A 
ATOM     10  C   UNL     1      11.855 -46.415  37.027  1.00  0.00     0.146 A 
ATOM     11  O   UNL     1      11.262 -46.079  35.887  1.00  0.00    -0.452 OA
ENDROOT
BRANCH   1  12
ATOM     12  C   UNL     1       9.413 -45.738  34.380  1.00  0.00     0.025 A 
ATOM     13  C   UNL     1       9.404 -44.384  34.004  1.00  0.00     0.016 A 
ATOM     14  C   UNL     1       8.911 -44.001  32.753  1.00  0.00     0.051 A 
ATOM     15  C   UNL     1       8.432 -44.964  31.856  1.00  0.00     0.157 A 
ATOM     16  C   UNL     1       8.951 -46.702  33.468  1.00  0.00     0.062 A 
ATOM     17  C   UNL     1       8.456 -46.322  32.215  1.00  0.00     0.158 A 
BRANCH  15  18
ATOM     18  O   UNL     1       7.939 -44.579  30.611  1.00  0.00    -0.504 OA
ATOM     19  H   UNL     1       8.559 -44.350  29.843  1.00  0.00     0.293 HD
ENDBRANCH  15  18
BRANCH  17  20
ATOM     20  O   UNL     1       7.993 -47.307  31.344  1.00  0.00    -0.504 OA
ATOM     21  H   UNL     1       8.056 -48.294  31.565  1.00  0.00     0.293 HD
ENDBRANCH  17  20
ENDBRANCH   1  12
BRANCH   2  22
ATOM     22  O   UNL     1       7.763 -46.881  36.470  1.00  0.00    -0.502 OA
ATOM     23  H   UNL     1       7.367 -46.897  35.539  1.00  0.00     0.293 HD
ENDBRANCH   2  22
BRANCH   6  24
ATOM     24  O   UNL     1      11.141 -47.547  40.536  1.00  0.00    -0.507 OA
ATOM     25  H   UNL     1      11.483 -48.239  41.184  1.00  0.00     0.293 HD
ENDBRANCH   6  24
BRANCH   8  26
ATOM     26  O   UNL     1      15.296 -46.560  38.378  1.00  0.00    -0.508 OA
ATOM     27  H   UNL     1      15.787 -45.707  38.133  1.00  0.00     0.293 HD
ENDBRANCH   8  26
TORSDOF 6
ENDMDL
MODEL 2
REMARK VINA RESULT:    -8.603      0.731      1.479
REMARK INTER + INTRA:         -10.564
REMARK INTER:                 -10.384
REMARK INTRA:                  -0.180
REMARK UNBOUND:                -0.201
REMARK SMILES O=c1c(O)c(-c2ccc(O)c(O)c2)oc2cc(O)cc(O)c12
REMARK SMILES IDX 5 1 3 2 2 3 1 4 22 5 20 6 19 7 17 8 16 9 15 10 14 11 6 12
REMARK SMILES IDX 7 13 8 14 9 15 13 16 11 17 10 18 12 20 4 22 21 24 18 26
REMARK H PARENT 10 19 12 21 4 23 21 25 18 27
REMARK Flexibility Score: inf
ROOT
ATOM      1  C   UNL     1       9.616 -46.372  35.471  1.00  0.00     0.180 A 
ATOM      2  C   UNL     1       8.837 -46.947  36.491  1.00  0.00     0.208 A 
ATOM      3  C   UNL     1       9.434 -47.218  37.732  1.00  0.00     0.238 A 
ATOM      4  O   UNL     1       8.746 -47.783  38.622  1.00  0.00    -0.285 OA
ATOM      5  C   UNL     1      10.796 -46.895  37.944  1.00  0.00     0.111 A 
ATOM      6  C   UNL     1      11.492 -47.090  39.176  1.00  0.00     0.134 A 
ATOM      7  C   UNL     1      12.872 -46.857  39.233  1.00  0.00     0.093 A 
ATOM      8  C   UNL     1      13.568 -46.375  38.125  1.00  0.00     0.123 A 
ATOM      9  C   UNL     1      12.885 -46.125  36.933  1.00  0.00     0.094 A 
ATOM     10  C   UNL     1      11.517 -46.383  36.834  1.00  0.00     0.146 A 
ATOM     11  O   UNL     1      10.906 -46.141  35.679  1.00  0.00    -0.452 OA
ENDROOT
BRANCH   1  12
ATOM     12  C   UNL     1       9.052 -46.033  34.144  1.00  0.00     0.025 A 
ATOM     13  C   UNL     1       8.605 -47.032  33.262  1.00  0.00     0.016 A 
ATOM     14  C   UNL     1       8.055 -46.687  32.025  1.00  0.00     0.051 A 
ATOM     15  C   UNL     1       7.932 -45.341  31.656  1.00  0.00     0.157 A 
ATOM     16  C   UNL     1       8.907 -44.684  33.779  1.00  0.00     0.062 A 
ATOM     17  C   UNL     1       8.357 -44.335  32.539  1.00  0.00     0.158 A 
BRANCH  15  18
ATOM     18  O   UNL     1       7.384 -45.000  30.420  1.00  0.00    -0.504 OA
ATOM     19  H   UNL     1       6.437 -44.649  30.338  1.00  0.00     0.293 HD
ENDBRANCH  15  18
BRANCH  17  20
ATOM     20  O   UNL     1       8.242 -42.986  32.206  1.00  0.00    -0.504 OA
ATOM     21  H   UNL     1       9.050 -42.418  31.980  1.00  0.00     0.293 HD
ENDBRANCH  17  20
ENDBRANCH   1  12
BRANCH   2  22
ATOM     22  O   UNL     1       7.500 -47.277  36.252  1.00  0.00    -0.502 OA
ATOM     23  H   UNL     1       7.230 -48.064  35.675  1.00  0.00     0.293 HD
ENDBRANCH   2  22
BRANCH   6  24
ATOM     24  O   UNL     1      10.876 -47.481  40.368  1.00  0.00    -0.507 OA
ATOM     25  H   UNL     1      10.929 -48.407  40.765  1.00  0.00     0.293 HD
ENDBRANCH   6  24
BRANCH   8  26
ATOM     26  O   UNL     1      14.937 -46.139  38.222  1.00  0.00    -0.508 OA
ATOM     27  H   UNL     1      15.480 -46.480  39.007  1.00  0.00     0.293 HD
ENDBRANCH   8  26
TORSDOF 6
ENDMDL
MODEL 3
REMARK VINA RESULT:    -8.141      3.800      5.652
REMARK INTER + INTRA:         -10.008
REMARK INTER:                  -9.675
REMARK INTRA:                  -0.333
REMARK UNBOUND:                -0.201
REMARK SMILES O=c1c(O)c(-c2ccc(O)c(O)c2)oc2cc(O)cc(O)c12
REMARK SMILES IDX 5 1 3 2 2 3 1 4 22 5 20 6 19 7 17 8 16 9 15 10 14 11 6 12
REMARK SMILES IDX 7 13 8 14 9 15 13 16 11 17 10 18 12 20 4 22 21 24 18 26
REMARK H PARENT 10 19 12 21 4 23 21 25 18 27
REMARK Flexibility Score: inf
ROOT
ATOM      1  C   UNL     1       7.537 -48.750  35.977  1.00  0.00     0.180 A 
ATOM      2  C   UNL     1       8.015 -48.209  34.771  1.00  0.00     0.208 A 
ATOM      3  C   UNL     1       9.104 -47.324  34.806  1.00  0.00     0.238 A 
ATOM      4  O   UNL     1       9.492 -46.801  33.728  1.00  0.00    -0.285 OA
ATOM      5  C   UNL     1       9.712 -47.005  36.043  1.00  0.00     0.111 A 
ATOM      6  C   UNL     1      10.847 -46.151  36.191  1.00  0.00     0.134 A 
ATOM      7  C   UNL     1      11.284 -45.800  37.476  1.00  0.00     0.093 A 
ATOM      8  C   UNL     1      10.671 -46.323  38.613  1.00  0.00     0.123 A 
ATOM      9  C   UNL     1       9.598 -47.206  38.478  1.00  0.00     0.094 A 
ATOM     10  C   UNL     1       9.116 -47.545  37.212  1.00  0.00     0.146 A 
ATOM     11  O   UNL     1       8.087 -48.380  37.127  1.00  0.00    -0.452 OA
ENDROOT
BRANCH   1  12
ATOM     12  C   UNL     1       6.410 -49.709  36.019  1.00  0.00     0.025 A 
ATOM     13  C   UNL     1       6.623 -51.094  35.905  1.00  0.00     0.016 A 
ATOM     14  C   UNL     1       5.545 -51.982  35.971  1.00  0.00     0.051 A 
ATOM     15  C   UNL     1       4.244 -51.502  36.163  1.00  0.00     0.157 A 
ATOM     16  C   UNL     1       5.105 -49.235  36.233  1.00  0.00     0.062 A 
ATOM     17  C   UNL     1       4.024 -50.121  36.298  1.00  0.00     0.158 A 
BRANCH  15  18
ATOM     18  O   UNL     1       3.171 -52.390  36.226  1.00  0.00    -0.504 OA
ATOM     19  H   UNL     1       3.216 -53.238  36.780  1.00  0.00     0.293 HD
ENDBRANCH  15  18
BRANCH  17  20
ATOM     20  O   UNL     1       2.742 -49.611  36.498  1.00  0.00    -0.504 OA
ATOM     21  H   UNL     1       2.391 -49.384  37.421  1.00  0.00     0.293 HD
ENDBRANCH  17  20
ENDBRANCH   1  12
BRANCH   2  22
ATOM     22  O   UNL     1       7.385 -48.521  33.562  1.00  0.00    -0.502 OA
ATOM     23  H   UNL     1       7.890 -48.888  32.765  1.00  0.00     0.293 HD
ENDBRANCH   2  22
BRANCH   6  24
ATOM     24  O   UNL     1      11.590 -45.646  35.120  1.00  0.00    -0.507 OA
ATOM     25  H   UNL     1      11.249 -45.560  34.175  1.00  0.00     0.293 HD
ENDBRANCH   6  24
BRANCH   8  26
ATOM     26  O   UNL     1      11.143 -45.966  39.874  1.00  0.00    -0.508 OA
ATOM     27  H   UNL     1      11.837 -46.523  40.358  1.00  0.00     0.293 HD
ENDBRANCH   8  26
TORSDOF 6
ENDMDL
MODEL 4
REMARK VINA RESULT:    -7.959      3.982      8.016
REMARK INTER + INTRA:          -9.789
REMARK INTER:                  -9.540
REMARK INTRA:                  -0.249
REMARK UNBOUND:                -0.201
REMARK SMILES O=c1c(O)c(-c2ccc(O)c(O)c2)oc2cc(O)cc(O)c12
REMARK SMILES IDX 5 1 3 2 2 3 1 4 22 5 20 6 19 7 17 8 16 9 15 10 14 11 6 12
REMARK SMILES IDX 7 13 8 14 9 15 13 16 11 17 10 18 12 20 4 22 21 24 18 26
REMARK H PARENT 10 19 12 21 4 23 21 25 18 27
REMARK Flexibility Score: inf
ROOT
ATOM      1  C   UNL     1       7.107 -47.858  34.642  1.00  0.00     0.180 A 
ATOM      2  C   UNL     1       8.371 -47.418  34.212  1.00  0.00     0.208 A 
ATOM      3  C   UNL     1       8.460 -46.626  33.057  1.00  0.00     0.238 A 
ATOM      4  O   UNL     1       9.600 -46.281  32.647  1.00  0.00    -0.285 OA
ATOM      5  C   UNL     1       7.283 -46.269  32.356  1.00  0.00     0.111 A 
ATOM      6  C   UNL     1       7.253 -45.436  31.197  1.00  0.00     0.134 A 
ATOM      7  C   UNL     1       6.046 -45.256  30.508  1.00  0.00     0.093 A 
ATOM      8  C   UNL     1       4.861 -45.823  30.972  1.00  0.00     0.123 A 
ATOM      9  C   UNL     1       4.869 -46.590  32.139  1.00  0.00     0.094 A 
ATOM     10  C   UNL     1       6.062 -46.817  32.826  1.00  0.00     0.146 A 
ATOM     11  O   UNL     1       6.029 -47.561  33.926  1.00  0.00    -0.452 OA
ENDROOT
BRANCH   1  12
ATOM     12  C   UNL     1       6.930 -48.675  35.864  1.00  0.00     0.025 A 
ATOM     13  C   UNL     1       7.111 -48.125  37.145  1.00  0.00     0.016 A 
ATOM     14  C   UNL     1       6.915 -48.909  38.285  1.00  0.00     0.051 A 
ATOM     15  C   UNL     1       6.525 -50.249  38.163  1.00  0.00     0.157 A 
ATOM     16  C   UNL     1       6.518 -50.013  35.748  1.00  0.00     0.062 A 
ATOM     17  C   UNL     1       6.323 -50.802  36.888  1.00  0.00     0.158 A 
BRANCH  15  18
ATOM     18  O   UNL     1       6.333 -51.030  39.302  1.00  0.00    -0.504 OA
ATOM     19  H   UNL     1       5.447 -51.483  39.491  1.00  0.00     0.293 HD
ENDBRANCH  15  18
BRANCH  17  20
ATOM     20  O   UNL     1       5.927 -52.130  36.732  1.00  0.00    -0.504 OA
ATOM     21  H   UNL     1       5.169 -52.396  36.115  1.00  0.00     0.293 HD
ENDBRANCH  17  20
ENDBRANCH   1  12
BRANCH   2  22
ATOM     22  O   UNL     1       9.522 -47.802  34.908  1.00  0.00    -0.502 OA
ATOM     23  H   UNL     1       9.513 -48.019  35.897  1.00  0.00     0.293 HD
ENDBRANCH   2  22
BRANCH   6  24
ATOM     24  O   UNL     1       8.363 -44.748  30.699  1.00  0.00    -0.507 OA
ATOM     25  H   UNL     1       8.645 -43.825  30.993  1.00  0.00     0.293 HD
ENDBRANCH   6  24
BRANCH   8  26
ATOM     26  O   UNL     1       3.676 -45.609  30.271  1.00  0.00    -0.508 OA
ATOM     27  H   UNL     1       2.828 -45.313  30.741  1.00  0.00     0.293 HD
ENDBRANCH   8  26
TORSDOF 6
ENDMDL
MODEL 5
REMARK VINA RESULT:    -7.816      3.237      5.501
REMARK INTER + INTRA:          -9.617
REMARK INTER:                  -9.643
REMARK INTRA:                   0.026
REMARK UNBOUND:                -0.201
REMARK SMILES O=c1c(O)c(-c2ccc(O)c(O)c2)oc2cc(O)cc(O)c12
REMARK SMILES IDX 5 1 3 2 2 3 1 4 22 5 20 6 19 7 17 8 16 9 15 10 14 11 6 12
REMARK SMILES IDX 7 13 8 14 9 15 13 16 11 17 10 18 12 20 4 22 21 24 18 26
REMARK H PARENT 10 19 12 21 4 23 21 25 18 27
REMARK Flexibility Score: inf
ROOT
ATOM      1  C   UNL     1       7.916 -47.947  37.527  1.00  0.00     0.180 A 
ATOM      2  C   UNL     1       8.265 -47.217  36.377  1.00  0.00     0.208 A 
ATOM      3  C   UNL     1       9.546 -46.647  36.296  1.00  0.00     0.238 A 
ATOM      4  O   UNL     1       9.833 -45.949  35.288  1.00  0.00    -0.285 OA
ATOM      5  C   UNL     1      10.466 -46.829  37.356  1.00  0.00     0.111 A 
ATOM      6  C   UNL     1      11.804 -46.330  37.361  1.00  0.00     0.134 A 
ATOM      7  C   UNL     1      12.583 -46.457  38.519  1.00  0.00     0.093 A 
ATOM      8  C   UNL     1      12.098 -47.120  39.644  1.00  0.00     0.123 A 
ATOM      9  C   UNL     1      10.812 -47.664  39.629  1.00  0.00     0.094 A 
ATOM     10  C   UNL     1       9.999 -47.521  38.503  1.00  0.00     0.146 A 
ATOM     11  O   UNL     1       8.778 -48.044  38.532  1.00  0.00    -0.452 OA
ENDROOT
BRANCH   1  12
ATOM     12  C   UNL     1       6.594 -48.599  37.675  1.00  0.00     0.025 A 
ATOM     13  C   UNL     1       6.033 -49.359  36.636  1.00  0.00     0.016 A 
ATOM     14  C   UNL     1       4.794 -49.985  36.807  1.00  0.00     0.051 A 
ATOM     15  C   UNL     1       4.106 -49.870  38.022  1.00  0.00     0.157 A 
ATOM     16  C   UNL     1       5.910 -48.504  38.899  1.00  0.00     0.062 A 
ATOM     17  C   UNL     1       4.669 -49.128  39.074  1.00  0.00     0.158 A 
BRANCH  15  18
ATOM     18  O   UNL     1       2.870 -50.493  38.189  1.00  0.00    -0.504 OA
ATOM     19  H   UNL     1       2.458 -51.057  37.456  1.00  0.00     0.293 HD
ENDBRANCH  15  18
BRANCH  17  20
ATOM     20  O   UNL     1       4.014 -49.000  40.297  1.00  0.00    -0.504 OA
ATOM     21  H   UNL     1       3.941 -49.770  40.952  1.00  0.00     0.293 HD
ENDBRANCH  17  20
ENDBRANCH   1  12
BRANCH   2  22
ATOM     22  O   UNL     1       7.333 -47.032  35.352  1.00  0.00    -0.502 OA
ATOM     23  H   UNL     1       6.437 -46.587  35.507  1.00  0.00     0.293 HD
ENDBRANCH   2  22
BRANCH   6  24
ATOM     24  O   UNL     1      12.419 -45.732  36.258  1.00  0.00    -0.507 OA
ATOM     25  H   UNL     1      12.052 -44.937  35.757  1.00  0.00     0.293 HD
ENDBRANCH   6  24
BRANCH   8  26
ATOM     26  O   UNL     1      12.907 -47.242  40.772  1.00  0.00    -0.508 OA
ATOM     27  H   UNL     1      12.914 -46.535  41.499  1.00  0.00     0.293 HD
ENDBRANCH   8  26
TORSDOF 6
ENDMDL
MODEL 6
REMARK VINA RESULT:    -7.778      1.611      7.009
REMARK INTER + INTRA:          -9.571
REMARK INTER:                  -9.569
REMARK INTRA:                  -0.002
REMARK UNBOUND:                -0.201
REMARK SMILES O=c1c(O)c(-c2ccc(O)c(O)c2)oc2cc(O)cc(O)c12
REMARK SMILES IDX 5 1 3 2 2 3 1 4 22 5 20 6 19 7 17 8 16 9 15 10 14 11 6 12
REMARK SMILES IDX 7 13 8 14 9 15 13 16 11 17 10 18 12 20 4 22 21 24 18 26
REMARK H PARENT 10 19 12 21 4 23 21 25 18 27
REMARK Flexibility Score: inf
ROOT
ATOM      1  C   UNL     1       9.282 -46.544  35.517  1.00  0.00     0.180 A 
ATOM      2  C   UNL     1       8.596 -47.664  35.014  1.00  0.00     0.208 A 
ATOM      3  C   UNL     1       7.831 -47.525  33.846  1.00  0.00     0.238 A 
ATOM      4  O   UNL     1       7.176 -48.518  33.432  1.00  0.00    -0.285 OA
ATOM      5  C   UNL     1       7.775 -46.275  33.184  1.00  0.00     0.111 A 
ATOM      6  C   UNL     1       7.063 -46.033  31.971  1.00  0.00     0.134 A 
ATOM      7  C   UNL     1       6.968 -44.725  31.476  1.00  0.00     0.093 A 
ATOM      8  C   UNL     1       7.612 -43.666  32.112  1.00  0.00     0.123 A 
ATOM      9  C   UNL     1       8.361 -43.902  33.267  1.00  0.00     0.094 A 
ATOM     10  C   UNL     1       8.443 -45.188  33.805  1.00  0.00     0.146 A 
ATOM     11  O   UNL     1       9.157 -45.369  34.910  1.00  0.00    -0.452 OA
ENDROOT
BRANCH   1  12
ATOM     12  C   UNL     1      10.129 -46.616  36.729  1.00  0.00     0.025 A 
ATOM     13  C   UNL     1       9.644 -47.162  37.929  1.00  0.00     0.016 A 
ATOM     14  C   UNL     1      10.470 -47.242  39.054  1.00  0.00     0.051 A 
ATOM     15  C   UNL     1      11.794 -46.789  38.993  1.00  0.00     0.157 A 
ATOM     16  C   UNL     1      11.464 -46.183  36.666  1.00  0.00     0.062 A 
ATOM     17  C   UNL     1      12.294 -46.260  37.791  1.00  0.00     0.158 A 
BRANCH  15  18
ATOM     18  O   UNL     1      12.615 -46.868  40.117  1.00  0.00    -0.504 OA
ATOM     19  H   UNL     1      12.229 -46.924  41.052  1.00  0.00     0.293 HD
ENDBRANCH  15  18
BRANCH  17  20
ATOM     20  O   UNL     1      13.609 -45.807  37.694  1.00  0.00    -0.504 OA
ATOM     21  H   UNL     1      14.338 -46.362  37.261  1.00  0.00     0.293 HD
ENDBRANCH  17  20
ENDBRANCH   1  12
BRANCH   2  22
ATOM     22  O   UNL     1       8.648 -48.883  35.696  1.00  0.00    -0.502 OA
ATOM     23  H   UNL     1       7.845 -49.274  36.173  1.00  0.00     0.293 HD
ENDBRANCH   2  22
BRANCH   6  24
ATOM     24  O   UNL     1       6.459 -47.034  31.205  1.00  0.00    -0.507 OA
ATOM     25  H   UNL     1       6.918 -47.881  30.903  1.00  0.00     0.293 HD
ENDBRANCH   6  24
BRANCH   8  26
ATOM     26  O   UNL     1       7.510 -42.381  31.583  1.00  0.00    -0.508 OA
ATOM     27  H   UNL     1       7.319 -42.226  30.600  1.00  0.00     0.293 HD
ENDBRANCH   8  26
TORSDOF 6
ENDMDL
MODEL 7
REMARK VINA RESULT:    -7.714      2.969      7.009
REMARK INTER + INTRA:          -9.493
REMARK INTER:                  -9.287
REMARK INTRA:                  -0.206
REMARK UNBOUND:                -0.201
REMARK SMILES O=c1c(O)c(-c2ccc(O)c(O)c2)oc2cc(O)cc(O)c12
REMARK SMILES IDX 5 1 3 2 2 3 1 4 22 5 20 6 19 7 17 8 16 9 15 10 14 11 6 12
REMARK SMILES IDX 7 13 8 14 9 15 13 16 11 17 10 18 12 20 4 22 21 24 18 26
REMARK H PARENT 10 19 12 21 4 23 21 25 18 27
REMARK Flexibility Score: inf
ROOT
ATOM      1  C   UNL     1       8.102 -47.382  35.493  1.00  0.00     0.180 A 
ATOM      2  C   UNL     1       9.363 -46.775  35.628  1.00  0.00     0.208 A 
ATOM      3  C   UNL     1       9.799 -45.883  34.636  1.00  0.00     0.238 A 
ATOM      4  O   UNL     1      10.951 -45.385  34.735  1.00  0.00    -0.285 OA
ATOM      5  C   UNL     1       8.961 -45.595  33.531  1.00  0.00     0.111 A 
ATOM      6  C   UNL     1       9.285 -44.675  32.488  1.00  0.00     0.134 A 
ATOM      7  C   UNL     1       8.439 -44.567  31.376  1.00  0.00     0.093 A 
ATOM      8  C   UNL     1       7.253 -45.294  31.301  1.00  0.00     0.123 A 
ATOM      9  C   UNL     1       6.897 -46.152  32.344  1.00  0.00     0.094 A 
ATOM     10  C   UNL     1       7.738 -46.308  33.447  1.00  0.00     0.146 A 
ATOM     11  O   UNL     1       7.369 -47.142  34.414  1.00  0.00    -0.452 OA
ENDROOT
BRANCH   1  12
ATOM     12  C   UNL     1       7.563 -48.313  36.510  1.00  0.00     0.025 A 
ATOM     13  C   UNL     1       7.243 -47.876  37.807  1.00  0.00     0.016 A 
ATOM     14  C   UNL     1       6.713 -48.769  38.743  1.00  0.00     0.051 A 
ATOM     15  C   UNL     1       6.484 -50.106  38.395  1.00  0.00     0.157 A 
ATOM     16  C   UNL     1       7.312 -49.650  36.160  1.00  0.00     0.062 A 
ATOM     17  C   UNL     1       6.782 -50.547  37.095  1.00  0.00     0.158 A 
BRANCH  15  18
ATOM     18  O   UNL     1       5.958 -50.994  39.331  1.00  0.00    -0.504 OA
ATOM     19  H   UNL     1       6.204 -51.977  39.327  1.00  0.00     0.293 HD
ENDBRANCH  15  18
BRANCH  17  20
ATOM     20  O   UNL     1       6.560 -51.870  36.713  1.00  0.00    -0.504 OA
ATOM     21  H   UNL     1       7.307 -52.553  36.682  1.00  0.00     0.293 HD
ENDBRANCH  17  20
ENDBRANCH   1  12
BRANCH   2  22
ATOM     22  O   UNL     1      10.182 -47.091  36.716  1.00  0.00    -0.502 OA
ATOM     23  H   UNL     1      10.595 -48.007  36.838  1.00  0.00     0.293 HD
ENDBRANCH   2  22
BRANCH   6  24
ATOM     24  O   UNL     1      10.400 -43.833  32.507  1.00  0.00    -0.507 OA
ATOM     25  H   UNL     1      10.763 -43.380  33.332  1.00  0.00     0.293 HD
ENDBRANCH   6  24
BRANCH   8  26
ATOM     26  O   UNL     1       6.427 -45.149  30.188  1.00  0.00    -0.508 OA
ATOM     27  H   UNL     1       5.891 -45.927  29.821  1.00  0.00     0.293 HD
ENDBRANCH   8  26
TORSDOF 6
ENDMDL
MODEL 8
REMARK VINA RESULT:    -7.711      4.028      6.732
REMARK INTER + INTRA:          -9.490
REMARK INTER:                  -9.163
REMARK INTRA:                  -0.327
REMARK UNBOUND:                -0.201
REMARK SMILES O=c1c(O)c(-c2ccc(O)c(O)c2)oc2cc(O)cc(O)c12
REMARK SMILES IDX 5 1 3 2 2 3 1 4 22 5 20 6 19 7 17 8 16 9 15 10 14 11 6 12
REMARK SMILES IDX 7 13 8 14 9 15 13 16 11 17 10 18 12 20 4 22 21 24 18 26
REMARK H PARENT 10 19 12 21 4 23 21 25 18 27
REMARK Flexibility Score: inf
ROOT
ATOM      1  C   UNL     1       6.889 -48.596  35.243  1.00  0.00     0.180 A 
ATOM      2  C   UNL     1       7.994 -48.335  36.071  1.00  0.00     0.208 A 
ATOM      3  C   UNL     1       8.957 -47.405  35.648  1.00  0.00     0.238 A 
ATOM      4  O   UNL     1       9.973 -47.217  36.369  1.00  0.00    -0.285 OA
ATOM      5  C   UNL     1       8.794 -46.735  34.413  1.00  0.00     0.111 A 
ATOM      6  C   UNL     1       9.687 -45.743  33.905  1.00  0.00     0.134 A 
ATOM      7  C   UNL     1       9.497 -45.241  32.611  1.00  0.00     0.093 A 
ATOM      8  C   UNL     1       8.413 -45.645  31.833  1.00  0.00     0.123 A 
ATOM      9  C   UNL     1       7.500 -46.570  32.344  1.00  0.00     0.094 A 
ATOM     10  C   UNL     1       7.683 -47.115  33.616  1.00  0.00     0.146 A 
ATOM     11  O   UNL     1       6.798 -48.000  34.061  1.00  0.00    -0.452 OA
ENDROOT
BRANCH   1  12
ATOM     12  C   UNL     1       5.819 -49.544  35.631  1.00  0.00     0.025 A 
ATOM     13  C   UNL     1       4.750 -49.145  36.451  1.00  0.00     0.016 A 
ATOM     14  C   UNL     1       3.739 -50.051  36.785  1.00  0.00     0.051 A 
ATOM     15  C   UNL     1       3.776 -51.363  36.296  1.00  0.00     0.157 A 
ATOM     16  C   UNL     1       5.841 -50.855  35.127  1.00  0.00     0.062 A 
ATOM     17  C   UNL     1       4.831 -51.765  35.461  1.00  0.00     0.158 A 
BRANCH  15  18
ATOM     18  O   UNL     1       2.768 -52.265  36.633  1.00  0.00    -0.504 OA
ATOM     19  H   UNL     1       1.796 -52.082  36.412  1.00  0.00     0.293 HD
ENDBRANCH  15  18
BRANCH  17  20
ATOM     20  O   UNL     1       4.894 -53.062  34.952  1.00  0.00    -0.504 OA
ATOM     21  H   UNL     1       5.677 -53.676  35.142  1.00  0.00     0.293 HD
ENDBRANCH  17  20
ENDBRANCH   1  12
BRANCH   2  22
ATOM     22  O   UNL     1       8.147 -49.025  37.278  1.00  0.00    -0.502 OA
ATOM     23  H   UNL     1       8.613 -48.620  38.080  1.00  0.00     0.293 HD
ENDBRANCH   2  22
BRANCH   6  24
ATOM     24  O   UNL     1      10.750 -45.203  34.634  1.00  0.00    -0.507 OA
ATOM     25  H   UNL     1      11.699 -45.545  34.604  1.00  0.00     0.293 HD
ENDBRANCH   6  24
BRANCH   8  26
ATOM     26  O   UNL     1       8.246 -45.112  30.557  1.00  0.00    -0.508 OA
ATOM     27  H   UNL     1       8.874 -45.348  29.797  1.00  0.00     0.293 HD
ENDBRANCH   8  26
TORSDOF 6
ENDMDL
MODEL 9
REMARK VINA RESULT:    -7.699      3.776      6.724
REMARK INTER + INTRA:          -9.476
REMARK INTER:                  -9.410
REMARK INTRA:                  -0.065
REMARK UNBOUND:                -0.201
REMARK SMILES O=c1c(O)c(-c2ccc(O)c(O)c2)oc2cc(O)cc(O)c12
REMARK SMILES IDX 5 1 3 2 2 3 1 4 22 5 20 6 19 7 17 8 16 9 15 10 14 11 6 12
REMARK SMILES IDX 7 13 8 14 9 15 13 16 11 17 10 18 12 20 4 22 21 24 18 26
REMARK H PARENT 10 19 12 21 4 23 21 25 18 27
REMARK Flexibility Score: inf
ROOT
ATOM      1  C   UNL     1       7.994 -47.999  37.631  1.00  0.00     0.180 A 
ATOM      2  C   UNL     1       7.015 -47.708  38.596  1.00  0.00     0.208 A 
ATOM      3  C   UNL     1       5.806 -48.422  38.576  1.00  0.00     0.238 A 
ATOM      4  O   UNL     1       4.912 -48.118  39.409  1.00  0.00    -0.285 OA
ATOM      5  C   UNL     1       5.600 -49.431  37.605  1.00  0.00     0.111 A 
ATOM      6  C   UNL     1       4.430 -50.245  37.520  1.00  0.00     0.134 A 
ATOM      7  C   UNL     1       4.278 -51.122  36.438  1.00  0.00     0.093 A 
ATOM      8  C   UNL     1       5.278 -51.263  35.478  1.00  0.00     0.123 A 
ATOM      9  C   UNL     1       6.453 -50.515  35.585  1.00  0.00     0.094 A 
ATOM     10  C   UNL     1       6.618 -49.605  36.632  1.00  0.00     0.146 A 
ATOM     11  O   UNL     1       7.745 -48.905  36.693  1.00  0.00    -0.452 OA
ENDROOT
BRANCH   1  12
ATOM     12  C   UNL     1       9.303 -47.307  37.601  1.00  0.00     0.025 A 
ATOM     13  C   UNL     1      10.128 -47.253  38.738  1.00  0.00     0.016 A 
ATOM     14  C   UNL     1      11.370 -46.614  38.680  1.00  0.00     0.051 A 
ATOM     15  C   UNL     1      11.810 -46.031  37.485  1.00  0.00     0.157 A 
ATOM     16  C   UNL     1       9.759 -46.739  36.400  1.00  0.00     0.062 A 
ATOM     17  C   UNL     1      11.001 -46.097  36.339  1.00  0.00     0.158 A 
BRANCH  15  18
ATOM     18  O   UNL     1      13.048 -45.393  37.431  1.00  0.00    -0.504 OA
ATOM     19  H   UNL     1      13.206 -44.502  37.887  1.00  0.00     0.293 HD
ENDBRANCH  15  18
BRANCH  17  20
ATOM     20  O   UNL     1      11.412 -45.534  35.132  1.00  0.00    -0.504 OA
ATOM     21  H   UNL     1      10.755 -45.128  34.476  1.00  0.00     0.293 HD
ENDBRANCH  17  20
ENDBRANCH   1  12
BRANCH   2  22
ATOM     22  O   UNL     1       7.231 -46.692  39.532  1.00  0.00    -0.502 OA
ATOM     23  H   UNL     1       7.225 -45.711  39.280  1.00  0.00     0.293 HD
ENDBRANCH   2  22
BRANCH   6  24
ATOM     24  O   UNL     1       3.410 -50.250  38.475  1.00  0.00    -0.507 OA
ATOM     25  H   UNL     1       2.899 -49.433  38.773  1.00  0.00     0.293 HD
ENDBRANCH   6  24
BRANCH   8  26
ATOM     26  O   UNL     1       5.101 -52.157  34.425  1.00  0.00    -0.508 OA
ATOM     27  H   UNL     1       4.825 -51.842  33.501  1.00  0.00     0.293 HD
ENDBRANCH   8  26
TORSDOF 6
ENDMDL
