MODEL 1
REMARK VINA RESULT:    -4.778      0.000      0.000
REMARK INTER + INTRA:          -5.898
REMARK INTER:                  -5.756
REMARK INTRA:                  -0.142
REMARK UNBOUND:                -0.142
REMARK SMILES O=c1c(O)c(-c2ccc(O)c(O)c2)oc2cc(O)cc(O)c12
REMARK SMILES IDX 5 1 3 2 2 3 1 4 22 5 20 6 19 7 17 8 16 9 15 10 14 11 6 12
REMARK SMILES IDX 7 13 8 14 9 15 13 16 11 17 10 18 12 20 4 22 21 24 18 26
REMARK H PARENT 10 19 12 21 4 23 21 25 18 27
REMARK Flexibility Score: inf
ROOT
ATOM      1  C   UNL     1       9.459 -15.266 -23.158  1.00  0.00     0.180 A 
ATOM      2  C   UNL     1       9.848 -16.579 -23.488  1.00  0.00     0.208 A 
ATOM      3  C   UNL     1      11.208 -16.920 -23.420  1.00  0.00     0.238 A 
ATOM      4  O   UNL     1      11.567 -18.097 -23.702  1.00  0.00    -0.285 OA
ATOM      5  C   UNL     1      12.154 -15.945 -23.044  1.00  0.00     0.111 A 
ATOM      6  C   UNL     1      13.543 -16.208 -22.954  1.00  0.00     0.134 A 
ATOM      7  C   UNL     1      14.422 -15.179 -22.582  1.00  0.00     0.093 A 
ATOM      8  C   UNL     1      13.939 -13.896 -22.299  1.00  0.00     0.123 A 
ATOM      9  C   UNL     1      12.571 -13.634 -22.386  1.00  0.00     0.094 A 
ATOM     10  C   UNL     1      11.678 -14.645 -22.754  1.00  0.00     0.146 A 
ATOM     11  O   UNL     1      10.381 -14.368 -22.823  1.00  0.00    -0.452 OA
ENDROOT
BRANCH   1  12
ATOM     12  C   UNL     1       8.043 -14.834 -23.188  1.00  0.00     0.025 A 
ATOM     13  C   UNL     1       7.594 -13.860 -24.097  1.00  0.00     0.016 A 
ATOM     14  C   UNL     1       6.249 -13.485 -24.125  1.00  0.00     0.051 A 
ATOM     15  C   UNL     1       5.330 -14.086 -23.255  1.00  0.00     0.157 A 
ATOM     16  C   UNL     1       7.115 -15.449 -22.333  1.00  0.00     0.062 A 
ATOM     17  C   UNL     1       5.766 -15.075 -22.357  1.00  0.00     0.158 A 
BRANCH  15  18
ATOM     18  O   UNL     1       3.988 -13.709 -23.283  1.00  0.00    -0.504 OA
ATOM     19  H   UNL     1       3.711 -12.736 -23.334  1.00  0.00     0.293 HD
ENDBRANCH  15  18
BRANCH  17  20
ATOM     20  O   UNL     1       4.875 -15.699 -21.483  1.00  0.00    -0.504 OA
ATOM     21  H   UNL     1       3.986 -16.071 -21.796  1.00  0.00     0.293 HD
ENDBRANCH  17  20
ENDBRANCH   1  12
BRANCH   2  22
ATOM     22  O   UNL     1       8.896 -17.513 -23.906  1.00  0.00    -0.502 OA
ATOM     23  H   UNL     1       8.005 -17.624 -23.438  1.00  0.00     0.293 HD
ENDBRANCH   2  22
BRANCH   6  24
ATOM     24  O   UNL     1      14.053 -17.476 -23.232  1.00  0.00    -0.507 OA
ATOM     25  H   UNL     1      14.690 -17.944 -22.598  1.00  0.00     0.293 HD
ENDBRANCH   6  24
BRANCH   8  26
ATOM     26  O   UNL     1      14.812 -12.875 -21.930  1.00  0.00    -0.508 OA
ATOM     27  H   UNL     1      15.063 -12.133 -22.573  1.00  0.00     0.293 HD
ENDBRANCH   8  26
TORSDOF 6
ENDMDL
MODEL 2
REMARK VINA RESULT:    -3.137      1.704      7.305
REMARK INTER + INTRA:          -3.921
REMARK INTER:                  -4.241
REMARK INTRA:                   0.321
REMARK UNBOUND:                -0.142
REMARK SMILES O=c1c(O)c(-c2ccc(O)c(O)c2)oc2cc(O)cc(O)c12
REMARK SMILES IDX 5 1 3 2 2 3 1 4 22 5 20 6 19 7 17 8 16 9 15 10 14 11 6 12
REMARK SMILES IDX 7 13 8 14 9 15 13 16 11 17 10 18 12 20 4 22 21 24 18 26
REMARK H PARENT 10 19 12 21 4 23 21 25 18 27
REMARK Flexibility Score: inf
ROOT
ATOM      1  C   UNL     1      10.657 -15.915 -23.282  1.00  0.00     0.180 A 
ATOM      2  C   UNL     1      10.405 -14.535 -23.153  1.00  0.00     0.208 A 
ATOM      3  C   UNL     1       9.075 -14.092 -23.094  1.00  0.00     0.238 A 
ATOM      4  O   UNL     1       8.837 -12.859 -22.967  1.00  0.00    -0.285 OA
ATOM      5  C   UNL     1       8.024 -15.027 -23.185  1.00  0.00     0.111 A 
ATOM      6  C   UNL     1       6.656 -14.662 -23.137  1.00  0.00     0.134 A 
ATOM      7  C   UNL     1       5.668 -15.652 -23.243  1.00  0.00     0.093 A 
ATOM      8  C   UNL     1       6.021 -16.998 -23.396  1.00  0.00     0.123 A 
ATOM      9  C   UNL     1       7.368 -17.361 -23.443  1.00  0.00     0.094 A 
ATOM     10  C   UNL     1       8.368 -16.390 -23.337  1.00  0.00     0.146 A 
ATOM     11  O   UNL     1       9.641 -16.766 -23.380  1.00  0.00    -0.452 OA
ENDROOT
BRANCH   1  12
ATOM     12  C   UNL     1      12.033 -16.462 -23.333  1.00  0.00     0.025 A 
ATOM     13  C   UNL     1      12.334 -17.619 -24.071  1.00  0.00     0.016 A 
ATOM     14  C   UNL     1      13.643 -18.104 -24.125  1.00  0.00     0.051 A 
ATOM     15  C   UNL     1      14.673 -17.432 -23.453  1.00  0.00     0.157 A 
ATOM     16  C   UNL     1      13.072 -15.780 -22.679  1.00  0.00     0.062 A 
ATOM     17  C   UNL     1      14.385 -16.263 -22.729  1.00  0.00     0.158 A 
BRANCH  15  18
ATOM     18  O   UNL     1      15.978 -17.918 -23.507  1.00  0.00    -0.504 OA
ATOM     19  H   UNL     1      16.353 -18.514 -22.778  1.00  0.00     0.293 HD
ENDBRANCH  15  18
BRANCH  17  20
ATOM     20  O   UNL     1      15.389 -15.566 -22.056  1.00  0.00    -0.504 OA
ATOM     21  H   UNL     1      15.375 -14.558 -21.964  1.00  0.00     0.293 HD
ENDBRANCH  17  20
ENDBRANCH   1  12
BRANCH   2  22
ATOM     22  O   UNL     1      11.464 -13.624 -23.116  1.00  0.00    -0.502 OA
ATOM     23  H   UNL     1      12.102 -13.502 -23.893  1.00  0.00     0.293 HD
ENDBRANCH   2  22
BRANCH   6  24
ATOM     24  O   UNL     1       6.274 -13.329 -22.986  1.00  0.00    -0.507 OA
ATOM     25  H   UNL     1       6.142 -12.718 -23.784  1.00  0.00     0.293 HD
ENDBRANCH   6  24
BRANCH   8  26
ATOM     26  O   UNL     1       5.040 -17.982 -23.503  1.00  0.00    -0.508 OA
ATOM     27  H   UNL     1       4.634 -18.416 -22.683  1.00  0.00     0.293 HD
ENDBRANCH   8  26
TORSDOF 6
ENDMDL
MODEL 3
REMARK VINA RESULT:    -1.947     17.810     18.837
REMARK INTER + INTRA:          -2.488
REMARK INTER:                  -2.819
REMARK INTRA:                   0.331
REMARK UNBOUND:                -0.142
REMARK SMILES O=c1c(O)c(-c2ccc(O)c(O)c2)oc2cc(O)cc(O)c12
REMARK SMILES IDX 5 1 3 2 2 3 1 4 22 5 20 6 19 7 17 8 16 9 15 10 14 11 6 12
REMARK SMILES IDX 7 13 8 14 9 15 13 16 11 17 10 18 12 20 4 22 21 24 18 26
REMARK H PARENT 10 19 12 21 4 23 21 25 18 27
REMARK Flexibility Score: inf
ROOT
ATOM      1  C   UNL     1      13.735   1.309 -16.959  1.00  0.00     0.180 A 
ATOM      2  C   UNL     1      12.368   1.453 -17.265  1.00  0.00     0.208 A 
ATOM      3  C   UNL     1      11.991   1.673 -18.599  1.00  0.00     0.238 A 
ATOM      4  O   UNL     1      10.769   1.791 -18.887  1.00  0.00    -0.285 OA
ATOM      5  C   UNL     1      12.983   1.766 -19.597  1.00  0.00     0.111 A 
ATOM      6  C   UNL     1      12.687   1.990 -20.964  1.00  0.00     0.134 A 
ATOM      7  C   UNL     1      13.732   2.079 -21.896  1.00  0.00     0.093 A 
ATOM      8  C   UNL     1      15.065   1.949 -21.487  1.00  0.00     0.123 A 
ATOM      9  C   UNL     1      15.360   1.728 -20.141  1.00  0.00     0.094 A 
ATOM     10  C   UNL     1      14.333   1.634 -19.197  1.00  0.00     0.146 A 
ATOM     11  O   UNL     1      14.643   1.418 -17.924  1.00  0.00    -0.452 OA
ENDROOT
BRANCH   1  12
ATOM     12  C   UNL     1      14.210   1.056 -15.579  1.00  0.00     0.025 A 
ATOM     13  C   UNL     1      15.411   0.369 -15.332  1.00  0.00     0.016 A 
ATOM     14  C   UNL     1      15.852   0.163 -14.023  1.00  0.00     0.051 A 
ATOM     15  C   UNL     1      15.108   0.653 -12.942  1.00  0.00     0.157 A 
ATOM     16  C   UNL     1      13.478   1.563 -14.493  1.00  0.00     0.062 A 
ATOM     17  C   UNL     1      13.917   1.359 -13.179  1.00  0.00     0.158 A 
BRANCH  15  18
ATOM     18  O   UNL     1      15.549   0.445 -11.635  1.00  0.00    -0.504 OA
ATOM     19  H   UNL     1      15.031  -0.134 -10.986  1.00  0.00     0.293 HD
ENDBRANCH  15  18
BRANCH  17  20
ATOM     20  O   UNL     1      13.157   1.866 -12.125  1.00  0.00    -0.504 OA
ATOM     21  H   UNL     1      13.484   1.844 -11.167  1.00  0.00     0.293 HD
ENDBRANCH  17  20
ENDBRANCH   1  12
BRANCH   2  22
ATOM     22  O   UNL     1      11.408   1.406 -16.250  1.00  0.00    -0.502 OA
ATOM     23  H   UNL     1      11.344   2.118 -15.533  1.00  0.00     0.293 HD
ENDBRANCH   2  22
BRANCH   6  24
ATOM     24  O   UNL     1      11.369   2.124 -21.401  1.00  0.00    -0.507 OA
ATOM     25  H   UNL     1      11.115   2.771 -22.138  1.00  0.00     0.293 HD
ENDBRANCH   6  24
BRANCH   8  26
ATOM     26  O   UNL     1      16.103   2.039 -22.412  1.00  0.00    -0.508 OA
ATOM     27  H   UNL     1      16.964   1.519 -22.295  1.00  0.00     0.293 HD
ENDBRANCH   8  26
TORSDOF 6
ENDMDL
