MODEL 1
REMARK VINA RESULT:     9.892      0.000      0.000
REMARK INTER + INTRA:          12.440
REMARK INTER:                  11.916
REMARK INTRA:                   0.524
REMARK UNBOUND:                 0.524
REMARK SMILES O=c1c(O)c(-c2ccc(O)c(O)c2)oc2cc(O)cc(O)c12
REMARK SMILES IDX 5 1 3 2 2 3 1 4 22 5 20 6 19 7 17 8 16 9 15 10 14 11 6 12
REMARK SMILES IDX 7 13 8 14 9 15 13 16 11 17 10 18 12 20 4 22 21 24 18 26
REMARK H PARENT 10 19 12 21 4 23 21 25 18 27
REMARK Flexibility Score: inf
ROOT
ATOM      1  C   UNL     1       2.986 135.313 155.754  1.00  0.00     0.180 A 
ATOM      2  C   UNL     1       3.812 135.985 154.836  1.00  0.00     0.208 A 
ATOM      3  C   UNL     1       4.265 135.301 153.697  1.00  0.00     0.238 A 
ATOM      4  O   UNL     1       4.940 135.931 152.844  1.00  0.00    -0.285 OA
ATOM      5  C   UNL     1       3.933 133.936 153.517  1.00  0.00     0.111 A 
ATOM      6  C   UNL     1       4.373 133.130 152.423  1.00  0.00     0.134 A 
ATOM      7  C   UNL     1       3.894 131.821 152.294  1.00  0.00     0.093 A 
ATOM      8  C   UNL     1       3.043 131.266 153.252  1.00  0.00     0.123 A 
ATOM      9  C   UNL     1       2.652 132.026 154.351  1.00  0.00     0.094 A 
ATOM     10  C   UNL     1       3.081 133.348 154.489  1.00  0.00     0.146 A 
ATOM     11  O   UNL     1       2.667 134.043 155.541  1.00  0.00    -0.452 OA
ENDROOT
BRANCH   1  12
ATOM     12  C   UNL     1       2.459 135.972 156.970  1.00  0.00     0.025 A 
ATOM     13  C   UNL     1       1.867 135.232 158.005  1.00  0.00     0.016 A 
ATOM     14  C   UNL     1       1.400 135.874 159.154  1.00  0.00     0.051 A 
ATOM     15  C   UNL     1       1.526 137.260 159.299  1.00  0.00     0.157 A 
ATOM     16  C   UNL     1       2.608 137.360 157.123  1.00  0.00     0.062 A 
ATOM     17  C   UNL     1       2.142 138.013 158.271  1.00  0.00     0.158 A 
BRANCH  15  18
ATOM     18  O   UNL     1       1.034 137.840 160.469  1.00  0.00    -0.504 OA
ATOM     19  H   UNL     1       0.999 137.369 161.362  1.00  0.00     0.293 HD
ENDBRANCH  15  18
BRANCH  17  20
ATOM     20  O   UNL     1       2.312 139.396 158.349  1.00  0.00    -0.504 OA
ATOM     21  H   UNL     1       2.414 139.999 157.545  1.00  0.00     0.293 HD
ENDBRANCH  17  20
ENDBRANCH   1  12
BRANCH   2  22
ATOM     22  O   UNL     1       4.191 137.311 155.071  1.00  0.00    -0.502 OA
ATOM     23  H   UNL     1       5.161 137.597 155.125  1.00  0.00     0.293 HD
ENDBRANCH   2  22
BRANCH   6  24
ATOM     24  O   UNL     1       5.292 133.554 151.459  1.00  0.00    -0.507 OA
ATOM     25  H   UNL     1       5.251 134.434 150.969  1.00  0.00     0.293 HD
ENDBRANCH   6  24
BRANCH   8  26
ATOM     26  O   UNL     1       2.585 129.956 153.124  1.00  0.00    -0.508 OA
ATOM     27  H   UNL     1       2.534 129.499 152.221  1.00  0.00     0.293 HD
ENDBRANCH   8  26
TORSDOF 6
ENDMDL
