MODEL 1
REMARK VINA RESULT:    -4.803      0.000      0.000
REMARK INTER + INTRA:         -11.770
REMARK INTER:                  -9.015
REMARK INTRA:                  -2.756
REMARK UNBOUND:                -2.756
REMARK SMILES CCCCCCCCC=CCCCCCCCC(=O)[O-]
REMARK SMILES IDX 10 1 9 2 11 3 12 4 13 5 14 6 15 7 16 8 17 9 18 10 19 11
REMARK SMILES IDX 20 12 8 13 7 14 6 15 5 16 4 17 3 18 2 19 1 20
REMARK H PARENT
REMARK Flexibility Score: inf
ROOT
ATOM      1  C   UNL     1      -2.331 -23.573  50.579  1.00  0.00    -0.031 C 
ATOM      2  C   UNL     1      -3.295 -23.389  49.663  1.00  0.00    -0.031 C 
ENDROOT
BRANCH   1   3
ATOM      3  C   UNL     1      -0.999 -22.883  50.469  1.00  0.00     0.027 C 
BRANCH   3   4
ATOM      4  C   UNL     1      -0.996 -21.868  49.316  1.00  0.00     0.004 C 
BRANCH   4   5
ATOM      5  C   UNL     1      -0.318 -22.416  48.049  1.00  0.00     0.000 C 
BRANCH   5   6
ATOM      6  C   UNL     1      -1.201 -22.276  46.799  1.00  0.00     0.000 C 
BRANCH   6   7
ATOM      7  C   UNL     1      -1.276 -23.604  46.032  1.00  0.00     0.000 C 
BRANCH   7   8
ATOM      8  C   UNL     1      -1.403 -24.824  46.962  1.00  0.00     0.006 C 
BRANCH   8   9
ATOM      9  C   UNL     1      -2.626 -25.713  46.678  1.00  0.00     0.053 C 
BRANCH   9  10
ATOM     10  C   UNL     1      -2.390 -26.637  45.524  1.00  0.00     0.041 C 
ATOM     11  O   UNL     1      -1.792 -26.227  44.494  1.00  0.00    -0.550 OA
ATOM     12  O   UNL     1      -2.800 -27.962  45.600  1.00  0.00    -0.550 OA
ENDBRANCH   9  10
ENDBRANCH   8   9
ENDBRANCH   7   8
ENDBRANCH   6   7
ENDBRANCH   5   6
ENDBRANCH   4   5
ENDBRANCH   3   4
ENDBRANCH   1   3
BRANCH   2  13
ATOM     13  C   UNL     1      -4.627 -24.077  49.776  1.00  0.00     0.027 C 
BRANCH  13  14
ATOM     14  C   UNL     1      -5.547 -23.700  48.606  1.00  0.00     0.004 C 
BRANCH  14  15
ATOM     15  C   UNL     1      -4.794 -22.950  47.486  1.00  0.00     0.000 C 
BRANCH  15  16
ATOM     16  C   UNL     1      -5.384 -21.564  47.164  1.00  0.00     0.000 C 
BRANCH  16  17
ATOM     17  C   UNL     1      -6.093 -20.872  48.343  1.00  0.00    -0.000 C 
BRANCH  17  18
ATOM     18  C   UNL     1      -5.168 -20.056  49.267  1.00  0.00    -0.000 C 
BRANCH  18  19
ATOM     19  C   UNL     1      -5.191 -20.524  50.737  1.00  0.00    -0.003 C 
ATOM     20  C   UNL     1      -3.892 -20.202  51.475  1.00  0.00     0.004 C 
ENDBRANCH  18  19
ENDBRANCH  17  18
ENDBRANCH  16  17
ENDBRANCH  15  16
ENDBRANCH  14  15
ENDBRANCH  13  14
ENDBRANCH   2  13
TORSDOF 15
ENDMDL
MODEL 2
REMARK VINA RESULT:    -4.792      2.640      6.041
REMARK INTER + INTRA:         -11.750
REMARK INTER:                  -9.921
REMARK INTRA:                  -1.829
REMARK UNBOUND:                -2.756
REMARK SMILES CCCCCCCCC=CCCCCCCCC(=O)[O-]
REMARK SMILES IDX 10 1 9 2 11 3 12 4 13 5 14 6 15 7 16 8 17 9 18 10 19 11
REMARK SMILES IDX 20 12 8 13 7 14 6 15 5 16 4 17 3 18 2 19 1 20
REMARK H PARENT
REMARK Flexibility Score: inf
ROOT
ATOM      1  C   UNL     1      -0.635 -22.077  47.762  1.00  0.00    -0.031 C 
ATOM      2  C   UNL     1      -0.250 -22.658  46.615  1.00  0.00    -0.031 C 
ENDROOT
BRANCH   1   3
ATOM      3  C   UNL     1       0.329 -21.854  48.895  1.00  0.00     0.027 C 
BRANCH   3   4
ATOM      4  C   UNL     1      -0.264 -22.335  50.228  1.00  0.00     0.004 C 
BRANCH   4   5
ATOM      5  C   UNL     1      -1.800 -22.385  50.208  1.00  0.00     0.000 C 
BRANCH   5   6
ATOM      6  C   UNL     1      -2.351 -23.765  50.599  1.00  0.00     0.000 C 
BRANCH   6   7
ATOM      7  C   UNL     1      -3.131 -24.392  49.434  1.00  0.00     0.000 C 
BRANCH   7   8
ATOM      8  C   UNL     1      -4.627 -24.578  49.749  1.00  0.00     0.006 C 
BRANCH   8   9
ATOM      9  C   UNL     1      -5.574 -24.034  48.666  1.00  0.00     0.053 C 
BRANCH   9  10
ATOM     10  C   UNL     1      -5.498 -22.543  48.552  1.00  0.00     0.041 C 
ATOM     11  O   UNL     1      -5.553 -21.824  49.585  1.00  0.00    -0.550 OA
ATOM     12  O   UNL     1      -5.329 -21.949  47.308  1.00  0.00    -0.550 OA
ENDBRANCH   9  10
ENDBRANCH   8   9
ENDBRANCH   7   8
ENDBRANCH   6   7
ENDBRANCH   5   6
ENDBRANCH   4   5
ENDBRANCH   3   4
ENDBRANCH   1   3
BRANCH   2  13
ATOM     13  C   UNL     1      -1.215 -22.877  45.484  1.00  0.00     0.027 C 
BRANCH  13  14
ATOM     14  C   UNL     1      -2.521 -23.512  45.984  1.00  0.00     0.004 C 
BRANCH  14  15
ATOM     15  C   UNL     1      -2.458 -25.055  45.989  1.00  0.00     0.000 C 
BRANCH  15  16
ATOM     16  C   UNL     1      -3.836 -25.730  45.852  1.00  0.00     0.000 C 
BRANCH  16  17
ATOM     17  C   UNL     1      -3.851 -26.997  44.978  1.00  0.00    -0.000 C 
BRANCH  17  18
ATOM     18  C   UNL     1      -2.743 -28.019  45.298  1.00  0.00    -0.000 C 
BRANCH  18  19
ATOM     19  C   UNL     1      -3.136 -29.478  44.986  1.00  0.00    -0.003 C 
ATOM     20  C   UNL     1      -4.544 -29.596  44.405  1.00  0.00     0.004 C 
ENDBRANCH  18  19
ENDBRANCH  17  18
ENDBRANCH  16  17
ENDBRANCH  15  16
ENDBRANCH  14  15
ENDBRANCH  13  14
ENDBRANCH   2  13
TORSDOF 15
ENDMDL
MODEL 3
REMARK VINA RESULT:    -4.782      2.738      4.336
REMARK INTER + INTRA:         -11.731
REMARK INTER:                  -8.956
REMARK INTRA:                  -2.775
REMARK UNBOUND:                -2.756
REMARK SMILES CCCCCCCCC=CCCCCCCCC(=O)[O-]
REMARK SMILES IDX 10 1 9 2 11 3 12 4 13 5 14 6 15 7 16 8 17 9 18 10 19 11
REMARK SMILES IDX 20 12 8 13 7 14 6 15 5 16 4 17 3 18 2 19 1 20
REMARK H PARENT
REMARK Flexibility Score: inf
ROOT
ATOM      1  C   UNL     1      -2.929 -24.918  48.186  1.00  0.00    -0.031 C 
ATOM      2  C   UNL     1      -4.151 -24.410  48.409  1.00  0.00    -0.031 C 
ENDROOT
BRANCH   1   3
ATOM      3  C   UNL     1      -2.531 -25.446  46.834  1.00  0.00     0.027 C 
BRANCH   3   4
ATOM      4  C   UNL     1      -2.604 -24.344  45.767  1.00  0.00     0.004 C 
BRANCH   4   5
ATOM      5  C   UNL     1      -1.473 -23.312  45.905  1.00  0.00     0.000 C 
BRANCH   5   6
ATOM      6  C   UNL     1      -1.990 -21.913  46.272  1.00  0.00     0.000 C 
BRANCH   6   7
ATOM      7  C   UNL     1      -1.501 -21.497  47.666  1.00  0.00     0.000 C 
BRANCH   7   8
ATOM      8  C   UNL     1      -0.354 -22.385  48.185  1.00  0.00     0.006 C 
BRANCH   8   9
ATOM      9  C   UNL     1       0.553 -21.704  49.223  1.00  0.00     0.053 C 
BRANCH   9  10
ATOM     10  C   UNL     1       0.343 -22.256  50.599  1.00  0.00     0.041 C 
ATOM     11  O   UNL     1       0.391 -21.496  51.602  1.00  0.00    -0.550 OA
ATOM     12  O   UNL     1       0.057 -23.605  50.771  1.00  0.00    -0.550 OA
ENDBRANCH   9  10
ENDBRANCH   8   9
ENDBRANCH   7   8
ENDBRANCH   6   7
ENDBRANCH   5   6
ENDBRANCH   4   5
ENDBRANCH   3   4
ENDBRANCH   1   3
BRANCH   2  13
ATOM     13  C   UNL     1      -4.545 -23.880  49.760  1.00  0.00     0.027 C 
BRANCH  13  14
ATOM     14  C   UNL     1      -3.365 -23.176  50.445  1.00  0.00     0.004 C 
BRANCH  14  15
ATOM     15  C   UNL     1      -3.540 -21.643  50.486  1.00  0.00     0.000 C 
BRANCH  15  16
ATOM     16  C   UNL     1      -5.008 -21.186  50.393  1.00  0.00     0.000 C 
BRANCH  16  17
ATOM     17  C   UNL     1      -5.230 -19.878  49.613  1.00  0.00    -0.000 C 
BRANCH  17  18
ATOM     18  C   UNL     1      -6.084 -20.020  48.338  1.00  0.00    -0.000 C 
BRANCH  18  19
ATOM     19  C   UNL     1      -5.701 -21.235  47.467  1.00  0.00    -0.003 C 
ATOM     20  C   UNL     1      -5.558 -20.876  45.989  1.00  0.00     0.004 C 
ENDBRANCH  18  19
ENDBRANCH  17  18
ENDBRANCH  16  17
ENDBRANCH  15  16
ENDBRANCH  14  15
ENDBRANCH  13  14
ENDBRANCH   2  13
TORSDOF 15
ENDMDL
MODEL 4
REMARK VINA RESULT:    -4.712      3.131      5.845
REMARK INTER + INTRA:         -11.601
REMARK INTER:                  -9.261
REMARK INTRA:                  -2.340
REMARK UNBOUND:                -2.756
REMARK SMILES CCCCCCCCC=CCCCCCCCC(=O)[O-]
REMARK SMILES IDX 10 1 9 2 11 3 12 4 13 5 14 6 15 7 16 8 17 9 18 10 19 11
REMARK SMILES IDX 20 12 8 13 7 14 6 15 5 16 4 17 3 18 2 19 1 20
REMARK H PARENT
REMARK Flexibility Score: inf
ROOT
ATOM      1  C   UNL     1      -3.387 -21.577  50.510  1.00  0.00    -0.031 C 
ATOM      2  C   UNL     1      -2.718 -21.556  49.346  1.00  0.00    -0.031 C 
ENDROOT
BRANCH   1   3
ATOM      3  C   UNL     1      -4.821 -21.134  50.602  1.00  0.00     0.027 C 
BRANCH   3   4
ATOM      4  C   UNL     1      -5.006 -19.732  50.001  1.00  0.00     0.004 C 
BRANCH   4   5
ATOM      5  C   UNL     1      -5.967 -19.726  48.801  1.00  0.00     0.000 C 
BRANCH   5   6
ATOM      6  C   UNL     1      -6.010 -21.076  48.071  1.00  0.00     0.000 C 
BRANCH   6   7
ATOM      7  C   UNL     1      -5.709 -20.900  46.576  1.00  0.00     0.000 C 
BRANCH   7   8
ATOM      8  C   UNL     1      -6.138 -19.521  46.039  1.00  0.00     0.006 C 
BRANCH   8   9
ATOM      9  C   UNL     1      -5.821 -19.294  44.552  1.00  0.00     0.053 C 
BRANCH   9  10
ATOM     10  C   UNL     1      -4.538 -18.546  44.362  1.00  0.00     0.041 C 
ATOM     11  O   UNL     1      -4.555 -17.317  44.082  1.00  0.00    -0.550 OA
ATOM     12  O   UNL     1      -3.322 -19.197  44.529  1.00  0.00    -0.550 OA
ENDBRANCH   9  10
ENDBRANCH   8   9
ENDBRANCH   7   8
ENDBRANCH   6   7
ENDBRANCH   5   6
ENDBRANCH   4   5
ENDBRANCH   3   4
ENDBRANCH   1   3
BRANCH   2  13
ATOM     13  C   UNL     1      -1.286 -22.003  49.256  1.00  0.00     0.027 C 
BRANCH  13  14
ATOM     14  C   UNL     1      -0.926 -22.946  50.414  1.00  0.00     0.004 C 
BRANCH  14  15
ATOM     15  C   UNL     1      -1.108 -24.432  50.037  1.00  0.00     0.000 C 
BRANCH  15  16
ATOM     16  C   UNL     1      -1.268 -24.671  48.523  1.00  0.00     0.000 C 
BRANCH  16  17
ATOM     17  C   UNL     1      -2.561 -25.398  48.115  1.00  0.00    -0.000 C 
BRANCH  17  18
ATOM     18  C   UNL     1      -3.605 -24.516  47.403  1.00  0.00    -0.000 C 
BRANCH  18  19
ATOM     19  C   UNL     1      -4.985 -24.508  48.092  1.00  0.00    -0.003 C 
ATOM     20  C   UNL     1      -4.888 -24.704  49.604  1.00  0.00     0.004 C 
ENDBRANCH  18  19
ENDBRANCH  17  18
ENDBRANCH  16  17
ENDBRANCH  15  16
ENDBRANCH  14  15
ENDBRANCH  13  14
ENDBRANCH   2  13
TORSDOF 15
ENDMDL
MODEL 5
REMARK VINA RESULT:    -4.690      2.744      5.098
REMARK INTER + INTRA:         -11.559
REMARK INTER:                  -8.753
REMARK INTRA:                  -2.806
REMARK UNBOUND:                -2.756
REMARK SMILES CCCCCCCCC=CCCCCCCCC(=O)[O-]
REMARK SMILES IDX 10 1 9 2 11 3 12 4 13 5 14 6 15 7 16 8 17 9 18 10 19 11
REMARK SMILES IDX 20 12 8 13 7 14 6 15 5 16 4 17 3 18 2 19 1 20
REMARK H PARENT
REMARK Flexibility Score: inf
ROOT
ATOM      1  C   UNL     1      -5.886 -20.981  46.954  1.00  0.00    -0.031 C 
ATOM      2  C   UNL     1      -5.229 -20.184  47.811  1.00  0.00    -0.031 C 
ENDROOT
BRANCH   1   3
ATOM      3  C   UNL     1      -5.340 -21.284  45.585  1.00  0.00     0.027 C 
BRANCH   3   4
ATOM      4  C   UNL     1      -3.912 -20.743  45.428  1.00  0.00     0.004 C 
BRANCH   4   5
ATOM      5  C   UNL     1      -2.841 -21.813  45.699  1.00  0.00     0.000 C 
BRANCH   5   6
ATOM      6  C   UNL     1      -1.974 -21.483  46.924  1.00  0.00     0.000 C 
BRANCH   6   7
ATOM      7  C   UNL     1      -0.672 -22.297  46.907  1.00  0.00     0.000 C 
BRANCH   7   8
ATOM      8  C   UNL     1       0.160 -22.119  48.191  1.00  0.00     0.006 C 
BRANCH   8   9
ATOM      9  C   UNL     1      -0.674 -22.062  49.482  1.00  0.00     0.053 C 
BRANCH   9  10
ATOM     10  C   UNL     1       0.049 -22.671  50.643  1.00  0.00     0.041 C 
ATOM     11  O   UNL     1      -0.186 -23.861  50.984  1.00  0.00    -0.550 OA
ATOM     12  O   UNL     1       1.008 -21.935  51.328  1.00  0.00    -0.550 OA
ENDBRANCH   9  10
ENDBRANCH   8   9
ENDBRANCH   7   8
ENDBRANCH   6   7
ENDBRANCH   5   6
ENDBRANCH   4   5
ENDBRANCH   3   4
ENDBRANCH   1   3
BRANCH   2  13
ATOM     13  C   UNL     1      -5.775 -19.885  49.180  1.00  0.00     0.027 C 
BRANCH  13  14
ATOM     14  C   UNL     1      -5.679 -21.115  50.095  1.00  0.00     0.004 C 
BRANCH  14  15
ATOM     15  C   UNL     1      -4.232 -21.637  50.225  1.00  0.00     0.000 C 
BRANCH  15  16
ATOM     16  C   UNL     1      -4.100 -23.156  50.007  1.00  0.00     0.000 C 
BRANCH  16  17
ATOM     17  C   UNL     1      -5.223 -23.789  49.166  1.00  0.00    -0.000 C 
BRANCH  17  18
ATOM     18  C   UNL     1      -4.763 -24.401  47.827  1.00  0.00    -0.000 C 
BRANCH  18  19
ATOM     19  C   UNL     1      -3.277 -24.815  47.812  1.00  0.00    -0.003 C 
ATOM     20  C   UNL     1      -2.861 -25.458  46.491  1.00  0.00     0.004 C 
ENDBRANCH  18  19
ENDBRANCH  17  18
ENDBRANCH  16  17
ENDBRANCH  15  16
ENDBRANCH  14  15
ENDBRANCH  13  14
ENDBRANCH   2  13
TORSDOF 15
ENDMDL
MODEL 6
REMARK VINA RESULT:    -4.684      2.454      3.511
REMARK INTER + INTRA:         -11.547
REMARK INTER:                  -8.603
REMARK INTRA:                  -2.944
REMARK UNBOUND:                -2.756
REMARK SMILES CCCCCCCCC=CCCCCCCCC(=O)[O-]
REMARK SMILES IDX 10 1 9 2 11 3 12 4 13 5 14 6 15 7 16 8 17 9 18 10 19 11
REMARK SMILES IDX 20 12 8 13 7 14 6 15 5 16 4 17 3 18 2 19 1 20
REMARK H PARENT
REMARK Flexibility Score: inf
ROOT
ATOM      1  C   UNL     1      -2.552 -24.806  49.236  1.00  0.00    -0.031 C 
ATOM      2  C   UNL     1      -1.839 -25.026  48.120  1.00  0.00    -0.031 C 
ENDROOT
BRANCH   1   3
ATOM      3  C   UNL     1      -1.893 -24.373  50.517  1.00  0.00     0.027 C 
BRANCH   3   4
ATOM      4  C   UNL     1      -0.441 -23.938  50.273  1.00  0.00     0.004 C 
BRANCH   4   5
ATOM      5  C   UNL     1      -0.217 -22.442  50.544  1.00  0.00     0.000 C 
BRANCH   5   6
ATOM      6  C   UNL     1       0.419 -21.713  49.350  1.00  0.00     0.000 C 
BRANCH   6   7
ATOM      7  C   UNL     1      -0.491 -21.788  48.116  1.00  0.00     0.000 C 
BRANCH   7   8
ATOM      8  C   UNL     1       0.284 -22.090  46.820  1.00  0.00     0.006 C 
BRANCH   8   9
ATOM      9  C   UNL     1      -0.606 -22.311  45.586  1.00  0.00     0.053 C 
BRANCH   9  10
ATOM     10  C   UNL     1      -0.957 -21.021  44.910  1.00  0.00     0.041 C 
ATOM     11  O   UNL     1      -2.098 -20.512  45.068  1.00  0.00    -0.550 OA
ATOM     12  O   UNL     1      -0.010 -20.364  44.134  1.00  0.00    -0.550 OA
ENDBRANCH   9  10
ENDBRANCH   8   9
ENDBRANCH   7   8
ENDBRANCH   6   7
ENDBRANCH   5   6
ENDBRANCH   4   5
ENDBRANCH   3   4
ENDBRANCH   1   3
BRANCH   2  13
ATOM     13  C   UNL     1      -2.500 -25.457  46.840  1.00  0.00     0.027 C 
BRANCH  13  14
ATOM     14  C   UNL     1      -3.929 -24.903  46.741  1.00  0.00     0.004 C 
BRANCH  14  15
ATOM     15  C   UNL     1      -3.970 -23.494  46.112  1.00  0.00     0.000 C 
BRANCH  15  16
ATOM     16  C   UNL     1      -4.491 -22.405  47.068  1.00  0.00     0.000 C 
BRANCH  16  17
ATOM     17  C   UNL     1      -5.429 -22.912  48.178  1.00  0.00    -0.000 C 
BRANCH  17  18
ATOM     18  C   UNL     1      -5.187 -22.289  49.567  1.00  0.00    -0.000 C 
BRANCH  18  19
ATOM     19  C   UNL     1      -3.942 -21.379  49.630  1.00  0.00    -0.003 C 
ATOM     20  C   UNL     1      -4.213 -20.063  50.357  1.00  0.00     0.004 C 
ENDBRANCH  18  19
ENDBRANCH  17  18
ENDBRANCH  16  17
ENDBRANCH  15  16
ENDBRANCH  14  15
ENDBRANCH  13  14
ENDBRANCH   2  13
TORSDOF 15
ENDMDL
MODEL 7
REMARK VINA RESULT:    -4.680      3.002      5.393
REMARK INTER + INTRA:         -11.540
REMARK INTER:                  -8.880
REMARK INTRA:                  -2.660
REMARK UNBOUND:                -2.756
REMARK SMILES CCCCCCCCC=CCCCCCCCC(=O)[O-]
REMARK SMILES IDX 10 1 9 2 11 3 12 4 13 5 14 6 15 7 16 8 17 9 18 10 19 11
REMARK SMILES IDX 20 12 8 13 7 14 6 15 5 16 4 17 3 18 2 19 1 20
REMARK H PARENT
REMARK Flexibility Score: inf
ROOT
ATOM      1  C   UNL     1      -5.918 -20.891  47.849  1.00  0.00    -0.031 C 
ATOM      2  C   UNL     1      -6.293 -20.078  46.850  1.00  0.00    -0.031 C 
ENDROOT
BRANCH   1   3
ATOM      3  C   UNL     1      -6.228 -20.568  49.285  1.00  0.00     0.027 C 
BRANCH   3   4
ATOM      4  C   UNL     1      -4.964 -20.132  50.039  1.00  0.00     0.004 C 
BRANCH   4   5
ATOM      5  C   UNL     1      -3.716 -20.920  49.606  1.00  0.00     0.000 C 
BRANCH   5   6
ATOM      6  C   UNL     1      -3.045 -21.655  50.777  1.00  0.00     0.000 C 
BRANCH   6   7
ATOM      7  C   UNL     1      -2.852 -23.143  50.450  1.00  0.00     0.000 C 
BRANCH   7   8
ATOM      8  C   UNL     1      -1.378 -23.584  50.524  1.00  0.00     0.006 C 
BRANCH   8   9
ATOM      9  C   UNL     1      -0.461 -22.904  49.494  1.00  0.00     0.053 C 
BRANCH   9  10
ATOM     10  C   UNL     1       0.627 -22.112  50.149  1.00  0.00     0.041 C 
ATOM     11  O   UNL     1       0.531 -21.782  51.361  1.00  0.00    -0.550 OA
ATOM     12  O   UNL     1       1.766 -21.770  49.431  1.00  0.00    -0.550 OA
ENDBRANCH   9  10
ENDBRANCH   8   9
ENDBRANCH   7   8
ENDBRANCH   6   7
ENDBRANCH   5   6
ENDBRANCH   4   5
ENDBRANCH   3   4
ENDBRANCH   1   3
BRANCH   2  13
ATOM     13  C   UNL     1      -5.984 -20.404  45.415  1.00  0.00     0.027 C 
BRANCH  13  14
ATOM     14  C   UNL     1      -4.543 -20.012  45.055  1.00  0.00     0.004 C 
BRANCH  14  15
ATOM     15  C   UNL     1      -3.632 -21.242  44.859  1.00  0.00     0.000 C 
BRANCH  15  16
ATOM     16  C   UNL     1      -2.688 -21.508  46.047  1.00  0.00     0.000 C 
BRANCH  16  17
ATOM     17  C   UNL     1      -2.891 -22.865  46.745  1.00  0.00    -0.000 C 
BRANCH  17  18
ATOM     18  C   UNL     1      -4.129 -23.656  46.278  1.00  0.00    -0.000 C 
BRANCH  18  19
ATOM     19  C   UNL     1      -4.487 -24.846  47.193  1.00  0.00    -0.003 C 
ATOM     20  C   UNL     1      -5.427 -24.449  48.330  1.00  0.00     0.004 C 
ENDBRANCH  18  19
ENDBRANCH  17  18
ENDBRANCH  16  17
ENDBRANCH  15  16
ENDBRANCH  14  15
ENDBRANCH  13  14
ENDBRANCH   2  13
TORSDOF 15
ENDMDL
MODEL 8
REMARK VINA RESULT:    -4.653      3.263      6.048
REMARK INTER + INTRA:         -11.489
REMARK INTER:                  -8.534
REMARK INTRA:                  -2.955
REMARK UNBOUND:                -2.756
REMARK SMILES CCCCCCCCC=CCCCCCCCC(=O)[O-]
REMARK SMILES IDX 10 1 9 2 11 3 12 4 13 5 14 6 15 7 16 8 17 9 18 10 19 11
REMARK SMILES IDX 20 12 8 13 7 14 6 15 5 16 4 17 3 18 2 19 1 20
REMARK H PARENT
REMARK Flexibility Score: inf
ROOT
ATOM      1  C   UNL     1      -1.523 -24.127  48.369  1.00  0.00    -0.031 C 
ATOM      2  C   UNL     1      -1.359 -22.853  48.760  1.00  0.00    -0.031 C 
ENDROOT
BRANCH   1   3
ATOM      3  C   UNL     1      -2.331 -25.102  49.181  1.00  0.00     0.027 C 
BRANCH   3   4
ATOM      4  C   UNL     1      -3.621 -24.451  49.702  1.00  0.00     0.004 C 
BRANCH   4   5
ATOM      5  C   UNL     1      -4.758 -24.481  48.667  1.00  0.00     0.000 C 
BRANCH   5   6
ATOM      6  C   UNL     1      -5.622 -23.211  48.702  1.00  0.00     0.000 C 
BRANCH   6   7
ATOM      7  C   UNL     1      -5.152 -22.201  47.645  1.00  0.00     0.000 C 
BRANCH   7   8
ATOM      8  C   UNL     1      -4.665 -20.876  48.262  1.00  0.00     0.006 C 
BRANCH   8   9
ATOM      9  C   UNL     1      -5.436 -20.441  49.518  1.00  0.00     0.053 C 
BRANCH   9  10
ATOM     10  C   UNL     1      -4.523 -20.190  50.678  1.00  0.00     0.041 C 
ATOM     11  O   UNL     1      -4.630 -19.132  51.354  1.00  0.00    -0.550 OA
ATOM     12  O   UNL     1      -3.576 -21.142  51.035  1.00  0.00    -0.550 OA
ENDBRANCH   9  10
ENDBRANCH   8   9
ENDBRANCH   7   8
ENDBRANCH   6   7
ENDBRANCH   5   6
ENDBRANCH   4   5
ENDBRANCH   3   4
ENDBRANCH   1   3
BRANCH   2  13
ATOM     13  C   UNL     1      -0.553 -21.880  47.945  1.00  0.00     0.027 C 
BRANCH  13  14
ATOM     14  C   UNL     1      -0.692 -22.167  46.442  1.00  0.00     0.004 C 
BRANCH  14  15
ATOM     15  C   UNL     1      -1.865 -21.393  45.803  1.00  0.00     0.000 C 
BRANCH  15  16
ATOM     16  C   UNL     1      -2.723 -22.247  44.850  1.00  0.00     0.000 C 
BRANCH  16  17
ATOM     17  C   UNL     1      -2.493 -23.765  44.957  1.00  0.00    -0.000 C 
BRANCH  17  18
ATOM     18  C   UNL     1      -3.760 -24.594  45.248  1.00  0.00    -0.000 C 
BRANCH  18  19
ATOM     19  C   UNL     1      -3.469 -26.065  45.610  1.00  0.00    -0.003 C 
ATOM     20  C   UNL     1      -4.372 -27.044  44.862  1.00  0.00     0.004 C 
ENDBRANCH  18  19
ENDBRANCH  17  18
ENDBRANCH  16  17
ENDBRANCH  15  16
ENDBRANCH  14  15
ENDBRANCH  13  14
ENDBRANCH   2  13
TORSDOF 15
ENDMDL
MODEL 9
REMARK VINA RESULT:    -4.620      3.088      6.331
REMARK INTER + INTRA:         -11.428
REMARK INTER:                  -9.355
REMARK INTRA:                  -2.073
REMARK UNBOUND:                -2.756
REMARK SMILES CCCCCCCCC=CCCCCCCCC(=O)[O-]
REMARK SMILES IDX 10 1 9 2 11 3 12 4 13 5 14 6 15 7 16 8 17 9 18 10 19 11
REMARK SMILES IDX 20 12 8 13 7 14 6 15 5 16 4 17 3 18 2 19 1 20
REMARK H PARENT
REMARK Flexibility Score: inf
ROOT
ATOM      1  C   UNL     1      -1.408 -22.630  48.445  1.00  0.00    -0.031 C 
ATOM      2  C   UNL     1      -1.935 -22.284  47.259  1.00  0.00    -0.031 C 
ENDROOT
BRANCH   1   3
ATOM      3  C   UNL     1      -2.087 -22.278  49.740  1.00  0.00     0.027 C 
BRANCH   3   4
ATOM      4  C   UNL     1      -2.591 -23.538  50.460  1.00  0.00     0.004 C 
BRANCH   4   5
ATOM      5  C   UNL     1      -3.347 -24.492  49.521  1.00  0.00     0.000 C 
BRANCH   5   6
ATOM      6  C   UNL     1      -4.865 -24.476  49.759  1.00  0.00     0.000 C 
BRANCH   6   7
ATOM      7  C   UNL     1      -5.596 -23.820  48.579  1.00  0.00     0.000 C 
BRANCH   7   8
ATOM      8  C   UNL     1      -5.542 -22.281  48.625  1.00  0.00     0.006 C 
BRANCH   8   9
ATOM      9  C   UNL     1      -5.565 -21.605  47.244  1.00  0.00     0.053 C 
BRANCH   9  10
ATOM     10  C   UNL     1      -5.895 -20.148  47.339  1.00  0.00     0.041 C 
ATOM     11  O   UNL     1      -6.440 -19.687  48.377  1.00  0.00    -0.550 OA
ATOM     12  O   UNL     1      -5.567 -19.292  46.295  1.00  0.00    -0.550 OA
ENDBRANCH   9  10
ENDBRANCH   8   9
ENDBRANCH   7   8
ENDBRANCH   6   7
ENDBRANCH   5   6
ENDBRANCH   4   5
ENDBRANCH   3   4
ENDBRANCH   1   3
BRANCH   2  13
ATOM     13  C   UNL     1      -1.256 -22.639  45.966  1.00  0.00     0.027 C 
BRANCH  13  14
ATOM     14  C   UNL     1      -1.891 -23.886  45.331  1.00  0.00     0.004 C 
BRANCH  14  15
ATOM     15  C   UNL     1      -3.366 -24.069  45.748  1.00  0.00     0.000 C 
BRANCH  15  16
ATOM     16  C   UNL     1      -3.769 -25.539  45.969  1.00  0.00     0.000 C 
BRANCH  16  17
ATOM     17  C   UNL     1      -3.430 -26.486  44.803  1.00  0.00    -0.000 C 
BRANCH  17  18
ATOM     18  C   UNL     1      -4.569 -27.439  44.390  1.00  0.00    -0.000 C 
BRANCH  18  19
ATOM     19  C   UNL     1      -4.255 -28.928  44.646  1.00  0.00    -0.003 C 
ATOM     20  C   UNL     1      -2.842 -29.145  45.186  1.00  0.00     0.004 C 
ENDBRANCH  18  19
ENDBRANCH  17  18
ENDBRANCH  16  17
ENDBRANCH  15  16
ENDBRANCH  14  15
ENDBRANCH  13  14
ENDBRANCH   2  13
TORSDOF 15
ENDMDL
