MODEL 1
REMARK VINA RESULT:    -3.740      0.000      0.000
REMARK INTER + INTRA:          -8.845
REMARK INTER:                  -6.801
REMARK INTRA:                  -2.044
REMARK UNBOUND:                -2.044
REMARK SMILES CCCCCCCCCCCCCCCC(=O)[O-]
REMARK SMILES IDX 9 1 10 2 11 3 12 4 13 5 14 6 15 7 16 8 17 9 18 10 8 11 7 12
REMARK SMILES IDX 6 13 5 14 4 15 3 16 2 17 1 18
REMARK H PARENT
REMARK Flexibility Score: inf
ROOT
ATOM      1  C   UNL     1      61.026  24.830  23.530  1.00  0.00     0.000 C 
ENDROOT
BRANCH   1   2
ATOM      2  C   UNL     1      61.460  24.599  24.985  1.00  0.00     0.000 C 
BRANCH   2   3
ATOM      3  C   UNL     1      61.333  23.118  25.366  1.00  0.00     0.000 C 
BRANCH   3   4
ATOM      4  C   UNL     1      59.865  22.667  25.334  1.00  0.00     0.000 C 
BRANCH   4   5
ATOM      5  C   UNL     1      59.648  21.387  24.509  1.00  0.00     0.000 C 
BRANCH   5   6
ATOM      6  C   UNL     1      58.455  21.428  23.534  1.00  0.00     0.006 C 
BRANCH   6   7
ATOM      7  C   UNL     1      57.363  22.444  23.921  1.00  0.00     0.053 C 
BRANCH   7   8
ATOM      8  C   UNL     1      56.101  22.253  23.136  1.00  0.00     0.041 C 
ATOM      9  O   UNL     1      55.928  22.870  22.052  1.00  0.00    -0.550 OA
ATOM     10  O   UNL     1      55.131  21.362  23.579  1.00  0.00    -0.550 OA
ENDBRANCH   7   8
ENDBRANCH   6   7
ENDBRANCH   5   6
ENDBRANCH   4   5
ENDBRANCH   3   4
ENDBRANCH   2   3
ENDBRANCH   1   2
BRANCH   1  11
ATOM     11  C   UNL     1      62.075  25.604  22.713  1.00  0.00     0.000 C 
BRANCH  11  12
ATOM     12  C   UNL     1      63.501  25.072  22.931  1.00  0.00    -0.000 C 
BRANCH  12  13
ATOM     13  C   UNL     1      63.851  23.894  22.002  1.00  0.00    -0.000 C 
BRANCH  13  14
ATOM     14  C   UNL     1      63.758  22.496  22.643  1.00  0.00    -0.000 C 
BRANCH  14  15
ATOM     15  C   UNL     1      62.922  21.509  21.812  1.00  0.00    -0.000 C 
BRANCH  15  16
ATOM     16  C   UNL     1      61.585  22.106  21.336  1.00  0.00    -0.000 C 
BRANCH  16  17
ATOM     17  C   UNL     1      61.333  22.015  19.819  1.00  0.00    -0.003 C 
ATOM     18  C   UNL     1      62.616  22.075  18.993  1.00  0.00     0.004 C 
ENDBRANCH  16  17
ENDBRANCH  15  16
ENDBRANCH  14  15
ENDBRANCH  13  14
ENDBRANCH  12  13
ENDBRANCH  11  12
ENDBRANCH   1  11
TORSDOF 14
ENDMDL
MODEL 2
REMARK VINA RESULT:    -3.485      2.716      5.710
REMARK INTER + INTRA:          -8.381
REMARK INTER:                  -6.747
REMARK INTRA:                  -1.634
REMARK UNBOUND:                -2.044
REMARK SMILES CCCCCCCCCCCCCCCC(=O)[O-]
REMARK SMILES IDX 9 1 10 2 11 3 12 4 13 5 14 6 15 7 16 8 17 9 18 10 8 11 7 12
REMARK SMILES IDX 6 13 5 14 4 15 3 16 2 17 1 18
REMARK H PARENT
REMARK Flexibility Score: inf
ROOT
ATOM      1  C   UNL     1      57.312  22.311  22.775  1.00  0.00     0.000 C 
ENDROOT
BRANCH   1   2
ATOM      2  C   UNL     1      57.867  20.883  22.658  1.00  0.00     0.000 C 
BRANCH   2   3
ATOM      3  C   UNL     1      59.264  20.889  22.023  1.00  0.00     0.000 C 
BRANCH   3   4
ATOM      4  C   UNL     1      59.788  22.324  21.865  1.00  0.00     0.000 C 
BRANCH   4   5
ATOM      5  C   UNL     1      61.321  22.417  21.958  1.00  0.00     0.000 C 
BRANCH   5   6
ATOM      6  C   UNL     1      62.092  21.310  21.213  1.00  0.00     0.006 C 
BRANCH   6   7
ATOM      7  C   UNL     1      63.122  21.839  20.198  1.00  0.00     0.053 C 
BRANCH   7   8
ATOM      8  C   UNL     1      62.501  22.180  18.877  1.00  0.00     0.041 C 
ATOM      9  O   UNL     1      61.273  21.980  18.683  1.00  0.00    -0.550 OA
ATOM     10  O   UNL     1      63.268  22.760  17.874  1.00  0.00    -0.550 OA
ENDBRANCH   7   8
ENDBRANCH   6   7
ENDBRANCH   5   6
ENDBRANCH   4   5
ENDBRANCH   3   4
ENDBRANCH   2   3
ENDBRANCH   1   2
BRANCH   1  11
ATOM     11  C   UNL     1      57.126  22.757  24.235  1.00  0.00     0.000 C 
BRANCH  11  12
ATOM     12  C   UNL     1      58.343  23.525  24.776  1.00  0.00    -0.000 C 
BRANCH  12  13
ATOM     13  C   UNL     1      59.277  22.648  25.632  1.00  0.00    -0.000 C 
BRANCH  13  14
ATOM     14  C   UNL     1      60.759  23.064  25.630  1.00  0.00    -0.000 C 
BRANCH  14  15
ATOM     15  C   UNL     1      61.005  24.409  24.927  1.00  0.00    -0.000 C 
BRANCH  15  16
ATOM     16  C   UNL     1      62.473  24.868  25.007  1.00  0.00    -0.000 C 
BRANCH  16  17
ATOM     17  C   UNL     1      62.871  25.958  23.994  1.00  0.00    -0.003 C 
ATOM     18  C   UNL     1      63.145  25.408  22.596  1.00  0.00     0.004 C 
ENDBRANCH  16  17
ENDBRANCH  15  16
ENDBRANCH  14  15
ENDBRANCH  13  14
ENDBRANCH  12  13
ENDBRANCH  11  12
ENDBRANCH   1  11
TORSDOF 14
ENDMDL
MODEL 3
REMARK VINA RESULT:    -3.454      2.229      5.611
REMARK INTER + INTRA:          -8.325
REMARK INTER:                  -7.012
REMARK INTRA:                  -1.313
REMARK UNBOUND:                -2.044
REMARK SMILES CCCCCCCCCCCCCCCC(=O)[O-]
REMARK SMILES IDX 9 1 10 2 11 3 12 4 13 5 14 6 15 7 16 8 17 9 18 10 8 11 7 12
REMARK SMILES IDX 6 13 5 14 4 15 3 16 2 17 1 18
REMARK H PARENT
REMARK Flexibility Score: inf
ROOT
ATOM      1  C   UNL     1      60.708  24.911  23.573  1.00  0.00     0.000 C 
ENDROOT
BRANCH   1   2
ATOM      2  C   UNL     1      62.120  25.507  23.454  1.00  0.00     0.000 C 
BRANCH   2   3
ATOM      3  C   UNL     1      62.817  25.013  22.180  1.00  0.00     0.000 C 
BRANCH   3   4
ATOM      4  C   UNL     1      64.093  24.231  22.521  1.00  0.00     0.000 C 
BRANCH   4   5
ATOM      5  C   UNL     1      63.939  22.714  22.320  1.00  0.00     0.000 C 
BRANCH   5   6
ATOM      6  C   UNL     1      64.108  22.222  20.869  1.00  0.00     0.006 C 
BRANCH   6   7
ATOM      7  C   UNL     1      62.969  21.309  20.380  1.00  0.00     0.053 C 
BRANCH   7   8
ATOM      8  C   UNL     1      61.833  22.082  19.781  1.00  0.00     0.041 C 
ATOM      9  O   UNL     1      61.878  22.447  18.578  1.00  0.00    -0.550 OA
ATOM     10  O   UNL     1      60.704  22.364  20.541  1.00  0.00    -0.550 OA
ENDBRANCH   7   8
ENDBRANCH   6   7
ENDBRANCH   5   6
ENDBRANCH   4   5
ENDBRANCH   3   4
ENDBRANCH   2   3
ENDBRANCH   1   2
BRANCH   1  11
ATOM     11  C   UNL     1      60.505  24.123  24.879  1.00  0.00     0.000 C 
BRANCH  11  12
ATOM     12  C   UNL     1      60.789  22.621  24.710  1.00  0.00    -0.000 C 
BRANCH  12  13
ATOM     13  C   UNL     1      59.542  21.745  24.939  1.00  0.00    -0.000 C 
BRANCH  13  14
ATOM     14  C   UNL     1      58.863  21.217  23.662  1.00  0.00    -0.000 C 
BRANCH  14  15
ATOM     15  C   UNL     1      58.080  22.302  22.906  1.00  0.00    -0.000 C 
BRANCH  15  16
ATOM     16  C   UNL     1      56.733  22.644  23.570  1.00  0.00    -0.000 C 
BRANCH  16  17
ATOM     17  C   UNL     1      55.522  21.858  23.032  1.00  0.00    -0.003 C 
ATOM     18  C   UNL     1      54.219  22.195  23.754  1.00  0.00     0.004 C 
ENDBRANCH  16  17
ENDBRANCH  15  16
ENDBRANCH  14  15
ENDBRANCH  13  14
ENDBRANCH  12  13
ENDBRANCH  11  12
ENDBRANCH   1  11
TORSDOF 14
ENDMDL
MODEL 4
REMARK VINA RESULT:    -3.417      2.959      4.885
REMARK INTER + INTRA:          -8.258
REMARK INTER:                  -6.139
REMARK INTRA:                  -2.119
REMARK UNBOUND:                -2.044
REMARK SMILES CCCCCCCCCCCCCCCC(=O)[O-]
REMARK SMILES IDX 9 1 10 2 11 3 12 4 13 5 14 6 15 7 16 8 17 9 18 10 8 11 7 12
REMARK SMILES IDX 6 13 5 14 4 15 3 16 2 17 1 18
REMARK H PARENT
REMARK Flexibility Score: inf
ROOT
ATOM      1  C   UNL     1      59.252  23.242  24.906  1.00  0.00     0.000 C 
ENDROOT
BRANCH   1   2
ATOM      2  C   UNL     1      57.750  23.135  24.603  1.00  0.00     0.000 C 
BRANCH   2   3
ATOM      3  C   UNL     1      57.503  22.284  23.351  1.00  0.00     0.000 C 
BRANCH   3   4
ATOM      4  C   UNL     1      58.684  22.389  22.375  1.00  0.00     0.000 C 
BRANCH   4   5
ATOM      5  C   UNL     1      59.294  21.022  22.021  1.00  0.00     0.000 C 
BRANCH   5   6
ATOM      6  C   UNL     1      60.696  21.074  21.383  1.00  0.00     0.006 C 
BRANCH   6   7
ATOM      7  C   UNL     1      60.893  22.238  20.395  1.00  0.00     0.053 C 
BRANCH   7   8
ATOM      8  C   UNL     1      62.114  22.065  19.543  1.00  0.00     0.041 C 
ATOM      9  O   UNL     1      62.126  22.490  18.358  1.00  0.00    -0.550 OA
ATOM     10  O   UNL     1      63.255  21.473  20.070  1.00  0.00    -0.550 OA
ENDBRANCH   7   8
ENDBRANCH   6   7
ENDBRANCH   5   6
ENDBRANCH   4   5
ENDBRANCH   3   4
ENDBRANCH   2   3
ENDBRANCH   1   2
BRANCH   1  11
ATOM     11  C   UNL     1      59.672  22.402  26.125  1.00  0.00     0.000 C 
BRANCH  11  12
ATOM     12  C   UNL     1      60.382  21.098  25.725  1.00  0.00    -0.000 C 
BRANCH  12  13
ATOM     13  C   UNL     1      61.913  21.246  25.643  1.00  0.00    -0.000 C 
BRANCH  13  14
ATOM     14  C   UNL     1      62.460  21.701  24.277  1.00  0.00    -0.000 C 
BRANCH  14  15
ATOM     15  C   UNL     1      63.014  23.135  24.299  1.00  0.00    -0.000 C 
BRANCH  15  16
ATOM     16  C   UNL     1      63.347  23.671  22.894  1.00  0.00    -0.000 C 
BRANCH  16  17
ATOM     17  C   UNL     1      62.405  24.774  22.376  1.00  0.00    -0.003 C 
ATOM     18  C   UNL     1      61.753  25.582  23.497  1.00  0.00     0.004 C 
ENDBRANCH  16  17
ENDBRANCH  15  16
ENDBRANCH  14  15
ENDBRANCH  13  14
ENDBRANCH  12  13
ENDBRANCH  11  12
ENDBRANCH   1  11
TORSDOF 14
ENDMDL
MODEL 5
REMARK VINA RESULT:    -3.325      2.882      4.991
REMARK INTER + INTRA:          -8.090
REMARK INTER:                  -6.116
REMARK INTRA:                  -1.974
REMARK UNBOUND:                -2.044
REMARK SMILES CCCCCCCCCCCCCCCC(=O)[O-]
REMARK SMILES IDX 9 1 10 2 11 3 12 4 13 5 14 6 15 7 16 8 17 9 18 10 8 11 7 12
REMARK SMILES IDX 6 13 5 14 4 15 3 16 2 17 1 18
REMARK H PARENT
REMARK Flexibility Score: inf
ROOT
ATOM      1  C   UNL     1      57.322  22.424  24.159  1.00  0.00     0.000 C 
ENDROOT
BRANCH   1   2
ATOM      2  C   UNL     1      58.124  23.496  24.912  1.00  0.00     0.000 C 
BRANCH   2   3
ATOM      3  C   UNL     1      59.260  22.861  25.723  1.00  0.00     0.000 C 
BRANCH   3   4
ATOM      4  C   UNL     1      60.569  23.642  25.539  1.00  0.00     0.000 C 
BRANCH   4   5
ATOM      5  C   UNL     1      61.564  22.936  24.603  1.00  0.00     0.000 C 
BRANCH   5   6
ATOM      6  C   UNL     1      63.031  23.386  24.743  1.00  0.00     0.006 C 
BRANCH   6   7
ATOM      7  C   UNL     1      63.582  24.124  23.509  1.00  0.00     0.053 C 
BRANCH   7   8
ATOM      8  C   UNL     1      63.086  25.536  23.418  1.00  0.00     0.041 C 
ATOM      9  O   UNL     1      62.177  25.837  22.601  1.00  0.00    -0.550 OA
ATOM     10  O   UNL     1      63.597  26.512  24.265  1.00  0.00    -0.550 OA
ENDBRANCH   7   8
ENDBRANCH   6   7
ENDBRANCH   5   6
ENDBRANCH   4   5
ENDBRANCH   3   4
ENDBRANCH   2   3
ENDBRANCH   1   2
BRANCH   1  11
ATOM     11  C   UNL     1      57.842  22.190  22.730  1.00  0.00     0.000 C 
BRANCH  11  12
ATOM     12  C   UNL     1      58.663  20.896  22.606  1.00  0.00    -0.000 C 
BRANCH  12  13
ATOM     13  C   UNL     1      59.947  21.076  21.774  1.00  0.00    -0.000 C 
BRANCH  13  14
ATOM     14  C   UNL     1      60.166  22.486  21.195  1.00  0.00    -0.000 C 
BRANCH  14  15
ATOM     15  C   UNL     1      61.631  22.757  20.811  1.00  0.00    -0.000 C 
BRANCH  15  16
ATOM     16  C   UNL     1      62.131  21.846  19.675  1.00  0.00    -0.000 C 
BRANCH  16  17
ATOM     17  C   UNL     1      63.261  20.875  20.067  1.00  0.00    -0.003 C 
ATOM     18  C   UNL     1      63.772  21.091  21.490  1.00  0.00     0.004 C 
ENDBRANCH  16  17
ENDBRANCH  15  16
ENDBRANCH  14  15
ENDBRANCH  13  14
ENDBRANCH  12  13
ENDBRANCH  11  12
ENDBRANCH   1  11
TORSDOF 14
ENDMDL
MODEL 6
REMARK VINA RESULT:    -3.318      2.512      5.386
REMARK INTER + INTRA:          -8.078
REMARK INTER:                  -5.975
REMARK INTRA:                  -2.103
REMARK UNBOUND:                -2.044
REMARK SMILES CCCCCCCCCCCCCCCC(=O)[O-]
REMARK SMILES IDX 9 1 10 2 11 3 12 4 13 5 14 6 15 7 16 8 17 9 18 10 8 11 7 12
REMARK SMILES IDX 6 13 5 14 4 15 3 16 2 17 1 18
REMARK H PARENT
REMARK Flexibility Score: inf
ROOT
ATOM      1  C   UNL     1      63.206  22.493  20.863  1.00  0.00     0.000 C 
ENDROOT
BRANCH   1   2
ATOM      2  C   UNL     1      64.121  21.469  21.553  1.00  0.00     0.000 C 
BRANCH   2   3
ATOM      3  C   UNL     1      64.125  21.675  23.073  1.00  0.00     0.000 C 
BRANCH   3   4
ATOM      4  C   UNL     1      62.756  21.327  23.677  1.00  0.00     0.000 C 
BRANCH   4   5
ATOM      5  C   UNL     1      62.336  22.286  24.804  1.00  0.00     0.000 C 
BRANCH   5   6
ATOM      6  C   UNL     1      63.162  23.583  24.905  1.00  0.00     0.006 C 
BRANCH   6   7
ATOM      7  C   UNL     1      62.311  24.865  24.963  1.00  0.00     0.053 C 
BRANCH   7   8
ATOM      8  C   UNL     1      61.812  25.283  23.612  1.00  0.00     0.041 C 
ATOM      9  O   UNL     1      60.580  25.439  23.412  1.00  0.00    -0.550 OA
ATOM     10  O   UNL     1      62.712  25.541  22.585  1.00  0.00    -0.550 OA
ENDBRANCH   7   8
ENDBRANCH   6   7
ENDBRANCH   5   6
ENDBRANCH   4   5
ENDBRANCH   3   4
ENDBRANCH   2   3
ENDBRANCH   1   2
BRANCH   1  11
ATOM     11  C   UNL     1      62.520  21.924  19.609  1.00  0.00     0.000 C 
BRANCH  11  12
ATOM     12  C   UNL     1      60.988  22.047  19.669  1.00  0.00    -0.000 C 
BRANCH  12  13
ATOM     13  C   UNL     1      60.385  21.429  20.944  1.00  0.00    -0.000 C 
BRANCH  13  14
ATOM     14  C   UNL     1      59.644  22.413  21.868  1.00  0.00    -0.000 C 
BRANCH  14  15
ATOM     15  C   UNL     1      59.048  21.736  23.113  1.00  0.00    -0.000 C 
BRANCH  15  16
ATOM     16  C   UNL     1      58.196  22.693  23.967  1.00  0.00    -0.000 C 
BRANCH  16  17
ATOM     17  C   UNL     1      58.697  22.904  25.408  1.00  0.00    -0.003 C 
ATOM     18  C   UNL     1      58.389  24.297  25.953  1.00  0.00     0.004 C 
ENDBRANCH  16  17
ENDBRANCH  15  16
ENDBRANCH  14  15
ENDBRANCH  13  14
ENDBRANCH  12  13
ENDBRANCH  11  12
ENDBRANCH   1  11
TORSDOF 14
ENDMDL
MODEL 7
REMARK VINA RESULT:    -3.273      2.787      5.224
REMARK INTER + INTRA:          -7.996
REMARK INTER:                  -6.414
REMARK INTRA:                  -1.582
REMARK UNBOUND:                -2.044
REMARK SMILES CCCCCCCCCCCCCCCC(=O)[O-]
REMARK SMILES IDX 9 1 10 2 11 3 12 4 13 5 14 6 15 7 16 8 17 9 18 10 8 11 7 12
REMARK SMILES IDX 6 13 5 14 4 15 3 16 2 17 1 18
REMARK H PARENT
REMARK Flexibility Score: inf
ROOT
ATOM      1  C   UNL     1      61.843  24.828  25.162  1.00  0.00     0.000 C 
ENDROOT
BRANCH   1   2
ATOM      2  C   UNL     1      62.889  25.725  24.483  1.00  0.00     0.000 C 
BRANCH   2   3
ATOM      3  C   UNL     1      62.773  25.642  22.955  1.00  0.00     0.000 C 
BRANCH   3   4
ATOM      4  C   UNL     1      63.805  24.661  22.379  1.00  0.00     0.000 C 
BRANCH   4   5
ATOM      5  C   UNL     1      63.162  23.431  21.717  1.00  0.00     0.000 C 
BRANCH   5   6
ATOM      6  C   UNL     1      61.625  23.363  21.812  1.00  0.00     0.006 C 
BRANCH   6   7
ATOM      7  C   UNL     1      60.975  22.402  20.799  1.00  0.00     0.053 C 
BRANCH   7   8
ATOM      8  C   UNL     1      61.945  21.924  19.761  1.00  0.00     0.041 C 
ATOM      9  O   UNL     1      61.953  22.442  18.614  1.00  0.00    -0.550 OA
ATOM     10  O   UNL     1      62.869  20.934  20.072  1.00  0.00    -0.550 OA
ENDBRANCH   7   8
ENDBRANCH   6   7
ENDBRANCH   5   6
ENDBRANCH   4   5
ENDBRANCH   3   4
ENDBRANCH   2   3
ENDBRANCH   1   2
BRANCH   1  11
ATOM     11  C   UNL     1      62.478  23.696  25.987  1.00  0.00     0.000 C 
BRANCH  11  12
ATOM     12  C   UNL     1      62.409  22.336  25.274  1.00  0.00    -0.000 C 
BRANCH  12  13
ATOM     13  C   UNL     1      61.168  21.512  25.668  1.00  0.00    -0.000 C 
BRANCH  13  14
ATOM     14  C   UNL     1      60.099  21.361  24.570  1.00  0.00    -0.000 C 
BRANCH  14  15
ATOM     15  C   UNL     1      58.985  22.417  24.667  1.00  0.00    -0.000 C 
BRANCH  15  16
ATOM     16  C   UNL     1      58.122  22.497  23.394  1.00  0.00    -0.000 C 
BRANCH  16  17
ATOM     17  C   UNL     1      57.011  21.436  23.291  1.00  0.00    -0.003 C 
ATOM     18  C   UNL     1      55.615  22.039  23.144  1.00  0.00     0.004 C 
ENDBRANCH  16  17
ENDBRANCH  15  16
ENDBRANCH  14  15
ENDBRANCH  13  14
ENDBRANCH  12  13
ENDBRANCH  11  12
ENDBRANCH   1  11
TORSDOF 14
ENDMDL
MODEL 8
REMARK VINA RESULT:    -3.218      2.594      5.086
REMARK INTER + INTRA:          -7.895
REMARK INTER:                  -6.074
REMARK INTRA:                  -1.821
REMARK UNBOUND:                -2.044
REMARK SMILES CCCCCCCCCCCCCCCC(=O)[O-]
REMARK SMILES IDX 9 1 10 2 11 3 12 4 13 5 14 6 15 7 16 8 17 9 18 10 8 11 7 12
REMARK SMILES IDX 6 13 5 14 4 15 3 16 2 17 1 18
REMARK H PARENT
REMARK Flexibility Score: inf
ROOT
ATOM      1  C   UNL     1      61.762  25.742  22.918  1.00  0.00     0.000 C 
ENDROOT
BRANCH   1   2
ATOM      2  C   UNL     1      63.131  25.062  22.759  1.00  0.00     0.000 C 
BRANCH   2   3
ATOM      3  C   UNL     1      62.982  23.672  22.128  1.00  0.00     0.000 C 
BRANCH   3   4
ATOM      4  C   UNL     1      63.671  22.603  22.989  1.00  0.00     0.000 C 
BRANCH   4   5
ATOM      5  C   UNL     1      63.806  21.249  22.270  1.00  0.00     0.000 C 
BRANCH   5   6
ATOM      6  C   UNL     1      62.755  20.979  21.176  1.00  0.00     0.006 C 
BRANCH   6   7
ATOM      7  C   UNL     1      63.323  20.989  19.745  1.00  0.00     0.053 C 
BRANCH   7   8
ATOM      8  C   UNL     1      62.619  21.971  18.857  1.00  0.00     0.041 C 
ATOM      9  O   UNL     1      63.280  22.725  18.096  1.00  0.00    -0.550 OA
ATOM     10  O   UNL     1      61.231  22.025  18.839  1.00  0.00    -0.550 OA
ENDBRANCH   7   8
ENDBRANCH   6   7
ENDBRANCH   5   6
ENDBRANCH   4   5
ENDBRANCH   3   4
ENDBRANCH   2   3
ENDBRANCH   1   2
BRANCH   1  11
ATOM     11  C   UNL     1      60.831  24.981  23.878  1.00  0.00     0.000 C 
BRANCH  11  12
ATOM     12  C   UNL     1      61.510  24.644  25.215  1.00  0.00    -0.000 C 
BRANCH  12  13
ATOM     13  C   UNL     1      61.186  23.223  25.713  1.00  0.00    -0.000 C 
BRANCH  13  14
ATOM     14  C   UNL     1      59.736  22.757  25.484  1.00  0.00    -0.000 C 
BRANCH  14  15
ATOM     15  C   UNL     1      59.648  21.359  24.849  1.00  0.00    -0.000 C 
BRANCH  15  16
ATOM     16  C   UNL     1      58.513  21.240  23.815  1.00  0.00    -0.000 C 
BRANCH  16  17
ATOM     17  C   UNL     1      58.399  22.422  22.834  1.00  0.00    -0.003 C 
ATOM     18  C   UNL     1      59.481  22.415  21.756  1.00  0.00     0.004 C 
ENDBRANCH  16  17
ENDBRANCH  15  16
ENDBRANCH  14  15
ENDBRANCH  13  14
ENDBRANCH  12  13
ENDBRANCH  11  12
ENDBRANCH   1  11
TORSDOF 14
ENDMDL
MODEL 9
REMARK VINA RESULT:    -3.202      2.046      4.629
REMARK INTER + INTRA:          -7.867
REMARK INTER:                  -6.180
REMARK INTRA:                  -1.687
REMARK UNBOUND:                -2.044
REMARK SMILES CCCCCCCCCCCCCCCC(=O)[O-]
REMARK SMILES IDX 9 1 10 2 11 3 12 4 13 5 14 6 15 7 16 8 17 9 18 10 8 11 7 12
REMARK SMILES IDX 6 13 5 14 4 15 3 16 2 17 1 18
REMARK H PARENT
REMARK Flexibility Score: inf
ROOT
ATOM      1  C   UNL     1      63.577  23.077  22.206  1.00  0.00     0.000 C 
ENDROOT
BRANCH   1   2
ATOM      2  C   UNL     1      63.808  24.575  22.457  1.00  0.00     0.000 C 
BRANCH   2   3
ATOM      3  C   UNL     1      62.521  25.375  22.217  1.00  0.00     0.000 C 
BRANCH   3   4
ATOM      4  C   UNL     1      61.852  25.752  23.547  1.00  0.00     0.000 C 
BRANCH   4   5
ATOM      5  C   UNL     1      62.770  25.539  24.762  1.00  0.00     0.000 C 
BRANCH   5   6
ATOM      6  C   UNL     1      62.163  24.702  25.906  1.00  0.00     0.006 C 
BRANCH   6   7
ATOM      7  C   UNL     1      61.653  23.317  25.467  1.00  0.00     0.053 C 
BRANCH   7   8
ATOM      8  C   UNL     1      60.184  23.145  25.708  1.00  0.00     0.041 C 
ATOM      9  O   UNL     1      59.703  21.999  25.908  1.00  0.00    -0.550 OA
ATOM     10  O   UNL     1      59.349  24.255  25.753  1.00  0.00    -0.550 OA
ENDBRANCH   7   8
ENDBRANCH   6   7
ENDBRANCH   5   6
ENDBRANCH   4   5
ENDBRANCH   3   4
ENDBRANCH   2   3
ENDBRANCH   1   2
BRANCH   1  11
ATOM     11  C   UNL     1      64.125  22.613  20.846  1.00  0.00     0.000 C 
BRANCH  11  12
ATOM     12  C   UNL     1      63.009  22.211  19.867  1.00  0.00    -0.000 C 
BRANCH  12  13
ATOM     13  C   UNL     1      61.958  21.281  20.503  1.00  0.00    -0.000 C 
BRANCH  13  14
ATOM     14  C   UNL     1      60.559  21.898  20.690  1.00  0.00    -0.000 C 
BRANCH  14  15
ATOM     15  C   UNL     1      59.902  21.501  22.023  1.00  0.00    -0.000 C 
BRANCH  15  16
ATOM     16  C   UNL     1      58.692  22.384  22.381  1.00  0.00    -0.000 C 
BRANCH  16  17
ATOM     17  C   UNL     1      57.599  21.687  23.213  1.00  0.00    -0.003 C 
ATOM     18  C   UNL     1      56.604  22.664  23.836  1.00  0.00     0.004 C 
ENDBRANCH  16  17
ENDBRANCH  15  16
ENDBRANCH  14  15
ENDBRANCH  13  14
ENDBRANCH  12  13
ENDBRANCH  11  12
ENDBRANCH   1  11
TORSDOF 14
ENDMDL
