MODEL 1
REMARK VINA RESULT:    -2.701      0.000      0.000
REMARK INTER + INTRA:          -5.932
REMARK INTER:                  -4.279
REMARK INTRA:                  -1.653
REMARK UNBOUND:                -1.653
REMARK SMILES CCCCCCCCCCCC(=O)[O-]
REMARK SMILES IDX 7 1 8 2 9 3 10 4 11 5 12 6 13 7 14 8 6 9 5 10 4 11 3 12 2 13
REMARK SMILES IDX 1 14
REMARK H PARENT
REMARK Flexibility Score: inf
ROOT
ATOM      1  C   UNL     1      22.407  68.231  18.692  1.00  0.00     0.000 C 
ENDROOT
BRANCH   1   2
ATOM      2  C   UNL     1      21.215  67.463  19.291  1.00  0.00     0.000 C 
BRANCH   2   3
ATOM      3  C   UNL     1      21.294  65.951  19.026  1.00  0.00     0.000 C 
BRANCH   3   4
ATOM      4  C   UNL     1      22.622  65.533  18.372  1.00  0.00     0.006 C 
BRANCH   4   5
ATOM      5  C   UNL     1      22.419  64.981  16.955  1.00  0.00     0.053 C 
BRANCH   5   6
ATOM      6  C   UNL     1      23.396  65.569  15.983  1.00  0.00     0.041 C 
ATOM      7  O   UNL     1      24.274  66.380  16.378  1.00  0.00    -0.550 OA
ATOM      8  O   UNL     1      23.318  65.241  14.635  1.00  0.00    -0.550 OA
ENDBRANCH   5   6
ENDBRANCH   4   5
ENDBRANCH   3   4
ENDBRANCH   2   3
ENDBRANCH   1   2
BRANCH   1   9
ATOM      9  C   UNL     1      22.033  69.657  18.256  1.00  0.00     0.000 C 
BRANCH   9  10
ATOM     10  C   UNL     1      21.138  69.681  17.004  1.00  0.00    -0.000 C 
BRANCH  10  11
ATOM     11  C   UNL     1      21.790  68.956  15.813  1.00  0.00    -0.000 C 
BRANCH  11  12
ATOM     12  C   UNL     1      20.825  67.995  15.084  1.00  0.00    -0.000 C 
BRANCH  12  13
ATOM     13  C   UNL     1      19.701  67.457  15.984  1.00  0.00    -0.003 C 
ATOM     14  C   UNL     1      19.286  66.031  15.630  1.00  0.00     0.004 C 
ENDBRANCH  12  13
ENDBRANCH  11  12
ENDBRANCH  10  11
ENDBRANCH   9  10
ENDBRANCH   1   9
TORSDOF 10
ENDMDL
MODEL 2
REMARK VINA RESULT:    -2.690      3.027      4.772
REMARK INTER + INTRA:          -5.916
REMARK INTER:                  -4.623
REMARK INTRA:                  -1.293
REMARK UNBOUND:                -1.653
REMARK SMILES CCCCCCCCCCCC(=O)[O-]
REMARK SMILES IDX 7 1 8 2 9 3 10 4 11 5 12 6 13 7 14 8 6 9 5 10 4 11 3 12 2 13
REMARK SMILES IDX 1 14
REMARK H PARENT
REMARK Flexibility Score: inf
ROOT
ATOM      1  C   UNL     1      22.756  67.823  17.664  1.00  0.00     0.000 C 
ENDROOT
BRANCH   1   2
ATOM      2  C   UNL     1      22.380  68.942  18.651  1.00  0.00     0.000 C 
BRANCH   2   3
ATOM      3  C   UNL     1      22.586  70.346  18.058  1.00  0.00     0.000 C 
BRANCH   3   4
ATOM      4  C   UNL     1      21.484  70.734  17.057  1.00  0.00     0.006 C 
BRANCH   4   5
ATOM      5  C   UNL     1      22.030  70.900  15.633  1.00  0.00     0.053 C 
BRANCH   5   6
ATOM      6  C   UNL     1      22.513  72.296  15.381  1.00  0.00     0.041 C 
ATOM      7  O   UNL     1      23.732  72.580  15.515  1.00  0.00    -0.550 OA
ATOM      8  O   UNL     1      21.609  73.290  15.025  1.00  0.00    -0.550 OA
ENDBRANCH   5   6
ENDBRANCH   4   5
ENDBRANCH   3   4
ENDBRANCH   2   3
ENDBRANCH   1   2
BRANCH   1   9
ATOM      9  C   UNL     1      22.538  66.419  18.251  1.00  0.00     0.000 C 
BRANCH   9  10
ATOM     10  C   UNL     1      21.346  66.359  19.222  1.00  0.00    -0.000 C 
BRANCH  10  11
ATOM     11  C   UNL     1      20.043  65.944  18.514  1.00  0.00    -0.000 C 
BRANCH  11  12
ATOM     12  C   UNL     1      18.897  66.962  18.704  1.00  0.00    -0.000 C 
BRANCH  12  13
ATOM     13  C   UNL     1      18.903  68.092  17.661  1.00  0.00    -0.003 C 
ATOM     14  C   UNL     1      19.267  67.607  16.260  1.00  0.00     0.004 C 
ENDBRANCH  12  13
ENDBRANCH  11  12
ENDBRANCH  10  11
ENDBRANCH   9  10
ENDBRANCH   1   9
TORSDOF 10
ENDMDL
MODEL 3
REMARK VINA RESULT:    -2.646      1.662      3.027
REMARK INTER + INTRA:          -5.846
REMARK INTER:                  -4.694
REMARK INTRA:                  -1.152
REMARK UNBOUND:                -1.653
REMARK SMILES CCCCCCCCCCCC(=O)[O-]
REMARK SMILES IDX 7 1 8 2 9 3 10 4 11 5 12 6 13 7 14 8 6 9 5 10 4 11 3 12 2 13
REMARK SMILES IDX 1 14
REMARK H PARENT
REMARK Flexibility Score: inf
ROOT
ATOM      1  C   UNL     1      18.774  65.702  18.766  1.00  0.00     0.000 C 
ENDROOT
BRANCH   1   2
ATOM      2  C   UNL     1      20.061  65.107  18.167  1.00  0.00     0.000 C 
BRANCH   2   3
ATOM      3  C   UNL     1      21.222  65.079  19.173  1.00  0.00     0.000 C 
BRANCH   3   4
ATOM      4  C   UNL     1      22.600  65.113  18.489  1.00  0.00     0.006 C 
BRANCH   4   5
ATOM      5  C   UNL     1      22.938  66.506  17.940  1.00  0.00     0.053 C 
BRANCH   5   6
ATOM      6  C   UNL     1      23.145  66.484  16.457  1.00  0.00     0.041 C 
ATOM      7  O   UNL     1      24.230  66.067  15.973  1.00  0.00    -0.550 OA
ATOM      8  O   UNL     1      22.148  66.952  15.609  1.00  0.00    -0.550 OA
ENDBRANCH   5   6
ENDBRANCH   4   5
ENDBRANCH   3   4
ENDBRANCH   2   3
ENDBRANCH   1   2
BRANCH   1   9
ATOM      9  C   UNL     1      18.873  67.219  18.993  1.00  0.00     0.000 C 
BRANCH   9  10
ATOM     10  C   UNL     1      19.252  67.989  17.715  1.00  0.00    -0.000 C 
BRANCH  10  11
ATOM     11  C   UNL     1      20.374  69.013  17.967  1.00  0.00    -0.000 C 
BRANCH  11  12
ATOM     12  C   UNL     1      20.691  69.884  16.731  1.00  0.00    -0.000 C 
BRANCH  12  13
ATOM     13  C   UNL     1      22.054  70.591  16.815  1.00  0.00    -0.003 C 
ATOM     14  C   UNL     1      22.775  70.338  18.137  1.00  0.00     0.004 C 
ENDBRANCH  12  13
ENDBRANCH  11  12
ENDBRANCH  10  11
ENDBRANCH   9  10
ENDBRANCH   1   9
TORSDOF 10
ENDMDL
MODEL 4
REMARK VINA RESULT:    -2.640      2.488      4.602
REMARK INTER + INTRA:          -5.836
REMARK INTER:                  -4.143
REMARK INTRA:                  -1.693
REMARK UNBOUND:                -1.653
REMARK SMILES CCCCCCCCCCCC(=O)[O-]
REMARK SMILES IDX 7 1 8 2 9 3 10 4 11 5 12 6 13 7 14 8 6 9 5 10 4 11 3 12 2 13
REMARK SMILES IDX 1 14
REMARK H PARENT
REMARK Flexibility Score: inf
ROOT
ATOM      1  C   UNL     1      19.050  67.254  17.566  1.00  0.00     0.000 C 
ENDROOT
BRANCH   1   2
ATOM      2  C   UNL     1      19.420  66.569  16.239  1.00  0.00     0.000 C 
BRANCH   2   3
ATOM      3  C   UNL     1      20.157  67.511  15.274  1.00  0.00     0.000 C 
BRANCH   3   4
ATOM      4  C   UNL     1      20.282  68.943  15.823  1.00  0.00     0.006 C 
BRANCH   4   5
ATOM      5  C   UNL     1      21.673  69.539  15.569  1.00  0.00     0.053 C 
BRANCH   5   6
ATOM      6  C   UNL     1      21.927  70.744  16.422  1.00  0.00     0.041 C 
ATOM      7  O   UNL     1      22.519  71.747  15.945  1.00  0.00    -0.550 OA
ATOM      8  O   UNL     1      21.533  70.747  17.755  1.00  0.00    -0.550 OA
ENDBRANCH   5   6
ENDBRANCH   4   5
ENDBRANCH   3   4
ENDBRANCH   2   3
ENDBRANCH   1   2
BRANCH   1   9
ATOM      9  C   UNL     1      19.258  66.338  18.784  1.00  0.00     0.000 C 
BRANCH   9  10
ATOM     10  C   UNL     1      20.737  66.221  19.193  1.00  0.00    -0.000 C 
BRANCH  10  11
ATOM     11  C   UNL     1      21.449  67.585  19.182  1.00  0.00    -0.000 C 
BRANCH  11  12
ATOM     12  C   UNL     1      22.833  67.543  18.496  1.00  0.00    -0.000 C 
BRANCH  12  13
ATOM     13  C   UNL     1      23.129  66.206  17.796  1.00  0.00    -0.003 C 
ATOM     14  C   UNL     1      23.556  66.379  16.340  1.00  0.00     0.004 C 
ENDBRANCH  12  13
ENDBRANCH  11  12
ENDBRANCH  10  11
ENDBRANCH   9  10
ENDBRANCH   1   9
TORSDOF 10
ENDMDL
MODEL 5
REMARK VINA RESULT:    -2.618      2.304      4.189
REMARK INTER + INTRA:          -5.802
REMARK INTER:                  -4.231
REMARK INTRA:                  -1.571
REMARK UNBOUND:                -1.653
REMARK SMILES CCCCCCCCCCCC(=O)[O-]
REMARK SMILES IDX 7 1 8 2 9 3 10 4 11 5 12 6 13 7 14 8 6 9 5 10 4 11 3 12 2 13
REMARK SMILES IDX 1 14
REMARK H PARENT
REMARK Flexibility Score: inf
ROOT
ATOM      1  C   UNL     1      20.526  66.420  18.944  1.00  0.00     0.000 C 
ENDROOT
BRANCH   1   2
ATOM      2  C   UNL     1      19.318  66.339  17.994  1.00  0.00     0.000 C 
BRANCH   2   3
ATOM      3  C   UNL     1      19.476  67.243  16.761  1.00  0.00     0.000 C 
BRANCH   3   4
ATOM      4  C   UNL     1      19.909  68.674  17.127  1.00  0.00     0.006 C 
BRANCH   4   5
ATOM      5  C   UNL     1      21.192  69.093  16.395  1.00  0.00     0.053 C 
BRANCH   5   6
ATOM      6  C   UNL     1      22.015  70.039  17.214  1.00  0.00     0.041 C 
ATOM      7  O   UNL     1      22.289  69.769  18.413  1.00  0.00    -0.550 OA
ATOM      8  O   UNL     1      22.457  71.234  16.660  1.00  0.00    -0.550 OA
ENDBRANCH   5   6
ENDBRANCH   4   5
ENDBRANCH   3   4
ENDBRANCH   2   3
ENDBRANCH   1   2
BRANCH   1   9
ATOM      9  C   UNL     1      21.212  65.058  19.146  1.00  0.00     0.000 C 
BRANCH   9  10
ATOM     10  C   UNL     1      22.562  64.959  18.412  1.00  0.00    -0.000 C 
BRANCH  10  11
ATOM     11  C   UNL     1      23.123  66.344  18.044  1.00  0.00    -0.000 C 
BRANCH  11  12
ATOM     12  C   UNL     1      23.663  66.417  16.598  1.00  0.00    -0.000 C 
BRANCH  12  13
ATOM     13  C   UNL     1      23.146  65.285  15.695  1.00  0.00    -0.003 C 
ATOM     14  C   UNL     1      22.096  65.758  14.691  1.00  0.00     0.004 C 
ENDBRANCH  12  13
ENDBRANCH  11  12
ENDBRANCH  10  11
ENDBRANCH   9  10
ENDBRANCH   1   9
TORSDOF 10
ENDMDL
MODEL 6
REMARK VINA RESULT:    -2.593      2.373      4.513
REMARK INTER + INTRA:          -5.762
REMARK INTER:                  -4.175
REMARK INTRA:                  -1.587
REMARK UNBOUND:                -1.653
REMARK SMILES CCCCCCCCCCCC(=O)[O-]
REMARK SMILES IDX 7 1 8 2 9 3 10 4 11 5 12 6 13 7 14 8 6 9 5 10 4 11 3 12 2 13
REMARK SMILES IDX 1 14
REMARK H PARENT
REMARK Flexibility Score: inf
ROOT
ATOM      1  C   UNL     1      22.225  65.768  15.702  1.00  0.00     0.000 C 
ENDROOT
BRANCH   1   2
ATOM      2  C   UNL     1      20.940  66.503  15.281  1.00  0.00     0.000 C 
BRANCH   2   3
ATOM      3  C   UNL     1      21.089  68.032  15.340  1.00  0.00     0.000 C 
BRANCH   3   4
ATOM      4  C   UNL     1      20.032  68.696  16.240  1.00  0.00     0.006 C 
BRANCH   4   5
ATOM      5  C   UNL     1      20.584  69.023  17.634  1.00  0.00     0.053 C 
BRANCH   5   6
ATOM      6  C   UNL     1      21.537  70.178  17.599  1.00  0.00     0.041 C 
ATOM      7  O   UNL     1      21.305  71.170  16.859  1.00  0.00    -0.550 OA
ATOM      8  O   UNL     1      22.697  70.145  18.363  1.00  0.00    -0.550 OA
ENDBRANCH   5   6
ENDBRANCH   4   5
ENDBRANCH   3   4
ENDBRANCH   2   3
ENDBRANCH   1   2
BRANCH   1   9
ATOM      9  C   UNL     1      23.213  66.682  16.444  1.00  0.00     0.000 C 
BRANCH   9  10
ATOM     10  C   UNL     1      23.142  66.517  17.973  1.00  0.00    -0.000 C 
BRANCH  10  11
ATOM     11  C   UNL     1      22.380  65.244  18.382  1.00  0.00    -0.000 C 
BRANCH  11  12
ATOM     12  C   UNL     1      21.135  65.532  19.251  1.00  0.00    -0.000 C 
BRANCH  12  13
ATOM     13  C   UNL     1      19.810  65.177  18.557  1.00  0.00    -0.003 C 
ATOM     14  C   UNL     1      18.663  66.104  18.955  1.00  0.00     0.004 C 
ENDBRANCH  12  13
ENDBRANCH  11  12
ENDBRANCH  10  11
ENDBRANCH   9  10
ENDBRANCH   1   9
TORSDOF 10
ENDMDL
MODEL 7
REMARK VINA RESULT:    -2.588      1.912      3.906
REMARK INTER + INTRA:          -5.754
REMARK INTER:                  -4.164
REMARK INTRA:                  -1.590
REMARK UNBOUND:                -1.653
REMARK SMILES CCCCCCCCCCCC(=O)[O-]
REMARK SMILES IDX 7 1 8 2 9 3 10 4 11 5 12 6 13 7 14 8 6 9 5 10 4 11 3 12 2 13
REMARK SMILES IDX 1 14
REMARK H PARENT
REMARK Flexibility Score: inf
ROOT
ATOM      1  C   UNL     1      22.152  69.098  18.396  1.00  0.00     0.000 C 
ENDROOT
BRANCH   1   2
ATOM      2  C   UNL     1      21.747  70.160  17.359  1.00  0.00     0.000 C 
BRANCH   2   3
ATOM      3  C   UNL     1      20.264  70.063  16.964  1.00  0.00     0.000 C 
BRANCH   3   4
ATOM      4  C   UNL     1      20.050  69.297  15.647  1.00  0.00     0.006 C 
BRANCH   4   5
ATOM      5  C   UNL     1      19.207  68.030  15.847  1.00  0.00     0.053 C 
BRANCH   5   6
ATOM      6  C   UNL     1      19.919  66.805  15.362  1.00  0.00     0.041 C 
ATOM      7  O   UNL     1      19.384  65.671  15.479  1.00  0.00    -0.550 OA
ATOM      8  O   UNL     1      21.188  66.913  14.806  1.00  0.00    -0.550 OA
ENDBRANCH   5   6
ENDBRANCH   4   5
ENDBRANCH   3   4
ENDBRANCH   2   3
ENDBRANCH   1   2
BRANCH   1   9
ATOM      9  C   UNL     1      22.806  67.863  17.755  1.00  0.00     0.000 C 
BRANCH   9  10
ATOM     10  C   UNL     1      22.276  66.540  18.337  1.00  0.00    -0.000 C 
BRANCH  10  11
ATOM     11  C   UNL     1      20.944  66.731  19.085  1.00  0.00    -0.000 C 
BRANCH  11  12
ATOM     12  C   UNL     1      19.982  65.531  18.930  1.00  0.00    -0.000 C 
BRANCH  12  13
ATOM     13  C   UNL     1      18.500  65.938  18.876  1.00  0.00    -0.003 C 
ATOM     14  C   UNL     1      18.262  67.378  19.324  1.00  0.00     0.004 C 
ENDBRANCH  12  13
ENDBRANCH  11  12
ENDBRANCH  10  11
ENDBRANCH   9  10
ENDBRANCH   1   9
TORSDOF 10
ENDMDL
MODEL 8
REMARK VINA RESULT:    -2.577      1.326      2.849
REMARK INTER + INTRA:          -5.736
REMARK INTER:                  -4.477
REMARK INTRA:                  -1.259
REMARK UNBOUND:                -1.653
REMARK SMILES CCCCCCCCCCCC(=O)[O-]
REMARK SMILES IDX 7 1 8 2 9 3 10 4 11 5 12 6 13 7 14 8 6 9 5 10 4 11 3 12 2 13
REMARK SMILES IDX 1 14
REMARK H PARENT
REMARK Flexibility Score: inf
ROOT
ATOM      1  C   UNL     1      19.046  67.951  17.663  1.00  0.00     0.000 C 
ENDROOT
BRANCH   1   2
ATOM      2  C   UNL     1      19.559  67.303  18.961  1.00  0.00     0.000 C 
BRANCH   2   3
ATOM      3  C   UNL     1      19.754  65.784  18.826  1.00  0.00     0.000 C 
BRANCH   3   4
ATOM      4  C   UNL     1      21.170  65.331  19.225  1.00  0.00     0.006 C 
BRANCH   4   5
ATOM      5  C   UNL     1      22.065  65.091  18.002  1.00  0.00     0.053 C 
BRANCH   5   6
ATOM      6  C   UNL     1      23.065  66.192  17.819  1.00  0.00     0.041 C 
ATOM      7  O   UNL     1      23.114  67.147  18.637  1.00  0.00    -0.550 OA
ATOM      8  O   UNL     1      23.924  66.177  16.727  1.00  0.00    -0.550 OA
ENDBRANCH   5   6
ENDBRANCH   4   5
ENDBRANCH   3   4
ENDBRANCH   2   3
ENDBRANCH   1   2
BRANCH   1   9
ATOM      9  C   UNL     1      19.433  67.149  16.409  1.00  0.00     0.000 C 
BRANCH   9  10
ATOM     10  C   UNL     1      20.039  68.032  15.303  1.00  0.00    -0.000 C 
BRANCH  10  11
ATOM     11  C   UNL     1      21.438  68.552  15.680  1.00  0.00    -0.000 C 
BRANCH  11  12
ATOM     12  C   UNL     1      21.571  70.086  15.553  1.00  0.00    -0.000 C 
BRANCH  12  13
ATOM     13  C   UNL     1      21.315  70.833  16.873  1.00  0.00    -0.003 C 
ATOM     14  C   UNL     1      22.115  70.265  18.043  1.00  0.00     0.004 C 
ENDBRANCH  12  13
ENDBRANCH  11  12
ENDBRANCH  10  11
ENDBRANCH   9  10
ENDBRANCH   1   9
TORSDOF 10
ENDMDL
MODEL 9
REMARK VINA RESULT:    -2.567      2.229      4.049
REMARK INTER + INTRA:          -5.721
REMARK INTER:                  -4.067
REMARK INTRA:                  -1.654
REMARK UNBOUND:                -1.653
REMARK SMILES CCCCCCCCCCCC(=O)[O-]
REMARK SMILES IDX 7 1 8 2 9 3 10 4 11 5 12 6 13 7 14 8 6 9 5 10 4 11 3 12 2 13
REMARK SMILES IDX 1 14
REMARK H PARENT
REMARK Flexibility Score: inf
ROOT
ATOM      1  C   UNL     1      23.734  66.388  16.507  1.00  0.00     0.000 C 
ENDROOT
BRANCH   1   2
ATOM      2  C   UNL     1      23.165  65.435  15.441  1.00  0.00     0.000 C 
BRANCH   2   3
ATOM      3  C   UNL     1      21.628  65.419  15.423  1.00  0.00     0.000 C 
BRANCH   3   4
ATOM      4  C   UNL     1      21.031  66.637  14.696  1.00  0.00     0.006 C 
BRANCH   4   5
ATOM      5  C   UNL     1      20.023  67.395  15.571  1.00  0.00     0.053 C 
BRANCH   5   6
ATOM      6  C   UNL     1      20.499  68.777  15.898  1.00  0.00     0.041 C 
ATOM      7  O   UNL     1      21.673  69.130  15.609  1.00  0.00    -0.550 OA
ATOM      8  O   UNL     1      19.653  69.668  16.548  1.00  0.00    -0.550 OA
ENDBRANCH   5   6
ENDBRANCH   4   5
ENDBRANCH   3   4
ENDBRANCH   2   3
ENDBRANCH   1   2
BRANCH   1   9
ATOM      9  C   UNL     1      23.139  66.138  17.903  1.00  0.00     0.000 C 
BRANCH   9  10
ATOM     10  C   UNL     1      22.708  67.437  18.607  1.00  0.00    -0.000 C 
BRANCH  10  11
ATOM     11  C   UNL     1      21.272  67.349  19.155  1.00  0.00    -0.000 C 
BRANCH  11  12
ATOM     12  C   UNL     1      20.634  65.955  18.967  1.00  0.00    -0.000 C 
BRANCH  12  13
ATOM     13  C   UNL     1      19.098  65.986  18.922  1.00  0.00    -0.003 C 
ATOM     14  C   UNL     1      18.528  67.397  19.047  1.00  0.00     0.004 C 
ENDBRANCH  12  13
ENDBRANCH  11  12
ENDBRANCH  10  11
ENDBRANCH   9  10
ENDBRANCH   1   9
TORSDOF 10
ENDMDL
