MODEL 1
REMARK VINA RESULT:    -6.171      0.000      0.000
REMARK INTER + INTRA:          -7.699
REMARK INTER:                  -7.433
REMARK INTRA:                  -0.266
REMARK UNBOUND:                -0.266
REMARK SMILES O=c1c(O)c(-c2ccc(O)cc2O)oc2cc(O)cc(O)c12
REMARK SMILES IDX 5 1 3 2 2 3 1 4 22 5 20 6 19 7 17 8 16 9 15 10 14 11 6 12
REMARK SMILES IDX 8 13 7 14 9 15 11 16 12 17 10 18 13 20 4 22 21 24 18 26
REMARK H PARENT 10 19 13 21 4 23 21 25 18 27
REMARK Flexibility Score: inf
ROOT
ATOM      1  C   UNL     1     -10.289  46.536 104.378  1.00  0.00     0.184 A 
ATOM      2  C   UNL     1     -10.600  47.899 104.501  1.00  0.00     0.208 A 
ATOM      3  C   UNL     1     -11.483  48.306 105.511  1.00  0.00     0.238 A 
ATOM      4  O   UNL     1     -11.698  49.537 105.664  1.00  0.00    -0.285 OA
ATOM      5  C   UNL     1     -12.089  47.339 106.351  1.00  0.00     0.111 A 
ATOM      6  C   UNL     1     -13.035  47.634 107.380  1.00  0.00     0.134 A 
ATOM      7  C   UNL     1     -13.487  46.606 108.217  1.00  0.00     0.093 A 
ATOM      8  C   UNL     1     -13.078  45.285 108.022  1.00  0.00     0.123 A 
ATOM      9  C   UNL     1     -12.198  44.979 106.986  1.00  0.00     0.094 A 
ATOM     10  C   UNL     1     -11.699  45.987 106.158  1.00  0.00     0.146 A 
ATOM     11  O   UNL     1     -10.847  45.653 105.197  1.00  0.00    -0.451 OA
ENDROOT
BRANCH   1  12
ATOM     12  C   UNL     1      -9.360  46.041 103.340  1.00  0.00     0.063 A 
ATOM     13  C   UNL     1      -7.223  45.028 102.778  1.00  0.00     0.047 A 
ATOM     14  C   UNL     1      -8.126  45.499 103.733  1.00  0.00     0.020 A 
ATOM     15  C   UNL     1      -7.534  45.105 101.417  1.00  0.00     0.119 A 
ATOM     16  C   UNL     1      -8.752  45.666 101.014  1.00  0.00     0.093 A 
ATOM     17  C   UNL     1      -9.663  46.146 101.966  1.00  0.00     0.130 A 
BRANCH  15  18
ATOM     18  O   UNL     1      -6.624  44.628 100.477  1.00  0.00    -0.508 OA
ATOM     19  H   UNL     1      -5.724  45.072 100.340  1.00  0.00     0.293 HD
ENDBRANCH  15  18
BRANCH  17  20
ATOM     20  O   UNL     1     -10.852  46.747 101.550  1.00  0.00    -0.507 OA
ATOM     21  H   UNL     1     -11.222  47.569 102.012  1.00  0.00     0.293 HD
ENDBRANCH  17  20
ENDBRANCH   1  12
BRANCH   2  22
ATOM     22  O   UNL     1     -10.043  48.825 103.614  1.00  0.00    -0.502 OA
ATOM     23  H   UNL     1     -10.562  49.206 102.832  1.00  0.00     0.293 HD
ENDBRANCH   2  22
BRANCH   6  24
ATOM     24  O   UNL     1     -13.576  48.903 107.606  1.00  0.00    -0.507 OA
ATOM     25  H   UNL     1     -13.454  49.441 108.450  1.00  0.00     0.293 HD
ENDBRANCH   6  24
BRANCH   8  26
ATOM     26  O   UNL     1     -13.546  44.266 108.848  1.00  0.00    -0.508 OA
ATOM     27  H   UNL     1     -14.538  44.124 109.004  1.00  0.00     0.293 HD
ENDBRANCH   8  26
TORSDOF 6
ENDMDL
MODEL 2
REMARK VINA RESULT:    -6.161      9.107     12.594
REMARK INTER + INTRA:          -7.687
REMARK INTER:                  -7.477
REMARK INTRA:                  -0.210
REMARK UNBOUND:                -0.266
REMARK SMILES O=c1c(O)c(-c2ccc(O)cc2O)oc2cc(O)cc(O)c12
REMARK SMILES IDX 5 1 3 2 2 3 1 4 22 5 20 6 19 7 17 8 16 9 15 10 14 11 6 12
REMARK SMILES IDX 8 13 7 14 9 15 11 16 12 17 10 18 13 20 4 22 21 24 18 26
REMARK H PARENT 10 19 13 21 4 23 21 25 18 27
REMARK Flexibility Score: inf
ROOT
ATOM      1  C   UNL     1      -2.881  39.784 101.837  1.00  0.00     0.184 A 
ATOM      2  C   UNL     1      -2.791  38.615 102.607  1.00  0.00     0.208 A 
ATOM      3  C   UNL     1      -3.042  37.378 101.997  1.00  0.00     0.238 A 
ATOM      4  O   UNL     1      -2.887  36.328 102.674  1.00  0.00    -0.285 OA
ATOM      5  C   UNL     1      -3.435  37.329 100.637  1.00  0.00     0.111 A 
ATOM      6  C   UNL     1      -3.760  36.134  99.925  1.00  0.00     0.134 A 
ATOM      7  C   UNL     1      -4.033  36.199  98.554  1.00  0.00     0.093 A 
ATOM      8  C   UNL     1      -4.058  37.422  97.881  1.00  0.00     0.123 A 
ATOM      9  C   UNL     1      -3.797  38.600  98.577  1.00  0.00     0.094 A 
ATOM     10  C   UNL     1      -3.483  38.565  99.938  1.00  0.00     0.146 A 
ATOM     11  O   UNL     1      -3.221  39.709 100.557  1.00  0.00    -0.451 OA
ENDROOT
BRANCH   1  12
ATOM     12  C   UNL     1      -2.621  41.119 102.418  1.00  0.00     0.063 A 
ATOM     13  C   UNL     1      -3.418  43.364 102.900  1.00  0.00     0.047 A 
ATOM     14  C   UNL     1      -3.632  42.091 102.367  1.00  0.00     0.020 A 
ATOM     15  C   UNL     1      -2.186  43.687 103.478  1.00  0.00     0.119 A 
ATOM     16  C   UNL     1      -1.163  42.732 103.511  1.00  0.00     0.093 A 
ATOM     17  C   UNL     1      -1.368  41.452 102.973  1.00  0.00     0.130 A 
BRANCH  15  18
ATOM     18  O   UNL     1      -1.990  44.959 104.008  1.00  0.00    -0.508 OA
ATOM     19  H   UNL     1      -2.696  45.682 103.925  1.00  0.00     0.293 HD
ENDBRANCH  15  18
BRANCH  17  20
ATOM     20  O   UNL     1      -0.325  40.526 102.967  1.00  0.00    -0.507 OA
ATOM     21  H   UNL     1      -0.299  39.751 103.620  1.00  0.00     0.293 HD
ENDBRANCH  17  20
ENDBRANCH   1  12
BRANCH   2  22
ATOM     22  O   UNL     1      -2.470  38.696 103.966  1.00  0.00    -0.502 OA
ATOM     23  H   UNL     1      -2.580  37.911 104.597  1.00  0.00     0.293 HD
ENDBRANCH   2  22
BRANCH   6  24
ATOM     24  O   UNL     1      -3.849  34.871 100.518  1.00  0.00    -0.507 OA
ATOM     25  H   UNL     1      -3.186  34.123 100.388  1.00  0.00     0.293 HD
ENDBRANCH   6  24
BRANCH   8  26
ATOM     26  O   UNL     1      -4.348  37.480  96.519  1.00  0.00    -0.508 OA
ATOM     27  H   UNL     1      -3.618  37.605  95.828  1.00  0.00     0.293 HD
ENDBRANCH   8  26
TORSDOF 6
ENDMDL
MODEL 3
REMARK VINA RESULT:    -5.896     16.188     18.633
REMARK INTER + INTRA:          -7.369
REMARK INTER:                  -7.037
REMARK INTRA:                  -0.332
REMARK UNBOUND:                -0.266
REMARK SMILES O=c1c(O)c(-c2ccc(O)cc2O)oc2cc(O)cc(O)c12
REMARK SMILES IDX 5 1 3 2 2 3 1 4 22 5 20 6 19 7 17 8 16 9 15 10 14 11 6 12
REMARK SMILES IDX 8 13 7 14 9 15 11 16 12 17 10 18 13 20 4 22 21 24 18 26
REMARK H PARENT 10 19 13 21 4 23 21 25 18 27
REMARK Flexibility Score: inf
ROOT
ATOM      1  C   UNL     1       2.109  45.344  91.720  1.00  0.00     0.184 A 
ATOM      2  C   UNL     1       3.423  45.580  91.288  1.00  0.00     0.208 A 
ATOM      3  C   UNL     1       4.253  46.409  92.056  1.00  0.00     0.238 A 
ATOM      4  O   UNL     1       5.453  46.556  91.704  1.00  0.00    -0.285 OA
ATOM      5  C   UNL     1       3.741  47.038  93.218  1.00  0.00     0.111 A 
ATOM      6  C   UNL     1       4.478  47.936  94.049  1.00  0.00     0.134 A 
ATOM      7  C   UNL     1       3.900  48.415  95.231  1.00  0.00     0.093 A 
ATOM      8  C   UNL     1       2.589  48.082  95.579  1.00  0.00     0.123 A 
ATOM      9  C   UNL     1       1.842  47.251  94.747  1.00  0.00     0.094 A 
ATOM     10  C   UNL     1       2.403  46.725  93.581  1.00  0.00     0.146 A 
ATOM     11  O   UNL     1       1.663  45.922  92.828  1.00  0.00    -0.451 OA
ENDROOT
BRANCH   1  12
ATOM     12  C   UNL     1       1.186  44.475  90.960  1.00  0.00     0.063 A 
ATOM     13  C   UNL     1       0.028  42.346  90.762  1.00  0.00     0.047 A 
ATOM     14  C   UNL     1       0.892  43.195  91.458  1.00  0.00     0.020 A 
ATOM     15  C   UNL     1      -0.542  42.758  89.555  1.00  0.00     0.119 A 
ATOM     16  C   UNL     1      -0.236  44.023  89.038  1.00  0.00     0.093 A 
ATOM     17  C   UNL     1       0.635  44.881  89.727  1.00  0.00     0.130 A 
BRANCH  15  18
ATOM     18  O   UNL     1      -1.404  41.901  88.875  1.00  0.00    -0.508 OA
ATOM     19  H   UNL     1      -1.747  42.123  87.947  1.00  0.00     0.293 HD
ENDBRANCH  15  18
BRANCH  17  20
ATOM     20  O   UNL     1       0.970  46.119  89.178  1.00  0.00    -0.507 OA
ATOM     21  H   UNL     1       0.348  46.916  89.245  1.00  0.00     0.293 HD
ENDBRANCH  17  20
ENDBRANCH   1  12
BRANCH   2  22
ATOM     22  O   UNL     1       3.883  45.003  90.100  1.00  0.00    -0.502 OA
ATOM     23  H   UNL     1       3.357  45.051  89.235  1.00  0.00     0.293 HD
ENDBRANCH   2  22
BRANCH   6  24
ATOM     24  O   UNL     1       5.761  48.403  93.751  1.00  0.00    -0.507 OA
ATOM     25  H   UNL     1       6.272  48.193  92.907  1.00  0.00     0.293 HD
ENDBRANCH   6  24
BRANCH   8  26
ATOM     26  O   UNL     1       2.016  48.577  96.748  1.00  0.00    -0.508 OA
ATOM     27  H   UNL     1       1.470  49.431  96.750  1.00  0.00     0.293 HD
ENDBRANCH   8  26
TORSDOF 6
ENDMDL
MODEL 4
REMARK VINA RESULT:    -5.706     14.443     17.694
REMARK INTER + INTRA:          -7.139
REMARK INTER:                  -6.796
REMARK INTRA:                  -0.344
REMARK UNBOUND:                -0.266
REMARK SMILES O=c1c(O)c(-c2ccc(O)cc2O)oc2cc(O)cc(O)c12
REMARK SMILES IDX 5 1 3 2 2 3 1 4 22 5 20 6 19 7 17 8 16 9 15 10 14 11 6 12
REMARK SMILES IDX 8 13 7 14 9 15 11 16 12 17 10 18 13 20 4 22 21 24 18 26
REMARK H PARENT 10 19 13 21 4 23 21 25 18 27
REMARK Flexibility Score: inf
ROOT
ATOM      1  C   UNL     1       1.290  45.598  93.270  1.00  0.00     0.184 A 
ATOM      2  C   UNL     1       2.403  45.182  92.523  1.00  0.00     0.208 A 
ATOM      3  C   UNL     1       3.565  45.967  92.538  1.00  0.00     0.238 A 
ATOM      4  O   UNL     1       4.583  45.550  91.927  1.00  0.00    -0.285 OA
ATOM      5  C   UNL     1       3.581  47.189  93.255  1.00  0.00     0.111 A 
ATOM      6  C   UNL     1       4.689  48.089  93.305  1.00  0.00     0.134 A 
ATOM      7  C   UNL     1       4.627  49.216  94.132  1.00  0.00     0.093 A 
ATOM      8  C   UNL     1       3.474  49.512  94.863  1.00  0.00     0.123 A 
ATOM      9  C   UNL     1       2.367  48.670  94.779  1.00  0.00     0.094 A 
ATOM     10  C   UNL     1       2.411  47.516  93.993  1.00  0.00     0.146 A 
ATOM     11  O   UNL     1       1.342  46.732  93.958  1.00  0.00    -0.451 OA
ENDROOT
BRANCH   1  12
ATOM     12  C   UNL     1       0.038  44.813  93.303  1.00  0.00     0.063 A 
ATOM     13  C   UNL     1      -1.862  43.884  92.105  1.00  0.00     0.047 A 
ATOM     14  C   UNL     1      -0.672  44.615  92.108  1.00  0.00     0.020 A 
ATOM     15  C   UNL     1      -2.365  43.353  93.296  1.00  0.00     0.119 A 
ATOM     16  C   UNL     1      -1.676  43.566  94.497  1.00  0.00     0.093 A 
ATOM     17  C   UNL     1      -0.483  44.304  94.510  1.00  0.00     0.130 A 
BRANCH  15  18
ATOM     18  O   UNL     1      -3.551  42.623  93.276  1.00  0.00    -0.508 OA
ATOM     19  H   UNL     1      -4.423  43.039  92.970  1.00  0.00     0.293 HD
ENDBRANCH  15  18
BRANCH  17  20
ATOM     20  O   UNL     1       0.168  44.550  95.719  1.00  0.00    -0.507 OA
ATOM     21  H   UNL     1       1.133  44.857  95.750  1.00  0.00     0.293 HD
ENDBRANCH  17  20
ENDBRANCH   1  12
BRANCH   2  22
ATOM     22  O   UNL     1       2.337  44.008  91.766  1.00  0.00    -0.502 OA
ATOM     23  H   UNL     1       2.922  43.204  91.959  1.00  0.00     0.293 HD
ENDBRANCH   2  22
BRANCH   6  24
ATOM     24  O   UNL     1       5.855  47.936  92.549  1.00  0.00    -0.507 OA
ATOM     25  H   UNL     1       6.686  47.456  92.859  1.00  0.00     0.293 HD
ENDBRANCH   6  24
BRANCH   8  26
ATOM     26  O   UNL     1       3.414  50.645  95.671  1.00  0.00    -0.508 OA
ATOM     27  H   UNL     1       3.950  51.478  95.455  1.00  0.00     0.293 HD
ENDBRANCH   8  26
TORSDOF 6
ENDMDL
MODEL 5
REMARK VINA RESULT:    -5.663     15.205     17.362
REMARK INTER + INTRA:          -7.088
REMARK INTER:                  -6.655
REMARK INTRA:                  -0.433
REMARK UNBOUND:                -0.266
REMARK SMILES O=c1c(O)c(-c2ccc(O)cc2O)oc2cc(O)cc(O)c12
REMARK SMILES IDX 5 1 3 2 2 3 1 4 22 5 20 6 19 7 17 8 16 9 15 10 14 11 6 12
REMARK SMILES IDX 8 13 7 14 9 15 11 16 12 17 10 18 13 20 4 22 21 24 18 26
REMARK H PARENT 10 19 13 21 4 23 21 25 18 27
REMARK Flexibility Score: inf
ROOT
ATOM      1  C   UNL     1       0.950  44.931  93.043  1.00  0.00     0.184 A 
ATOM      2  C   UNL     1       0.467  44.874  94.359  1.00  0.00     0.208 A 
ATOM      3  C   UNL     1       1.091  45.649  95.347  1.00  0.00     0.238 A 
ATOM      4  O   UNL     1       0.606  45.651  96.508  1.00  0.00    -0.285 OA
ATOM      5  C   UNL     1       2.227  46.430  95.018  1.00  0.00     0.111 A 
ATOM      6  C   UNL     1       2.968  47.220  95.949  1.00  0.00     0.134 A 
ATOM      7  C   UNL     1       4.011  48.033  95.489  1.00  0.00     0.093 A 
ATOM      8  C   UNL     1       4.381  48.036  94.142  1.00  0.00     0.123 A 
ATOM      9  C   UNL     1       3.701  47.227  93.235  1.00  0.00     0.094 A 
ATOM     10  C   UNL     1       2.631  46.434  93.656  1.00  0.00     0.146 A 
ATOM     11  O   UNL     1       1.997  45.694  92.755  1.00  0.00    -0.451 OA
ENDROOT
BRANCH   1  12
ATOM     12  C   UNL     1       0.334  44.145  91.953  1.00  0.00     0.063 A 
ATOM     13  C   UNL     1       0.029  41.996  90.858  1.00  0.00     0.047 A 
ATOM     14  C   UNL     1       0.591  42.767  91.879  1.00  0.00     0.020 A 
ATOM     15  C   UNL     1      -0.785  42.594  89.892  1.00  0.00     0.119 A 
ATOM     16  C   UNL     1      -1.027  43.972  89.943  1.00  0.00     0.093 A 
ATOM     17  C   UNL     1      -0.463  44.755  90.962  1.00  0.00     0.130 A 
BRANCH  15  18
ATOM     18  O   UNL     1      -1.340  41.811  88.883  1.00  0.00    -0.508 OA
ATOM     19  H   UNL     1      -1.236  42.056  87.905  1.00  0.00     0.293 HD
ENDBRANCH  15  18
BRANCH  17  20
ATOM     20  O   UNL     1      -0.672  46.135  90.975  1.00  0.00    -0.507 OA
ATOM     21  H   UNL     1      -0.203  46.737  91.641  1.00  0.00     0.293 HD
ENDBRANCH  17  20
ENDBRANCH   1  12
BRANCH   2  22
ATOM     22  O   UNL     1      -0.612  44.041  94.672  1.00  0.00    -0.502 OA
ATOM     23  H   UNL     1      -1.507  44.113  94.203  1.00  0.00     0.293 HD
ENDBRANCH   2  22
BRANCH   6  24
ATOM     24  O   UNL     1       2.738  47.225  97.328  1.00  0.00    -0.507 OA
ATOM     25  H   UNL     1       1.905  46.877  97.777  1.00  0.00     0.293 HD
ENDBRANCH   6  24
BRANCH   8  26
ATOM     26  O   UNL     1       5.431  48.836  93.695  1.00  0.00    -0.508 OA
ATOM     27  H   UNL     1       6.337  48.442  93.467  1.00  0.00     0.293 HD
ENDBRANCH   8  26
TORSDOF 6
ENDMDL
MODEL 6
REMARK VINA RESULT:    -5.553     14.120     17.408
REMARK INTER + INTRA:          -6.956
REMARK INTER:                  -6.522
REMARK INTRA:                  -0.434
REMARK UNBOUND:                -0.266
REMARK SMILES O=c1c(O)c(-c2ccc(O)cc2O)oc2cc(O)cc(O)c12
REMARK SMILES IDX 5 1 3 2 2 3 1 4 22 5 20 6 19 7 17 8 16 9 15 10 14 11 6 12
REMARK SMILES IDX 8 13 7 14 9 15 11 16 12 17 10 18 13 20 4 22 21 24 18 26
REMARK H PARENT 10 19 13 21 4 23 21 25 18 27
REMARK Flexibility Score: inf
ROOT
ATOM      1  C   UNL     1       2.392  46.517  93.296  1.00  0.00     0.184 A 
ATOM      2  C   UNL     1       2.459  46.471  94.696  1.00  0.00     0.208 A 
ATOM      3  C   UNL     1       1.492  45.736  95.399  1.00  0.00     0.238 A 
ATOM      4  O   UNL     1       1.601  45.636  96.649  1.00  0.00    -0.285 OA
ATOM      5  C   UNL     1       0.439  45.102  94.695  1.00  0.00     0.111 A 
ATOM      6  C   UNL     1      -0.622  44.366  95.307  1.00  0.00     0.134 A 
ATOM      7  C   UNL     1      -1.550  43.694  94.502  1.00  0.00     0.093 A 
ATOM      8  C   UNL     1      -1.494  43.782  93.109  1.00  0.00     0.123 A 
ATOM      9  C   UNL     1      -0.496  44.542  92.504  1.00  0.00     0.094 A 
ATOM     10  C   UNL     1       0.468  45.193  93.277  1.00  0.00     0.146 A 
ATOM     11  O   UNL     1       1.413  45.889  92.658  1.00  0.00    -0.451 OA
ENDROOT
BRANCH   1  12
ATOM     12  C   UNL     1       3.383  47.268  92.495  1.00  0.00     0.063 A 
ATOM     13  C   UNL     1       4.205  49.406  91.682  1.00  0.00     0.047 A 
ATOM     14  C   UNL     1       3.289  48.667  92.435  1.00  0.00     0.020 A 
ATOM     15  C   UNL     1       5.217  48.757  90.971  1.00  0.00     0.119 A 
ATOM     16  C   UNL     1       5.305  47.360  91.005  1.00  0.00     0.093 A 
ATOM     17  C   UNL     1       4.386  46.609  91.754  1.00  0.00     0.130 A 
BRANCH  15  18
ATOM     18  O   UNL     1       6.125  49.508  90.228  1.00  0.00    -0.508 OA
ATOM     19  H   UNL     1       6.870  50.030  90.675  1.00  0.00     0.293 HD
ENDBRANCH  15  18
BRANCH  17  20
ATOM     20  O   UNL     1       4.453  45.215  91.741  1.00  0.00    -0.507 OA
ATOM     21  H   UNL     1       4.037  44.657  92.477  1.00  0.00     0.293 HD
ENDBRANCH  17  20
ENDBRANCH   1  12
BRANCH   2  22
ATOM     22  O   UNL     1       3.467  47.164  95.372  1.00  0.00    -0.502 OA
ATOM     23  H   UNL     1       4.167  47.713  94.888  1.00  0.00     0.293 HD
ENDBRANCH   2  22
BRANCH   6  24
ATOM     24  O   UNL     1      -0.822  44.285  96.688  1.00  0.00    -0.507 OA
ATOM     25  H   UNL     1      -1.363  43.571  97.152  1.00  0.00     0.293 HD
ENDBRANCH   6  24
BRANCH   8  26
ATOM     26  O   UNL     1      -2.432  43.124  92.317  1.00  0.00    -0.508 OA
ATOM     27  H   UNL     1      -2.349  43.101  91.307  1.00  0.00     0.293 HD
ENDBRANCH   8  26
TORSDOF 6
ENDMDL
MODEL 7
REMARK VINA RESULT:    -5.453      5.916     11.946
REMARK INTER + INTRA:          -6.835
REMARK INTER:                  -6.616
REMARK INTRA:                  -0.219
REMARK UNBOUND:                -0.266
REMARK SMILES O=c1c(O)c(-c2ccc(O)cc2O)oc2cc(O)cc(O)c12
REMARK SMILES IDX 5 1 3 2 2 3 1 4 22 5 20 6 19 7 17 8 16 9 15 10 14 11 6 12
REMARK SMILES IDX 8 13 7 14 9 15 11 16 12 17 10 18 13 20 4 22 21 24 18 26
REMARK H PARENT 10 19 13 21 4 23 21 25 18 27
REMARK Flexibility Score: inf
ROOT
ATOM      1  C   UNL     1      -3.980  44.808  98.513  1.00  0.00     0.184 A 
ATOM      2  C   UNL     1      -2.745  45.424  98.767  1.00  0.00     0.208 A 
ATOM      3  C   UNL     1      -1.742  45.365  97.789  1.00  0.00     0.238 A 
ATOM      4  O   UNL     1      -0.665  45.983  97.992  1.00  0.00    -0.285 OA
ATOM      5  C   UNL     1      -1.967  44.643  96.591  1.00  0.00     0.111 A 
ATOM      6  C   UNL     1      -1.005  44.478  95.548  1.00  0.00     0.134 A 
ATOM      7  C   UNL     1      -1.375  43.831  94.362  1.00  0.00     0.093 A 
ATOM      8  C   UNL     1      -2.652  43.287  94.207  1.00  0.00     0.123 A 
ATOM      9  C   UNL     1      -3.580  43.394  95.240  1.00  0.00     0.094 A 
ATOM     10  C   UNL     1      -3.254  44.067  96.420  1.00  0.00     0.146 A 
ATOM     11  O   UNL     1      -4.176  44.163  97.370  1.00  0.00    -0.451 OA
ENDROOT
BRANCH   1  12
ATOM     12  C   UNL     1      -5.082  44.839  99.498  1.00  0.00     0.063 A 
ATOM     13  C   UNL     1      -7.324  45.574 100.085  1.00  0.00     0.047 A 
ATOM     14  C   UNL     1      -6.266  45.519  99.174  1.00  0.00     0.020 A 
ATOM     15  C   UNL     1      -7.207  44.961 101.336  1.00  0.00     0.119 A 
ATOM     16  C   UNL     1      -6.020  44.301 101.678  1.00  0.00     0.093 A 
ATOM     17  C   UNL     1      -4.951  44.246 100.772  1.00  0.00     0.130 A 
BRANCH  15  18
ATOM     18  O   UNL     1      -8.272  45.021 102.231  1.00  0.00    -0.508 OA
ATOM     19  H   UNL     1      -8.522  44.228 102.810  1.00  0.00     0.293 HD
ENDBRANCH  15  18
BRANCH  17  20
ATOM     20  O   UNL     1      -3.756  43.628 101.143  1.00  0.00    -0.507 OA
ATOM     21  H   UNL     1      -2.957  43.601 100.521  1.00  0.00     0.293 HD
ENDBRANCH  17  20
ENDBRANCH   1  12
BRANCH   2  22
ATOM     22  O   UNL     1      -2.524  46.070  99.987  1.00  0.00    -0.502 OA
ATOM     23  H   UNL     1      -2.448  45.566 100.862  1.00  0.00     0.293 HD
ENDBRANCH   2  22
BRANCH   6  24
ATOM     24  O   UNL     1       0.323  44.906  95.633  1.00  0.00    -0.507 OA
ATOM     25  H   UNL     1       0.633  45.737  96.113  1.00  0.00     0.293 HD
ENDBRANCH   6  24
BRANCH   8  26
ATOM     26  O   UNL     1      -3.007  42.631  93.030  1.00  0.00    -0.508 OA
ATOM     27  H   UNL     1      -3.672  43.032  92.380  1.00  0.00     0.293 HD
ENDBRANCH   8  26
TORSDOF 6
ENDMDL
MODEL 8
REMARK VINA RESULT:    -5.438      3.407      6.389
REMARK INTER + INTRA:          -6.817
REMARK INTER:                  -6.451
REMARK INTRA:                  -0.365
REMARK UNBOUND:                -0.266
REMARK SMILES O=c1c(O)c(-c2ccc(O)cc2O)oc2cc(O)cc(O)c12
REMARK SMILES IDX 5 1 3 2 2 3 1 4 22 5 20 6 19 7 17 8 16 9 15 10 14 11 6 12
REMARK SMILES IDX 8 13 7 14 9 15 11 16 12 17 10 18 13 20 4 22 21 24 18 26
REMARK H PARENT 10 19 13 21 4 23 21 25 18 27
REMARK Flexibility Score: inf
ROOT
ATOM      1  C   UNL     1      -5.436  44.777 102.351  1.00  0.00     0.184 A 
ATOM      2  C   UNL     1      -5.579  45.627 101.244  1.00  0.00     0.208 A 
ATOM      3  C   UNL     1      -6.820  46.238 101.012  1.00  0.00     0.238 A 
ATOM      4  O   UNL     1      -6.920  47.058 100.062  1.00  0.00    -0.285 OA
ATOM      5  C   UNL     1      -7.918  45.947 101.858  1.00  0.00     0.111 A 
ATOM      6  C   UNL     1      -9.235  46.474 101.691  1.00  0.00     0.134 A 
ATOM      7  C   UNL     1     -10.216  46.199 102.652  1.00  0.00     0.093 A 
ATOM      8  C   UNL     1      -9.947  45.363 103.738  1.00  0.00     0.123 A 
ATOM      9  C   UNL     1      -8.681  44.800 103.880  1.00  0.00     0.094 A 
ATOM     10  C   UNL     1      -7.670  45.086 102.961  1.00  0.00     0.146 A 
ATOM     11  O   UNL     1      -6.473  44.544 103.146  1.00  0.00    -0.451 OA
ENDROOT
BRANCH   1  12
ATOM     12  C   UNL     1      -4.154  44.107 102.656  1.00  0.00     0.063 A 
ATOM     13  C   UNL     1      -2.808  42.082 102.621  1.00  0.00     0.047 A 
ATOM     14  C   UNL     1      -4.004  42.747 102.341  1.00  0.00     0.020 A 
ATOM     15  C   UNL     1      -1.752  42.763 103.233  1.00  0.00     0.119 A 
ATOM     16  C   UNL     1      -1.900  44.114 103.573  1.00  0.00     0.093 A 
ATOM     17  C   UNL     1      -3.100  44.788 103.300  1.00  0.00     0.130 A 
BRANCH  15  18
ATOM     18  O   UNL     1      -0.565  42.088 103.503  1.00  0.00    -0.508 OA
ATOM     19  H   UNL     1      -0.435  41.119 103.234  1.00  0.00     0.293 HD
ENDBRANCH  15  18
BRANCH  17  20
ATOM     20  O   UNL     1      -3.252  46.119 103.688  1.00  0.00    -0.507 OA
ATOM     21  H   UNL     1      -3.900  46.388 104.419  1.00  0.00     0.293 HD
ENDBRANCH  17  20
ENDBRANCH   1  12
BRANCH   2  22
ATOM     22  O   UNL     1      -4.498  45.842 100.383  1.00  0.00    -0.502 OA
ATOM     23  H   UNL     1      -4.369  45.310  99.531  1.00  0.00     0.293 HD
ENDBRANCH   2  22
BRANCH   6  24
ATOM     24  O   UNL     1      -9.636  47.248 100.598  1.00  0.00    -0.507 OA
ATOM     25  H   UNL     1     -10.352  47.957 100.623  1.00  0.00     0.293 HD
ENDBRANCH   6  24
BRANCH   8  26
ATOM     26  O   UNL     1     -10.934  45.081 104.680  1.00  0.00    -0.508 OA
ATOM     27  H   UNL     1     -11.156  45.731 105.425  1.00  0.00     0.293 HD
ENDBRANCH   8  26
TORSDOF 6
ENDMDL
MODEL 9
REMARK VINA RESULT:    -5.358      1.808      6.935
REMARK INTER + INTRA:          -6.721
REMARK INTER:                  -6.404
REMARK INTRA:                  -0.317
REMARK UNBOUND:                -0.266
REMARK SMILES O=c1c(O)c(-c2ccc(O)cc2O)oc2cc(O)cc(O)c12
REMARK SMILES IDX 5 1 3 2 2 3 1 4 22 5 20 6 19 7 17 8 16 9 15 10 14 11 6 12
REMARK SMILES IDX 8 13 7 14 9 15 11 16 12 17 10 18 13 20 4 22 21 24 18 26
REMARK H PARENT 10 19 13 21 4 23 21 25 18 27
REMARK Flexibility Score: inf
ROOT
ATOM      1  C   UNL     1      -9.122  45.963 103.696  1.00  0.00     0.184 A 
ATOM      2  C   UNL     1      -9.205  45.798 102.305  1.00  0.00     0.208 A 
ATOM      3  C   UNL     1      -8.097  45.287 101.614  1.00  0.00     0.238 A 
ATOM      4  O   UNL     1      -8.204  45.071 100.378  1.00  0.00    -0.285 OA
ATOM      5  C   UNL     1      -6.900  44.998 102.315  1.00  0.00     0.111 A 
ATOM      6  C   UNL     1      -5.698  44.518 101.710  1.00  0.00     0.134 A 
ATOM      7  C   UNL     1      -4.610  44.169 102.518  1.00  0.00     0.093 A 
ATOM      8  C   UNL     1      -4.656  44.342 103.903  1.00  0.00     0.123 A 
ATOM      9  C   UNL     1      -5.804  44.861 104.498  1.00  0.00     0.094 A 
ATOM     10  C   UNL     1      -6.920  45.184 103.723  1.00  0.00     0.146 A 
ATOM     11  O   UNL     1      -8.000  45.657 104.333  1.00  0.00    -0.451 OA
ENDROOT
BRANCH   1  12
ATOM     12  C   UNL     1     -10.256  46.490 104.485  1.00  0.00     0.063 A 
ATOM     13  C   UNL     1     -12.040  46.082 106.085  1.00  0.00     0.047 A 
ATOM     14  C   UNL     1     -10.960  45.618 105.330  1.00  0.00     0.020 A 
ATOM     15  C   UNL     1     -12.439  47.418 105.994  1.00  0.00     0.119 A 
ATOM     16  C   UNL     1     -11.759  48.290 105.135  1.00  0.00     0.093 A 
ATOM     17  C   UNL     1     -10.676  47.831 104.370  1.00  0.00     0.130 A 
BRANCH  15  18
ATOM     18  O   UNL     1     -13.516  47.866 106.756  1.00  0.00    -0.508 OA
ATOM     19  H   UNL     1     -14.458  47.881 106.383  1.00  0.00     0.293 HD
ENDBRANCH  15  18
BRANCH  17  20
ATOM     20  O   UNL     1     -10.037  48.697 103.481  1.00  0.00    -0.507 OA
ATOM     21  H   UNL     1      -9.742  49.624 103.763  1.00  0.00     0.293 HD
ENDBRANCH  17  20
ENDBRANCH   1  12
BRANCH   2  22
ATOM     22  O   UNL     1     -10.374  46.157 101.627  1.00  0.00    -0.502 OA
ATOM     23  H   UNL     1     -11.283  45.791 101.881  1.00  0.00     0.293 HD
ENDBRANCH   2  22
BRANCH   6  24
ATOM     24  O   UNL     1      -5.514  44.389 100.330  1.00  0.00    -0.507 OA
ATOM     25  H   UNL     1      -5.717  45.106  99.650  1.00  0.00     0.293 HD
ENDBRANCH   6  24
BRANCH   8  26
ATOM     26  O   UNL     1      -3.562  44.007 104.699  1.00  0.00    -0.508 OA
ATOM     27  H   UNL     1      -3.589  44.111 105.706  1.00  0.00     0.293 HD
ENDBRANCH   8  26
TORSDOF 6
ENDMDL
