MODEL 1
REMARK VINA RESULT:    -5.001      0.000      0.000
REMARK INTER + INTRA:          -8.622
REMARK INTER:                  -7.924
REMARK INTRA:                  -0.698
REMARK UNBOUND:                -0.698
REMARK SMILES CCCCCCCCCCCC(=O)[O-]
REMARK SMILES IDX 7 1 8 2 9 3 10 4 11 5 12 6 13 7 14 8 6 9 5 10 4 11 3 12 2 13
REMARK SMILES IDX 1 14
REMARK H PARENT
REMARK Flexibility Score: inf
ROOT
ATOM      1  C   UNL     1       2.988  43.259   9.620  1.00  0.00     0.000 C 
ENDROOT
BRANCH   1   2
ATOM      2  C   UNL     1       1.960  43.749  10.652  1.00  0.00     0.000 C 
BRANCH   2   3
ATOM      3  C   UNL     1       1.922  42.870  11.912  1.00  0.00     0.000 C 
BRANCH   3   4
ATOM      4  C   UNL     1       2.842  41.640  11.806  1.00  0.00     0.006 C 
BRANCH   4   5
ATOM      5  C   UNL     1       2.484  40.561  12.834  1.00  0.00     0.053 C 
BRANCH   5   6
ATOM      6  C   UNL     1       3.438  39.407  12.782  1.00  0.00     0.041 C 
ATOM      7  O   UNL     1       4.634  39.555  13.148  1.00  0.00    -0.550 OA
ATOM      8  O   UNL     1       2.996  38.158  12.363  1.00  0.00    -0.550 OA
ENDBRANCH   5   6
ENDBRANCH   4   5
ENDBRANCH   3   4
ENDBRANCH   2   3
ENDBRANCH   1   2
BRANCH   1   9
ATOM      9  C   UNL     1       4.104  44.295   9.423  1.00  0.00     0.000 C 
BRANCH   9  10
ATOM     10  C   UNL     1       4.430  45.075  10.709  1.00  0.00    -0.000 C 
BRANCH  10  11
ATOM     11  C   UNL     1       4.377  46.609  10.573  1.00  0.00    -0.000 C 
BRANCH  11  12
ATOM     12  C   UNL     1       4.288  47.137   9.127  1.00  0.00    -0.000 C 
BRANCH  12  13
ATOM     13  C   UNL     1       5.523  47.919   8.649  1.00  0.00    -0.003 C 
ATOM     14  C   UNL     1       6.785  47.581   9.441  1.00  0.00     0.004 C 
ENDBRANCH  12  13
ENDBRANCH  11  12
ENDBRANCH  10  11
ENDBRANCH   9  10
ENDBRANCH   1   9
TORSDOF 10
ENDMDL
MODEL 2
REMARK VINA RESULT:    -4.919      4.168      6.538
REMARK INTER + INTRA:          -8.492
REMARK INTER:                  -7.216
REMARK INTRA:                  -1.276
REMARK UNBOUND:                -0.698
REMARK SMILES CCCCCCCCCCCC(=O)[O-]
REMARK SMILES IDX 7 1 8 2 9 3 10 4 11 5 12 6 13 7 14 8 6 9 5 10 4 11 3 12 2 13
REMARK SMILES IDX 1 14
REMARK H PARENT
REMARK Flexibility Score: inf
ROOT
ATOM      1  C   UNL     1       0.889  46.462   9.579  1.00  0.00     0.000 C 
ENDROOT
BRANCH   1   2
ATOM      2  C   UNL     1       2.210  47.183   9.888  1.00  0.00     0.000 C 
BRANCH   2   3
ATOM      3  C   UNL     1       3.100  47.347   8.645  1.00  0.00     0.000 C 
BRANCH   3   4
ATOM      4  C   UNL     1       4.467  46.658   8.800  1.00  0.00     0.006 C 
BRANCH   4   5
ATOM      5  C   UNL     1       5.335  47.330   9.871  1.00  0.00     0.053 C 
BRANCH   5   6
ATOM      6  C   UNL     1       6.584  47.915   9.287  1.00  0.00     0.041 C 
ATOM      7  O   UNL     1       6.526  48.950   8.573  1.00  0.00    -0.550 OA
ATOM      8  O   UNL     1       7.817  47.337   9.562  1.00  0.00    -0.550 OA
ENDBRANCH   5   6
ENDBRANCH   4   5
ENDBRANCH   3   4
ENDBRANCH   2   3
ENDBRANCH   1   2
BRANCH   1   9
ATOM      9  C   UNL     1       0.956  44.987  10.003  1.00  0.00     0.000 C 
BRANCH   9  10
ATOM     10  C   UNL     1       1.510  44.071   8.897  1.00  0.00    -0.000 C 
BRANCH  10  11
ATOM     11  C   UNL     1       2.411  42.923   9.392  1.00  0.00    -0.000 C 
BRANCH  11  12
ATOM     12  C   UNL     1       3.734  43.364  10.050  1.00  0.00    -0.000 C 
BRANCH  12  13
ATOM     13  C   UNL     1       3.792  43.171  11.575  1.00  0.00    -0.003 C 
ATOM     14  C   UNL     1       4.122  44.461  12.326  1.00  0.00     0.004 C 
ENDBRANCH  12  13
ENDBRANCH  11  12
ENDBRANCH  10  11
ENDBRANCH   9  10
ENDBRANCH   1   9
TORSDOF 10
ENDMDL
MODEL 3
REMARK VINA RESULT:    -4.864      1.222      1.904
REMARK INTER + INTRA:          -8.406
REMARK INTER:                  -7.674
REMARK INTRA:                  -0.731
REMARK UNBOUND:                -0.698
REMARK SMILES CCCCCCCCCCCC(=O)[O-]
REMARK SMILES IDX 7 1 8 2 9 3 10 4 11 5 12 6 13 7 14 8 6 9 5 10 4 11 3 12 2 13
REMARK SMILES IDX 1 14
REMARK H PARENT
REMARK Flexibility Score: inf
ROOT
ATOM      1  C   UNL     1       1.849  43.632   8.937  1.00  0.00     0.000 C 
ENDROOT
BRANCH   1   2
ATOM      2  C   UNL     1       2.997  42.928   9.677  1.00  0.00     0.000 C 
BRANCH   2   3
ATOM      3  C   UNL     1       2.768  42.858  11.195  1.00  0.00     0.000 C 
BRANCH   3   4
ATOM      4  C   UNL     1       3.616  41.766  11.872  1.00  0.00     0.006 C 
BRANCH   4   5
ATOM      5  C   UNL     1       2.750  40.725  12.591  1.00  0.00     0.053 C 
BRANCH   5   6
ATOM      6  C   UNL     1       3.509  39.462  12.860  1.00  0.00     0.041 C 
ATOM      7  O   UNL     1       3.030  38.348  12.520  1.00  0.00    -0.550 OA
ATOM      8  O   UNL     1       4.764  39.518  13.454  1.00  0.00    -0.550 OA
ENDBRANCH   5   6
ENDBRANCH   4   5
ENDBRANCH   3   4
ENDBRANCH   2   3
ENDBRANCH   1   2
BRANCH   1   9
ATOM      9  C   UNL     1       1.128  44.625   9.860  1.00  0.00     0.000 C 
BRANCH   9  10
ATOM     10  C   UNL     1       1.115  46.060   9.302  1.00  0.00    -0.000 C 
BRANCH  10  11
ATOM     11  C   UNL     1       2.208  46.989   9.865  1.00  0.00    -0.000 C 
BRANCH  11  12
ATOM     12  C   UNL     1       3.535  46.994   9.079  1.00  0.00    -0.000 C 
BRANCH  12  13
ATOM     13  C   UNL     1       4.771  46.584   9.896  1.00  0.00    -0.003 C 
ATOM     14  C   UNL     1       6.027  47.366   9.510  1.00  0.00     0.004 C 
ENDBRANCH  12  13
ENDBRANCH  11  12
ENDBRANCH  10  11
ENDBRANCH   9  10
ENDBRANCH   1   9
TORSDOF 10
ENDMDL
MODEL 4
REMARK VINA RESULT:    -4.827      3.807      6.768
REMARK INTER + INTRA:          -8.346
REMARK INTER:                  -7.521
REMARK INTRA:                  -0.825
REMARK UNBOUND:                -0.698
REMARK SMILES CCCCCCCCCCCC(=O)[O-]
REMARK SMILES IDX 7 1 8 2 9 3 10 4 11 5 12 6 13 7 14 8 6 9 5 10 4 11 3 12 2 13
REMARK SMILES IDX 1 14
REMARK H PARENT
REMARK Flexibility Score: inf
ROOT
ATOM      1  C   UNL     1       3.959  44.102   9.417  1.00  0.00     0.000 C 
ENDROOT
BRANCH   1   2
ATOM      2  C   UNL     1       4.059  45.240  10.445  1.00  0.00     0.000 C 
BRANCH   2   3
ATOM      3  C   UNL     1       4.655  46.525   9.848  1.00  0.00     0.000 C 
BRANCH   3   4
ATOM      4  C   UNL     1       3.812  47.087   8.689  1.00  0.00     0.006 C 
BRANCH   4   5
ATOM      5  C   UNL     1       2.447  47.601   9.163  1.00  0.00     0.053 C 
BRANCH   5   6
ATOM      6  C   UNL     1       1.324  46.997   8.377  1.00  0.00     0.041 C 
ATOM      7  O   UNL     1       0.988  47.490   7.268  1.00  0.00    -0.550 OA
ATOM      8  O   UNL     1       0.672  45.866   8.853  1.00  0.00    -0.550 OA
ENDBRANCH   5   6
ENDBRANCH   4   5
ENDBRANCH   3   4
ENDBRANCH   2   3
ENDBRANCH   1   2
BRANCH   1   9
ATOM      9  C   UNL     1       2.721  43.232   9.680  1.00  0.00     0.000 C 
BRANCH   9  10
ATOM     10  C   UNL     1       2.051  43.539  11.032  1.00  0.00    -0.000 C 
BRANCH  10  11
ATOM     11  C   UNL     1       2.238  42.456  12.113  1.00  0.00    -0.000 C 
BRANCH  11  12
ATOM     12  C   UNL     1       3.423  41.497  11.883  1.00  0.00    -0.000 C 
BRANCH  12  13
ATOM     13  C   UNL     1       3.394  40.219  12.739  1.00  0.00    -0.003 C 
ATOM     14  C   UNL     1       4.773  39.822  13.264  1.00  0.00     0.004 C 
ENDBRANCH  12  13
ENDBRANCH  11  12
ENDBRANCH  10  11
ENDBRANCH   9  10
ENDBRANCH   1   9
TORSDOF 10
ENDMDL
MODEL 5
REMARK VINA RESULT:    -4.824      2.312      3.947
REMARK INTER + INTRA:          -8.343
REMARK INTER:                  -7.221
REMARK INTRA:                  -1.122
REMARK UNBOUND:                -0.698
REMARK SMILES CCCCCCCCCCCC(=O)[O-]
REMARK SMILES IDX 7 1 8 2 9 3 10 4 11 5 12 6 13 7 14 8 6 9 5 10 4 11 3 12 2 13
REMARK SMILES IDX 1 14
REMARK H PARENT
REMARK Flexibility Score: inf
ROOT
ATOM      1  C   UNL     1       4.249  46.081   9.164  1.00  0.00     0.000 C 
ENDROOT
BRANCH   1   2
ATOM      2  C   UNL     1       4.024  46.098  10.684  1.00  0.00     0.000 C 
BRANCH   2   3
ATOM      3  C   UNL     1       4.476  44.795  11.363  1.00  0.00     0.000 C 
BRANCH   3   4
ATOM      4  C   UNL     1       3.508  44.336  12.468  1.00  0.00     0.006 C 
BRANCH   4   5
ATOM      5  C   UNL     1       2.340  43.514  11.909  1.00  0.00     0.053 C 
BRANCH   5   6
ATOM      6  C   UNL     1       2.814  42.257  11.246  1.00  0.00     0.041 C 
ATOM      7  O   UNL     1       2.795  42.156   9.991  1.00  0.00    -0.550 OA
ATOM      8  O   UNL     1       3.311  41.211  12.014  1.00  0.00    -0.550 OA
ENDBRANCH   5   6
ENDBRANCH   4   5
ENDBRANCH   3   4
ENDBRANCH   2   3
ENDBRANCH   1   2
BRANCH   1   9
ATOM      9  C   UNL     1       4.457  47.504   8.624  1.00  0.00     0.000 C 
BRANCH   9  10
ATOM     10  C   UNL     1       3.343  47.945   7.657  1.00  0.00    -0.000 C 
BRANCH  10  11
ATOM     11  C   UNL     1       1.964  48.168   8.308  1.00  0.00    -0.000 C 
BRANCH  11  12
ATOM     12  C   UNL     1       0.880  47.142   7.918  1.00  0.00    -0.000 C 
BRANCH  12  13
ATOM     13  C   UNL     1       0.505  46.148   9.029  1.00  0.00    -0.003 C 
ATOM     14  C   UNL     1       0.776  44.693   8.643  1.00  0.00     0.004 C 
ENDBRANCH  12  13
ENDBRANCH  11  12
ENDBRANCH  10  11
ENDBRANCH   9  10
ENDBRANCH   1   9
TORSDOF 10
ENDMDL
MODEL 6
REMARK VINA RESULT:    -4.785      1.806      2.655
REMARK INTER + INTRA:          -8.281
REMARK INTER:                  -6.976
REMARK INTRA:                  -1.305
REMARK UNBOUND:                -0.698
REMARK SMILES CCCCCCCCCCCC(=O)[O-]
REMARK SMILES IDX 7 1 8 2 9 3 10 4 11 5 12 6 13 7 14 8 6 9 5 10 4 11 3 12 2 13
REMARK SMILES IDX 1 14
REMARK H PARENT
REMARK Flexibility Score: inf
ROOT
ATOM      1  C   UNL     1       0.772  45.454   8.963  1.00  0.00     0.000 C 
ENDROOT
BRANCH   1   2
ATOM      2  C   UNL     1       1.229  44.226   9.766  1.00  0.00     0.000 C 
BRANCH   2   3
ATOM      3  C   UNL     1       1.017  44.396  11.279  1.00  0.00     0.000 C 
BRANCH   3   4
ATOM      4  C   UNL     1       1.604  43.229  12.094  1.00  0.00     0.006 C 
BRANCH   4   5
ATOM      5  C   UNL     1       2.718  42.497  11.336  1.00  0.00     0.053 C 
BRANCH   5   6
ATOM      6  C   UNL     1       3.277  41.359  12.134  1.00  0.00     0.041 C 
ATOM      7  O   UNL     1       4.517  41.276  12.339  1.00  0.00    -0.550 OA
ATOM      8  O   UNL     1       2.424  40.410  12.684  1.00  0.00    -0.550 OA
ENDBRANCH   5   6
ENDBRANCH   4   5
ENDBRANCH   3   4
ENDBRANCH   2   3
ENDBRANCH   1   2
BRANCH   1   9
ATOM      9  C   UNL     1       0.664  46.691   9.866  1.00  0.00     0.000 C 
BRANCH   9  10
ATOM     10  C   UNL     1       1.618  47.824   9.445  1.00  0.00    -0.000 C 
BRANCH  10  11
ATOM     11  C   UNL     1       2.595  47.464   8.308  1.00  0.00    -0.000 C 
BRANCH  11  12
ATOM     12  C   UNL     1       4.074  47.345   8.727  1.00  0.00    -0.000 C 
BRANCH  12  13
ATOM     13  C   UNL     1       4.478  45.970   9.286  1.00  0.00    -0.003 C 
ATOM     14  C   UNL     1       4.386  45.896  10.810  1.00  0.00     0.004 C 
ENDBRANCH  12  13
ENDBRANCH  11  12
ENDBRANCH  10  11
ENDBRANCH   9  10
ENDBRANCH   1   9
TORSDOF 10
ENDMDL
MODEL 7
REMARK VINA RESULT:    -4.776      1.591      3.026
REMARK INTER + INTRA:          -8.267
REMARK INTER:                  -7.166
REMARK INTRA:                  -1.101
REMARK UNBOUND:                -0.698
REMARK SMILES CCCCCCCCCCCC(=O)[O-]
REMARK SMILES IDX 7 1 8 2 9 3 10 4 11 5 12 6 13 7 14 8 6 9 5 10 4 11 3 12 2 13
REMARK SMILES IDX 1 14
REMARK H PARENT
REMARK Flexibility Score: inf
ROOT
ATOM      1  C   UNL     1       4.373  44.561  10.685  1.00  0.00     0.000 C 
ENDROOT
BRANCH   1   2
ATOM      2  C   UNL     1       3.767  44.474  12.094  1.00  0.00     0.000 C 
BRANCH   2   3
ATOM      3  C   UNL     1       2.582  43.498  12.170  1.00  0.00     0.000 C 
BRANCH   3   4
ATOM      4  C   UNL     1       2.922  42.108  11.602  1.00  0.00     0.006 C 
BRANCH   4   5
ATOM      5  C   UNL     1       4.128  41.475  12.307  1.00  0.00     0.053 C 
BRANCH   5   6
ATOM      6  C   UNL     1       3.781  40.154  12.921  1.00  0.00     0.041 C 
ATOM      7  O   UNL     1       2.618  39.685  12.804  1.00  0.00    -0.550 OA
ATOM      8  O   UNL     1       4.754  39.421  13.590  1.00  0.00    -0.550 OA
ENDBRANCH   5   6
ENDBRANCH   4   5
ENDBRANCH   3   4
ENDBRANCH   2   3
ENDBRANCH   1   2
BRANCH   1   9
ATOM      9  C   UNL     1       4.498  46.023  10.230  1.00  0.00     0.000 C 
BRANCH   9  10
ATOM     10  C   UNL     1       3.146  46.758  10.204  1.00  0.00    -0.000 C 
BRANCH  10  11
ATOM     11  C   UNL     1       2.533  46.947   8.803  1.00  0.00    -0.000 C 
BRANCH  11  12
ATOM     12  C   UNL     1       1.071  46.478   8.657  1.00  0.00    -0.000 C 
BRANCH  12  13
ATOM     13  C   UNL     1       0.738  45.168   9.391  1.00  0.00    -0.003 C 
ATOM     14  C   UNL     1       1.271  43.930   8.671  1.00  0.00     0.004 C 
ENDBRANCH  12  13
ENDBRANCH  11  12
ENDBRANCH  10  11
ENDBRANCH   9  10
ENDBRANCH   1   9
TORSDOF 10
ENDMDL
MODEL 8
REMARK VINA RESULT:    -4.734      3.165      6.578
REMARK INTER + INTRA:          -8.199
REMARK INTER:                  -7.432
REMARK INTRA:                  -0.767
REMARK UNBOUND:                -0.698
REMARK SMILES CCCCCCCCCCCC(=O)[O-]
REMARK SMILES IDX 7 1 8 2 9 3 10 4 11 5 12 6 13 7 14 8 6 9 5 10 4 11 3 12 2 13
REMARK SMILES IDX 1 14
REMARK H PARENT
REMARK Flexibility Score: inf
ROOT
ATOM      1  C   UNL     1       2.024  43.621   9.020  1.00  0.00     0.000 C 
ENDROOT
BRANCH   1   2
ATOM      2  C   UNL     1       1.357  44.662   9.931  1.00  0.00     0.000 C 
BRANCH   2   3
ATOM      3  C   UNL     1       1.295  46.057   9.290  1.00  0.00     0.000 C 
BRANCH   3   4
ATOM      4  C   UNL     1       2.355  47.018   9.858  1.00  0.00     0.006 C 
BRANCH   4   5
ATOM      5  C   UNL     1       3.608  47.083   8.977  1.00  0.00     0.053 C 
BRANCH   5   6
ATOM      6  C   UNL     1       4.826  46.609   9.709  1.00  0.00     0.041 C 
ATOM      7  O   UNL     1       4.746  45.647  10.518  1.00  0.00    -0.550 OA
ATOM      8  O   UNL     1       6.058  47.206   9.469  1.00  0.00    -0.550 OA
ENDBRANCH   5   6
ENDBRANCH   4   5
ENDBRANCH   3   4
ENDBRANCH   2   3
ENDBRANCH   1   2
BRANCH   1   9
ATOM      9  C   UNL     1       2.952  42.700   9.825  1.00  0.00     0.000 C 
BRANCH   9  10
ATOM     10  C   UNL     1       2.736  42.814  11.345  1.00  0.00    -0.000 C 
BRANCH  10  11
ATOM     11  C   UNL     1       2.790  41.479  12.114  1.00  0.00    -0.000 C 
BRANCH  11  12
ATOM     12  C   UNL     1       4.206  40.990  12.480  1.00  0.00    -0.000 C 
BRANCH  12  13
ATOM     13  C   UNL     1       4.258  39.602  13.139  1.00  0.00    -0.003 C 
ATOM     14  C   UNL     1       3.124  38.683  12.684  1.00  0.00     0.004 C 
ENDBRANCH  12  13
ENDBRANCH  11  12
ENDBRANCH  10  11
ENDBRANCH   9  10
ENDBRANCH   1   9
TORSDOF 10
ENDMDL
MODEL 9
REMARK VINA RESULT:    -4.706      2.693      3.734
REMARK INTER + INTRA:          -8.156
REMARK INTER:                  -7.081
REMARK INTRA:                  -1.075
REMARK UNBOUND:                -0.698
REMARK SMILES CCCCCCCCCCCC(=O)[O-]
REMARK SMILES IDX 7 1 8 2 9 3 10 4 11 5 12 6 13 7 14 8 6 9 5 10 4 11 3 12 2 13
REMARK SMILES IDX 1 14
REMARK H PARENT
REMARK Flexibility Score: inf
ROOT
ATOM      1  C   UNL     1       0.360  46.877   9.867  1.00  0.00     0.000 C 
ENDROOT
BRANCH   1   2
ATOM      2  C   UNL     1       0.416  45.712   8.868  1.00  0.00     0.000 C 
BRANCH   2   3
ATOM      3  C   UNL     1       1.142  44.481   9.433  1.00  0.00     0.000 C 
BRANCH   3   4
ATOM      4  C   UNL     1       1.152  44.454  10.972  1.00  0.00     0.006 C 
BRANCH   4   5
ATOM      5  C   UNL     1       2.031  43.325  11.524  1.00  0.00     0.053 C 
BRANCH   5   6
ATOM      6  C   UNL     1       3.488  43.668  11.449  1.00  0.00     0.041 C 
ATOM      7  O   UNL     1       4.175  43.304  10.458  1.00  0.00    -0.550 OA
ATOM      8  O   UNL     1       4.077  44.423  12.455  1.00  0.00    -0.550 OA
ENDBRANCH   5   6
ENDBRANCH   4   5
ENDBRANCH   3   4
ENDBRANCH   2   3
ENDBRANCH   1   2
BRANCH   1   9
ATOM      9  C   UNL     1       1.330  47.996   9.461  1.00  0.00     0.000 C 
BRANCH   9  10
ATOM     10  C   UNL     1       1.944  47.779   8.066  1.00  0.00    -0.000 C 
BRANCH  10  11
ATOM     11  C   UNL     1       3.484  47.736   8.031  1.00  0.00    -0.000 C 
BRANCH  11  12
ATOM     12  C   UNL     1       4.127  46.578   8.821  1.00  0.00    -0.000 C 
BRANCH  12  13
ATOM     13  C   UNL     1       5.195  47.007   9.841  1.00  0.00    -0.003 C 
ATOM     14  C   UNL     1       6.381  47.724   9.195  1.00  0.00     0.004 C 
ENDBRANCH  12  13
ENDBRANCH  11  12
ENDBRANCH  10  11
ENDBRANCH   9  10
ENDBRANCH   1   9
TORSDOF 10
ENDMDL
