MODEL 1
REMARK VINA RESULT:    -6.974      0.000      0.000
REMARK INTER + INTRA:         -12.178
REMARK INTER:                 -10.032
REMARK INTRA:                  -2.146
REMARK UNBOUND:                -2.146
REMARK SMILES O=c1c(O[C@H]2O[C@@H](CO)[C@@H](O)[C@@H](O)[C@H]2O)c(-c2ccc(O)cc2)oc2cc(O)cc(O)c12
REMARK SMILES IDX 4 1 3 2 16 3 24 4 2 5 25 6 1 7 32 8 26 9 30 10 27 11 29 12
REMARK SMILES IDX 17 13 18 14 19 15 20 16 23 17 22 18 21 19 31 21 28 23 5 25
REMARK SMILES IDX 14 26 6 27 12 28 7 29 10 30 15 31 13 33 8 35 9 36 11 38
REMARK H PARENT 21 20 31 22 28 24 15 32 13 34 9 37 11 39
REMARK Flexibility Score: inf
ROOT
ATOM      1  O   UNL     1      14.201  36.006 122.805  1.00  0.00    -0.454 OA
ENDROOT
BRANCH   1   2
ATOM      2  C   UNL     1      15.079  36.230 123.890  1.00  0.00     0.214 A 
ATOM      3  C   UNL     1      14.828  35.637 125.166  1.00  0.00     0.180 A 
ATOM      4  O   UNL     1      15.625  35.950 126.187  1.00  0.00    -0.452 OA
ATOM      5  C   UNL     1      16.234  37.048 123.759  1.00  0.00     0.239 A 
ATOM      6  C   UNL     1      16.670  36.757 126.109  1.00  0.00     0.146 A 
ATOM      7  O   UNL     1      16.564  37.508 122.633  1.00  0.00    -0.285 OA
ATOM      8  C   UNL     1      17.036  37.333 124.880  1.00  0.00     0.111 A 
ATOM      9  C   UNL     1      17.413  37.022 127.265  1.00  0.00     0.094 A 
ATOM     10  C   UNL     1      18.184  38.165 124.822  1.00  0.00     0.134 A 
ATOM     11  C   UNL     1      18.536  37.848 127.208  1.00  0.00     0.123 A 
ATOM     12  C   UNL     1      18.922  38.416 125.990  1.00  0.00     0.093 A 
BRANCH   3  13
ATOM     13  C   UNL     1      13.726  34.657 125.492  1.00  0.00     0.021 A 
ATOM     14  C   UNL     1      12.550  34.973 126.209  1.00  0.00     0.016 A 
ATOM     15  C   UNL     1      11.561  34.012 126.436  1.00  0.00     0.047 A 
ATOM     16  C   UNL     1      11.729  32.704 125.983  1.00  0.00     0.115 A 
ATOM     17  C   UNL     1      13.872  33.320 125.044  1.00  0.00     0.016 A 
ATOM     18  C   UNL     1      12.886  32.360 125.283  1.00  0.00     0.047 A 
BRANCH  16  19
ATOM     19  O   UNL     1      10.726  31.763 126.206  1.00  0.00    -0.508 OA
ATOM     20  H   UNL     1       9.928  31.973 126.796  1.00  0.00     0.293 HD
ENDBRANCH  16  19
ENDBRANCH   3  13
BRANCH  10  21
ATOM     21  O   UNL     1      18.603  38.734 123.620  1.00  0.00    -0.507 OA
ATOM     22  H   UNL     1      19.064  38.189 122.899  1.00  0.00     0.293 HD
ENDBRANCH  10  21
BRANCH  11  23
ATOM     23  O   UNL     1      19.268  38.090 128.368  1.00  0.00    -0.508 OA
ATOM     24  H   UNL     1      19.365  39.024 128.749  1.00  0.00     0.293 HD
ENDBRANCH  11  23
ENDBRANCH   1   2
BRANCH   1  25
ATOM     25  C   UNL     1      14.399  35.078 121.730  1.00  0.00     0.339 C 
ATOM     26  C   UNL     1      14.414  35.757 120.346  1.00  0.00     0.214 C 
ATOM     27  O   UNL     1      13.468  34.007 121.785  1.00  0.00    -0.332 OA
ATOM     28  C   UNL     1      13.021  36.226 119.892  1.00  0.00     0.180 C 
ATOM     29  C   UNL     1      12.130  34.378 121.471  1.00  0.00     0.179 C 
ATOM     30  C   UNL     1      11.990  35.101 120.102  1.00  0.00     0.177 C 
BRANCH  26  31
ATOM     31  O   UNL     1      15.376  36.784 120.288  1.00  0.00    -0.384 OA
ATOM     32  H   UNL     1      16.273  36.373 120.355  1.00  0.00     0.211 HD
ENDBRANCH  26  31
BRANCH  28  33
ATOM     33  O   UNL     1      12.634  37.389 120.570  1.00  0.00    -0.387 OA
ATOM     34  H   UNL     1      11.669  37.531 120.386  1.00  0.00     0.211 HD
ENDBRANCH  28  33
BRANCH  29  35
ATOM     35  C   UNL     1      11.374  34.989 122.677  1.00  0.00     0.191 C 
BRANCH  35  36
ATOM     36  O   UNL     1      11.345  36.389 122.640  1.00  0.00    -0.394 OA
ATOM     37  H   UNL     1      12.157  36.691 122.152  1.00  0.00     0.210 HD
ENDBRANCH  35  36
ENDBRANCH  29  35
BRANCH  30  38
ATOM     38  O   UNL     1      10.684  35.592 119.945  1.00  0.00    -0.387 OA
ATOM     39  H   UNL     1      10.337  35.234 119.087  1.00  0.00     0.211 HD
ENDBRANCH  30  38
ENDBRANCH   1  25
TORSDOF 11
ENDMDL
MODEL 2
REMARK VINA RESULT:    -6.503      2.758      6.899
REMARK INTER + INTRA:         -11.500
REMARK INTER:                  -9.805
REMARK INTRA:                  -1.695
REMARK UNBOUND:                -2.146
REMARK SMILES O=c1c(O[C@H]2O[C@@H](CO)[C@@H](O)[C@@H](O)[C@H]2O)c(-c2ccc(O)cc2)oc2cc(O)cc(O)c12
REMARK SMILES IDX 4 1 3 2 16 3 24 4 2 5 25 6 1 7 32 8 26 9 30 10 27 11 29 12
REMARK SMILES IDX 17 13 18 14 19 15 20 16 23 17 22 18 21 19 31 21 28 23 5 25
REMARK SMILES IDX 14 26 6 27 12 28 7 29 10 30 15 31 13 33 8 35 9 36 11 38
REMARK H PARENT 21 20 31 22 28 24 15 32 13 34 9 37 11 39
REMARK Flexibility Score: inf
ROOT
ATOM      1  O   UNL     1      15.372  36.682 125.730  1.00  0.00    -0.454 OA
ENDROOT
BRANCH   1   2
ATOM      2  C   UNL     1      14.192  35.907 125.656  1.00  0.00     0.214 A 
ATOM      3  C   UNL     1      12.989  36.348 126.287  1.00  0.00     0.180 A 
ATOM      4  O   UNL     1      11.926  35.544 126.277  1.00  0.00    -0.452 OA
ATOM      5  C   UNL     1      14.156  34.667 124.960  1.00  0.00     0.239 A 
ATOM      6  C   UNL     1      11.883  34.358 125.691  1.00  0.00     0.146 A 
ATOM      7  O   UNL     1      15.154  34.281 124.295  1.00  0.00    -0.285 OA
ATOM      8  C   UNL     1      12.997  33.870 124.987  1.00  0.00     0.111 A 
ATOM      9  C   UNL     1      10.708  33.602 125.775  1.00  0.00     0.094 A 
ATOM     10  C   UNL     1      12.905  32.612 124.338  1.00  0.00     0.134 A 
ATOM     11  C   UNL     1      10.624  32.360 125.145  1.00  0.00     0.123 A 
ATOM     12  C   UNL     1      11.718  31.867 124.426  1.00  0.00     0.093 A 
BRANCH   3  13
ATOM     13  C   UNL     1      12.780  37.674 126.982  1.00  0.00     0.021 A 
ATOM     14  C   UNL     1      12.780  38.932 126.340  1.00  0.00     0.016 A 
ATOM     15  C   UNL     1      12.543  40.109 127.054  1.00  0.00     0.047 A 
ATOM     16  C   UNL     1      12.329  40.069 128.431  1.00  0.00     0.115 A 
ATOM     17  C   UNL     1      12.561  37.661 128.383  1.00  0.00     0.016 A 
ATOM     18  C   UNL     1      12.335  38.842 129.095  1.00  0.00     0.047 A 
BRANCH  16  19
ATOM     19  O   UNL     1      12.079  41.252 129.124  1.00  0.00    -0.508 OA
ATOM     20  H   UNL     1      12.094  42.150 128.655  1.00  0.00     0.293 HD
ENDBRANCH  16  19
ENDBRANCH   3  13
BRANCH  10  21
ATOM     21  O   UNL     1      13.973  32.100 123.602  1.00  0.00    -0.507 OA
ATOM     22  H   UNL     1      14.776  32.669 123.354  1.00  0.00     0.293 HD
ENDBRANCH  10  21
BRANCH  11  23
ATOM     23  O   UNL     1       9.442  31.627 125.230  1.00  0.00    -0.508 OA
ATOM     24  H   UNL     1       8.589  32.036 125.592  1.00  0.00     0.293 HD
ENDBRANCH  11  23
ENDBRANCH   1   2
BRANCH   1  25
ATOM     25  C   UNL     1      15.624  37.913 125.039  1.00  0.00     0.339 C 
ATOM     26  C   UNL     1      16.313  37.707 123.676  1.00  0.00     0.214 C 
ATOM     27  O   UNL     1      16.330  38.836 125.856  1.00  0.00    -0.332 OA
ATOM     28  C   UNL     1      17.790  37.297 123.805  1.00  0.00     0.180 C 
ATOM     29  C   UNL     1      17.684  38.480 126.106  1.00  0.00     0.179 C 
ATOM     30  C   UNL     1      18.506  38.215 124.814  1.00  0.00     0.177 C 
BRANCH  26  31
ATOM     31  O   UNL     1      15.578  36.829 122.856  1.00  0.00    -0.384 OA
ATOM     32  H   UNL     1      14.801  37.321 122.493  1.00  0.00     0.211 HD
ENDBRANCH  26  31
BRANCH  28  33
ATOM     33  O   UNL     1      17.909  35.953 124.182  1.00  0.00    -0.387 OA
ATOM     34  H   UNL     1      17.710  35.402 123.380  1.00  0.00     0.211 HD
ENDBRANCH  28  33
BRANCH  29  35
ATOM     35  C   UNL     1      17.837  37.464 127.265  1.00  0.00     0.191 C 
BRANCH  35  36
ATOM     36  O   UNL     1      18.033  36.154 126.809  1.00  0.00    -0.394 OA
ATOM     37  H   UNL     1      18.985  35.920 126.974  1.00  0.00     0.210 HD
ENDBRANCH  35  36
ENDBRANCH  29  35
BRANCH  30  38
ATOM     38  O   UNL     1      19.770  37.698 125.142  1.00  0.00    -0.387 OA
ATOM     39  H   UNL     1      20.213  38.359 125.734  1.00  0.00     0.211 HD
ENDBRANCH  30  38
ENDBRANCH   1  25
TORSDOF 11
ENDMDL
MODEL 3
REMARK VINA RESULT:    -6.455      2.750      5.195
REMARK INTER + INTRA:         -11.431
REMARK INTER:                  -9.618
REMARK INTRA:                  -1.813
REMARK UNBOUND:                -2.146
REMARK SMILES O=c1c(O[C@H]2O[C@@H](CO)[C@@H](O)[C@@H](O)[C@H]2O)c(-c2ccc(O)cc2)oc2cc(O)cc(O)c12
REMARK SMILES IDX 4 1 3 2 16 3 24 4 2 5 25 6 1 7 32 8 26 9 30 10 27 11 29 12
REMARK SMILES IDX 17 13 18 14 19 15 20 16 23 17 22 18 21 19 31 21 28 23 5 25
REMARK SMILES IDX 14 26 6 27 12 28 7 29 10 30 15 31 13 33 8 35 9 36 11 38
REMARK H PARENT 21 20 31 22 28 24 15 32 13 34 9 37 11 39
REMARK Flexibility Score: inf
ROOT
ATOM      1  O   UNL     1      13.180  34.963 124.633  1.00  0.00    -0.454 OA
ENDROOT
BRANCH   1   2
ATOM      2  C   UNL     1      14.295  35.640 124.089  1.00  0.00     0.214 A 
ATOM      3  C   UNL     1      14.709  36.902 124.614  1.00  0.00     0.180 A 
ATOM      4  O   UNL     1      15.704  37.553 124.012  1.00  0.00    -0.452 OA
ATOM      5  C   UNL     1      15.041  35.100 123.005  1.00  0.00     0.239 A 
ATOM      6  C   UNL     1      16.375  37.103 122.965  1.00  0.00     0.146 A 
ATOM      7  O   UNL     1      14.789  33.943 122.573  1.00  0.00    -0.285 OA
ATOM      8  C   UNL     1      16.084  35.841 122.420  1.00  0.00     0.111 A 
ATOM      9  C   UNL     1      17.385  37.899 122.412  1.00  0.00     0.094 A 
ATOM     10  C   UNL     1      16.848  35.372 121.320  1.00  0.00     0.134 A 
ATOM     11  C   UNL     1      18.128  37.440 121.324  1.00  0.00     0.123 A 
ATOM     12  C   UNL     1      17.861  36.179 120.780  1.00  0.00     0.093 A 
BRANCH   3  13
ATOM     13  C   UNL     1      14.128  37.600 125.822  1.00  0.00     0.021 A 
ATOM     14  C   UNL     1      14.077  37.053 127.125  1.00  0.00     0.016 A 
ATOM     15  C   UNL     1      13.554  37.782 128.195  1.00  0.00     0.047 A 
ATOM     16  C   UNL     1      13.040  39.063 127.994  1.00  0.00     0.115 A 
ATOM     17  C   UNL     1      13.598  38.903 125.645  1.00  0.00     0.016 A 
ATOM     18  C   UNL     1      13.066  39.624 126.717  1.00  0.00     0.047 A 
BRANCH  16  19
ATOM     19  O   UNL     1      12.536  39.781 129.077  1.00  0.00    -0.508 OA
ATOM     20  H   UNL     1      12.879  39.625 130.018  1.00  0.00     0.293 HD
ENDBRANCH  16  19
ENDBRANCH   3  13
BRANCH  10  21
ATOM     21  O   UNL     1      16.616  34.113 120.766  1.00  0.00    -0.507 OA
ATOM     22  H   UNL     1      16.414  33.989 119.780  1.00  0.00     0.293 HD
ENDBRANCH  10  21
BRANCH  11  23
ATOM     23  O   UNL     1      19.137  38.242 120.795  1.00  0.00    -0.508 OA
ATOM     24  H   UNL     1      19.773  38.758 121.392  1.00  0.00     0.293 HD
ENDBRANCH  11  23
ENDBRANCH   1   2
BRANCH   1  25
ATOM     25  C   UNL     1      11.865  34.900 124.066  1.00  0.00     0.339 C 
ATOM     26  C   UNL     1      10.755  35.214 125.088  1.00  0.00     0.214 C 
ATOM     27  O   UNL     1      11.639  33.665 123.401  1.00  0.00    -0.332 OA
ATOM     28  C   UNL     1      10.538  34.082 126.107  1.00  0.00     0.180 C 
ATOM     29  C   UNL     1      11.524  32.545 124.271  1.00  0.00     0.179 C 
ATOM     30  C   UNL     1      10.449  32.727 125.379  1.00  0.00     0.177 C 
BRANCH  26  31
ATOM     31  O   UNL     1      10.962  36.463 125.704  1.00  0.00    -0.384 OA
ATOM     32  H   UNL     1      10.408  37.135 125.235  1.00  0.00     0.211 HD
ENDBRANCH  26  31
BRANCH  28  33
ATOM     33  O   UNL     1      11.558  34.066 127.067  1.00  0.00    -0.387 OA
ATOM     34  H   UNL     1      11.794  35.011 127.263  1.00  0.00     0.211 HD
ENDBRANCH  28  33
BRANCH  29  35
ATOM     35  C   UNL     1      12.896  31.970 124.700  1.00  0.00     0.191 C 
BRANCH  35  36
ATOM     36  O   UNL     1      13.326  32.470 125.936  1.00  0.00    -0.394 OA
ATOM     37  H   UNL     1      12.675  33.167 126.218  1.00  0.00     0.210 HD
ENDBRANCH  35  36
ENDBRANCH  29  35
BRANCH  30  38
ATOM     38  O   UNL     1      10.518  31.667 126.299  1.00  0.00    -0.387 OA
ATOM     39  H   UNL     1      11.064  31.979 127.066  1.00  0.00     0.211 HD
ENDBRANCH  30  38
ENDBRANCH   1  25
TORSDOF 11
ENDMDL
MODEL 4
REMARK VINA RESULT:    -6.449      2.859      5.068
REMARK INTER + INTRA:         -11.422
REMARK INTER:                  -9.302
REMARK INTRA:                  -2.120
REMARK UNBOUND:                -2.146
REMARK SMILES O=c1c(O[C@H]2O[C@@H](CO)[C@@H](O)[C@@H](O)[C@H]2O)c(-c2ccc(O)cc2)oc2cc(O)cc(O)c12
REMARK SMILES IDX 4 1 3 2 16 3 24 4 2 5 25 6 1 7 32 8 26 9 30 10 27 11 29 12
REMARK SMILES IDX 17 13 18 14 19 15 20 16 23 17 22 18 21 19 31 21 28 23 5 25
REMARK SMILES IDX 14 26 6 27 12 28 7 29 10 30 15 31 13 33 8 35 9 36 11 38
REMARK H PARENT 21 20 31 22 28 24 15 32 13 34 9 37 11 39
REMARK Flexibility Score: inf
ROOT
ATOM      1  O   UNL     1      13.336  34.481 124.490  1.00  0.00    -0.454 OA
ENDROOT
BRANCH   1   2
ATOM      2  C   UNL     1      14.423  35.218 123.965  1.00  0.00     0.214 A 
ATOM      3  C   UNL     1      14.762  36.499 124.500  1.00  0.00     0.180 A 
ATOM      4  O   UNL     1      15.730  37.203 123.915  1.00  0.00    -0.452 OA
ATOM      5  C   UNL     1      15.212  34.721 122.892  1.00  0.00     0.239 A 
ATOM      6  C   UNL     1      16.440  36.792 122.877  1.00  0.00     0.146 A 
ATOM      7  O   UNL     1      15.028  33.554 122.453  1.00  0.00    -0.285 OA
ATOM      8  C   UNL     1      16.224  35.518 122.325  1.00  0.00     0.111 A 
ATOM      9  C   UNL     1      17.415  37.642 122.341  1.00  0.00     0.094 A 
ATOM     10  C   UNL     1      17.028  35.093 121.235  1.00  0.00     0.134 A 
ATOM     11  C   UNL     1      18.197  37.226 121.264  1.00  0.00     0.123 A 
ATOM     12  C   UNL     1      18.006  35.954 120.713  1.00  0.00     0.093 A 
BRANCH   3  13
ATOM     13  C   UNL     1      14.126  37.161 125.700  1.00  0.00     0.021 A 
ATOM     14  C   UNL     1      14.319  36.759 127.041  1.00  0.00     0.016 A 
ATOM     15  C   UNL     1      13.720  37.452 128.097  1.00  0.00     0.047 A 
ATOM     16  C   UNL     1      12.890  38.543 127.845  1.00  0.00     0.115 A 
ATOM     17  C   UNL     1      13.276  38.273 125.472  1.00  0.00     0.016 A 
ATOM     18  C   UNL     1      12.671  38.956 126.530  1.00  0.00     0.047 A 
BRANCH  16  19
ATOM     19  O   UNL     1      12.313  39.231 128.912  1.00  0.00    -0.508 OA
ATOM     20  H   UNL     1      12.545  39.003 129.872  1.00  0.00     0.293 HD
ENDBRANCH  16  19
ENDBRANCH   3  13
BRANCH  10  21
ATOM     21  O   UNL     1      16.871  33.825 120.675  1.00  0.00    -0.507 OA
ATOM     22  H   UNL     1      17.130  32.981 121.174  1.00  0.00     0.293 HD
ENDBRANCH  10  21
BRANCH  11  23
ATOM     23  O   UNL     1      19.171  38.081 120.752  1.00  0.00    -0.508 OA
ATOM     24  H   UNL     1      20.159  37.902 120.887  1.00  0.00     0.293 HD
ENDBRANCH  11  23
ENDBRANCH   1   2
BRANCH   1  25
ATOM     25  C   UNL     1      13.411  33.449 125.482  1.00  0.00     0.339 C 
ATOM     26  C   UNL     1      12.786  32.120 125.013  1.00  0.00     0.214 C 
ATOM     27  O   UNL     1      12.874  33.878 126.725  1.00  0.00    -0.332 OA
ATOM     28  C   UNL     1      11.249  32.167 124.953  1.00  0.00     0.180 C 
ATOM     29  C   UNL     1      11.460  34.041 126.728  1.00  0.00     0.179 C 
ATOM     30  C   UNL     1      10.688  32.779 126.251  1.00  0.00     0.177 C 
BRANCH  26  31
ATOM     31  O   UNL     1      13.361  31.680 123.806  1.00  0.00    -0.384 OA
ATOM     32  H   UNL     1      14.338  31.823 123.857  1.00  0.00     0.211 HD
ENDBRANCH  26  31
BRANCH  28  33
ATOM     33  O   UNL     1      10.810  32.885 123.833  1.00  0.00    -0.387 OA
ATOM     34  H   UNL     1      11.565  33.456 123.534  1.00  0.00     0.211 HD
ENDBRANCH  28  33
BRANCH  29  35
ATOM     35  C   UNL     1      11.009  35.407 126.155  1.00  0.00     0.191 C 
BRANCH  35  36
ATOM     36  O   UNL     1      10.555  35.312 124.833  1.00  0.00    -0.394 OA
ATOM     37  H   UNL     1       9.708  35.829 124.770  1.00  0.00     0.210 HD
ENDBRANCH  35  36
ENDBRANCH  29  35
BRANCH  30  38
ATOM     38  O   UNL     1       9.322  33.071 126.109  1.00  0.00    -0.387 OA
ATOM     39  H   UNL     1       9.256  33.986 125.729  1.00  0.00     0.211 HD
ENDBRANCH  30  38
ENDBRANCH   1  25
TORSDOF 11
ENDMDL
MODEL 5
REMARK VINA RESULT:    -6.409      1.982      6.227
REMARK INTER + INTRA:         -11.365
REMARK INTER:                  -9.324
REMARK INTRA:                  -2.040
REMARK UNBOUND:                -2.146
REMARK SMILES O=c1c(O[C@H]2O[C@@H](CO)[C@@H](O)[C@@H](O)[C@H]2O)c(-c2ccc(O)cc2)oc2cc(O)cc(O)c12
REMARK SMILES IDX 4 1 3 2 16 3 24 4 2 5 25 6 1 7 32 8 26 9 30 10 27 11 29 12
REMARK SMILES IDX 17 13 18 14 19 15 20 16 23 17 22 18 21 19 31 21 28 23 5 25
REMARK SMILES IDX 14 26 6 27 12 28 7 29 10 30 15 31 13 33 8 35 9 36 11 38
REMARK H PARENT 21 20 31 22 28 24 15 32 13 34 9 37 11 39
REMARK Flexibility Score: inf
ROOT
ATOM      1  O   UNL     1      15.031  35.170 122.711  1.00  0.00    -0.454 OA
ENDROOT
BRANCH   1   2
ATOM      2  C   UNL     1      14.068  35.040 123.738  1.00  0.00     0.214 A 
ATOM      3  C   UNL     1      14.318  35.567 125.042  1.00  0.00     0.180 A 
ATOM      4  O   UNL     1      13.427  35.340 126.007  1.00  0.00    -0.452 OA
ATOM      5  C   UNL     1      12.826  34.386 123.517  1.00  0.00     0.239 A 
ATOM      6  C   UNL     1      12.292  34.680 125.846  1.00  0.00     0.146 A 
ATOM      7  O   UNL     1      12.506  33.998 122.362  1.00  0.00    -0.285 OA
ATOM      8  C   UNL     1      11.929  34.185 124.582  1.00  0.00     0.111 A 
ATOM      9  C   UNL     1      11.454  34.491 126.951  1.00  0.00     0.094 A 
ATOM     10  C   UNL     1      10.686  33.514 124.436  1.00  0.00     0.134 A 
ATOM     11  C   UNL     1      10.238  33.823 126.807  1.00  0.00     0.123 A 
ATOM     12  C   UNL     1       9.854  33.337 125.552  1.00  0.00     0.093 A 
BRANCH   3  13
ATOM     13  C   UNL     1      15.518  36.385 125.459  1.00  0.00     0.021 A 
ATOM     14  C   UNL     1      15.687  37.764 125.196  1.00  0.00     0.016 A 
ATOM     15  C   UNL     1      16.813  38.454 125.651  1.00  0.00     0.047 A 
ATOM     16  C   UNL     1      17.816  37.785 126.353  1.00  0.00     0.115 A 
ATOM     17  C   UNL     1      16.552  35.730 126.174  1.00  0.00     0.016 A 
ATOM     18  C   UNL     1      17.682  36.422 126.617  1.00  0.00     0.047 A 
BRANCH  16  19
ATOM     19  O   UNL     1      18.925  38.493 126.811  1.00  0.00    -0.508 OA
ATOM     20  H   UNL     1      19.205  38.460 127.786  1.00  0.00     0.293 HD
ENDBRANCH  16  19
ENDBRANCH   3  13
BRANCH  10  21
ATOM     21  O   UNL     1      10.270  33.032 123.195  1.00  0.00    -0.507 OA
ATOM     22  H   UNL     1       9.424  32.482 123.088  1.00  0.00     0.293 HD
ENDBRANCH  10  21
BRANCH  11  23
ATOM     23  O   UNL     1       9.412  33.654 127.915  1.00  0.00    -0.508 OA
ATOM     24  H   UNL     1       9.088  34.445 128.461  1.00  0.00     0.293 HD
ENDBRANCH  11  23
ENDBRANCH   1   2
BRANCH   1  25
ATOM     25  C   UNL     1      14.918  35.986 121.538  1.00  0.00     0.339 C 
ATOM     26  C   UNL     1      15.038  35.179 120.231  1.00  0.00     0.214 C 
ATOM     27  O   UNL     1      15.824  37.079 121.571  1.00  0.00    -0.332 OA
ATOM     28  C   UNL     1      16.473  34.702 119.949  1.00  0.00     0.180 C 
ATOM     29  C   UNL     1      17.190  36.713 121.414  1.00  0.00     0.179 C 
ATOM     30  C   UNL     1      17.464  35.866 120.140  1.00  0.00     0.177 C 
BRANCH  26  31
ATOM     31  O   UNL     1      14.101  34.128 120.187  1.00  0.00    -0.384 OA
ATOM     32  H   UNL     1      13.958  33.879 119.241  1.00  0.00     0.211 HD
ENDBRANCH  26  31
BRANCH  28  33
ATOM     33  O   UNL     1      16.815  33.618 120.768  1.00  0.00    -0.387 OA
ATOM     34  H   UNL     1      17.792  33.471 120.672  1.00  0.00     0.211 HD
ENDBRANCH  28  33
BRANCH  29  35
ATOM     35  C   UNL     1      17.843  36.238 122.736  1.00  0.00     0.191 C 
BRANCH  35  36
ATOM     36  O   UNL     1      17.884  34.842 122.843  1.00  0.00    -0.394 OA
ATOM     37  H   UNL     1      17.021  34.547 123.239  1.00  0.00     0.210 HD
ENDBRANCH  35  36
ENDBRANCH  29  35
BRANCH  30  38
ATOM     38  O   UNL     1      18.786  35.394 120.147  1.00  0.00    -0.387 OA
ATOM     39  H   UNL     1      18.763  34.451 119.839  1.00  0.00     0.211 HD
ENDBRANCH  30  38
ENDBRANCH   1  25
TORSDOF 11
ENDMDL
MODEL 6
REMARK VINA RESULT:    -6.231      1.849      6.138
REMARK INTER + INTRA:         -11.109
REMARK INTER:                  -9.788
REMARK INTRA:                  -1.321
REMARK UNBOUND:                -2.146
REMARK SMILES O=c1c(O[C@H]2O[C@@H](CO)[C@@H](O)[C@@H](O)[C@H]2O)c(-c2ccc(O)cc2)oc2cc(O)cc(O)c12
REMARK SMILES IDX 4 1 3 2 16 3 24 4 2 5 25 6 1 7 32 8 26 9 30 10 27 11 29 12
REMARK SMILES IDX 17 13 18 14 19 15 20 16 23 17 22 18 21 19 31 21 28 23 5 25
REMARK SMILES IDX 14 26 6 27 12 28 7 29 10 30 15 31 13 33 8 35 9 36 11 38
REMARK H PARENT 21 20 31 22 28 24 15 32 13 34 9 37 11 39
REMARK Flexibility Score: inf
ROOT
ATOM      1  O   UNL     1      15.323  36.034 122.731  1.00  0.00    -0.454 OA
ENDROOT
BRANCH   1   2
ATOM      2  C   UNL     1      14.403  35.655 123.736  1.00  0.00     0.214 A 
ATOM      3  C   UNL     1      14.720  35.829 125.118  1.00  0.00     0.180 A 
ATOM      4  O   UNL     1      13.868  35.371 126.034  1.00  0.00    -0.452 OA
ATOM      5  C   UNL     1      13.139  35.088 123.415  1.00  0.00     0.239 A 
ATOM      6  C   UNL     1      12.714  34.784 125.765  1.00  0.00     0.146 A 
ATOM      7  O   UNL     1      12.762  35.011 122.215  1.00  0.00    -0.285 OA
ATOM      8  C   UNL     1      12.286  34.630 124.435  1.00  0.00     0.111 A 
ATOM      9  C   UNL     1      11.921  34.327 126.824  1.00  0.00     0.094 A 
ATOM     10  C   UNL     1      11.025  34.030 124.183  1.00  0.00     0.134 A 
ATOM     11  C   UNL     1      10.687  33.727 126.572  1.00  0.00     0.123 A 
ATOM     12  C   UNL     1      10.239  33.581 125.255  1.00  0.00     0.093 A 
BRANCH   3  13
ATOM     13  C   UNL     1      15.954  36.504 125.672  1.00  0.00     0.021 A 
ATOM     14  C   UNL     1      16.977  35.851 126.395  1.00  0.00     0.016 A 
ATOM     15  C   UNL     1      18.104  36.545 126.841  1.00  0.00     0.047 A 
ATOM     16  C   UNL     1      18.230  37.914 126.606  1.00  0.00     0.115 A 
ATOM     17  C   UNL     1      16.106  37.896 125.447  1.00  0.00     0.016 A 
ATOM     18  C   UNL     1      17.230  38.588 125.904  1.00  0.00     0.047 A 
BRANCH  16  19
ATOM     19  O   UNL     1      19.369  38.586 127.045  1.00  0.00    -0.508 OA
ATOM     20  H   UNL     1      19.392  39.598 127.105  1.00  0.00     0.293 HD
ENDBRANCH  16  19
ENDBRANCH   3  13
BRANCH  10  21
ATOM     21  O   UNL     1      10.545  33.884 122.881  1.00  0.00    -0.507 OA
ATOM     22  H   UNL     1      10.064  33.044 122.577  1.00  0.00     0.293 HD
ENDBRANCH  10  21
BRANCH  11  23
ATOM     23  O   UNL     1       9.907  33.289 127.640  1.00  0.00    -0.508 OA
ATOM     24  H   UNL     1      10.076  32.395 128.088  1.00  0.00     0.293 HD
ENDBRANCH  11  23
ENDBRANCH   1   2
BRANCH   1  25
ATOM     25  C   UNL     1      16.125  35.151 121.936  1.00  0.00     0.339 C 
ATOM     26  C   UNL     1      17.629  35.251 122.260  1.00  0.00     0.214 C 
ATOM     27  O   UNL     1      15.869  35.315 120.549  1.00  0.00    -0.332 OA
ATOM     28  C   UNL     1      18.269  36.550 121.741  1.00  0.00     0.180 C 
ATOM     29  C   UNL     1      16.346  36.542 120.007  1.00  0.00     0.179 C 
ATOM     30  C   UNL     1      17.856  36.795 120.278  1.00  0.00     0.177 C 
BRANCH  26  31
ATOM     31  O   UNL     1      17.875  35.036 123.630  1.00  0.00    -0.384 OA
ATOM     32  H   UNL     1      18.536  34.305 123.715  1.00  0.00     0.211 HD
ENDBRANCH  26  31
BRANCH  28  33
ATOM     33  O   UNL     1      17.920  37.642 122.547  1.00  0.00    -0.387 OA
ATOM     34  H   UNL     1      18.745  38.172 122.700  1.00  0.00     0.211 HD
ENDBRANCH  28  33
BRANCH  29  35
ATOM     35  C   UNL     1      15.375  37.724 120.244  1.00  0.00     0.191 C 
BRANCH  35  36
ATOM     36  O   UNL     1      14.051  37.304 120.431  1.00  0.00    -0.394 OA
ATOM     37  H   UNL     1      14.010  36.338 120.201  1.00  0.00     0.210 HD
ENDBRANCH  35  36
ENDBRANCH  29  35
BRANCH  30  38
ATOM     38  O   UNL     1      18.208  38.093 119.875  1.00  0.00    -0.387 OA
ATOM     39  H   UNL     1      17.680  38.302 119.061  1.00  0.00     0.211 HD
ENDBRANCH  30  38
ENDBRANCH   1  25
TORSDOF 11
ENDMDL
MODEL 7
REMARK VINA RESULT:    -6.161      2.318      6.510
REMARK INTER + INTRA:         -11.007
REMARK INTER:                  -9.244
REMARK INTRA:                  -1.764
REMARK UNBOUND:                -2.146
REMARK SMILES O=c1c(O[C@H]2O[C@@H](CO)[C@@H](O)[C@@H](O)[C@H]2O)c(-c2ccc(O)cc2)oc2cc(O)cc(O)c12
REMARK SMILES IDX 4 1 3 2 16 3 24 4 2 5 25 6 1 7 32 8 26 9 30 10 27 11 29 12
REMARK SMILES IDX 17 13 18 14 19 15 20 16 23 17 22 18 21 19 31 21 28 23 5 25
REMARK SMILES IDX 14 26 6 27 12 28 7 29 10 30 15 31 13 33 8 35 9 36 11 38
REMARK H PARENT 21 20 31 22 28 24 15 32 13 34 9 37 11 39
REMARK Flexibility Score: inf
ROOT
ATOM      1  O   UNL     1      15.585  35.980 124.669  1.00  0.00    -0.454 OA
ENDROOT
BRANCH   1   2
ATOM      2  C   UNL     1      14.610  35.200 124.005  1.00  0.00     0.214 A 
ATOM      3  C   UNL     1      13.273  35.126 124.503  1.00  0.00     0.180 A 
ATOM      4  O   UNL     1      12.410  34.305 123.905  1.00  0.00    -0.452 OA
ATOM      5  C   UNL     1      14.918  34.462 122.830  1.00  0.00     0.239 A 
ATOM      6  C   UNL     1      12.686  33.560 122.848  1.00  0.00     0.146 A 
ATOM      7  O   UNL     1      16.049  34.575 122.285  1.00  0.00    -0.285 OA
ATOM      8  C   UNL     1      13.955  33.617 122.247  1.00  0.00     0.111 A 
ATOM      9  C   UNL     1      11.693  32.720 122.330  1.00  0.00     0.094 A 
ATOM     10  C   UNL     1      14.207  32.833 121.091  1.00  0.00     0.134 A 
ATOM     11  C   UNL     1      11.947  31.942 121.200  1.00  0.00     0.123 A 
ATOM     12  C   UNL     1      13.200  32.000 120.581  1.00  0.00     0.093 A 
BRANCH   3  13
ATOM     13  C   UNL     1      12.710  35.908 125.667  1.00  0.00     0.021 A 
ATOM     14  C   UNL     1      13.250  35.915 126.973  1.00  0.00     0.016 A 
ATOM     15  C   UNL     1      12.687  36.698 127.984  1.00  0.00     0.047 A 
ATOM     16  C   UNL     1      11.554  37.470 127.732  1.00  0.00     0.115 A 
ATOM     17  C   UNL     1      11.557  36.702 125.438  1.00  0.00     0.016 A 
ATOM     18  C   UNL     1      10.991  37.474 126.455  1.00  0.00     0.047 A 
BRANCH  16  19
ATOM     19  O   UNL     1      11.015  38.256 128.749  1.00  0.00    -0.508 OA
ATOM     20  H   UNL     1      10.693  39.201 128.570  1.00  0.00     0.293 HD
ENDBRANCH  16  19
ENDBRANCH   3  13
BRANCH  10  21
ATOM     21  O   UNL     1      15.441  32.881 120.443  1.00  0.00    -0.507 OA
ATOM     22  H   UNL     1      15.527  33.149 119.469  1.00  0.00     0.293 HD
ENDBRANCH  10  21
BRANCH  11  23
ATOM     23  O   UNL     1      10.942  31.121 120.693  1.00  0.00    -0.508 OA
ATOM     24  H   UNL     1      10.513  31.302 119.793  1.00  0.00     0.293 HD
ENDBRANCH  11  23
ENDBRANCH   1   2
BRANCH   1  25
ATOM     25  C   UNL     1      15.637  37.412 124.718  1.00  0.00     0.339 C 
ATOM     26  C   UNL     1      16.376  38.028 123.514  1.00  0.00     0.214 C 
ATOM     27  O   UNL     1      16.162  37.874 125.955  1.00  0.00    -0.332 OA
ATOM     28  C   UNL     1      17.898  37.816 123.570  1.00  0.00     0.180 C 
ATOM     29  C   UNL     1      17.553  37.628 126.129  1.00  0.00     0.179 C 
ATOM     30  C   UNL     1      18.431  38.176 124.969  1.00  0.00     0.177 C 
BRANCH  26  31
ATOM     31  O   UNL     1      15.814  37.602 122.295  1.00  0.00    -0.384 OA
ATOM     32  H   UNL     1      15.503  38.400 121.801  1.00  0.00     0.211 HD
ENDBRANCH  26  31
BRANCH  28  33
ATOM     33  O   UNL     1      18.236  36.499 123.232  1.00  0.00    -0.387 OA
ATOM     34  H   UNL     1      18.585  36.063 124.054  1.00  0.00     0.211 HD
ENDBRANCH  28  33
BRANCH  29  35
ATOM     35  C   UNL     1      17.854  36.194 126.630  1.00  0.00     0.191 C 
BRANCH  35  36
ATOM     36  O   UNL     1      18.032  35.283 125.580  1.00  0.00    -0.394 OA
ATOM     37  H   UNL     1      18.580  35.734 124.884  1.00  0.00     0.210 HD
ENDBRANCH  35  36
ENDBRANCH  29  35
BRANCH  30  38
ATOM     38  O   UNL     1      19.758  37.742 125.120  1.00  0.00    -0.387 OA
ATOM     39  H   UNL     1      19.896  37.548 126.084  1.00  0.00     0.211 HD
ENDBRANCH  30  38
ENDBRANCH   1  25
TORSDOF 11
ENDMDL
MODEL 8
REMARK VINA RESULT:    -6.121      2.559      4.943
REMARK INTER + INTRA:         -10.950
REMARK INTER:                  -9.351
REMARK INTRA:                  -1.599
REMARK UNBOUND:                -2.146
REMARK SMILES O=c1c(O[C@H]2O[C@@H](CO)[C@@H](O)[C@@H](O)[C@H]2O)c(-c2ccc(O)cc2)oc2cc(O)cc(O)c12
REMARK SMILES IDX 4 1 3 2 16 3 24 4 2 5 25 6 1 7 32 8 26 9 30 10 27 11 29 12
REMARK SMILES IDX 17 13 18 14 19 15 20 16 23 17 22 18 21 19 31 21 28 23 5 25
REMARK SMILES IDX 14 26 6 27 12 28 7 29 10 30 15 31 13 33 8 35 9 36 11 38
REMARK H PARENT 21 20 31 22 28 24 15 32 13 34 9 37 11 39
REMARK Flexibility Score: inf
ROOT
ATOM      1  O   UNL     1      13.209  35.304 124.373  1.00  0.00    -0.454 OA
ENDROOT
BRANCH   1   2
ATOM      2  C   UNL     1      14.281  36.099 124.842  1.00  0.00     0.214 A 
ATOM      3  C   UNL     1      14.247  37.521 124.708  1.00  0.00     0.180 A 
ATOM      4  O   UNL     1      15.317  38.225 125.075  1.00  0.00    -0.452 OA
ATOM      5  C   UNL     1      15.424  35.521 125.458  1.00  0.00     0.239 A 
ATOM      6  C   UNL     1      16.419  37.709 125.593  1.00  0.00     0.146 A 
ATOM      7  O   UNL     1      15.461  34.285 125.701  1.00  0.00    -0.285 OA
ATOM      8  C   UNL     1      16.518  36.326 125.826  1.00  0.00     0.111 A 
ATOM      9  C   UNL     1      17.483  38.560 125.914  1.00  0.00     0.094 A 
ATOM     10  C   UNL     1      17.699  35.809 126.418  1.00  0.00     0.134 A 
ATOM     11  C   UNL     1      18.647  38.048 126.487  1.00  0.00     0.123 A 
ATOM     12  C   UNL     1      18.755  36.677 126.740  1.00  0.00     0.093 A 
BRANCH   3  13
ATOM     13  C   UNL     1      13.090  38.340 124.185  1.00  0.00     0.021 A 
ATOM     14  C   UNL     1      12.614  38.308 122.855  1.00  0.00     0.016 A 
ATOM     15  C   UNL     1      11.512  39.073 122.463  1.00  0.00     0.047 A 
ATOM     16  C   UNL     1      10.875  39.914 123.375  1.00  0.00     0.115 A 
ATOM     17  C   UNL     1      12.425  39.204 125.092  1.00  0.00     0.016 A 
ATOM     18  C   UNL     1      11.331  39.975 124.692  1.00  0.00     0.047 A 
BRANCH  16  19
ATOM     19  O   UNL     1       9.769  40.658 122.970  1.00  0.00    -0.508 OA
ATOM     20  H   UNL     1       9.234  40.401 122.147  1.00  0.00     0.293 HD
ENDBRANCH  16  19
ENDBRANCH   3  13
BRANCH  10  21
ATOM     21  O   UNL     1      17.830  34.449 126.696  1.00  0.00    -0.507 OA
ATOM     22  H   UNL     1      17.960  33.760 125.962  1.00  0.00     0.293 HD
ENDBRANCH  10  21
BRANCH  11  23
ATOM     23  O   UNL     1      19.690  38.913 126.810  1.00  0.00    -0.508 OA
ATOM     24  H   UNL     1      20.246  39.366 126.093  1.00  0.00     0.293 HD
ENDBRANCH  11  23
ENDBRANCH   1   2
BRANCH   1  25
ATOM     25  C   UNL     1      11.835  35.415 124.764  1.00  0.00     0.339 C 
ATOM     26  C   UNL     1      11.611  35.121 126.261  1.00  0.00     0.214 C 
ATOM     27  O   UNL     1      10.990  34.628 123.937  1.00  0.00    -0.332 OA
ATOM     28  C   UNL     1      11.750  33.629 126.608  1.00  0.00     0.180 C 
ATOM     29  C   UNL     1      11.128  33.224 124.127  1.00  0.00     0.179 C 
ATOM     30  C   UNL     1      10.950  32.776 125.605  1.00  0.00     0.177 C 
BRANCH  26  31
ATOM     31  O   UNL     1      12.417  35.942 127.072  1.00  0.00    -0.384 OA
ATOM     32  H   UNL     1      12.028  35.957 127.981  1.00  0.00     0.211 HD
ENDBRANCH  26  31
BRANCH  28  33
ATOM     33  O   UNL     1      13.096  33.240 126.629  1.00  0.00    -0.387 OA
ATOM     34  H   UNL     1      13.315  32.985 127.564  1.00  0.00     0.211 HD
ENDBRANCH  28  33
BRANCH  29  35
ATOM     35  C   UNL     1      12.320  32.623 123.342  1.00  0.00     0.191 C 
BRANCH  35  36
ATOM     36  O   UNL     1      13.461  32.460 124.138  1.00  0.00    -0.394 OA
ATOM     37  H   UNL     1      14.114  31.922 123.617  1.00  0.00     0.210 HD
ENDBRANCH  35  36
ENDBRANCH  29  35
BRANCH  30  38
ATOM     38  O   UNL     1      11.275  31.417 125.741  1.00  0.00    -0.387 OA
ATOM     39  H   UNL     1      11.047  30.973 124.884  1.00  0.00     0.211 HD
ENDBRANCH  30  38
ENDBRANCH   1  25
TORSDOF 11
ENDMDL
MODEL 9
REMARK VINA RESULT:    -6.069      2.614      5.953
REMARK INTER + INTRA:         -10.876
REMARK INTER:                  -8.975
REMARK INTRA:                  -1.901
REMARK UNBOUND:                -2.146
REMARK SMILES O=c1c(O[C@H]2O[C@@H](CO)[C@@H](O)[C@@H](O)[C@H]2O)c(-c2ccc(O)cc2)oc2cc(O)cc(O)c12
REMARK SMILES IDX 4 1 3 2 16 3 24 4 2 5 25 6 1 7 32 8 26 9 30 10 27 11 29 12
REMARK SMILES IDX 17 13 18 14 19 15 20 16 23 17 22 18 21 19 31 21 28 23 5 25
REMARK SMILES IDX 14 26 6 27 12 28 7 29 10 30 15 31 13 33 8 35 9 36 11 38
REMARK H PARENT 21 20 31 22 28 24 15 32 13 34 9 37 11 39
REMARK Flexibility Score: inf
ROOT
ATOM      1  O   UNL     1      14.275  35.922 124.001  1.00  0.00    -0.454 OA
ENDROOT
BRANCH   1   2
ATOM      2  C   UNL     1      13.693  36.527 125.139  1.00  0.00     0.214 A 
ATOM      3  C   UNL     1      14.512  37.096 126.162  1.00  0.00     0.180 A 
ATOM      4  O   UNL     1      13.928  37.569 127.262  1.00  0.00    -0.452 OA
ATOM      5  C   UNL     1      12.283  36.590 125.311  1.00  0.00     0.239 A 
ATOM      6  C   UNL     1      12.623  37.584 127.477  1.00  0.00     0.146 A 
ATOM      7  O   UNL     1      11.511  36.202 124.393  1.00  0.00    -0.285 OA
ATOM      8  C   UNL     1      11.734  37.108 126.498  1.00  0.00     0.111 A 
ATOM      9  C   UNL     1      12.140  38.090 128.689  1.00  0.00     0.094 A 
ATOM     10  C   UNL     1      10.338  37.174 126.745  1.00  0.00     0.134 A 
ATOM     11  C   UNL     1      10.767  38.143 128.934  1.00  0.00     0.123 A 
ATOM     12  C   UNL     1       9.868  37.688 127.963  1.00  0.00     0.093 A 
BRANCH   3  13
ATOM     13  C   UNL     1      16.017  37.230 126.128  1.00  0.00     0.021 A 
ATOM     14  C   UNL     1      16.921  36.339 126.748  1.00  0.00     0.016 A 
ATOM     15  C   UNL     1      18.303  36.517 126.636  1.00  0.00     0.047 A 
ATOM     16  C   UNL     1      18.821  37.602 125.931  1.00  0.00     0.115 A 
ATOM     17  C   UNL     1      16.569  38.325 125.418  1.00  0.00     0.016 A 
ATOM     18  C   UNL     1      17.951  38.505 125.318  1.00  0.00     0.047 A 
BRANCH  16  19
ATOM     19  O   UNL     1      20.201  37.755 125.817  1.00  0.00    -0.508 OA
ATOM     20  H   UNL     1      20.769  37.070 125.331  1.00  0.00     0.293 HD
ENDBRANCH  16  19
ENDBRANCH   3  13
BRANCH  10  21
ATOM     21  O   UNL     1       9.416  36.742 125.791  1.00  0.00    -0.507 OA
ATOM     22  H   UNL     1       8.445  36.564 126.023  1.00  0.00     0.293 HD
ENDBRANCH  10  21
BRANCH  11  23
ATOM     23  O   UNL     1      10.305  38.660 130.142  1.00  0.00    -0.508 OA
ATOM     24  H   UNL     1      10.641  38.310 131.032  1.00  0.00     0.293 HD
ENDBRANCH  11  23
ENDBRANCH   1   2
BRANCH   1  25
ATOM     25  C   UNL     1      14.109  36.340 122.639  1.00  0.00     0.339 C 
ATOM     26  C   UNL     1      13.528  35.233 121.738  1.00  0.00     0.214 C 
ATOM     27  O   UNL     1      15.311  36.879 122.107  1.00  0.00    -0.332 OA
ATOM     28  C   UNL     1      14.537  34.112 121.435  1.00  0.00     0.180 C 
ATOM     29  C   UNL     1      16.337  35.918 121.887  1.00  0.00     0.179 C 
ATOM     30  C   UNL     1      15.887  34.718 121.007  1.00  0.00     0.177 C 
BRANCH  26  31
ATOM     31  O   UNL     1      12.311  34.741 122.250  1.00  0.00    -0.384 OA
ATOM     32  H   UNL     1      12.079  35.264 123.056  1.00  0.00     0.211 HD
ENDBRANCH  26  31
BRANCH  28  33
ATOM     33  O   UNL     1      14.699  33.267 122.541  1.00  0.00    -0.387 OA
ATOM     34  H   UNL     1      15.669  33.240 122.752  1.00  0.00     0.211 HD
ENDBRANCH  28  33
BRANCH  29  35
ATOM     35  C   UNL     1      17.145  35.593 123.168  1.00  0.00     0.191 C 
BRANCH  35  36
ATOM     36  O   UNL     1      16.646  34.477 123.851  1.00  0.00    -0.394 OA
ATOM     37  H   UNL     1      17.133  33.678 123.513  1.00  0.00     0.210 HD
ENDBRANCH  35  36
ENDBRANCH  29  35
BRANCH  30  38
ATOM     38  O   UNL     1      16.886  33.733 120.983  1.00  0.00    -0.387 OA
ATOM     39  H   UNL     1      16.485  32.899 121.342  1.00  0.00     0.211 HD
ENDBRANCH  30  38
ENDBRANCH   1  25
TORSDOF 11
ENDMDL
