MODEL 1
REMARK VINA RESULT:    -3.097      0.000      0.000
REMARK INTER + INTRA:          -3.097
REMARK INTER:                  -3.097
REMARK INTRA:                   0.000
REMARK UNBOUND:                 0.000
REMARK SMILES CC1(C)C(=O)[C@]2(C)CC[C@H]1C2
REMARK SMILES IDX 1 1 2 2 10 3 9 4 8 5 6 6 11 7 4 8 5 9 7 10 3 11
REMARK H PARENT
REMARK Flexibility Score: inf
ROOT
ATOM      1  C   UNL     1     238.257 226.702 236.548  1.00  0.00     0.020 C 
ATOM      2  C   UNL     1     237.903 227.005 235.075  1.00  0.00     0.027 C 
ATOM      3  C   UNL     1     236.370 226.910 234.746  1.00  0.00     0.003 C 
ATOM      4  C   UNL     1     235.526 227.689 235.789  1.00  0.00     0.005 C 
ATOM      5  C   UNL     1     235.895 229.162 235.506  1.00  0.00     0.015 C 
ATOM      6  C   UNL     1     236.821 229.049 234.279  1.00  0.00     0.027 C 
ATOM      7  C   UNL     1     236.223 227.858 233.557  1.00  0.00     0.019 C 
ATOM      8  C   UNL     1     238.121 228.453 234.744  1.00  0.00     0.144 C 
ATOM      9  O   UNL     1     239.168 229.065 234.900  1.00  0.00    -0.298 OA
ATOM     10  C   UNL     1     236.946 230.316 233.431  1.00  0.00     0.020 C 
ATOM     11  C   UNL     1     238.740 226.089 234.156  1.00  0.00     0.020 C 
ENDROOT
TORSDOF 0
ENDMDL
MODEL 2
REMARK VINA RESULT:    -3.083      8.652     10.054
REMARK INTER + INTRA:          -3.083
REMARK INTER:                  -3.083
REMARK INTRA:                   0.000
REMARK UNBOUND:                 0.000
REMARK SMILES CC1(C)C(=O)[C@]2(C)CC[C@H]1C2
REMARK SMILES IDX 1 1 2 2 10 3 9 4 8 5 6 6 11 7 4 8 5 9 7 10 3 11
REMARK H PARENT
REMARK Flexibility Score: inf
ROOT
ATOM      1  C   UNL     1     226.739 230.139 236.561  1.00  0.00     0.020 C 
ATOM      2  C   UNL     1     227.019 230.495 235.085  1.00  0.00     0.027 C 
ATOM      3  C   UNL     1     226.861 232.021 234.746  1.00  0.00     0.003 C 
ATOM      4  C   UNL     1     227.610 232.903 235.778  1.00  0.00     0.005 C 
ATOM      5  C   UNL     1     229.096 232.591 235.490  1.00  0.00     0.015 C 
ATOM      6  C   UNL     1     229.014 231.653 234.270  1.00  0.00     0.027 C 
ATOM      7  C   UNL     1     227.796 232.197 233.551  1.00  0.00     0.019 C 
ATOM      8  C   UNL     1     228.473 230.333 234.747  1.00  0.00     0.144 C 
ATOM      9  O   UNL     1     229.127 229.313 234.907  1.00  0.00    -0.298 OA
ATOM     10  C   UNL     1     230.280 231.573 233.416  1.00  0.00     0.020 C 
ATOM     11  C   UNL     1     226.133 229.616 234.176  1.00  0.00     0.020 C 
ENDROOT
TORSDOF 0
ENDMDL
MODEL 3
REMARK VINA RESULT:    -3.082      8.634     10.060
REMARK INTER + INTRA:          -3.082
REMARK INTER:                  -3.082
REMARK INTRA:                   0.000
REMARK UNBOUND:                 0.000
REMARK SMILES CC1(C)C(=O)[C@]2(C)CC[C@H]1C2
REMARK SMILES IDX 1 1 2 2 10 3 9 4 8 5 6 6 11 7 4 8 5 9 7 10 3 11
REMARK H PARENT
REMARK Flexibility Score: inf
ROOT
ATOM      1  C   UNL     1     241.701 238.228 236.566  1.00  0.00     0.020 C 
ATOM      2  C   UNL     1     241.427 237.903 235.082  1.00  0.00     0.027 C 
ATOM      3  C   UNL     1     241.517 236.375 234.727  1.00  0.00     0.003 C 
ATOM      4  C   UNL     1     240.711 235.518 235.738  1.00  0.00     0.005 C 
ATOM      5  C   UNL     1     239.246 235.904 235.432  1.00  0.00     0.015 C 
ATOM      6  C   UNL     1     239.392 236.850 234.224  1.00  0.00     0.027 C 
ATOM      7  C   UNL     1     240.593 236.257 233.516  1.00  0.00     0.019 C 
ATOM      8  C   UNL     1     239.987 238.137 234.724  1.00  0.00     0.144 C 
ATOM      9  O   UNL     1     239.380 239.186 234.887  1.00  0.00    -0.298 OA
ATOM     10  C   UNL     1     238.144 237.000 233.353  1.00  0.00     0.020 C 
ATOM     11  C   UNL     1     242.367 238.748 234.197  1.00  0.00     0.020 C 
ENDROOT
TORSDOF 0
ENDMDL
MODEL 4
REMARK VINA RESULT:    -3.064     12.080     14.206
REMARK INTER + INTRA:          -3.064
REMARK INTER:                  -3.064
REMARK INTRA:                   0.000
REMARK UNBOUND:                 0.000
REMARK SMILES CC1(C)C(=O)[C@]2(C)CC[C@H]1C2
REMARK SMILES IDX 1 1 2 2 10 3 9 4 8 5 6 6 11 7 4 8 5 9 7 10 3 11
REMARK H PARENT
REMARK Flexibility Score: inf
ROOT
ATOM      1  C   UNL     1     230.126 241.661 236.502  1.00  0.00     0.020 C 
ATOM      2  C   UNL     1     230.482 241.384 235.025  1.00  0.00     0.027 C 
ATOM      3  C   UNL     1     232.006 241.555 234.683  1.00  0.00     0.003 C 
ATOM      4  C   UNL     1     232.896 240.813 235.715  1.00  0.00     0.005 C 
ATOM      5  C   UNL     1     232.597 239.325 235.427  1.00  0.00     0.015 C 
ATOM      6  C   UNL     1     231.656 239.399 234.209  1.00  0.00     0.027 C 
ATOM      7  C   UNL     1     232.188 240.621 233.488  1.00  0.00     0.019 C 
ATOM      8  C   UNL     1     230.333 239.928 234.688  1.00  0.00     0.144 C 
ATOM      9  O   UNL     1     229.318 239.265 234.849  1.00  0.00    -0.298 OA
ATOM     10  C   UNL     1     231.586 238.132 233.355  1.00  0.00     0.020 C 
ATOM     11  C   UNL     1     229.594 242.261 234.118  1.00  0.00     0.020 C 
ENDROOT
TORSDOF 0
ENDMDL
MODEL 5
REMARK VINA RESULT:    -3.054      1.401      2.608
REMARK INTER + INTRA:          -3.054
REMARK INTER:                  -3.054
REMARK INTRA:                   0.000
REMARK UNBOUND:                 0.000
REMARK SMILES CC1(C)C(=O)[C@]2(C)CC[C@H]1C2
REMARK SMILES IDX 1 1 2 2 10 3 9 4 8 5 6 6 11 7 4 8 5 9 7 10 3 11
REMARK H PARENT
REMARK Flexibility Score: inf
ROOT
ATOM      1  C   UNL     1     234.886 228.377 236.359  1.00  0.00     0.020 C 
ATOM      2  C   UNL     1     236.108 227.516 235.971  1.00  0.00     0.027 C 
ATOM      3  C   UNL     1     236.310 227.341 234.423  1.00  0.00     0.003 C 
ATOM      4  C   UNL     1     236.218 228.705 233.689  1.00  0.00     0.005 C 
ATOM      5  C   UNL     1     237.488 229.445 234.167  1.00  0.00     0.015 C 
ATOM      6  C   UNL     1     238.195 228.380 235.029  1.00  0.00     0.027 C 
ATOM      7  C   UNL     1     237.815 227.103 234.306  1.00  0.00     0.019 C 
ATOM      8  C   UNL     1     237.397 228.216 236.293  1.00  0.00     0.144 C 
ATOM      9  O   UNL     1     237.711 228.649 237.393  1.00  0.00    -0.298 OA
ATOM     10  C   UNL     1     239.698 228.584 235.223  1.00  0.00     0.020 C 
ATOM     11  C   UNL     1     236.017 226.154 236.690  1.00  0.00     0.020 C 
ENDROOT
TORSDOF 0
ENDMDL
MODEL 6
REMARK VINA RESULT:    -3.043     12.790     13.955
REMARK INTER + INTRA:          -3.043
REMARK INTER:                  -3.043
REMARK INTRA:                   0.000
REMARK UNBOUND:                 0.000
REMARK SMILES CC1(C)C(=O)[C@]2(C)CC[C@H]1C2
REMARK SMILES IDX 1 1 2 2 10 3 9 4 8 5 6 6 11 7 4 8 5 9 7 10 3 11
REMARK H PARENT
REMARK Flexibility Score: inf
ROOT
ATOM      1  C   UNL     1     233.616 240.041 236.320  1.00  0.00     0.020 C 
ATOM      2  C   UNL     1     232.372 240.882 235.962  1.00  0.00     0.027 C 
ATOM      3  C   UNL     1     232.138 241.067 234.420  1.00  0.00     0.003 C 
ATOM      4  C   UNL     1     232.241 239.711 233.672  1.00  0.00     0.005 C 
ATOM      5  C   UNL     1     230.994 238.945 234.167  1.00  0.00     0.015 C 
ATOM      6  C   UNL     1     230.284 239.989 235.051  1.00  0.00     0.027 C 
ATOM      7  C   UNL     1     230.628 241.279 234.332  1.00  0.00     0.019 C 
ATOM      8  C   UNL     1     231.102 240.156 236.302  1.00  0.00     0.144 C 
ATOM      9  O   UNL     1     230.816 239.708 237.403  1.00  0.00    -0.298 OA
ATOM     10  C   UNL     1     228.789 239.757 235.270  1.00  0.00     0.020 C 
ATOM     11  C   UNL     1     232.452 242.240 236.692  1.00  0.00     0.020 C 
ENDROOT
TORSDOF 0
ENDMDL
MODEL 7
REMARK VINA RESULT:    -3.043      8.130      9.829
REMARK INTER + INTRA:          -3.043
REMARK INTER:                  -3.043
REMARK INTRA:                   0.000
REMARK UNBOUND:                 0.000
REMARK SMILES CC1(C)C(=O)[C@]2(C)CC[C@H]1C2
REMARK SMILES IDX 1 1 2 2 10 3 9 4 8 5 6 6 11 7 4 8 5 9 7 10 3 11
REMARK H PARENT
REMARK Flexibility Score: inf
ROOT
ATOM      1  C   UNL     1     240.089 234.900 236.382  1.00  0.00     0.020 C 
ATOM      2  C   UNL     1     240.943 236.133 236.012  1.00  0.00     0.027 C 
ATOM      3  C   UNL     1     241.134 236.348 234.468  1.00  0.00     0.003 C 
ATOM      4  C   UNL     1     239.780 236.248 233.717  1.00  0.00     0.005 C 
ATOM      5  C   UNL     1     239.023 237.508 234.195  1.00  0.00     0.015 C 
ATOM      6  C   UNL     1     240.071 238.218 235.074  1.00  0.00     0.027 C 
ATOM      7  C   UNL     1     241.360 237.855 234.364  1.00  0.00     0.019 C 
ATOM      8  C   UNL     1     240.227 237.414 236.335  1.00  0.00     0.144 C 
ATOM      9  O   UNL     1     239.778 237.716 237.431  1.00  0.00    -0.298 OA
ATOM     10  C   UNL     1     239.851 239.718 235.276  1.00  0.00     0.020 C 
ATOM     11  C   UNL     1     242.297 236.049 236.747  1.00  0.00     0.020 C 
ENDROOT
TORSDOF 0
ENDMDL
MODEL 8
REMARK VINA RESULT:    -3.041      8.638     10.320
REMARK INTER + INTRA:          -3.041
REMARK INTER:                  -3.041
REMARK INTRA:                   0.000
REMARK UNBOUND:                 0.000
REMARK SMILES CC1(C)C(=O)[C@]2(C)CC[C@H]1C2
REMARK SMILES IDX 1 1 2 2 10 3 9 4 8 5 6 6 11 7 4 8 5 9 7 10 3 11
REMARK H PARENT
REMARK Flexibility Score: inf
ROOT
ATOM      1  C   UNL     1     228.374 233.581 236.374  1.00  0.00     0.020 C 
ATOM      2  C   UNL     1     227.545 232.337 235.988  1.00  0.00     0.027 C 
ATOM      3  C   UNL     1     227.372 232.129 234.440  1.00  0.00     0.003 C 
ATOM      4  C   UNL     1     228.731 232.255 233.704  1.00  0.00     0.005 C 
ATOM      5  C   UNL     1     229.504 231.005 234.182  1.00  0.00     0.015 C 
ATOM      6  C   UNL     1     228.459 230.272 235.046  1.00  0.00     0.027 C 
ATOM      7  C   UNL     1     227.172 230.619 234.325  1.00  0.00     0.019 C 
ATOM      8  C   UNL     1     228.278 231.066 236.310  1.00  0.00     0.144 C 
ATOM      9  O   UNL     1     228.721 230.764 237.409  1.00  0.00    -0.298 OA
ATOM     10  C   UNL     1     228.702 228.775 235.241  1.00  0.00     0.020 C 
ATOM     11  C   UNL     1     226.182 232.394 236.710  1.00  0.00     0.020 C 
ENDROOT
TORSDOF 0
ENDMDL
MODEL 9
REMARK VINA RESULT:    -3.033      8.586     10.481
REMARK INTER + INTRA:          -3.033
REMARK INTER:                  -3.033
REMARK INTRA:                   0.000
REMARK UNBOUND:                 0.000
REMARK SMILES CC1(C)C(=O)[C@]2(C)CC[C@H]1C2
REMARK SMILES IDX 1 1 2 2 10 3 9 4 8 5 6 6 11 7 4 8 5 9 7 10 3 11
REMARK H PARENT
REMARK Flexibility Score: inf
ROOT
ATOM      1  C   UNL     1     239.837 235.529 235.647  1.00  0.00     0.020 C 
ATOM      2  C   UNL     1     239.890 236.879 234.900  1.00  0.00     0.027 C 
ATOM      3  C   UNL     1     240.131 238.123 235.829  1.00  0.00     0.003 C 
ATOM      4  C   UNL     1     241.313 237.873 236.802  1.00  0.00     0.005 C 
ATOM      5  C   UNL     1     242.539 237.846 235.862  1.00  0.00     0.015 C 
ATOM      6  C   UNL     1     241.920 238.182 234.491  1.00  0.00     0.027 C 
ATOM      7  C   UNL     1     240.799 239.122 234.886  1.00  0.00     0.019 C 
ATOM      8  C   UNL     1     241.122 236.987 234.047  1.00  0.00     0.144 C 
ATOM      9  O   UNL     1     241.457 236.189 233.184  1.00  0.00    -0.298 OA
ATOM     10  C   UNL     1     242.892 238.744 233.452  1.00  0.00     0.020 C 
ATOM     11  C   UNL     1     238.609 237.040 234.054  1.00  0.00     0.020 C 
ENDROOT
TORSDOF 0
ENDMDL
