MODEL 1
REMARK VINA RESULT:    29.156      0.000      0.000
REMARK INTER + INTRA:          76.955
REMARK INTER:                  76.880
REMARK INTRA:                   0.075
REMARK UNBOUND:                 0.075
REMARK SMILES CCCCCCCCCCCCCCCCCCCCCCCCCCCCCC(=O)[O-]
REMARK SMILES IDX 16 1 17 2 18 3 19 4 20 5 21 6 22 7 23 8 24 9 25 10 26 11
REMARK SMILES IDX 27 12 28 13 29 14 30 15 31 16 32 17 15 18 14 19 13 20 12 21
REMARK SMILES IDX 11 22 10 23 9 24 8 25 7 26 6 27 5 28 4 29 3 30 2 31 1 32
REMARK H PARENT
REMARK Flexibility Score: inf
ROOT
ATOM      1  C   UNL     1      -9.278 -14.151  17.496  1.00  0.00     0.000 C 
ENDROOT
BRANCH   1   2
ATOM      2  C   UNL     1      -8.319 -14.080  18.702  1.00  0.00     0.000 C 
BRANCH   2   3
ATOM      3  C   UNL     1      -9.012 -13.972  20.072  1.00  0.00     0.000 C 
BRANCH   3   4
ATOM      4  C   UNL     1      -8.017 -13.753  21.225  1.00  0.00     0.000 C 
BRANCH   4   5
ATOM      5  C   UNL     1      -8.266 -12.437  21.981  1.00  0.00     0.000 C 
BRANCH   5   6
ATOM      6  C   UNL     1      -6.968 -11.792  22.489  1.00  0.00     0.000 C 
BRANCH   6   7
ATOM      7  C   UNL     1      -6.481 -12.482  23.773  1.00  0.00     0.000 C 
BRANCH   7   8
ATOM      8  C   UNL     1      -6.178 -11.490  24.910  1.00  0.00     0.000 C 
BRANCH   8   9
ATOM      9  C   UNL     1      -6.161 -10.007  24.494  1.00  0.00     0.000 C 
BRANCH   9  10
ATOM     10  C   UNL     1      -5.183  -9.163  25.324  1.00  0.00     0.000 C 
BRANCH  10  11
ATOM     11  C   UNL     1      -4.209  -8.399  24.415  1.00  0.00     0.000 C 
BRANCH  11  12
ATOM     12  C   UNL     1      -2.744  -8.829  24.610  1.00  0.00     0.000 C 
BRANCH  12  13
ATOM     13  C   UNL     1      -1.708  -8.016  23.810  1.00  0.00     0.006 C 
BRANCH  13  14
ATOM     14  C   UNL     1      -0.376  -7.792  24.549  1.00  0.00     0.053 C 
BRANCH  14  15
ATOM     15  C   UNL     1      -0.315  -8.513  25.863  1.00  0.00     0.041 C 
ATOM     16  O   UNL     1      -0.632  -9.729  25.937  1.00  0.00    -0.550 OA
ATOM     17  O   UNL     1       0.136  -7.851  26.998  1.00  0.00    -0.550 OA
ENDBRANCH  14  15
ENDBRANCH  13  14
ENDBRANCH  12  13
ENDBRANCH  11  12
ENDBRANCH  10  11
ENDBRANCH   9  10
ENDBRANCH   8   9
ENDBRANCH   7   8
ENDBRANCH   6   7
ENDBRANCH   5   6
ENDBRANCH   4   5
ENDBRANCH   3   4
ENDBRANCH   2   3
ENDBRANCH   1   2
BRANCH   1  18
ATOM     18  C   UNL     1      -9.910 -15.534  17.241  1.00  0.00     0.000 C 
BRANCH  18  19
ATOM     19  C   UNL     1      -9.297 -16.690  18.051  1.00  0.00     0.000 C 
BRANCH  19  20
ATOM     20  C   UNL     1     -10.232 -17.908  18.149  1.00  0.00     0.000 C 
BRANCH  20  21
ATOM     21  C   UNL     1      -9.660 -19.152  17.449  1.00  0.00     0.000 C 
BRANCH  21  22
ATOM     22  C   UNL     1      -8.693 -18.795  16.307  1.00  0.00     0.000 C 
BRANCH  22  23
ATOM     23  C   UNL     1      -7.216 -18.829  16.739  1.00  0.00     0.000 C 
BRANCH  23  24
ATOM     24  C   UNL     1      -6.413 -20.049  16.249  1.00  0.00    -0.000 C 
BRANCH  24  25
ATOM     25  C   UNL     1      -6.083 -19.983  14.749  1.00  0.00    -0.000 C 
BRANCH  25  26
ATOM     26  C   UNL     1      -7.321 -19.714  13.872  1.00  0.00    -0.000 C 
BRANCH  26  27
ATOM     27  C   UNL     1      -8.242 -20.930  13.636  1.00  0.00    -0.000 C 
BRANCH  27  28
ATOM     28  C   UNL     1      -9.746 -20.614  13.547  1.00  0.00    -0.000 C 
BRANCH  28  29
ATOM     29  C   UNL     1     -10.522 -21.627  12.687  1.00  0.00    -0.000 C 
BRANCH  29  30
ATOM     30  C   UNL     1      -9.801 -22.982  12.563  1.00  0.00    -0.000 C 
BRANCH  30  31
ATOM     31  C   UNL     1      -9.504 -23.430  11.120  1.00  0.00    -0.003 C 
ATOM     32  C   UNL     1      -9.068 -24.891  11.027  1.00  0.00     0.004 C 
ENDBRANCH  30  31
ENDBRANCH  29  30
ENDBRANCH  28  29
ENDBRANCH  27  28
ENDBRANCH  26  27
ENDBRANCH  25  26
ENDBRANCH  24  25
ENDBRANCH  23  24
ENDBRANCH  22  23
ENDBRANCH  21  22
ENDBRANCH  20  21
ENDBRANCH  19  20
ENDBRANCH  18  19
ENDBRANCH   1  18
TORSDOF 28
ENDMDL
MODEL 2
REMARK VINA RESULT:    30.433      3.740      5.292
REMARK INTER + INTRA:          80.322
REMARK INTER:                  81.617
REMARK INTRA:                  -1.294
REMARK UNBOUND:                 0.075
REMARK SMILES CCCCCCCCCCCCCCCCCCCCCCCCCCCCCC(=O)[O-]
REMARK SMILES IDX 16 1 17 2 18 3 19 4 20 5 21 6 22 7 23 8 24 9 25 10 26 11
REMARK SMILES IDX 27 12 28 13 29 14 30 15 31 16 32 17 15 18 14 19 13 20 12 21
REMARK SMILES IDX 11 22 10 23 9 24 8 25 7 26 6 27 5 28 4 29 3 30 2 31 1 32
REMARK H PARENT
REMARK Flexibility Score: inf
ROOT
ATOM      1  C   UNL     1      -8.876 -13.757  18.106  1.00  0.00     0.000 C 
ENDROOT
BRANCH   1   2
ATOM      2  C   UNL     1      -8.290 -14.005  19.510  1.00  0.00     0.000 C 
BRANCH   2   3
ATOM      3  C   UNL     1      -8.527 -12.866  20.519  1.00  0.00     0.000 C 
BRANCH   3   4
ATOM      4  C   UNL     1      -8.135 -13.254  21.955  1.00  0.00     0.000 C 
BRANCH   4   5
ATOM      5  C   UNL     1      -7.955 -12.032  22.871  1.00  0.00     0.000 C 
BRANCH   5   6
ATOM      6  C   UNL     1      -6.486 -11.787  23.248  1.00  0.00     0.000 C 
BRANCH   6   7
ATOM      7  C   UNL     1      -5.877 -13.032  23.911  1.00  0.00     0.000 C 
BRANCH   7   8
ATOM      8  C   UNL     1      -6.364 -13.243  25.356  1.00  0.00     0.000 C 
BRANCH   8   9
ATOM      9  C   UNL     1      -5.307 -13.807  26.323  1.00  0.00     0.000 C 
BRANCH   9  10
ATOM     10  C   UNL     1      -5.447 -15.320  26.546  1.00  0.00     0.000 C 
BRANCH  10  11
ATOM     11  C   UNL     1      -4.216 -16.070  26.013  1.00  0.00     0.000 C 
BRANCH  11  12
ATOM     12  C   UNL     1      -4.369 -17.600  26.082  1.00  0.00     0.000 C 
BRANCH  12  13
ATOM     13  C   UNL     1      -5.800 -18.128  25.865  1.00  0.00     0.006 C 
BRANCH  13  14
ATOM     14  C   UNL     1      -6.012 -18.836  24.515  1.00  0.00     0.053 C 
BRANCH  14  15
ATOM     15  C   UNL     1      -5.355 -18.118  23.374  1.00  0.00     0.041 C 
ATOM     16  O   UNL     1      -6.051 -17.512  22.517  1.00  0.00    -0.550 OA
ATOM     17  O   UNL     1      -3.970 -18.082  23.282  1.00  0.00    -0.550 OA
ENDBRANCH  14  15
ENDBRANCH  13  14
ENDBRANCH  12  13
ENDBRANCH  11  12
ENDBRANCH  10  11
ENDBRANCH   9  10
ENDBRANCH   8   9
ENDBRANCH   7   8
ENDBRANCH   6   7
ENDBRANCH   5   6
ENDBRANCH   4   5
ENDBRANCH   3   4
ENDBRANCH   2   3
ENDBRANCH   1   2
BRANCH   1  18
ATOM     18  C   UNL     1      -9.891 -14.812  17.623  1.00  0.00     0.000 C 
BRANCH  18  19
ATOM     19  C   UNL     1      -9.274 -16.137  17.141  1.00  0.00     0.000 C 
BRANCH  19  20
ATOM     20  C   UNL     1      -9.748 -17.348  17.963  1.00  0.00     0.000 C 
BRANCH  20  21
ATOM     21  C   UNL     1      -9.258 -18.685  17.383  1.00  0.00     0.000 C 
BRANCH  21  22
ATOM     22  C   UNL     1      -7.847 -18.586  16.780  1.00  0.00     0.000 C 
BRANCH  22  23
ATOM     23  C   UNL     1      -7.501 -19.775  15.865  1.00  0.00     0.000 C 
BRANCH  23  24
ATOM     24  C   UNL     1      -7.192 -19.411  14.400  1.00  0.00    -0.000 C 
BRANCH  24  25
ATOM     25  C   UNL     1      -8.349 -19.747  13.445  1.00  0.00    -0.000 C 
BRANCH  25  26
ATOM     26  C   UNL     1      -9.167 -20.971  13.897  1.00  0.00    -0.000 C 
BRANCH  26  27
ATOM     27  C   UNL     1     -10.529 -21.155  13.195  1.00  0.00    -0.000 C 
BRANCH  27  28
ATOM     28  C   UNL     1     -10.653 -22.406  12.306  1.00  0.00    -0.000 C 
BRANCH  28  29
ATOM     29  C   UNL     1      -9.313 -23.134  12.105  1.00  0.00    -0.000 C 
BRANCH  29  30
ATOM     30  C   UNL     1      -9.175 -23.756  10.704  1.00  0.00    -0.000 C 
BRANCH  30  31
ATOM     31  C   UNL     1      -8.966 -25.281  10.688  1.00  0.00    -0.003 C 
ATOM     32  C   UNL     1      -9.207 -25.931  12.050  1.00  0.00     0.004 C 
ENDBRANCH  30  31
ENDBRANCH  29  30
ENDBRANCH  28  29
ENDBRANCH  27  28
ENDBRANCH  26  27
ENDBRANCH  25  26
ENDBRANCH  24  25
ENDBRANCH  23  24
ENDBRANCH  22  23
ENDBRANCH  21  22
ENDBRANCH  20  21
ENDBRANCH  19  20
ENDBRANCH  18  19
ENDBRANCH   1  18
TORSDOF 28
ENDMDL
MODEL 3
REMARK VINA RESULT:    30.738      5.587      7.171
REMARK INTER + INTRA:          81.128
REMARK INTER:                  81.512
REMARK INTRA:                  -0.384
REMARK UNBOUND:                 0.075
REMARK SMILES CCCCCCCCCCCCCCCCCCCCCCCCCCCCCC(=O)[O-]
REMARK SMILES IDX 16 1 17 2 18 3 19 4 20 5 21 6 22 7 23 8 24 9 25 10 26 11
REMARK SMILES IDX 27 12 28 13 29 14 30 15 31 16 32 17 15 18 14 19 13 20 12 21
REMARK SMILES IDX 11 22 10 23 9 24 8 25 7 26 6 27 5 28 4 29 3 30 2 31 1 32
REMARK H PARENT
REMARK Flexibility Score: inf
ROOT
ATOM      1  C   UNL     1      -9.886 -14.500  17.301  1.00  0.00     0.000 C 
ENDROOT
BRANCH   1   2
ATOM      2  C   UNL     1      -8.800 -13.917  18.227  1.00  0.00     0.000 C 
BRANCH   2   3
ATOM      3  C   UNL     1      -8.378 -14.837  19.387  1.00  0.00     0.000 C 
BRANCH   3   4
ATOM      4  C   UNL     1      -8.873 -14.334  20.754  1.00  0.00     0.000 C 
BRANCH   4   5
ATOM      5  C   UNL     1      -9.020 -12.804  20.803  1.00  0.00     0.000 C 
BRANCH   5   6
ATOM      6  C   UNL     1      -8.532 -12.205  22.131  1.00  0.00     0.000 C 
BRANCH   6   7
ATOM      7  C   UNL     1      -7.338 -12.998  22.682  1.00  0.00     0.000 C 
BRANCH   7   8
ATOM      8  C   UNL     1      -6.392 -12.140  23.541  1.00  0.00     0.000 C 
BRANCH   8   9
ATOM      9  C   UNL     1      -6.836 -11.945  25.003  1.00  0.00     0.000 C 
BRANCH   9  10
ATOM     10  C   UNL     1      -6.655 -13.208  25.857  1.00  0.00     0.000 C 
BRANCH  10  11
ATOM     11  C   UNL     1      -5.499 -14.070  25.326  1.00  0.00     0.000 C 
BRANCH  11  12
ATOM     12  C   UNL     1      -4.900 -14.997  26.399  1.00  0.00     0.000 C 
BRANCH  12  13
ATOM     13  C   UNL     1      -4.317 -16.322  25.871  1.00  0.00     0.006 C 
BRANCH  13  14
ATOM     14  C   UNL     1      -5.363 -17.433  25.667  1.00  0.00     0.053 C 
BRANCH  14  15
ATOM     15  C   UNL     1      -5.235 -18.111  24.335  1.00  0.00     0.041 C 
ATOM     16  O   UNL     1      -5.797 -19.219  24.128  1.00  0.00    -0.550 OA
ATOM     17  O   UNL     1      -4.531 -17.497  23.308  1.00  0.00    -0.550 OA
ENDBRANCH  14  15
ENDBRANCH  13  14
ENDBRANCH  12  13
ENDBRANCH  11  12
ENDBRANCH  10  11
ENDBRANCH   9  10
ENDBRANCH   8   9
ENDBRANCH   7   8
ENDBRANCH   6   7
ENDBRANCH   5   6
ENDBRANCH   4   5
ENDBRANCH   3   4
ENDBRANCH   2   3
ENDBRANCH   1   2
BRANCH   1  18
ATOM     18  C   UNL     1     -10.905 -13.477  16.760  1.00  0.00     0.000 C 
BRANCH  18  19
ATOM     19  C   UNL     1     -10.507 -12.800  15.436  1.00  0.00     0.000 C 
BRANCH  19  20
ATOM     20  C   UNL     1      -9.744 -11.481  15.649  1.00  0.00     0.000 C 
BRANCH  20  21
ATOM     21  C   UNL     1      -9.578 -10.677  14.349  1.00  0.00     0.000 C 
BRANCH  21  22
ATOM     22  C   UNL     1      -9.643 -11.563  13.093  1.00  0.00     0.000 C 
BRANCH  22  23
ATOM     23  C   UNL     1      -8.812 -12.852  13.226  1.00  0.00     0.000 C 
BRANCH  23  24
ATOM     24  C   UNL     1      -8.649 -13.668  11.929  1.00  0.00    -0.000 C 
BRANCH  24  25
ATOM     25  C   UNL     1      -9.822 -13.480  10.953  1.00  0.00    -0.000 C 
BRANCH  25  26
ATOM     26  C   UNL     1     -11.194 -13.501  11.651  1.00  0.00    -0.000 C 
BRANCH  26  27
ATOM     27  C   UNL     1     -12.306 -12.690  10.954  1.00  0.00    -0.000 C 
BRANCH  27  28
ATOM     28  C   UNL     1     -13.426 -13.523  10.304  1.00  0.00    -0.000 C 
BRANCH  28  29
ATOM     29  C   UNL     1     -12.890 -14.684   9.449  1.00  0.00    -0.000 C 
BRANCH  29  30
ATOM     30  C   UNL     1     -13.575 -14.780   8.073  1.00  0.00    -0.000 C 
BRANCH  30  31
ATOM     31  C   UNL     1     -13.212 -16.030   7.252  1.00  0.00    -0.003 C 
ATOM     32  C   UNL     1     -12.609 -17.148   8.102  1.00  0.00     0.004 C 
ENDBRANCH  30  31
ENDBRANCH  29  30
ENDBRANCH  28  29
ENDBRANCH  27  28
ENDBRANCH  26  27
ENDBRANCH  25  26
ENDBRANCH  24  25
ENDBRANCH  23  24
ENDBRANCH  22  23
ENDBRANCH  21  22
ENDBRANCH  20  21
ENDBRANCH  19  20
ENDBRANCH  18  19
ENDBRANCH   1  18
TORSDOF 28
ENDMDL
MODEL 4
REMARK VINA RESULT:    30.780      3.687      4.948
REMARK INTER + INTRA:          81.237
REMARK INTER:                  82.899
REMARK INTRA:                  -1.662
REMARK UNBOUND:                 0.075
REMARK SMILES CCCCCCCCCCCCCCCCCCCCCCCCCCCCCC(=O)[O-]
REMARK SMILES IDX 16 1 17 2 18 3 19 4 20 5 21 6 22 7 23 8 24 9 25 10 26 11
REMARK SMILES IDX 27 12 28 13 29 14 30 15 31 16 32 17 15 18 14 19 13 20 12 21
REMARK SMILES IDX 11 22 10 23 9 24 8 25 7 26 6 27 5 28 4 29 3 30 2 31 1 32
REMARK H PARENT
REMARK Flexibility Score: inf
ROOT
ATOM      1  C   UNL     1      -9.447 -16.924  18.201  1.00  0.00     0.000 C 
ENDROOT
BRANCH   1   2
ATOM      2  C   UNL     1      -9.703 -15.494  17.685  1.00  0.00     0.000 C 
BRANCH   2   3
ATOM      3  C   UNL     1      -8.501 -14.540  17.801  1.00  0.00     0.000 C 
BRANCH   3   4
ATOM      4  C   UNL     1      -8.768 -13.360  18.752  1.00  0.00     0.000 C 
BRANCH   4   5
ATOM      5  C   UNL     1      -8.441 -13.694  20.216  1.00  0.00     0.000 C 
BRANCH   5   6
ATOM      6  C   UNL     1      -9.485 -13.140  21.197  1.00  0.00     0.000 C 
BRANCH   6   7
ATOM      7  C   UNL     1      -8.810 -12.600  22.467  1.00  0.00     0.000 C 
BRANCH   7   8
ATOM      8  C   UNL     1      -7.296 -12.872  22.505  1.00  0.00     0.000 C 
BRANCH   8   9
ATOM      9  C   UNL     1      -6.510 -12.038  23.534  1.00  0.00     0.000 C 
BRANCH   9  10
ATOM     10  C   UNL     1      -6.383 -12.734  24.897  1.00  0.00     0.000 C 
BRANCH  10  11
ATOM     11  C   UNL     1      -5.263 -13.785  24.875  1.00  0.00     0.000 C 
BRANCH  11  12
ATOM     12  C   UNL     1      -5.391 -14.823  26.004  1.00  0.00     0.000 C 
BRANCH  12  13
ATOM     13  C   UNL     1      -4.369 -15.975  25.958  1.00  0.00     0.006 C 
BRANCH  13  14
ATOM     14  C   UNL     1      -5.002 -17.378  25.941  1.00  0.00     0.053 C 
BRANCH  14  15
ATOM     15  C   UNL     1      -5.077 -17.964  24.563  1.00  0.00     0.041 C 
ATOM     16  O   UNL     1      -4.375 -17.489  23.631  1.00  0.00    -0.550 OA
ATOM     17  O   UNL     1      -5.888 -19.064  24.318  1.00  0.00    -0.550 OA
ENDBRANCH  14  15
ENDBRANCH  13  14
ENDBRANCH  12  13
ENDBRANCH  11  12
ENDBRANCH  10  11
ENDBRANCH   9  10
ENDBRANCH   8   9
ENDBRANCH   7   8
ENDBRANCH   6   7
ENDBRANCH   5   6
ENDBRANCH   4   5
ENDBRANCH   3   4
ENDBRANCH   2   3
ENDBRANCH   1   2
BRANCH   1  18
ATOM     18  C   UNL     1     -10.078 -18.049  17.357  1.00  0.00     0.000 C 
BRANCH  18  19
ATOM     19  C   UNL     1      -9.281 -19.366  17.326  1.00  0.00     0.000 C 
BRANCH  19  20
ATOM     20  C   UNL     1      -8.323 -19.453  16.125  1.00  0.00     0.000 C 
BRANCH  20  21
ATOM     21  C   UNL     1      -6.845 -19.343  16.537  1.00  0.00     0.000 C 
BRANCH  21  22
ATOM     22  C   UNL     1      -5.912 -20.134  15.605  1.00  0.00     0.000 C 
BRANCH  22  23
ATOM     23  C   UNL     1      -5.389 -19.294  14.426  1.00  0.00     0.000 C 
BRANCH  23  24
ATOM     24  C   UNL     1      -6.200 -19.413  13.121  1.00  0.00    -0.000 C 
BRANCH  24  25
ATOM     25  C   UNL     1      -7.206 -18.265  12.937  1.00  0.00    -0.000 C 
BRANCH  25  26
ATOM     26  C   UNL     1      -8.638 -18.759  12.655  1.00  0.00    -0.000 C 
BRANCH  26  27
ATOM     27  C   UNL     1      -9.013 -20.108  13.304  1.00  0.00    -0.000 C 
BRANCH  27  28
ATOM     28  C   UNL     1     -10.461 -20.575  13.073  1.00  0.00    -0.000 C 
BRANCH  28  29
ATOM     29  C   UNL     1     -10.647 -22.086  13.295  1.00  0.00    -0.000 C 
BRANCH  29  30
ATOM     30  C   UNL     1     -10.579 -22.895  11.987  1.00  0.00    -0.000 C 
BRANCH  30  31
ATOM     31  C   UNL     1      -9.380 -23.854  11.877  1.00  0.00    -0.003 C 
ATOM     32  C   UNL     1      -8.765 -23.884  10.479  1.00  0.00     0.004 C 
ENDBRANCH  30  31
ENDBRANCH  29  30
ENDBRANCH  28  29
ENDBRANCH  27  28
ENDBRANCH  26  27
ENDBRANCH  25  26
ENDBRANCH  24  25
ENDBRANCH  23  24
ENDBRANCH  22  23
ENDBRANCH  21  22
ENDBRANCH  20  21
ENDBRANCH  19  20
ENDBRANCH  18  19
ENDBRANCH   1  18
TORSDOF 28
ENDMDL
MODEL 5
REMARK VINA RESULT:    31.066      5.214     13.953
REMARK INTER + INTRA:          81.992
REMARK INTER:                  81.602
REMARK INTRA:                   0.390
REMARK UNBOUND:                 0.075
REMARK SMILES CCCCCCCCCCCCCCCCCCCCCCCCCCCCCC(=O)[O-]
REMARK SMILES IDX 16 1 17 2 18 3 19 4 20 5 21 6 22 7 23 8 24 9 25 10 26 11
REMARK SMILES IDX 27 12 28 13 29 14 30 15 31 16 32 17 15 18 14 19 13 20 12 21
REMARK SMILES IDX 11 22 10 23 9 24 8 25 7 26 6 27 5 28 4 29 3 30 2 31 1 32
REMARK H PARENT
REMARK Flexibility Score: inf
ROOT
ATOM      1  C   UNL     1      -8.869 -14.401  20.254  1.00  0.00     0.000 C 
ENDROOT
BRANCH   1   2
ATOM      2  C   UNL     1      -8.387 -13.815  18.912  1.00  0.00     0.000 C 
BRANCH   2   3
ATOM      3  C   UNL     1      -9.480 -13.675  17.837  1.00  0.00     0.000 C 
BRANCH   3   4
ATOM      4  C   UNL     1      -9.933 -15.031  17.269  1.00  0.00     0.000 C 
BRANCH   4   5
ATOM      5  C   UNL     1      -9.447 -16.219  18.116  1.00  0.00     0.000 C 
BRANCH   5   6
ATOM      6  C   UNL     1      -9.876 -17.575  17.534  1.00  0.00     0.000 C 
BRANCH   6   7
ATOM      7  C   UNL     1      -8.785 -18.634  17.756  1.00  0.00     0.000 C 
BRANCH   7   8
ATOM      8  C   UNL     1      -7.591 -18.476  16.799  1.00  0.00     0.000 C 
BRANCH   8   9
ATOM      9  C   UNL     1      -6.565 -19.625  16.842  1.00  0.00     0.000 C 
BRANCH   9  10
ATOM     10  C   UNL     1      -6.164 -20.123  15.446  1.00  0.00     0.000 C 
BRANCH  10  11
ATOM     11  C   UNL     1      -7.104 -19.556  14.370  1.00  0.00     0.000 C 
BRANCH  11  12
ATOM     12  C   UNL     1      -6.349 -18.903  13.199  1.00  0.00     0.000 C 
BRANCH  12  13
ATOM     13  C   UNL     1      -7.113 -17.781  12.469  1.00  0.00     0.006 C 
BRANCH  13  14
ATOM     14  C   UNL     1      -8.173 -18.285  11.473  1.00  0.00     0.053 C 
BRANCH  14  15
ATOM     15  C   UNL     1      -9.414 -18.783  12.152  1.00  0.00     0.041 C 
ATOM     16  O   UNL     1     -10.551 -18.433  11.738  1.00  0.00    -0.550 OA
ATOM     17  O   UNL     1      -9.315 -19.671  13.215  1.00  0.00    -0.550 OA
ENDBRANCH  14  15
ENDBRANCH  13  14
ENDBRANCH  12  13
ENDBRANCH  11  12
ENDBRANCH  10  11
ENDBRANCH   9  10
ENDBRANCH   8   9
ENDBRANCH   7   8
ENDBRANCH   6   7
ENDBRANCH   5   6
ENDBRANCH   4   5
ENDBRANCH   3   4
ENDBRANCH   2   3
ENDBRANCH   1   2
BRANCH   1  18
ATOM     18  C   UNL     1      -8.016 -14.022  21.480  1.00  0.00     0.000 C 
BRANCH  18  19
ATOM     19  C   UNL     1      -8.048 -12.531  21.861  1.00  0.00     0.000 C 
BRANCH  19  20
ATOM     20  C   UNL     1      -6.759 -12.068  22.562  1.00  0.00     0.000 C 
BRANCH  20  21
ATOM     21  C   UNL     1      -6.674 -12.546  24.021  1.00  0.00     0.000 C 
BRANCH  21  22
ATOM     22  C   UNL     1      -6.521 -11.383  25.016  1.00  0.00     0.000 C 
BRANCH  22  23
ATOM     23  C   UNL     1      -6.019 -10.088  24.351  1.00  0.00     0.000 C 
BRANCH  23  24
ATOM     24  C   UNL     1      -5.247  -9.128  25.277  1.00  0.00    -0.000 C 
BRANCH  24  25
ATOM     25  C   UNL     1      -4.051  -8.460  24.580  1.00  0.00    -0.000 C 
BRANCH  25  26
ATOM     26  C   UNL     1      -2.735  -9.239  24.766  1.00  0.00    -0.000 C 
BRANCH  26  27
ATOM     27  C   UNL     1      -1.582  -8.827  23.827  1.00  0.00    -0.000 C 
BRANCH  27  28
ATOM     28  C   UNL     1      -1.715  -7.434  23.185  1.00  0.00    -0.000 C 
BRANCH  28  29
ATOM     29  C   UNL     1      -1.256  -7.404  21.717  1.00  0.00    -0.000 C 
BRANCH  29  30
ATOM     30  C   UNL     1      -2.263  -8.068  20.761  1.00  0.00    -0.000 C 
BRANCH  30  31
ATOM     31  C   UNL     1      -2.875  -7.128  19.707  1.00  0.00    -0.003 C 
ATOM     32  C   UNL     1      -4.209  -7.633  19.159  1.00  0.00     0.004 C 
ENDBRANCH  30  31
ENDBRANCH  29  30
ENDBRANCH  28  29
ENDBRANCH  27  28
ENDBRANCH  26  27
ENDBRANCH  25  26
ENDBRANCH  24  25
ENDBRANCH  23  24
ENDBRANCH  22  23
ENDBRANCH  21  22
ENDBRANCH  20  21
ENDBRANCH  19  20
ENDBRANCH  18  19
ENDBRANCH   1  18
TORSDOF 28
ENDMDL
MODEL 6
REMARK VINA RESULT:    31.162      4.555     13.848
REMARK INTER + INTRA:          82.245
REMARK INTER:                  82.612
REMARK INTRA:                  -0.367
REMARK UNBOUND:                 0.075
REMARK SMILES CCCCCCCCCCCCCCCCCCCCCCCCCCCCCC(=O)[O-]
REMARK SMILES IDX 16 1 17 2 18 3 19 4 20 5 21 6 22 7 23 8 24 9 25 10 26 11
REMARK SMILES IDX 27 12 28 13 29 14 30 15 31 16 32 17 15 18 14 19 13 20 12 21
REMARK SMILES IDX 11 22 10 23 9 24 8 25 7 26 6 27 5 28 4 29 3 30 2 31 1 32
REMARK H PARENT
REMARK Flexibility Score: inf
ROOT
ATOM      1  C   UNL     1      -9.539 -15.188  17.449  1.00  0.00     0.000 C 
ENDROOT
BRANCH   1   2
ATOM      2  C   UNL     1      -9.183 -16.370  18.373  1.00  0.00     0.000 C 
BRANCH   2   3
ATOM      3  C   UNL     1     -10.150 -17.565  18.295  1.00  0.00     0.000 C 
BRANCH   3   4
ATOM      4  C   UNL     1      -9.878 -18.472  17.083  1.00  0.00     0.000 C 
BRANCH   4   5
ATOM      5  C   UNL     1      -8.534 -19.212  17.186  1.00  0.00     0.000 C 
BRANCH   5   6
ATOM      6  C   UNL     1      -7.979 -19.624  15.815  1.00  0.00     0.000 C 
BRANCH   6   7
ATOM      7  C   UNL     1      -6.466 -19.369  15.739  1.00  0.00     0.000 C 
BRANCH   7   8
ATOM      8  C   UNL     1      -5.838 -19.869  14.425  1.00  0.00     0.000 C 
BRANCH   8   9
ATOM      9  C   UNL     1      -6.158 -19.015  13.184  1.00  0.00     0.000 C 
BRANCH   9  10
ATOM     10  C   UNL     1      -7.658 -18.724  13.029  1.00  0.00     0.000 C 
BRANCH  10  11
ATOM     11  C   UNL     1      -7.894 -17.573  12.039  1.00  0.00     0.000 C 
BRANCH  11  12
ATOM     12  C   UNL     1      -7.641 -16.188  12.658  1.00  0.00     0.000 C 
BRANCH  12  13
ATOM     13  C   UNL     1      -8.713 -15.124  12.351  1.00  0.00     0.006 C 
BRANCH  13  14
ATOM     14  C   UNL     1      -8.223 -13.673  12.503  1.00  0.00     0.053 C 
BRANCH  14  15
ATOM     15  C   UNL     1      -9.350 -12.691  12.627  1.00  0.00     0.041 C 
ATOM     16  O   UNL     1      -9.356 -11.844  13.559  1.00  0.00    -0.550 OA
ATOM     17  O   UNL     1     -10.370 -12.683  11.686  1.00  0.00    -0.550 OA
ENDBRANCH  14  15
ENDBRANCH  13  14
ENDBRANCH  12  13
ENDBRANCH  11  12
ENDBRANCH  10  11
ENDBRANCH   9  10
ENDBRANCH   8   9
ENDBRANCH   7   8
ENDBRANCH   6   7
ENDBRANCH   5   6
ENDBRANCH   4   5
ENDBRANCH   3   4
ENDBRANCH   2   3
ENDBRANCH   1   2
BRANCH   1  18
ATOM     18  C   UNL     1      -8.781 -13.877  17.739  1.00  0.00     0.000 C 
BRANCH  18  19
ATOM     19  C   UNL     1      -9.102 -13.225  19.096  1.00  0.00     0.000 C 
BRANCH  19  20
ATOM     20  C   UNL     1      -9.060 -14.228  20.262  1.00  0.00     0.000 C 
BRANCH  20  21
ATOM     21  C   UNL     1      -7.895 -13.963  21.229  1.00  0.00     0.000 C 
BRANCH  21  22
ATOM     22  C   UNL     1      -8.088 -12.676  22.049  1.00  0.00     0.000 C 
BRANCH  22  23
ATOM     23  C   UNL     1      -6.925 -12.403  23.019  1.00  0.00     0.000 C 
BRANCH  23  24
ATOM     24  C   UNL     1      -6.574 -10.917  23.227  1.00  0.00    -0.000 C 
BRANCH  24  25
ATOM     25  C   UNL     1      -5.685 -10.679  24.458  1.00  0.00    -0.000 C 
BRANCH  25  26
ATOM     26  C   UNL     1      -5.465  -9.185  24.761  1.00  0.00    -0.000 C 
BRANCH  26  27
ATOM     27  C   UNL     1      -4.011  -8.781  25.084  1.00  0.00    -0.000 C 
BRANCH  27  28
ATOM     28  C   UNL     1      -3.149  -8.383  23.872  1.00  0.00    -0.000 C 
BRANCH  28  29
ATOM     29  C   UNL     1      -1.643  -8.578  24.118  1.00  0.00    -0.000 C 
BRANCH  29  30
ATOM     30  C   UNL     1      -1.337  -9.207  25.490  1.00  0.00    -0.000 C 
BRANCH  30  31
ATOM     31  C   UNL     1      -0.435  -8.361  26.406  1.00  0.00    -0.003 C 
ATOM     32  C   UNL     1       0.961  -8.955  26.583  1.00  0.00     0.004 C 
ENDBRANCH  30  31
ENDBRANCH  29  30
ENDBRANCH  28  29
ENDBRANCH  27  28
ENDBRANCH  26  27
ENDBRANCH  25  26
ENDBRANCH  24  25
ENDBRANCH  23  24
ENDBRANCH  22  23
ENDBRANCH  21  22
ENDBRANCH  20  21
ENDBRANCH  19  20
ENDBRANCH  18  19
ENDBRANCH   1  18
TORSDOF 28
ENDMDL
MODEL 7
REMARK VINA RESULT:    31.169      3.954      5.312
REMARK INTER + INTRA:          82.265
REMARK INTER:                  83.803
REMARK INTRA:                  -1.538
REMARK UNBOUND:                 0.075
REMARK SMILES CCCCCCCCCCCCCCCCCCCCCCCCCCCCCC(=O)[O-]
REMARK SMILES IDX 16 1 17 2 18 3 19 4 20 5 21 6 22 7 23 8 24 9 25 10 26 11
REMARK SMILES IDX 27 12 28 13 29 14 30 15 31 16 32 17 15 18 14 19 13 20 12 21
REMARK SMILES IDX 11 22 10 23 9 24 8 25 7 26 6 27 5 28 4 29 3 30 2 31 1 32
REMARK H PARENT
REMARK Flexibility Score: inf
ROOT
ATOM      1  C   UNL     1      -8.367 -14.183  18.563  1.00  0.00     0.000 C 
ENDROOT
BRANCH   1   2
ATOM      2  C   UNL     1      -8.896 -14.003  20.000  1.00  0.00     0.000 C 
BRANCH   2   3
ATOM      3  C   UNL     1      -8.432 -12.713  20.701  1.00  0.00     0.000 C 
BRANCH   3   4
ATOM      4  C   UNL     1      -8.513 -12.809  22.235  1.00  0.00     0.000 C 
BRANCH   4   5
ATOM      5  C   UNL     1      -7.128 -12.884  22.898  1.00  0.00     0.000 C 
BRANCH   5   6
ATOM      6  C   UNL     1      -6.517 -11.497  23.150  1.00  0.00     0.000 C 
BRANCH   6   7
ATOM      7  C   UNL     1      -6.333 -11.246  24.654  1.00  0.00     0.000 C 
BRANCH   7   8
ATOM      8  C   UNL     1      -6.881 -12.390  25.526  1.00  0.00     0.000 C 
BRANCH   8   9
ATOM      9  C   UNL     1      -5.826 -13.130  26.369  1.00  0.00     0.000 C 
BRANCH   9  10
ATOM     10  C   UNL     1      -5.307 -14.407  25.692  1.00  0.00     0.000 C 
BRANCH  10  11
ATOM     11  C   UNL     1      -4.838 -15.431  26.738  1.00  0.00     0.000 C 
BRANCH  11  12
ATOM     12  C   UNL     1      -4.831 -16.874  26.203  1.00  0.00     0.000 C 
BRANCH  12  13
ATOM     13  C   UNL     1      -4.160 -17.063  24.829  1.00  0.00     0.006 C 
BRANCH  13  14
ATOM     14  C   UNL     1      -5.143 -17.379  23.687  1.00  0.00     0.053 C 
BRANCH  14  15
ATOM     15  C   UNL     1      -5.872 -18.674  23.892  1.00  0.00     0.041 C 
ATOM     16  O   UNL     1      -5.586 -19.417  24.868  1.00  0.00    -0.550 OA
ATOM     17  O   UNL     1      -6.897 -19.038  23.029  1.00  0.00    -0.550 OA
ENDBRANCH  14  15
ENDBRANCH  13  14
ENDBRANCH  12  13
ENDBRANCH  11  12
ENDBRANCH  10  11
ENDBRANCH   9  10
ENDBRANCH   8   9
ENDBRANCH   7   8
ENDBRANCH   6   7
ENDBRANCH   5   6
ENDBRANCH   4   5
ENDBRANCH   3   4
ENDBRANCH   2   3
ENDBRANCH   1   2
BRANCH   1  18
ATOM     18  C   UNL     1      -9.451 -14.241  17.468  1.00  0.00     0.000 C 
BRANCH  18  19
ATOM     19  C   UNL     1     -10.134 -15.610  17.298  1.00  0.00     0.000 C 
BRANCH  19  20
ATOM     20  C   UNL     1      -9.378 -16.744  18.012  1.00  0.00     0.000 C 
BRANCH  20  21
ATOM     21  C   UNL     1     -10.002 -18.125  17.754  1.00  0.00     0.000 C 
BRANCH  21  22
ATOM     22  C   UNL     1      -9.067 -19.058  16.966  1.00  0.00     0.000 C 
BRANCH  22  23
ATOM     23  C   UNL     1      -7.594 -18.613  17.016  1.00  0.00     0.000 C 
BRANCH  23  24
ATOM     24  C   UNL     1      -6.572 -19.661  16.536  1.00  0.00    -0.000 C 
BRANCH  24  25
ATOM     25  C   UNL     1      -6.091 -19.411  15.097  1.00  0.00    -0.000 C 
BRANCH  25  26
ATOM     26  C   UNL     1      -7.240 -19.408  14.072  1.00  0.00    -0.000 C 
BRANCH  26  27
ATOM     27  C   UNL     1      -7.903 -20.777  13.814  1.00  0.00    -0.000 C 
BRANCH  27  28
ATOM     28  C   UNL     1      -9.176 -20.745  12.950  1.00  0.00    -0.000 C 
BRANCH  28  29
ATOM     29  C   UNL     1     -10.466 -20.681  13.785  1.00  0.00    -0.000 C 
BRANCH  29  30
ATOM     30  C   UNL     1     -11.210 -22.028  13.841  1.00  0.00    -0.000 C 
BRANCH  30  31
ATOM     31  C   UNL     1     -11.416 -22.598  15.255  1.00  0.00    -0.003 C 
ATOM     32  C   UNL     1     -12.233 -23.889  15.266  1.00  0.00     0.004 C 
ENDBRANCH  30  31
ENDBRANCH  29  30
ENDBRANCH  28  29
ENDBRANCH  27  28
ENDBRANCH  26  27
ENDBRANCH  25  26
ENDBRANCH  24  25
ENDBRANCH  23  24
ENDBRANCH  22  23
ENDBRANCH  21  22
ENDBRANCH  20  21
ENDBRANCH  19  20
ENDBRANCH  18  19
ENDBRANCH   1  18
TORSDOF 28
ENDMDL
MODEL 8
REMARK VINA RESULT:    31.331      6.188     15.537
REMARK INTER + INTRA:          82.691
REMARK INTER:                  84.011
REMARK INTRA:                  -1.321
REMARK UNBOUND:                 0.075
REMARK SMILES CCCCCCCCCCCCCCCCCCCCCCCCCCCCCC(=O)[O-]
REMARK SMILES IDX 16 1 17 2 18 3 19 4 20 5 21 6 22 7 23 8 24 9 25 10 26 11
REMARK SMILES IDX 27 12 28 13 29 14 30 15 31 16 32 17 15 18 14 19 13 20 12 21
REMARK SMILES IDX 11 22 10 23 9 24 8 25 7 26 6 27 5 28 4 29 3 30 2 31 1 32
REMARK H PARENT
REMARK Flexibility Score: inf
ROOT
ATOM      1  C   UNL     1      -9.354 -14.335  17.544  1.00  0.00     0.000 C 
ENDROOT
BRANCH   1   2
ATOM      2  C   UNL     1      -9.848 -15.734  17.127  1.00  0.00     0.000 C 
BRANCH   2   3
ATOM      3  C   UNL     1      -9.527 -16.858  18.130  1.00  0.00     0.000 C 
BRANCH   3   4
ATOM      4  C   UNL     1     -10.117 -18.215  17.710  1.00  0.00     0.000 C 
BRANCH   4   5
ATOM      5  C   UNL     1      -9.046 -19.192  17.196  1.00  0.00     0.000 C 
BRANCH   5   6
ATOM      6  C   UNL     1      -7.902 -18.481  16.458  1.00  0.00     0.000 C 
BRANCH   6   7
ATOM      7  C   UNL     1      -6.816 -19.482  16.039  1.00  0.00     0.000 C 
BRANCH   7   8
ATOM      8  C   UNL     1      -7.189 -20.281  14.777  1.00  0.00     0.000 C 
BRANCH   8   9
ATOM      9  C   UNL     1      -7.593 -19.425  13.561  1.00  0.00     0.000 C 
BRANCH   9  10
ATOM     10  C   UNL     1      -9.109 -19.406  13.320  1.00  0.00     0.000 C 
BRANCH  10  11
ATOM     11  C   UNL     1      -9.766 -20.691  13.847  1.00  0.00     0.000 C 
BRANCH  11  12
ATOM     12  C   UNL     1     -10.512 -21.475  12.753  1.00  0.00     0.000 C 
BRANCH  12  13
ATOM     13  C   UNL     1     -11.669 -20.717  12.074  1.00  0.00     0.006 C 
BRANCH  13  14
ATOM     14  C   UNL     1     -11.306 -20.107  10.707  1.00  0.00     0.053 C 
BRANCH  14  15
ATOM     15  C   UNL     1     -11.745 -20.963   9.556  1.00  0.00     0.041 C 
ATOM     16  O   UNL     1     -11.143 -20.900   8.451  1.00  0.00    -0.550 OA
ATOM     17  O   UNL     1     -12.791 -21.862   9.718  1.00  0.00    -0.550 OA
ENDBRANCH  14  15
ENDBRANCH  13  14
ENDBRANCH  12  13
ENDBRANCH  11  12
ENDBRANCH  10  11
ENDBRANCH   9  10
ENDBRANCH   8   9
ENDBRANCH   7   8
ENDBRANCH   6   7
ENDBRANCH   5   6
ENDBRANCH   4   5
ENDBRANCH   3   4
ENDBRANCH   2   3
ENDBRANCH   1   2
BRANCH   1  18
ATOM     18  C   UNL     1      -8.474 -14.300  18.810  1.00  0.00     0.000 C 
BRANCH  18  19
ATOM     19  C   UNL     1      -9.246 -14.347  20.140  1.00  0.00     0.000 C 
BRANCH  19  20
ATOM     20  C   UNL     1      -9.019 -13.093  21.004  1.00  0.00     0.000 C 
BRANCH  20  21
ATOM     21  C   UNL     1      -7.613 -13.047  21.624  1.00  0.00     0.000 C 
BRANCH  21  22
ATOM     22  C   UNL     1      -7.544 -12.144  22.867  1.00  0.00     0.000 C 
BRANCH  22  23
ATOM     23  C   UNL     1      -6.116 -11.998  23.424  1.00  0.00     0.000 C 
BRANCH  23  24
ATOM     24  C   UNL     1      -6.025 -11.582  24.904  1.00  0.00    -0.000 C 
BRANCH  24  25
ATOM     25  C   UNL     1      -6.423 -10.116  25.138  1.00  0.00    -0.000 C 
BRANCH  25  26
ATOM     26  C   UNL     1      -5.492  -9.119  24.424  1.00  0.00    -0.000 C 
BRANCH  26  27
ATOM     27  C   UNL     1      -4.178  -8.792  25.164  1.00  0.00    -0.000 C 
BRANCH  27  28
ATOM     28  C   UNL     1      -2.951  -8.558  24.264  1.00  0.00    -0.000 C 
BRANCH  28  29
ATOM     29  C   UNL     1      -1.627  -8.953  24.941  1.00  0.00    -0.000 C 
BRANCH  29  30
ATOM     30  C   UNL     1      -0.553  -7.854  24.840  1.00  0.00    -0.000 C 
BRANCH  30  31
ATOM     31  C   UNL     1       0.511  -7.882  25.953  1.00  0.00    -0.003 C 
ATOM     32  C   UNL     1       0.279  -8.996  26.972  1.00  0.00     0.004 C 
ENDBRANCH  30  31
ENDBRANCH  29  30
ENDBRANCH  28  29
ENDBRANCH  27  28
ENDBRANCH  26  27
ENDBRANCH  25  26
ENDBRANCH  24  25
ENDBRANCH  23  24
ENDBRANCH  22  23
ENDBRANCH  21  22
ENDBRANCH  20  21
ENDBRANCH  19  20
ENDBRANCH  18  19
ENDBRANCH   1  18
TORSDOF 28
ENDMDL
MODEL 9
REMARK VINA RESULT:    31.399      6.590     14.762
REMARK INTER + INTRA:          82.869
REMARK INTER:                  83.420
REMARK INTRA:                  -0.550
REMARK UNBOUND:                 0.075
REMARK SMILES CCCCCCCCCCCCCCCCCCCCCCCCCCCCCC(=O)[O-]
REMARK SMILES IDX 16 1 17 2 18 3 19 4 20 5 21 6 22 7 23 8 24 9 25 10 26 11
REMARK SMILES IDX 27 12 28 13 29 14 30 15 31 16 32 17 15 18 14 19 13 20 12 21
REMARK SMILES IDX 11 22 10 23 9 24 8 25 7 26 6 27 5 28 4 29 3 30 2 31 1 32
REMARK H PARENT
REMARK Flexibility Score: inf
ROOT
ATOM      1  C   UNL     1      -9.970 -17.619  17.665  1.00  0.00     0.000 C 
ENDROOT
BRANCH   1   2
ATOM      2  C   UNL     1      -8.813 -18.637  17.661  1.00  0.00     0.000 C 
BRANCH   2   3
ATOM      3  C   UNL     1      -8.351 -19.084  16.262  1.00  0.00     0.000 C 
BRANCH   3   4
ATOM      4  C   UNL     1      -7.352 -20.253  16.311  1.00  0.00     0.000 C 
BRANCH   4   5
ATOM      5  C   UNL     1      -6.015 -19.918  15.631  1.00  0.00     0.000 C 
BRANCH   5   6
ATOM      6  C   UNL     1      -6.135 -19.825  14.102  1.00  0.00     0.000 C 
BRANCH   6   7
ATOM      7  C   UNL     1      -7.400 -20.542  13.609  1.00  0.00     0.000 C 
BRANCH   7   8
ATOM      8  C   UNL     1      -8.558 -19.576  13.299  1.00  0.00     0.000 C 
BRANCH   8   9
ATOM      9  C   UNL     1      -9.810 -20.234  12.691  1.00  0.00     0.000 C 
BRANCH   9  10
ATOM     10  C   UNL     1     -10.536 -21.163  13.675  1.00  0.00     0.000 C 
BRANCH  10  11
ATOM     11  C   UNL     1     -10.333 -22.637  13.291  1.00  0.00     0.000 C 
BRANCH  11  12
ATOM     12  C   UNL     1      -9.415 -22.817  12.069  1.00  0.00     0.000 C 
BRANCH  12  13
ATOM     13  C   UNL     1     -10.057 -23.529  10.863  1.00  0.00     0.006 C 
BRANCH  13  14
ATOM     14  C   UNL     1      -9.094 -24.444  10.085  1.00  0.00     0.053 C 
BRANCH  14  15
ATOM     15  C   UNL     1      -9.059 -25.843  10.626  1.00  0.00     0.041 C 
ATOM     16  O   UNL     1      -8.844 -26.817   9.858  1.00  0.00    -0.550 OA
ATOM     17  O   UNL     1      -9.221 -26.065  11.987  1.00  0.00    -0.550 OA
ENDBRANCH  14  15
ENDBRANCH  13  14
ENDBRANCH  12  13
ENDBRANCH  11  12
ENDBRANCH  10  11
ENDBRANCH   9  10
ENDBRANCH   8   9
ENDBRANCH   7   8
ENDBRANCH   6   7
ENDBRANCH   5   6
ENDBRANCH   4   5
ENDBRANCH   3   4
ENDBRANCH   2   3
ENDBRANCH   1   2
BRANCH   1  18
ATOM     18  C   UNL     1      -9.649 -16.264  18.326  1.00  0.00     0.000 C 
BRANCH  18  19
ATOM     19  C   UNL     1      -8.945 -15.244  17.413  1.00  0.00     0.000 C 
BRANCH  19  20
ATOM     20  C   UNL     1      -9.286 -13.788  17.774  1.00  0.00     0.000 C 
BRANCH  20  21
ATOM     21  C   UNL     1      -9.535 -13.594  19.279  1.00  0.00     0.000 C 
BRANCH  21  22
ATOM     22  C   UNL     1      -8.237 -13.339  20.065  1.00  0.00     0.000 C 
BRANCH  22  23
ATOM     23  C   UNL     1      -8.487 -13.036  21.553  1.00  0.00     0.000 C 
BRANCH  23  24
ATOM     24  C   UNL     1      -7.252 -13.150  22.466  1.00  0.00    -0.000 C 
BRANCH  24  25
ATOM     25  C   UNL     1      -7.233 -12.091  23.581  1.00  0.00    -0.000 C 
BRANCH  25  26
ATOM     26  C   UNL     1      -6.009 -12.216  24.507  1.00  0.00    -0.000 C 
BRANCH  26  27
ATOM     27  C   UNL     1      -6.122 -13.282  25.617  1.00  0.00    -0.000 C 
BRANCH  27  28
ATOM     28  C   UNL     1      -4.980 -14.313  25.666  1.00  0.00    -0.000 C 
BRANCH  28  29
ATOM     29  C   UNL     1      -5.136 -15.327  26.811  1.00  0.00    -0.000 C 
BRANCH  29  30
ATOM     30  C   UNL     1      -5.519 -16.734  26.317  1.00  0.00    -0.000 C 
BRANCH  30  31
ATOM     31  C   UNL     1      -4.697 -17.249  25.122  1.00  0.00    -0.003 C 
ATOM     32  C   UNL     1      -5.436 -18.304  24.299  1.00  0.00     0.004 C 
ENDBRANCH  30  31
ENDBRANCH  29  30
ENDBRANCH  28  29
ENDBRANCH  27  28
ENDBRANCH  26  27
ENDBRANCH  25  26
ENDBRANCH  24  25
ENDBRANCH  23  24
ENDBRANCH  22  23
ENDBRANCH  21  22
ENDBRANCH  20  21
ENDBRANCH  19  20
ENDBRANCH  18  19
ENDBRANCH   1  18
TORSDOF 28
ENDMDL
