MODEL 1
REMARK VINA RESULT:    -5.629      0.000      0.000
REMARK INTER + INTRA:          -5.958
REMARK INTER:                  -5.958
REMARK INTRA:                   0.000
REMARK UNBOUND:                 0.000
REMARK SMILES O=c1ccc2cc(O)c(O)cc2o1
REMARK SMILES IDX 4 1 3 2 2 3 1 4 13 5 12 6 11 7 9 8 7 9 6 10 5 11 8 12 10 14
REMARK H PARENT 8 13 10 15
REMARK Flexibility Score: inf
ROOT
ATOM      1  C   UNL     1      18.391 -23.590  -9.372  1.00  0.00     0.019 A 
ATOM      2  C   UNL     1      19.737 -23.496  -9.017  1.00  0.00     0.094 A 
ATOM      3  C   UNL     1      20.095 -23.652  -7.674  1.00  0.00     0.336 A 
ATOM      4  O   UNL     1      21.304 -23.571  -7.332  1.00  0.00    -0.246 OA
ATOM      5  O   UNL     1      19.166 -23.889  -6.751  1.00  0.00    -0.423 OA
ATOM      6  C   UNL     1      17.872 -23.987  -7.048  1.00  0.00     0.142 A 
ATOM      7  C   UNL     1      16.940 -24.237  -6.036  1.00  0.00     0.098 A 
ATOM      8  C   UNL     1      15.574 -24.340  -6.344  1.00  0.00     0.161 A 
ATOM      9  C   UNL     1      15.141 -24.193  -7.669  1.00  0.00     0.158 A 
ATOM     10  C   UNL     1      16.071 -23.943  -8.688  1.00  0.00     0.062 A 
ATOM     11  C   UNL     1      17.436 -23.839  -8.382  1.00  0.00     0.022 A 
ENDROOT
BRANCH   9  12
ATOM     12  O   UNL     1      13.783 -24.298  -7.966  1.00  0.00    -0.504 OA
ATOM     13  H   UNL     1      13.269 -25.155  -7.802  1.00  0.00     0.293 HD
ENDBRANCH   9  12
BRANCH   8  14
ATOM     14  O   UNL     1      14.643 -24.589  -5.337  1.00  0.00    -0.504 OA
ATOM     15  H   UNL     1      13.703 -24.903  -5.549  1.00  0.00     0.293 HD
ENDBRANCH   8  14
TORSDOF 2
ENDMDL
MODEL 2
REMARK VINA RESULT:    -5.238      1.542      4.950
REMARK INTER + INTRA:          -5.544
REMARK INTER:                  -5.544
REMARK INTRA:                   0.000
REMARK UNBOUND:                 0.000
REMARK SMILES O=c1ccc2cc(O)c(O)cc2o1
REMARK SMILES IDX 4 1 3 2 2 3 1 4 13 5 12 6 11 7 9 8 7 9 6 10 5 11 8 12 10 14
REMARK H PARENT 8 13 10 15
REMARK Flexibility Score: inf
ROOT
ATOM      1  C   UNL     1      15.892 -22.387  -6.349  1.00  0.00     0.019 A 
ATOM      2  C   UNL     1      14.764 -23.169  -6.597  1.00  0.00     0.094 A 
ATOM      3  C   UNL     1      14.858 -24.223  -7.512  1.00  0.00     0.336 A 
ATOM      4  O   UNL     1      13.853 -24.942  -7.750  1.00  0.00    -0.246 OA
ATOM      5  O   UNL     1      16.008 -24.475  -8.134  1.00  0.00    -0.423 OA
ATOM      6  C   UNL     1      17.107 -23.755  -7.925  1.00  0.00     0.142 A 
ATOM      7  C   UNL     1      18.287 -24.065  -8.607  1.00  0.00     0.098 A 
ATOM      8  C   UNL     1      19.449 -23.308  -8.391  1.00  0.00     0.161 A 
ATOM      9  C   UNL     1      19.428 -22.236  -7.488  1.00  0.00     0.158 A 
ATOM     10  C   UNL     1      18.248 -21.918  -6.802  1.00  0.00     0.062 A 
ATOM     11  C   UNL     1      17.086 -22.674  -7.016  1.00  0.00     0.022 A 
ENDROOT
BRANCH   9  12
ATOM     12  O   UNL     1      20.587 -21.488  -7.279  1.00  0.00    -0.504 OA
ATOM     13  H   UNL     1      20.604 -20.705  -6.638  1.00  0.00     0.293 HD
ENDBRANCH   9  12
BRANCH   8  14
ATOM     14  O   UNL     1      20.626 -23.616  -9.070  1.00  0.00    -0.504 OA
ATOM     15  H   UNL     1      20.640 -24.284  -9.833  1.00  0.00     0.293 HD
ENDBRANCH   8  14
TORSDOF 2
ENDMDL
MODEL 3
REMARK VINA RESULT:    -5.219      1.681      4.745
REMARK INTER + INTRA:          -5.524
REMARK INTER:                  -5.524
REMARK INTRA:                   0.000
REMARK UNBOUND:                 0.000
REMARK SMILES O=c1ccc2cc(O)c(O)cc2o1
REMARK SMILES IDX 4 1 3 2 2 3 1 4 13 5 12 6 11 7 9 8 7 9 6 10 5 11 8 12 10 14
REMARK H PARENT 8 13 10 15
REMARK Flexibility Score: inf
ROOT
ATOM      1  C   UNL     1      16.059 -24.267  -8.348  1.00  0.00     0.019 A 
ATOM      2  C   UNL     1      14.888 -23.879  -7.698  1.00  0.00     0.094 A 
ATOM      3  C   UNL     1      14.941 -22.824  -6.780  1.00  0.00     0.336 A 
ATOM      4  O   UNL     1      13.895 -22.458  -6.182  1.00  0.00    -0.246 OA
ATOM      5  O   UNL     1      16.091 -22.202  -6.533  1.00  0.00    -0.423 OA
ATOM      6  C   UNL     1      17.230 -22.540  -7.132  1.00  0.00     0.142 A 
ATOM      7  C   UNL     1      18.409 -21.850  -6.834  1.00  0.00     0.098 A 
ATOM      8  C   UNL     1      19.613 -22.203  -7.462  1.00  0.00     0.161 A 
ATOM      9  C   UNL     1      19.636 -23.251  -8.393  1.00  0.00     0.158 A 
ATOM     10  C   UNL     1      18.458 -23.947  -8.697  1.00  0.00     0.062 A 
ATOM     11  C   UNL     1      17.254 -23.595  -8.070  1.00  0.00     0.022 A 
ENDROOT
BRANCH   9  12
ATOM     12  O   UNL     1      20.837 -23.595  -9.014  1.00  0.00    -0.504 OA
ATOM     13  H   UNL     1      21.018 -23.365  -9.984  1.00  0.00     0.293 HD
ENDBRANCH   9  12
BRANCH   8  14
ATOM     14  O   UNL     1      20.789 -21.517  -7.166  1.00  0.00    -0.504 OA
ATOM     15  H   UNL     1      21.097 -21.378  -6.210  1.00  0.00     0.293 HD
ENDBRANCH   8  14
TORSDOF 2
ENDMDL
MODEL 4
REMARK VINA RESULT:    -5.195      1.603      4.631
REMARK INTER + INTRA:          -5.499
REMARK INTER:                  -5.499
REMARK INTRA:                   0.000
REMARK UNBOUND:                 0.000
REMARK SMILES O=c1ccc2cc(O)c(O)cc2o1
REMARK SMILES IDX 4 1 3 2 2 3 1 4 13 5 12 6 11 7 9 8 7 9 6 10 5 11 8 12 10 14
REMARK H PARENT 8 13 10 15
REMARK Flexibility Score: inf
ROOT
ATOM      1  C   UNL     1      18.511 -23.625  -9.418  1.00  0.00     0.019 A 
ATOM      2  C   UNL     1      17.142 -23.888  -9.468  1.00  0.00     0.094 A 
ATOM      3  C   UNL     1      16.408 -23.885  -8.277  1.00  0.00     0.336 A 
ATOM      4  O   UNL     1      15.172 -24.119  -8.299  1.00  0.00    -0.246 OA
ATOM      5  O   UNL     1      17.008 -23.633  -7.115  1.00  0.00    -0.423 OA
ATOM      6  C   UNL     1      18.311 -23.377  -7.024  1.00  0.00     0.142 A 
ATOM      7  C   UNL     1      18.888 -23.119  -5.777  1.00  0.00     0.098 A 
ATOM      8  C   UNL     1      20.261 -22.849  -5.675  1.00  0.00     0.161 A 
ATOM      9  C   UNL     1      21.059 -22.836  -6.827  1.00  0.00     0.158 A 
ATOM     10  C   UNL     1      20.487 -23.094  -8.081  1.00  0.00     0.062 A 
ATOM     11  C   UNL     1      19.115 -23.364  -8.184  1.00  0.00     0.022 A 
ENDROOT
BRANCH   9  12
ATOM     12  O   UNL     1      22.423 -22.566  -6.718  1.00  0.00    -0.504 OA
ATOM     13  H   UNL     1      23.120 -23.288  -6.859  1.00  0.00     0.293 HD
ENDBRANCH   9  12
BRANCH   8  14
ATOM     14  O   UNL     1      20.837 -22.592  -4.433  1.00  0.00    -0.504 OA
ATOM     15  H   UNL     1      20.674 -23.197  -3.636  1.00  0.00     0.293 HD
ENDBRANCH   8  14
TORSDOF 2
ENDMDL
MODEL 5
REMARK VINA RESULT:    -5.136      1.500      4.655
REMARK INTER + INTRA:          -5.437
REMARK INTER:                  -5.437
REMARK INTRA:                   0.000
REMARK UNBOUND:                 0.000
REMARK SMILES O=c1ccc2cc(O)c(O)cc2o1
REMARK SMILES IDX 4 1 3 2 2 3 1 4 13 5 12 6 11 7 9 8 7 9 6 10 5 11 8 12 10 14
REMARK H PARENT 8 13 10 15
REMARK Flexibility Score: inf
ROOT
ATOM      1  C   UNL     1      13.965 -24.656  -7.483  1.00  0.00     0.019 A 
ATOM      2  C   UNL     1      13.396 -25.028  -6.265  1.00  0.00     0.094 A 
ATOM      3  C   UNL     1      14.206 -25.070  -5.125  1.00  0.00     0.336 A 
ATOM      4  O   UNL     1      13.713 -25.403  -4.015  1.00  0.00    -0.246 OA
ATOM      5  O   UNL     1      15.498 -24.759  -5.203  1.00  0.00    -0.423 OA
ATOM      6  C   UNL     1      16.079 -24.398  -6.345  1.00  0.00     0.142 A 
ATOM      7  C   UNL     1      17.440 -24.082  -6.367  1.00  0.00     0.098 A 
ATOM      8  C   UNL     1      18.058 -23.702  -7.569  1.00  0.00     0.161 A 
ATOM      9  C   UNL     1      17.309 -23.638  -8.752  1.00  0.00     0.158 A 
ATOM     10  C   UNL     1      15.943 -23.955  -8.736  1.00  0.00     0.062 A 
ATOM     11  C   UNL     1      15.324 -24.334  -7.536  1.00  0.00     0.022 A 
ENDROOT
BRANCH   9  12
ATOM     12  O   UNL     1      17.930 -23.259  -9.941  1.00  0.00    -0.504 OA
ATOM     13  H   UNL     1      18.937 -23.276 -10.042  1.00  0.00     0.293 HD
ENDBRANCH   9  12
BRANCH   8  14
ATOM     14  O   UNL     1      19.415 -23.387  -7.593  1.00  0.00    -0.504 OA
ATOM     15  H   UNL     1      20.055 -23.844  -8.233  1.00  0.00     0.293 HD
ENDBRANCH   8  14
TORSDOF 2
ENDMDL
MODEL 6
REMARK VINA RESULT:    -5.076      2.071      3.126
REMARK INTER + INTRA:          -5.373
REMARK INTER:                  -5.373
REMARK INTRA:                   0.000
REMARK UNBOUND:                 0.000
REMARK SMILES O=c1ccc2cc(O)c(O)cc2o1
REMARK SMILES IDX 4 1 3 2 2 3 1 4 13 5 12 6 11 7 9 8 7 9 6 10 5 11 8 12 10 14
REMARK H PARENT 8 13 10 15
REMARK Flexibility Score: inf
ROOT
ATOM      1  C   UNL     1      17.720 -23.979  -6.603  1.00  0.00     0.019 A 
ATOM      2  C   UNL     1      18.191 -23.717  -7.890  1.00  0.00     0.094 A 
ATOM      3  C   UNL     1      17.285 -23.718  -8.956  1.00  0.00     0.336 A 
ATOM      4  O   UNL     1      17.689 -23.484 -10.125  1.00  0.00    -0.246 OA
ATOM      5  O   UNL     1      15.994 -23.964  -8.744  1.00  0.00    -0.423 OA
ATOM      6  C   UNL     1      15.504 -24.217  -7.533  1.00  0.00     0.142 A 
ATOM      7  C   UNL     1      14.138 -24.468  -7.369  1.00  0.00     0.098 A 
ATOM      8  C   UNL     1      13.617 -24.737  -6.095  1.00  0.00     0.161 A 
ATOM      9  C   UNL     1      14.466 -24.753  -4.980  1.00  0.00     0.158 A 
ATOM     10  C   UNL     1      15.836 -24.502  -5.137  1.00  0.00     0.062 A 
ATOM     11  C   UNL     1      16.359 -24.234  -6.410  1.00  0.00     0.022 A 
ENDROOT
BRANCH   9  12
ATOM     12  O   UNL     1      13.939 -25.020  -3.716  1.00  0.00    -0.504 OA
ATOM     13  H   UNL     1      13.509 -25.910  -3.498  1.00  0.00     0.293 HD
ENDBRANCH   9  12
BRANCH   8  14
ATOM     14  O   UNL     1      12.256 -24.987  -5.930  1.00  0.00    -0.504 OA
ATOM     15  H   UNL     1      11.730 -24.581  -5.165  1.00  0.00     0.293 HD
ENDBRANCH   8  14
TORSDOF 2
ENDMDL
MODEL 7
REMARK VINA RESULT:    -4.890      1.553      2.158
REMARK INTER + INTRA:          -5.176
REMARK INTER:                  -5.176
REMARK INTRA:                   0.000
REMARK UNBOUND:                 0.000
REMARK SMILES O=c1ccc2cc(O)c(O)cc2o1
REMARK SMILES IDX 4 1 3 2 2 3 1 4 13 5 12 6 11 7 9 8 7 9 6 10 5 11 8 12 10 14
REMARK H PARENT 8 13 10 15
REMARK Flexibility Score: inf
ROOT
ATOM      1  C   UNL     1      18.450 -21.824  -6.745  1.00  0.00     0.019 A 
ATOM      2  C   UNL     1      19.619 -22.177  -7.420  1.00  0.00     0.094 A 
ATOM      3  C   UNL     1      19.573 -23.216  -8.356  1.00  0.00     0.336 A 
ATOM      4  O   UNL     1      20.616 -23.550  -8.976  1.00  0.00    -0.246 OA
ATOM      5  O   UNL     1      18.431 -23.856  -8.598  1.00  0.00    -0.423 OA
ATOM      6  C   UNL     1      17.294 -23.550  -7.977  1.00  0.00     0.142 A 
ATOM      7  C   UNL     1      16.124 -24.256  -8.272  1.00  0.00     0.098 A 
ATOM      8  C   UNL     1      14.923 -23.938  -7.620  1.00  0.00     0.161 A 
ATOM      9  C   UNL     1      14.894 -22.908  -6.669  1.00  0.00     0.158 A 
ATOM     10  C   UNL     1      16.064 -22.196  -6.369  1.00  0.00     0.062 A 
ATOM     11  C   UNL     1      17.265 -22.513  -7.020  1.00  0.00     0.022 A 
ENDROOT
BRANCH   9  12
ATOM     12  O   UNL     1      13.696 -22.598  -6.026  1.00  0.00    -0.504 OA
ATOM     13  H   UNL     1      12.835 -22.468  -6.542  1.00  0.00     0.293 HD
ENDBRANCH   9  12
BRANCH   8  14
ATOM     14  O   UNL     1      13.756 -24.641  -7.912  1.00  0.00    -0.504 OA
ATOM     15  H   UNL     1      13.276 -24.527  -8.798  1.00  0.00     0.293 HD
ENDBRANCH   8  14
TORSDOF 2
ENDMDL
MODEL 8
REMARK VINA RESULT:    -4.753      2.851      5.083
REMARK INTER + INTRA:          -5.030
REMARK INTER:                  -5.030
REMARK INTRA:                   0.000
REMARK UNBOUND:                 0.000
REMARK SMILES O=c1ccc2cc(O)c(O)cc2o1
REMARK SMILES IDX 4 1 3 2 2 3 1 4 13 5 12 6 11 7 9 8 7 9 6 10 5 11 8 12 10 14
REMARK H PARENT 8 13 10 15
REMARK Flexibility Score: inf
ROOT
ATOM      1  C   UNL     1      20.515 -23.594  -8.625  1.00  0.00     0.019 A 
ATOM      2  C   UNL     1      19.373 -23.875  -9.375  1.00  0.00     0.094 A 
ATOM      3  C   UNL     1      18.165 -23.261  -9.026  1.00  0.00     0.336 A 
ATOM      4  O   UNL     1      17.123 -23.500  -9.689  1.00  0.00    -0.246 OA
ATOM      5  O   UNL     1      18.109 -22.421  -7.994  1.00  0.00    -0.423 OA
ATOM      6  C   UNL     1      19.175 -22.125  -7.254  1.00  0.00     0.142 A 
ATOM      7  C   UNL     1      19.057 -21.236  -6.182  1.00  0.00     0.098 A 
ATOM      8  C   UNL     1      20.178 -20.922  -5.398  1.00  0.00     0.161 A 
ATOM      9  C   UNL     1      21.421 -21.500  -5.689  1.00  0.00     0.158 A 
ATOM     10  C   UNL     1      21.546 -22.393  -6.762  1.00  0.00     0.062 A 
ATOM     11  C   UNL     1      20.427 -22.708  -7.547  1.00  0.00     0.022 A 
ENDROOT
BRANCH   9  12
ATOM     12  O   UNL     1      22.530 -21.182  -4.905  1.00  0.00    -0.504 OA
ATOM     13  H   UNL     1      22.497 -21.234  -3.894  1.00  0.00     0.293 HD
ENDBRANCH   9  12
BRANCH   8  14
ATOM     14  O   UNL     1      20.062 -20.035  -4.329  1.00  0.00    -0.504 OA
ATOM     15  H   UNL     1      20.877 -19.697  -3.829  1.00  0.00     0.293 HD
ENDBRANCH   8  14
TORSDOF 2
ENDMDL
