MODEL 1
REMARK VINA RESULT:    19.915      0.000      0.000
REMARK INTER + INTRA:          23.144
REMARK INTER:                  23.407
REMARK INTRA:                  -0.263
REMARK UNBOUND:                -0.263
REMARK SMILES O=c1cc(-c2ccc(O)c(O)c2)oc2cc(O)cc(O)c12
REMARK SMILES IDX 4 1 3 2 2 3 1 4 21 5 19 6 18 7 16 8 15 9 14 10 13 11 5 12
REMARK SMILES IDX 6 13 7 14 8 15 12 16 10 17 9 18 11 20 20 22 17 24
REMARK H PARENT 9 19 11 21 20 23 17 25
REMARK Flexibility Score: inf
ROOT
ATOM      1  C   UNL     1      26.704  30.263   5.104  1.00  0.00     0.138 A 
ATOM      2  C   UNL     1      27.722  30.935   4.408  1.00  0.00     0.100 A 
ATOM      3  C   UNL     1      28.261  30.361   3.256  1.00  0.00     0.197 A 
ATOM      4  O   UNL     1      29.175  30.972   2.639  1.00  0.00    -0.289 OA
ATOM      5  C   UNL     1      27.780  29.114   2.810  1.00  0.00     0.107 A 
ATOM      6  C   UNL     1      28.270  28.464   1.653  1.00  0.00     0.134 A 
ATOM      7  C   UNL     1      27.741  27.219   1.279  1.00  0.00     0.093 A 
ATOM      8  C   UNL     1      26.736  26.615   2.037  1.00  0.00     0.123 A 
ATOM      9  C   UNL     1      26.247  27.254   3.181  1.00  0.00     0.094 A 
ATOM     10  C   UNL     1      26.760  28.494   3.571  1.00  0.00     0.146 A 
ATOM     11  O   UNL     1      26.278  29.082   4.662  1.00  0.00    -0.456 OA
ENDROOT
BRANCH   1  12
ATOM     12  C   UNL     1      26.094  30.826   6.335  1.00  0.00     0.021 A 
ATOM     13  C   UNL     1      26.545  30.462   7.619  1.00  0.00     0.016 A 
ATOM     14  C   UNL     1      25.959  31.015   8.759  1.00  0.00     0.051 A 
ATOM     15  C   UNL     1      24.920  31.943   8.642  1.00  0.00     0.157 A 
ATOM     16  C   UNL     1      25.057  31.770   6.224  1.00  0.00     0.062 A 
ATOM     17  C   UNL     1      24.467  32.325   7.369  1.00  0.00     0.158 A 
BRANCH  15  18
ATOM     18  O   UNL     1      24.353  32.476   9.801  1.00  0.00    -0.504 OA
ATOM     19  H   UNL     1      24.914  32.748  10.598  1.00  0.00     0.293 HD
ENDBRANCH  15  18
BRANCH  17  20
ATOM     20  O   UNL     1      23.434  33.252   7.245  1.00  0.00    -0.504 OA
ATOM     21  H   UNL     1      22.649  33.094   6.625  1.00  0.00     0.293 HD
ENDBRANCH  17  20
ENDBRANCH   1  12
BRANCH   6  22
ATOM     22  O   UNL     1      29.275  29.042   0.875  1.00  0.00    -0.507 OA
ATOM     23  H   UNL     1      29.953  28.479   0.377  1.00  0.00     0.293 HD
ENDBRANCH   6  22
BRANCH   8  24
ATOM     24  O   UNL     1      26.228  25.379   1.643  1.00  0.00    -0.508 OA
ATOM     25  H   UNL     1      25.946  25.202   0.686  1.00  0.00     0.293 HD
ENDBRANCH   8  24
TORSDOF 5
ENDMDL
MODEL 2
REMARK VINA RESULT:    21.370      1.208      2.717
REMARK INTER + INTRA:          24.855
REMARK INTER:                  25.120
REMARK INTRA:                  -0.265
REMARK UNBOUND:                -0.263
REMARK SMILES O=c1cc(-c2ccc(O)c(O)c2)oc2cc(O)cc(O)c12
REMARK SMILES IDX 4 1 3 2 2 3 1 4 21 5 19 6 18 7 16 8 15 9 14 10 13 11 5 12
REMARK SMILES IDX 6 13 7 14 8 15 12 16 10 17 9 18 11 20 20 22 17 24
REMARK H PARENT 9 19 11 21 20 23 17 25
REMARK Flexibility Score: inf
ROOT
ATOM      1  C   UNL     1      26.272  30.141   5.170  1.00  0.00     0.138 A 
ATOM      2  C   UNL     1      25.729  28.936   4.695  1.00  0.00     0.100 A 
ATOM      3  C   UNL     1      26.228  28.373   3.520  1.00  0.00     0.197 A 
ATOM      4  O   UNL     1      25.734  27.291   3.103  1.00  0.00    -0.289 OA
ATOM      5  C   UNL     1      27.267  29.023   2.824  1.00  0.00     0.107 A 
ATOM      6  C   UNL     1      27.830  28.521   1.628  1.00  0.00     0.134 A 
ATOM      7  C   UNL     1      28.859  29.232   0.991  1.00  0.00     0.093 A 
ATOM      8  C   UNL     1      29.332  30.432   1.527  1.00  0.00     0.123 A 
ATOM      9  C   UNL     1      28.779  30.933   2.710  1.00  0.00     0.094 A 
ATOM     10  C   UNL     1      27.754  30.239   3.359  1.00  0.00     0.146 A 
ATOM     11  O   UNL     1      27.245  30.736   4.483  1.00  0.00    -0.456 OA
ENDROOT
BRANCH   1  12
ATOM     12  C   UNL     1      25.780  30.786   6.413  1.00  0.00     0.021 A 
ATOM     13  C   UNL     1      26.269  30.419   7.682  1.00  0.00     0.016 A 
ATOM     14  C   UNL     1      25.795  31.049   8.834  1.00  0.00     0.051 A 
ATOM     15  C   UNL     1      24.834  32.060   8.744  1.00  0.00     0.157 A 
ATOM     16  C   UNL     1      24.823  31.814   6.328  1.00  0.00     0.062 A 
ATOM     17  C   UNL     1      24.346  32.447   7.485  1.00  0.00     0.158 A 
BRANCH  15  18
ATOM     18  O   UNL     1      24.379  32.670   9.913  1.00  0.00    -0.504 OA
ATOM     19  H   UNL     1      23.840  32.167  10.607  1.00  0.00     0.293 HD
ENDBRANCH  15  18
BRANCH  17  20
ATOM     20  O   UNL     1      23.390  33.457   7.387  1.00  0.00    -0.504 OA
ATOM     21  H   UNL     1      23.572  34.313   6.875  1.00  0.00     0.293 HD
ENDBRANCH  17  20
ENDBRANCH   1  12
BRANCH   6  22
ATOM     22  O   UNL     1      27.378  27.324   1.068  1.00  0.00    -0.507 OA
ATOM     23  H   UNL     1      26.749  27.312   0.275  1.00  0.00     0.293 HD
ENDBRANCH   6  22
BRANCH   8  24
ATOM     24  O   UNL     1      30.354  31.119   0.875  1.00  0.00    -0.508 OA
ATOM     25  H   UNL     1      30.763  31.959   1.267  1.00  0.00     0.293 HD
ENDBRANCH   8  24
TORSDOF 5
ENDMDL
