MODEL 1
REMARK VINA RESULT:    -4.157      0.000      0.000
REMARK INTER + INTRA:         -15.944
REMARK INTER:                 -10.476
REMARK INTRA:                  -5.468
REMARK UNBOUND:                -5.468
REMARK SMILES CCCCCCCCCCCCCCCCCCCCCCCCCCCC(=O)[O-]
REMARK SMILES IDX 15 1 16 2 17 3 18 4 19 5 20 6 21 7 22 8 23 9 24 10 25 11
REMARK SMILES IDX 26 12 27 13 28 14 29 15 30 16 14 17 13 18 12 19 11 20 10 21
REMARK SMILES IDX 9 22 8 23 7 24 6 25 5 26 4 27 3 28 2 29 1 30
REMARK H PARENT
REMARK Flexibility Score: inf
ROOT
ATOM      1  C   UNL     1      48.885  -0.571  22.355  1.00  0.00     0.000 C 
ENDROOT
BRANCH   1   2
ATOM      2  C   UNL     1      49.219   0.570  23.331  1.00  0.00     0.000 C 
BRANCH   2   3
ATOM      3  C   UNL     1      50.729   0.719  23.578  1.00  0.00     0.000 C 
BRANCH   3   4
ATOM      4  C   UNL     1      51.558   0.556  22.295  1.00  0.00     0.000 C 
BRANCH   4   5
ATOM      5  C   UNL     1      52.189   1.878  21.825  1.00  0.00     0.000 C 
BRANCH   5   6
ATOM      6  C   UNL     1      51.677   2.322  20.446  1.00  0.00     0.000 C 
BRANCH   6   7
ATOM      7  C   UNL     1      50.197   2.742  20.471  1.00  0.00     0.000 C 
BRANCH   7   8
ATOM      8  C   UNL     1      49.986   4.146  21.068  1.00  0.00     0.000 C 
BRANCH   8   9
ATOM      9  C   UNL     1      49.241   4.174  22.417  1.00  0.00     0.000 C 
BRANCH   9  10
ATOM     10  C   UNL     1      50.146   4.257  23.660  1.00  0.00     0.000 C 
BRANCH  10  11
ATOM     11  C   UNL     1      49.601   5.211  24.732  1.00  0.00     0.000 C 
BRANCH  11  12
ATOM     12  C   UNL     1      50.449   6.489  24.807  1.00  0.00     0.006 C 
BRANCH  12  13
ATOM     13  C   UNL     1      50.218   7.415  23.606  1.00  0.00     0.053 C 
BRANCH  13  14
ATOM     14  C   UNL     1      48.820   7.954  23.573  1.00  0.00     0.041 C 
ATOM     15  O   UNL     1      48.392   8.662  24.523  1.00  0.00    -0.550 OA
ATOM     16  O   UNL     1      47.989   7.677  22.494  1.00  0.00    -0.550 OA
ENDBRANCH  13  14
ENDBRANCH  12  13
ENDBRANCH  11  12
ENDBRANCH  10  11
ENDBRANCH   9  10
ENDBRANCH   8   9
ENDBRANCH   7   8
ENDBRANCH   6   7
ENDBRANCH   5   6
ENDBRANCH   4   5
ENDBRANCH   3   4
ENDBRANCH   2   3
ENDBRANCH   1   2
BRANCH   1  17
ATOM     17  C   UNL     1      47.952  -0.143  21.201  1.00  0.00     0.000 C 
BRANCH  17  18
ATOM     18  C   UNL     1      47.056   1.064  21.549  1.00  0.00     0.000 C 
BRANCH  18  19
ATOM     19  C   UNL     1      46.733   1.979  20.349  1.00  0.00     0.000 C 
BRANCH  19  20
ATOM     20  C   UNL     1      45.969   3.265  20.726  1.00  0.00     0.000 C 
BRANCH  20  21
ATOM     21  C   UNL     1      44.610   3.405  20.004  1.00  0.00     0.000 C 
BRANCH  21  22
ATOM     22  C   UNL     1      43.406   3.407  20.961  1.00  0.00    -0.000 C 
BRANCH  22  23
ATOM     23  C   UNL     1      43.429   2.223  21.943  1.00  0.00    -0.000 C 
BRANCH  23  24
ATOM     24  C   UNL     1      43.208   0.873  21.243  1.00  0.00    -0.000 C 
BRANCH  24  25
ATOM     25  C   UNL     1      43.412  -0.325  22.189  1.00  0.00    -0.000 C 
BRANCH  25  26
ATOM     26  C   UNL     1      43.650   0.119  23.649  1.00  0.00    -0.000 C 
BRANCH  26  27
ATOM     27  C   UNL     1      44.875  -0.543  24.308  1.00  0.00    -0.000 C 
BRANCH  27  28
ATOM     28  C   UNL     1      45.899   0.438  24.903  1.00  0.00    -0.000 C 
BRANCH  28  29
ATOM     29  C   UNL     1      45.472   1.907  24.752  1.00  0.00    -0.003 C 
ATOM     30  C   UNL     1      46.682   2.834  24.776  1.00  0.00     0.004 C 
ENDBRANCH  28  29
ENDBRANCH  27  28
ENDBRANCH  26  27
ENDBRANCH  25  26
ENDBRANCH  24  25
ENDBRANCH  23  24
ENDBRANCH  22  23
ENDBRANCH  21  22
ENDBRANCH  20  21
ENDBRANCH  19  20
ENDBRANCH  18  19
ENDBRANCH  17  18
ENDBRANCH   1  17
TORSDOF 26
ENDMDL
MODEL 2
REMARK VINA RESULT:    -4.040      2.765      6.907
REMARK INTER + INTRA:         -15.648
REMARK INTER:                 -10.750
REMARK INTRA:                  -4.898
REMARK UNBOUND:                -5.468
REMARK SMILES CCCCCCCCCCCCCCCCCCCCCCCCCCCC(=O)[O-]
REMARK SMILES IDX 15 1 16 2 17 3 18 4 19 5 20 6 21 7 22 8 23 9 24 10 25 11
REMARK SMILES IDX 26 12 27 13 28 14 29 15 30 16 14 17 13 18 12 19 11 20 10 21
REMARK SMILES IDX 9 22 8 23 7 24 6 25 5 26 4 27 3 28 2 29 1 30
REMARK H PARENT
REMARK Flexibility Score: inf
ROOT
ATOM      1  C   UNL     1      50.341   2.520  20.341  1.00  0.00     0.000 C 
ENDROOT
BRANCH   1   2
ATOM      2  C   UNL     1      50.256   3.332  21.645  1.00  0.00     0.000 C 
BRANCH   2   3
ATOM      3  C   UNL     1      49.493   4.655  21.473  1.00  0.00     0.000 C 
BRANCH   3   4
ATOM      4  C   UNL     1      48.761   5.088  22.752  1.00  0.00     0.000 C 
BRANCH   4   5
ATOM      5  C   UNL     1      47.246   5.255  22.540  1.00  0.00     0.000 C 
BRANCH   5   6
ATOM      6  C   UNL     1      46.838   5.140  21.063  1.00  0.00     0.000 C 
BRANCH   6   7
ATOM      7  C   UNL     1      45.889   3.958  20.800  1.00  0.00     0.000 C 
BRANCH   7   8
ATOM      8  C   UNL     1      46.617   2.722  20.240  1.00  0.00     0.000 C 
BRANCH   8   9
ATOM      9  C   UNL     1      46.283   1.394  20.948  1.00  0.00     0.000 C 
BRANCH   9  10
ATOM     10  C   UNL     1      46.203   1.475  22.484  1.00  0.00     0.000 C 
BRANCH  10  11
ATOM     11  C   UNL     1      47.585   1.512  23.152  1.00  0.00     0.000 C 
BRANCH  11  12
ATOM     12  C   UNL     1      47.474   1.983  24.609  1.00  0.00     0.006 C 
BRANCH  12  13
ATOM     13  C   UNL     1      48.839   2.344  25.211  1.00  0.00     0.053 C 
BRANCH  13  14
ATOM     14  C   UNL     1      48.707   2.979  26.562  1.00  0.00     0.041 C 
ATOM     15  O   UNL     1      49.650   3.668  27.032  1.00  0.00    -0.550 OA
ATOM     16  O   UNL     1      47.541   2.812  27.301  1.00  0.00    -0.550 OA
ENDBRANCH  13  14
ENDBRANCH  12  13
ENDBRANCH  11  12
ENDBRANCH  10  11
ENDBRANCH   9  10
ENDBRANCH   8   9
ENDBRANCH   7   8
ENDBRANCH   6   7
ENDBRANCH   5   6
ENDBRANCH   4   5
ENDBRANCH   3   4
ENDBRANCH   2   3
ENDBRANCH   1   2
BRANCH   1  17
ATOM     17  C   UNL     1      51.773   2.418  19.770  1.00  0.00     0.000 C 
BRANCH  17  18
ATOM     18  C   UNL     1      52.130   3.557  18.793  1.00  0.00     0.000 C 
BRANCH  18  19
ATOM     19  C   UNL     1      53.302   4.447  19.258  1.00  0.00     0.000 C 
BRANCH  19  20
ATOM     20  C   UNL     1      53.326   5.846  18.610  1.00  0.00     0.000 C 
BRANCH  20  21
ATOM     21  C   UNL     1      51.921   6.380  18.251  1.00  0.00     0.000 C 
BRANCH  21  22
ATOM     22  C   UNL     1      51.280   7.216  19.371  1.00  0.00    -0.000 C 
BRANCH  22  23
ATOM     23  C   UNL     1      50.751   8.571  18.869  1.00  0.00    -0.000 C 
BRANCH  23  24
ATOM     24  C   UNL     1      49.501   9.035  19.633  1.00  0.00    -0.000 C 
BRANCH  24  25
ATOM     25  C   UNL     1      49.359   8.353  21.006  1.00  0.00    -0.000 C 
BRANCH  25  26
ATOM     26  C   UNL     1      48.140   8.878  21.796  1.00  0.00    -0.000 C 
BRANCH  26  27
ATOM     27  C   UNL     1      48.389   9.005  23.311  1.00  0.00    -0.000 C 
BRANCH  27  28
ATOM     28  C   UNL     1      49.734   8.440  23.796  1.00  0.00    -0.000 C 
BRANCH  28  29
ATOM     29  C   UNL     1      49.645   7.809  25.194  1.00  0.00    -0.003 C 
ATOM     30  C   UNL     1      50.660   6.681  25.351  1.00  0.00     0.004 C 
ENDBRANCH  28  29
ENDBRANCH  27  28
ENDBRANCH  26  27
ENDBRANCH  25  26
ENDBRANCH  24  25
ENDBRANCH  23  24
ENDBRANCH  22  23
ENDBRANCH  21  22
ENDBRANCH  20  21
ENDBRANCH  19  20
ENDBRANCH  18  19
ENDBRANCH  17  18
ENDBRANCH   1  17
TORSDOF 26
ENDMDL
MODEL 3
REMARK VINA RESULT:    -4.020      2.218      5.408
REMARK INTER + INTRA:         -15.599
REMARK INTER:                  -9.927
REMARK INTRA:                  -5.672
REMARK UNBOUND:                -5.468
REMARK SMILES CCCCCCCCCCCCCCCCCCCCCCCCCCCC(=O)[O-]
REMARK SMILES IDX 15 1 16 2 17 3 18 4 19 5 20 6 21 7 22 8 23 9 24 10 25 11
REMARK SMILES IDX 26 12 27 13 28 14 29 15 30 16 14 17 13 18 12 19 11 20 10 21
REMARK SMILES IDX 9 22 8 23 7 24 6 25 5 26 4 27 3 28 2 29 1 30
REMARK H PARENT
REMARK Flexibility Score: inf
ROOT
ATOM      1  C   UNL     1      44.786   3.580  21.871  1.00  0.00     0.000 C 
ENDROOT
BRANCH   1   2
ATOM      2  C   UNL     1      45.509   3.380  20.528  1.00  0.00     0.000 C 
BRANCH   2   3
ATOM      3  C   UNL     1      46.923   2.800  20.695  1.00  0.00     0.000 C 
BRANCH   3   4
ATOM      4  C   UNL     1      47.123   1.492  19.916  1.00  0.00     0.000 C 
BRANCH   4   5
ATOM      5  C   UNL     1      47.675   0.357  20.795  1.00  0.00     0.000 C 
BRANCH   5   6
ATOM      6  C   UNL     1      47.523   0.643  22.297  1.00  0.00     0.000 C 
BRANCH   6   7
ATOM      7  C   UNL     1      48.289  -0.363  23.173  1.00  0.00     0.000 C 
BRANCH   7   8
ATOM      8  C   UNL     1      48.951   0.295  24.397  1.00  0.00     0.000 C 
BRANCH   8   9
ATOM      9  C   UNL     1      49.807   1.539  24.085  1.00  0.00     0.000 C 
BRANCH   9  10
ATOM     10  C   UNL     1      51.151   1.248  23.392  1.00  0.00     0.000 C 
BRANCH  10  11
ATOM     11  C   UNL     1      51.497   2.276  22.306  1.00  0.00     0.000 C 
BRANCH  11  12
ATOM     12  C   UNL     1      50.963   1.826  20.938  1.00  0.00     0.006 C 
BRANCH  12  13
ATOM     13  C   UNL     1      50.699   3.008  19.996  1.00  0.00     0.053 C 
BRANCH  13  14
ATOM     14  C   UNL     1      51.888   3.318  19.137  1.00  0.00     0.041 C 
ATOM     15  O   UNL     1      51.915   4.374  18.452  1.00  0.00    -0.550 OA
ATOM     16  O   UNL     1      52.966   2.442  19.094  1.00  0.00    -0.550 OA
ENDBRANCH  13  14
ENDBRANCH  12  13
ENDBRANCH  11  12
ENDBRANCH  10  11
ENDBRANCH   9  10
ENDBRANCH   8   9
ENDBRANCH   7   8
ENDBRANCH   6   7
ENDBRANCH   5   6
ENDBRANCH   4   5
ENDBRANCH   3   4
ENDBRANCH   2   3
ENDBRANCH   1   2
BRANCH   1  17
ATOM     17  C   UNL     1      43.531   2.694  22.035  1.00  0.00     0.000 C 
BRANCH  17  18
ATOM     18  C   UNL     1      43.564   1.415  21.173  1.00  0.00     0.000 C 
BRANCH  18  19
ATOM     19  C   UNL     1      43.458   0.104  21.981  1.00  0.00     0.000 C 
BRANCH  19  20
ATOM     20  C   UNL     1      43.253   0.313  23.495  1.00  0.00     0.000 C 
BRANCH  20  21
ATOM     21  C   UNL     1      44.342  -0.361  24.360  1.00  0.00     0.000 C 
BRANCH  21  22
ATOM     22  C   UNL     1      44.776   0.488  25.568  1.00  0.00    -0.000 C 
BRANCH  22  23
ATOM     23  C   UNL     1      44.005   1.816  25.665  1.00  0.00    -0.000 C 
BRANCH  23  24
ATOM     24  C   UNL     1      44.930   3.041  25.588  1.00  0.00    -0.000 C 
BRANCH  24  25
ATOM     25  C   UNL     1      46.350   2.681  25.115  1.00  0.00    -0.000 C 
BRANCH  25  26
ATOM     26  C   UNL     1      47.325   3.873  25.234  1.00  0.00    -0.000 C 
BRANCH  26  27
ATOM     27  C   UNL     1      47.586   4.599  23.900  1.00  0.00    -0.000 C 
BRANCH  27  28
ATOM     28  C   UNL     1      49.009   5.157  23.734  1.00  0.00    -0.000 C 
BRANCH  28  29
ATOM     29  C   UNL     1      49.061   6.391  22.821  1.00  0.00    -0.003 C 
ATOM     30  C   UNL     1      49.217   5.984  21.359  1.00  0.00     0.004 C 
ENDBRANCH  28  29
ENDBRANCH  27  28
ENDBRANCH  26  27
ENDBRANCH  25  26
ENDBRANCH  24  25
ENDBRANCH  23  24
ENDBRANCH  22  23
ENDBRANCH  21  22
ENDBRANCH  20  21
ENDBRANCH  19  20
ENDBRANCH  18  19
ENDBRANCH  17  18
ENDBRANCH   1  17
TORSDOF 26
ENDMDL
MODEL 4
REMARK VINA RESULT:    -4.010      3.854      7.702
REMARK INTER + INTRA:         -15.575
REMARK INTER:                 -10.687
REMARK INTRA:                  -4.887
REMARK UNBOUND:                -5.468
REMARK SMILES CCCCCCCCCCCCCCCCCCCCCCCCCCCC(=O)[O-]
REMARK SMILES IDX 15 1 16 2 17 3 18 4 19 5 20 6 21 7 22 8 23 9 24 10 25 11
REMARK SMILES IDX 26 12 27 13 28 14 29 15 30 16 14 17 13 18 12 19 11 20 10 21
REMARK SMILES IDX 9 22 8 23 7 24 6 25 5 26 4 27 3 28 2 29 1 30
REMARK H PARENT
REMARK Flexibility Score: inf
ROOT
ATOM      1  C   UNL     1      49.631   4.765  27.393  1.00  0.00     0.000 C 
ENDROOT
BRANCH   1   2
ATOM      2  C   UNL     1      48.144   4.854  27.779  1.00  0.00     0.000 C 
BRANCH   2   3
ATOM      3  C   UNL     1      47.644   6.303  27.888  1.00  0.00     0.000 C 
BRANCH   3   4
ATOM      4  C   UNL     1      46.493   6.608  26.918  1.00  0.00     0.000 C 
BRANCH   4   5
ATOM      5  C   UNL     1      46.277   5.488  25.886  1.00  0.00     0.000 C 
BRANCH   5   6
ATOM      6  C   UNL     1      46.815   5.853  24.493  1.00  0.00     0.000 C 
BRANCH   6   7
ATOM      7  C   UNL     1      46.263   4.938  23.386  1.00  0.00     0.000 C 
BRANCH   7   8
ATOM      8  C   UNL     1      47.356   4.083  22.720  1.00  0.00     0.000 C 
BRANCH   8   9
ATOM      9  C   UNL     1      48.537   3.706  23.636  1.00  0.00     0.000 C 
BRANCH   9  10
ATOM     10  C   UNL     1      49.725   3.033  22.925  1.00  0.00     0.000 C 
BRANCH  10  11
ATOM     11  C   UNL     1      49.762   3.326  21.418  1.00  0.00     0.000 C 
BRANCH  11  12
ATOM     12  C   UNL     1      50.637   2.300  20.684  1.00  0.00     0.006 C 
BRANCH  12  13
ATOM     13  C   UNL     1      51.423   2.927  19.525  1.00  0.00     0.053 C 
BRANCH  13  14
ATOM     14  C   UNL     1      52.827   2.407  19.452  1.00  0.00     0.041 C 
ATOM     15  O   UNL     1      53.045   1.222  19.085  1.00  0.00    -0.550 OA
ATOM     16  O   UNL     1      53.896   3.231  19.787  1.00  0.00    -0.550 OA
ENDBRANCH  13  14
ENDBRANCH  12  13
ENDBRANCH  11  12
ENDBRANCH  10  11
ENDBRANCH   9  10
ENDBRANCH   8   9
ENDBRANCH   7   8
ENDBRANCH   6   7
ENDBRANCH   5   6
ENDBRANCH   4   5
ENDBRANCH   3   4
ENDBRANCH   2   3
ENDBRANCH   1   2
BRANCH   1  17
ATOM     17  C   UNL     1      50.181   6.060  26.755  1.00  0.00     0.000 C 
BRANCH  17  18
ATOM     18  C   UNL     1      50.606   5.888  25.282  1.00  0.00     0.000 C 
BRANCH  18  19
ATOM     19  C   UNL     1      50.417   7.152  24.417  1.00  0.00     0.000 C 
BRANCH  19  20
ATOM     20  C   UNL     1      49.537   8.237  25.071  1.00  0.00     0.000 C 
BRANCH  20  21
ATOM     21  C   UNL     1      49.128   9.364  24.096  1.00  0.00     0.000 C 
BRANCH  21  22
ATOM     22  C   UNL     1      47.607   9.468  23.886  1.00  0.00    -0.000 C 
BRANCH  22  23
ATOM     23  C   UNL     1      47.231  10.463  22.775  1.00  0.00    -0.000 C 
BRANCH  23  24
ATOM     24  C   UNL     1      46.743   9.762  21.497  1.00  0.00    -0.000 C 
BRANCH  24  25
ATOM     25  C   UNL     1      46.804   8.228  21.604  1.00  0.00    -0.000 C 
BRANCH  25  26
ATOM     26  C   UNL     1      47.658   7.598  20.482  1.00  0.00    -0.000 C 
BRANCH  26  27
ATOM     27  C   UNL     1      48.888   6.825  20.997  1.00  0.00    -0.000 C 
BRANCH  27  28
ATOM     28  C   UNL     1      50.237   7.523  20.757  1.00  0.00    -0.000 C 
BRANCH  28  29
ATOM     29  C   UNL     1      50.491   7.831  19.273  1.00  0.00    -0.003 C 
ATOM     30  C   UNL     1      50.696   9.326  19.051  1.00  0.00     0.004 C 
ENDBRANCH  28  29
ENDBRANCH  27  28
ENDBRANCH  26  27
ENDBRANCH  25  26
ENDBRANCH  24  25
ENDBRANCH  23  24
ENDBRANCH  22  23
ENDBRANCH  21  22
ENDBRANCH  20  21
ENDBRANCH  19  20
ENDBRANCH  18  19
ENDBRANCH  17  18
ENDBRANCH   1  17
TORSDOF 26
ENDMDL
MODEL 5
REMARK VINA RESULT:    -4.006      2.816      6.697
REMARK INTER + INTRA:         -15.563
REMARK INTER:                 -10.677
REMARK INTRA:                  -4.886
REMARK UNBOUND:                -5.468
REMARK SMILES CCCCCCCCCCCCCCCCCCCCCCCCCCCC(=O)[O-]
REMARK SMILES IDX 15 1 16 2 17 3 18 4 19 5 20 6 21 7 22 8 23 9 24 10 25 11
REMARK SMILES IDX 26 12 27 13 28 14 29 15 30 16 14 17 13 18 12 19 11 20 10 21
REMARK SMILES IDX 9 22 8 23 7 24 6 25 5 26 4 27 3 28 2 29 1 30
REMARK H PARENT
REMARK Flexibility Score: inf
ROOT
ATOM      1  C   UNL     1      50.818   8.401  18.814  1.00  0.00     0.000 C 
ENDROOT
BRANCH   1   2
ATOM      2  C   UNL     1      51.151   7.179  17.942  1.00  0.00     0.000 C 
BRANCH   2   3
ATOM      3  C   UNL     1      52.150   6.223  18.613  1.00  0.00     0.000 C 
BRANCH   3   4
ATOM      4  C   UNL     1      51.918   4.755  18.226  1.00  0.00     0.000 C 
BRANCH   4   5
ATOM      5  C   UNL     1      52.426   3.773  19.296  1.00  0.00     0.000 C 
BRANCH   5   6
ATOM      6  C   UNL     1      51.417   2.654  19.600  1.00  0.00     0.000 C 
BRANCH   6   7
ATOM      7  C   UNL     1      50.405   3.050  20.690  1.00  0.00     0.000 C 
BRANCH   7   8
ATOM      8  C   UNL     1      50.996   2.968  22.109  1.00  0.00     0.000 C 
BRANCH   8   9
ATOM      9  C   UNL     1      50.053   2.373  23.174  1.00  0.00     0.000 C 
BRANCH   9  10
ATOM     10  C   UNL     1      48.587   2.834  23.077  1.00  0.00     0.000 C 
BRANCH  10  11
ATOM     11  C   UNL     1      47.591   1.667  23.132  1.00  0.00     0.000 C 
BRANCH  11  12
ATOM     12  C   UNL     1      46.163   2.154  22.842  1.00  0.00     0.006 C 
BRANCH  12  13
ATOM     13  C   UNL     1      45.622   1.616  21.511  1.00  0.00     0.053 C 
BRANCH  13  14
ATOM     14  C   UNL     1      46.022   2.478  20.353  1.00  0.00     0.041 C 
ATOM     15  O   UNL     1      47.092   2.245  19.729  1.00  0.00    -0.550 OA
ATOM     16  O   UNL     1      45.215   3.539  19.960  1.00  0.00    -0.550 OA
ENDBRANCH  13  14
ENDBRANCH  12  13
ENDBRANCH  11  12
ENDBRANCH  10  11
ENDBRANCH   9  10
ENDBRANCH   8   9
ENDBRANCH   7   8
ENDBRANCH   6   7
ENDBRANCH   5   6
ENDBRANCH   4   5
ENDBRANCH   3   4
ENDBRANCH   2   3
ENDBRANCH   1   2
BRANCH   1  17
ATOM     17  C   UNL     1      50.572   8.050  20.299  1.00  0.00     0.000 C 
BRANCH  17  18
ATOM     18  C   UNL     1      49.079   7.918  20.661  1.00  0.00     0.000 C 
BRANCH  18  19
ATOM     19  C   UNL     1      48.646   6.490  21.053  1.00  0.00     0.000 C 
BRANCH  19  20
ATOM     20  C   UNL     1      47.135   6.342  21.327  1.00  0.00     0.000 C 
BRANCH  20  21
ATOM     21  C   UNL     1      46.816   5.838  22.752  1.00  0.00     0.000 C 
BRANCH  21  22
ATOM     22  C   UNL     1      46.599   6.973  23.768  1.00  0.00    -0.000 C 
BRANCH  22  23
ATOM     23  C   UNL     1      46.261   8.313  23.094  1.00  0.00    -0.000 C 
BRANCH  23  24
ATOM     24  C   UNL     1      47.283   9.413  23.422  1.00  0.00    -0.000 C 
BRANCH  24  25
ATOM     25  C   UNL     1      48.226   9.020  24.573  1.00  0.00    -0.000 C 
BRANCH  25  26
ATOM     26  C   UNL     1      49.706   8.989  24.131  1.00  0.00    -0.000 C 
BRANCH  26  27
ATOM     27  C   UNL     1      50.525   7.857  24.780  1.00  0.00    -0.000 C 
BRANCH  27  28
ATOM     28  C   UNL     1      50.181   6.443  24.284  1.00  0.00    -0.000 C 
BRANCH  28  29
ATOM     29  C   UNL     1      50.041   5.429  25.430  1.00  0.00    -0.003 C 
ATOM     30  C   UNL     1      48.962   5.863  26.417  1.00  0.00     0.004 C 
ENDBRANCH  28  29
ENDBRANCH  27  28
ENDBRANCH  26  27
ENDBRANCH  25  26
ENDBRANCH  24  25
ENDBRANCH  23  24
ENDBRANCH  22  23
ENDBRANCH  21  22
ENDBRANCH  20  21
ENDBRANCH  19  20
ENDBRANCH  18  19
ENDBRANCH  17  18
ENDBRANCH   1  17
TORSDOF 26
ENDMDL
MODEL 6
REMARK VINA RESULT:    -3.988      2.822      6.499
REMARK INTER + INTRA:         -15.518
REMARK INTER:                 -10.810
REMARK INTRA:                  -4.708
REMARK UNBOUND:                -5.468
REMARK SMILES CCCCCCCCCCCCCCCCCCCCCCCCCCCC(=O)[O-]
REMARK SMILES IDX 15 1 16 2 17 3 18 4 19 5 20 6 21 7 22 8 23 9 24 10 25 11
REMARK SMILES IDX 26 12 27 13 28 14 29 15 30 16 14 17 13 18 12 19 11 20 10 21
REMARK SMILES IDX 9 22 8 23 7 24 6 25 5 26 4 27 3 28 2 29 1 30
REMARK H PARENT
REMARK Flexibility Score: inf
ROOT
ATOM      1  C   UNL     1      49.540   4.977  24.541  1.00  0.00     0.000 C 
ENDROOT
BRANCH   1   2
ATOM      2  C   UNL     1      50.454   6.022  25.204  1.00  0.00     0.000 C 
BRANCH   2   3
ATOM      3  C   UNL     1      50.506   5.882  26.734  1.00  0.00     0.000 C 
BRANCH   3   4
ATOM      4  C   UNL     1      49.145   6.137  27.399  1.00  0.00     0.000 C 
BRANCH   4   5
ATOM      5  C   UNL     1      48.525   7.482  26.983  1.00  0.00     0.000 C 
BRANCH   5   6
ATOM      6  C   UNL     1      47.091   7.335  26.451  1.00  0.00     0.000 C 
BRANCH   6   7
ATOM      7  C   UNL     1      46.899   7.993  25.074  1.00  0.00     0.000 C 
BRANCH   7   8
ATOM      8  C   UNL     1      48.014   9.000  24.734  1.00  0.00     0.000 C 
BRANCH   8   9
ATOM      9  C   UNL     1      47.876   9.685  23.360  1.00  0.00     0.000 C 
BRANCH   9  10
ATOM     10  C   UNL     1      47.308   8.794  22.241  1.00  0.00     0.000 C 
BRANCH  10  11
ATOM     11  C   UNL     1      47.830   9.179  20.849  1.00  0.00     0.000 C 
BRANCH  11  12
ATOM     12  C   UNL     1      48.382   7.950  20.113  1.00  0.00     0.006 C 
BRANCH  12  13
ATOM     13  C   UNL     1      49.874   7.723  20.393  1.00  0.00     0.053 C 
BRANCH  13  14
ATOM     14  C   UNL     1      50.733   8.163  19.247  1.00  0.00     0.041 C 
ATOM     15  O   UNL     1      51.033   9.379  19.111  1.00  0.00    -0.550 OA
ATOM     16  O   UNL     1      51.206   7.231  18.331  1.00  0.00    -0.550 OA
ENDBRANCH  13  14
ENDBRANCH  12  13
ENDBRANCH  11  12
ENDBRANCH  10  11
ENDBRANCH   9  10
ENDBRANCH   8   9
ENDBRANCH   7   8
ENDBRANCH   6   7
ENDBRANCH   5   6
ENDBRANCH   4   5
ENDBRANCH   3   4
ENDBRANCH   2   3
ENDBRANCH   1   2
BRANCH   1  17
ATOM     17  C   UNL     1      48.757   5.523  23.327  1.00  0.00     0.000 C 
BRANCH  17  18
ATOM     18  C   UNL     1      47.622   4.591  22.855  1.00  0.00     0.000 C 
BRANCH  18  19
ATOM     19  C   UNL     1      47.358   4.632  21.335  1.00  0.00     0.000 C 
BRANCH  19  20
ATOM     20  C   UNL     1      46.627   3.389  20.789  1.00  0.00     0.000 C 
BRANCH  20  21
ATOM     21  C   UNL     1      47.132   2.062  21.400  1.00  0.00     0.000 C 
BRANCH  21  22
ATOM     22  C   UNL     1      48.373   1.494  20.691  1.00  0.00    -0.000 C 
BRANCH  22  23
ATOM     23  C   UNL     1      49.359   0.829  21.666  1.00  0.00    -0.000 C 
BRANCH  23  24
ATOM     24  C   UNL     1      50.005   1.837  22.630  1.00  0.00    -0.000 C 
BRANCH  24  25
ATOM     25  C   UNL     1      51.518   1.609  22.797  1.00  0.00    -0.000 C 
BRANCH  25  26
ATOM     26  C   UNL     1      52.182   1.121  21.491  1.00  0.00    -0.000 C 
BRANCH  26  27
ATOM     27  C   UNL     1      52.917   2.230  20.714  1.00  0.00    -0.000 C 
BRANCH  27  28
ATOM     28  C   UNL     1      52.502   2.373  19.241  1.00  0.00    -0.000 C 
BRANCH  28  29
ATOM     29  C   UNL     1      51.884   3.744  18.928  1.00  0.00    -0.003 C 
ATOM     30  C   UNL     1      50.885   4.154  20.006  1.00  0.00     0.004 C 
ENDBRANCH  28  29
ENDBRANCH  27  28
ENDBRANCH  26  27
ENDBRANCH  25  26
ENDBRANCH  24  25
ENDBRANCH  23  24
ENDBRANCH  22  23
ENDBRANCH  21  22
ENDBRANCH  20  21
ENDBRANCH  19  20
ENDBRANCH  18  19
ENDBRANCH  17  18
ENDBRANCH   1  17
TORSDOF 26
ENDMDL
MODEL 7
REMARK VINA RESULT:    -3.949      1.769      6.116
REMARK INTER + INTRA:         -15.421
REMARK INTER:                 -10.051
REMARK INTRA:                  -5.370
REMARK UNBOUND:                -5.468
REMARK SMILES CCCCCCCCCCCCCCCCCCCCCCCCCCCC(=O)[O-]
REMARK SMILES IDX 15 1 16 2 17 3 18 4 19 5 20 6 21 7 22 8 23 9 24 10 25 11
REMARK SMILES IDX 26 12 27 13 28 14 29 15 30 16 14 17 13 18 12 19 11 20 10 21
REMARK SMILES IDX 9 22 8 23 7 24 6 25 5 26 4 27 3 28 2 29 1 30
REMARK H PARENT
REMARK Flexibility Score: inf
ROOT
ATOM      1  C   UNL     1      48.175   1.010  20.758  1.00  0.00     0.000 C 
ENDROOT
BRANCH   1   2
ATOM      2  C   UNL     1      47.001   1.489  19.888  1.00  0.00     0.000 C 
BRANCH   2   3
ATOM      3  C   UNL     1      46.497   2.886  20.285  1.00  0.00     0.000 C 
BRANCH   3   4
ATOM      4  C   UNL     1      44.965   2.966  20.356  1.00  0.00     0.000 C 
BRANCH   4   5
ATOM      5  C   UNL     1      44.473   4.038  21.344  1.00  0.00     0.000 C 
BRANCH   5   6
ATOM      6  C   UNL     1      45.504   4.352  22.440  1.00  0.00     0.000 C 
BRANCH   6   7
ATOM      7  C   UNL     1      45.140   3.718  23.793  1.00  0.00     0.000 C 
BRANCH   7   8
ATOM      8  C   UNL     1      46.329   2.992  24.450  1.00  0.00     0.000 C 
BRANCH   8   9
ATOM      9  C   UNL     1      47.641   3.800  24.495  1.00  0.00     0.000 C 
BRANCH   9  10
ATOM     10  C   UNL     1      48.766   3.268  23.588  1.00  0.00     0.000 C 
BRANCH  10  11
ATOM     11  C   UNL     1      49.696   4.378  23.078  1.00  0.00     0.000 C 
BRANCH  11  12
ATOM     12  C   UNL     1      49.454   4.650  21.586  1.00  0.00     0.006 C 
BRANCH  12  13
ATOM     13  C   UNL     1      48.740   5.986  21.345  1.00  0.00     0.053 C 
BRANCH  13  14
ATOM     14  C   UNL     1      49.681   7.150  21.432  1.00  0.00     0.041 C 
ATOM     15  O   UNL     1      50.418   7.442  20.454  1.00  0.00    -0.550 OA
ATOM     16  O   UNL     1      49.743   7.912  22.593  1.00  0.00    -0.550 OA
ENDBRANCH  13  14
ENDBRANCH  12  13
ENDBRANCH  11  12
ENDBRANCH  10  11
ENDBRANCH   9  10
ENDBRANCH   8   9
ENDBRANCH   7   8
ENDBRANCH   6   7
ENDBRANCH   5   6
ENDBRANCH   4   5
ENDBRANCH   3   4
ENDBRANCH   2   3
ENDBRANCH   1   2
BRANCH   1  17
ATOM     17  C   UNL     1      47.809  -0.159  21.699  1.00  0.00     0.000 C 
BRANCH  17  18
ATOM     18  C   UNL     1      46.542   0.100  22.540  1.00  0.00     0.000 C 
BRANCH  18  19
ATOM     19  C   UNL     1      46.421  -0.791  23.794  1.00  0.00     0.000 C 
BRANCH  19  20
ATOM     20  C   UNL     1      47.773  -1.290  24.345  1.00  0.00     0.000 C 
BRANCH  20  21
ATOM     21  C   UNL     1      48.431  -0.307  25.339  1.00  0.00     0.000 C 
BRANCH  21  22
ATOM     22  C   UNL     1      49.890   0.033  24.988  1.00  0.00    -0.000 C 
BRANCH  22  23
ATOM     23  C   UNL     1      50.515  -0.980  24.014  1.00  0.00    -0.000 C 
BRANCH  23  24
ATOM     24  C   UNL     1      51.311  -0.300  22.888  1.00  0.00    -0.000 C 
BRANCH  24  25
ATOM     25  C   UNL     1      51.577   1.190  23.168  1.00  0.00    -0.000 C 
BRANCH  25  26
ATOM     26  C   UNL     1      52.103   1.933  21.921  1.00  0.00    -0.000 C 
BRANCH  26  27
ATOM     27  C   UNL     1      52.290   1.027  20.689  1.00  0.00    -0.000 C 
BRANCH  27  28
ATOM     28  C   UNL     1      53.019   1.685  19.506  1.00  0.00    -0.000 C 
BRANCH  28  29
ATOM     29  C   UNL     1      53.056   3.217  19.608  1.00  0.00    -0.003 C 
ATOM     30  C   UNL     1      51.919   3.847  18.810  1.00  0.00     0.004 C 
ENDBRANCH  28  29
ENDBRANCH  27  28
ENDBRANCH  26  27
ENDBRANCH  25  26
ENDBRANCH  24  25
ENDBRANCH  23  24
ENDBRANCH  22  23
ENDBRANCH  21  22
ENDBRANCH  20  21
ENDBRANCH  19  20
ENDBRANCH  18  19
ENDBRANCH  17  18
ENDBRANCH   1  17
TORSDOF 26
ENDMDL
MODEL 8
REMARK VINA RESULT:    -3.941      3.076      7.145
REMARK INTER + INTRA:         -15.401
REMARK INTER:                  -9.746
REMARK INTRA:                  -5.654
REMARK UNBOUND:                -5.468
REMARK SMILES CCCCCCCCCCCCCCCCCCCCCCCCCCCC(=O)[O-]
REMARK SMILES IDX 15 1 16 2 17 3 18 4 19 5 20 6 21 7 22 8 23 9 24 10 25 11
REMARK SMILES IDX 26 12 27 13 28 14 29 15 30 16 14 17 13 18 12 19 11 20 10 21
REMARK SMILES IDX 9 22 8 23 7 24 6 25 5 26 4 27 3 28 2 29 1 30
REMARK H PARENT
REMARK Flexibility Score: inf
ROOT
ATOM      1  C   UNL     1      47.770   0.600  20.655  1.00  0.00     0.000 C 
ENDROOT
BRANCH   1   2
ATOM      2  C   UNL     1      46.691   1.376  19.881  1.00  0.00     0.000 C 
BRANCH   2   3
ATOM      3  C   UNL     1      46.301   2.696  20.565  1.00  0.00     0.000 C 
BRANCH   3   4
ATOM      4  C   UNL     1      45.087   3.368  19.908  1.00  0.00     0.000 C 
BRANCH   4   5
ATOM      5  C   UNL     1      43.757   2.968  20.569  1.00  0.00     0.000 C 
BRANCH   5   6
ATOM      6  C   UNL     1      43.579   3.586  21.965  1.00  0.00     0.000 C 
BRANCH   6   7
ATOM      7  C   UNL     1      43.646   2.539  23.090  1.00  0.00     0.000 C 
BRANCH   7   8
ATOM      8  C   UNL     1      43.321   1.116  22.600  1.00  0.00     0.000 C 
BRANCH   8   9
ATOM      9  C   UNL     1      44.487   0.112  22.694  1.00  0.00     0.000 C 
BRANCH   9  10
ATOM     10  C   UNL     1      45.605   0.501  23.679  1.00  0.00     0.000 C 
BRANCH  10  11
ATOM     11  C   UNL     1      46.217  -0.711  24.394  1.00  0.00     0.000 C 
BRANCH  11  12
ATOM     12  C   UNL     1      47.027  -1.571  23.414  1.00  0.00     0.006 C 
BRANCH  12  13
ATOM     13  C   UNL     1      48.315  -2.119  24.044  1.00  0.00     0.053 C 
BRANCH  13  14
ATOM     14  C   UNL     1      49.524  -1.798  23.220  1.00  0.00     0.041 C 
ATOM     15  O   UNL     1      50.475  -1.141  23.720  1.00  0.00    -0.550 OA
ATOM     16  O   UNL     1      49.603  -2.224  21.899  1.00  0.00    -0.550 OA
ENDBRANCH  13  14
ENDBRANCH  12  13
ENDBRANCH  11  12
ENDBRANCH  10  11
ENDBRANCH   9  10
ENDBRANCH   8   9
ENDBRANCH   7   8
ENDBRANCH   6   7
ENDBRANCH   5   6
ENDBRANCH   4   5
ENDBRANCH   3   4
ENDBRANCH   2   3
ENDBRANCH   1   2
BRANCH   1  17
ATOM     17  C   UNL     1      48.543   1.468  21.673  1.00  0.00     0.000 C 
BRANCH  17  18
ATOM     18  C   UNL     1      50.052   1.579  21.367  1.00  0.00     0.000 C 
BRANCH  18  19
ATOM     19  C   UNL     1      50.542   3.020  21.112  1.00  0.00     0.000 C 
BRANCH  19  20
ATOM     20  C   UNL     1      49.635   4.110  21.718  1.00  0.00     0.000 C 
BRANCH  20  21
ATOM     21  C   UNL     1      49.984   4.454  23.183  1.00  0.00     0.000 C 
BRANCH  21  22
ATOM     22  C   UNL     1      48.774   4.928  24.006  1.00  0.00    -0.000 C 
BRANCH  22  23
ATOM     23  C   UNL     1      47.436   4.673  23.290  1.00  0.00    -0.000 C 
BRANCH  23  24
ATOM     24  C   UNL     1      46.362   5.708  23.661  1.00  0.00    -0.000 C 
BRANCH  24  25
ATOM     25  C   UNL     1      45.935   6.573  22.462  1.00  0.00    -0.000 C 
BRANCH  25  26
ATOM     26  C   UNL     1      46.778   6.280  21.201  1.00  0.00    -0.000 C 
BRANCH  26  27
ATOM     27  C   UNL     1      47.413   7.536  20.573  1.00  0.00    -0.000 C 
BRANCH  27  28
ATOM     28  C   UNL     1      48.184   8.432  21.556  1.00  0.00    -0.000 C 
BRANCH  28  29
ATOM     29  C   UNL     1      49.616   7.940  21.812  1.00  0.00    -0.003 C 
ATOM     30  C   UNL     1      50.339   7.653  20.500  1.00  0.00     0.004 C 
ENDBRANCH  28  29
ENDBRANCH  27  28
ENDBRANCH  26  27
ENDBRANCH  25  26
ENDBRANCH  24  25
ENDBRANCH  23  24
ENDBRANCH  22  23
ENDBRANCH  21  22
ENDBRANCH  20  21
ENDBRANCH  19  20
ENDBRANCH  18  19
ENDBRANCH  17  18
ENDBRANCH   1  17
TORSDOF 26
ENDMDL
MODEL 9
REMARK VINA RESULT:    -3.913      2.377      5.063
REMARK INTER + INTRA:         -15.329
REMARK INTER:                  -9.359
REMARK INTRA:                  -5.970
REMARK UNBOUND:                -5.468
REMARK SMILES CCCCCCCCCCCCCCCCCCCCCCCCCCCC(=O)[O-]
REMARK SMILES IDX 15 1 16 2 17 3 18 4 19 5 20 6 21 7 22 8 23 9 24 10 25 11
REMARK SMILES IDX 26 12 27 13 28 14 29 15 30 16 14 17 13 18 12 19 11 20 10 21
REMARK SMILES IDX 9 22 8 23 7 24 6 25 5 26 4 27 3 28 2 29 1 30
REMARK H PARENT
REMARK Flexibility Score: inf
ROOT
ATOM      1  C   UNL     1      46.442   4.315  24.874  1.00  0.00     0.000 C 
ENDROOT
BRANCH   1   2
ATOM      2  C   UNL     1      47.159   4.580  23.539  1.00  0.00     0.000 C 
BRANCH   2   3
ATOM      3  C   UNL     1      46.350   5.489  22.600  1.00  0.00     0.000 C 
BRANCH   3   4
ATOM      4  C   UNL     1      47.154   5.936  21.370  1.00  0.00     0.000 C 
BRANCH   4   5
ATOM      5  C   UNL     1      48.670   5.968  21.633  1.00  0.00     0.000 C 
BRANCH   5   6
ATOM      6  C   UNL     1      49.290   7.347  21.355  1.00  0.00     0.000 C 
BRANCH   6   7
ATOM      7  C   UNL     1      48.258   8.485  21.422  1.00  0.00     0.000 C 
BRANCH   7   8
ATOM      8  C   UNL     1      48.337   9.285  22.736  1.00  0.00     0.000 C 
BRANCH   8   9
ATOM      9  C   UNL     1      47.522   8.699  23.905  1.00  0.00     0.000 C 
BRANCH   9  10
ATOM     10  C   UNL     1      48.339   7.891  24.930  1.00  0.00     0.000 C 
BRANCH  10  11
ATOM     11  C   UNL     1      49.837   8.226  24.895  1.00  0.00     0.000 C 
BRANCH  11  12
ATOM     12  C   UNL     1      50.684   6.958  25.081  1.00  0.00     0.006 C 
BRANCH  12  13
ATOM     13  C   UNL     1      49.829   5.727  25.407  1.00  0.00     0.053 C 
BRANCH  13  14
ATOM     14  C   UNL     1      49.975   5.304  26.837  1.00  0.00     0.041 C 
ATOM     15  O   UNL     1      49.665   4.134  27.186  1.00  0.00    -0.550 OA
ATOM     16  O   UNL     1      50.455   6.200  27.785  1.00  0.00    -0.550 OA
ENDBRANCH  13  14
ENDBRANCH  12  13
ENDBRANCH  11  12
ENDBRANCH  10  11
ENDBRANCH   9  10
ENDBRANCH   8   9
ENDBRANCH   7   8
ENDBRANCH   6   7
ENDBRANCH   5   6
ENDBRANCH   4   5
ENDBRANCH   3   4
ENDBRANCH   2   3
ENDBRANCH   1   2
BRANCH   1  17
ATOM     17  C   UNL     1      45.560   5.493  25.345  1.00  0.00     0.000 C 
BRANCH  17  18
ATOM     18  C   UNL     1      44.058   5.149  25.414  1.00  0.00     0.000 C 
BRANCH  18  19
ATOM     19  C   UNL     1      43.741   3.652  25.215  1.00  0.00     0.000 C 
BRANCH  19  20
ATOM     20  C   UNL     1      42.875   3.351  23.974  1.00  0.00     0.000 C 
BRANCH  20  21
ATOM     21  C   UNL     1      43.688   2.814  22.775  1.00  0.00     0.000 C 
BRANCH  21  22
ATOM     22  C   UNL     1      43.493   3.632  21.487  1.00  0.00    -0.000 C 
BRANCH  22  23
ATOM     23  C   UNL     1      44.418   3.171  20.348  1.00  0.00    -0.000 C 
BRANCH  23  24
ATOM     24  C   UNL     1      45.535   2.236  20.838  1.00  0.00    -0.000 C 
BRANCH  24  25
ATOM     25  C   UNL     1      46.897   2.552  20.193  1.00  0.00    -0.000 C 
BRANCH  25  26
ATOM     26  C   UNL     1      48.055   1.788  20.871  1.00  0.00    -0.000 C 
BRANCH  26  27
ATOM     27  C   UNL     1      49.452   2.326  20.506  1.00  0.00    -0.000 C 
BRANCH  27  28
ATOM     28  C   UNL     1      50.536   2.082  21.568  1.00  0.00    -0.000 C 
BRANCH  28  29
ATOM     29  C   UNL     1      50.377   2.986  22.800  1.00  0.00    -0.003 C 
ATOM     30  C   UNL     1      49.959   2.177  24.023  1.00  0.00     0.004 C 
ENDBRANCH  28  29
ENDBRANCH  27  28
ENDBRANCH  26  27
ENDBRANCH  25  26
ENDBRANCH  24  25
ENDBRANCH  23  24
ENDBRANCH  22  23
ENDBRANCH  21  22
ENDBRANCH  20  21
ENDBRANCH  19  20
ENDBRANCH  18  19
ENDBRANCH  17  18
ENDBRANCH   1  17
TORSDOF 26
ENDMDL
