MODEL 1
REMARK VINA RESULT:    -5.337      0.000      0.000
REMARK INTER + INTRA:         -12.442
REMARK INTER:                 -10.328
REMARK INTRA:                  -2.114
REMARK UNBOUND:                -2.114
REMARK SMILES CCCCCCCCCCCCCCCCCC(=O)[O-]
REMARK SMILES IDX 10 1 11 2 12 3 13 4 14 5 15 6 16 7 17 8 18 9 19 10 20 11
REMARK SMILES IDX 9 12 8 13 7 14 6 15 5 16 4 17 3 18 2 19 1 20
REMARK H PARENT
REMARK Flexibility Score: inf
ROOT
ATOM      1  C   UNL     1     159.568 158.081 148.334  1.00  0.00     0.000 C 
ENDROOT
BRANCH   1   2
ATOM      2  C   UNL     1     158.461 158.991 148.891  1.00  0.00     0.000 C 
BRANCH   2   3
ATOM      3  C   UNL     1     158.557 160.432 148.358  1.00  0.00     0.000 C 
BRANCH   3   4
ATOM      4  C   UNL     1     159.951 160.763 147.801  1.00  0.00     0.000 C 
BRANCH   4   5
ATOM      5  C   UNL     1     160.546 162.043 148.412  1.00  0.00     0.000 C 
BRANCH   5   6
ATOM      6  C   UNL     1     161.745 161.758 149.331  1.00  0.00     0.000 C 
BRANCH   6   7
ATOM      7  C   UNL     1     162.510 163.036 149.715  1.00  0.00     0.006 C 
BRANCH   7   8
ATOM      8  C   UNL     1     163.935 162.735 150.200  1.00  0.00     0.053 C 
BRANCH   8   9
ATOM      9  C   UNL     1     164.778 163.971 150.254  1.00  0.00     0.041 C 
ATOM     10  O   UNL     1     165.577 164.236 149.317  1.00  0.00    -0.550 OA
ATOM     11  O   UNL     1     164.704 164.815 151.354  1.00  0.00    -0.550 OA
ENDBRANCH   8   9
ENDBRANCH   7   8
ENDBRANCH   6   7
ENDBRANCH   5   6
ENDBRANCH   4   5
ENDBRANCH   3   4
ENDBRANCH   2   3
ENDBRANCH   1   2
BRANCH   1  12
ATOM     12  C   UNL     1     160.427 157.446 149.438  1.00  0.00     0.000 C 
BRANCH  12  13
ATOM     13  C   UNL     1     159.915 157.843 150.829  1.00  0.00    -0.000 C 
BRANCH  13  14
ATOM     14  C   UNL     1     160.885 157.378 151.925  1.00  0.00    -0.000 C 
BRANCH  14  15
ATOM     15  C   UNL     1     160.856 158.284 153.166  1.00  0.00    -0.000 C 
BRANCH  15  16
ATOM     16  C   UNL     1     160.436 159.727 152.836  1.00  0.00    -0.000 C 
BRANCH  16  17
ATOM     17  C   UNL     1     159.381 160.274 153.810  1.00  0.00    -0.000 C 
BRANCH  17  18
ATOM     18  C   UNL     1     158.548 161.413 153.206  1.00  0.00    -0.000 C 
BRANCH  18  19
ATOM     19  C   UNL     1     158.976 161.699 151.762  1.00  0.00    -0.003 C 
ATOM     20  C   UNL     1     158.386 163.015 151.261  1.00  0.00     0.004 C 
ENDBRANCH  18  19
ENDBRANCH  17  18
ENDBRANCH  16  17
ENDBRANCH  15  16
ENDBRANCH  14  15
ENDBRANCH  13  14
ENDBRANCH  12  13
ENDBRANCH   1  12
TORSDOF 16
ENDMDL
MODEL 2
REMARK VINA RESULT:    -5.250      3.778      5.792
REMARK INTER + INTRA:         -12.274
REMARK INTER:                 -10.307
REMARK INTRA:                  -1.967
REMARK UNBOUND:                -2.114
REMARK SMILES CCCCCCCCCCCCCCCCCC(=O)[O-]
REMARK SMILES IDX 10 1 11 2 12 3 13 4 14 5 15 6 16 7 17 8 18 9 19 10 20 11
REMARK SMILES IDX 9 12 8 13 7 14 6 15 5 16 4 17 3 18 2 19 1 20
REMARK H PARENT
REMARK Flexibility Score: inf
ROOT
ATOM      1  C   UNL     1     159.833 160.723 147.386  1.00  0.00     0.000 C 
ENDROOT
BRANCH   1   2
ATOM      2  C   UNL     1     160.747 161.376 148.434  1.00  0.00     0.000 C 
BRANCH   2   3
ATOM      3  C   UNL     1     160.047 162.512 149.203  1.00  0.00     0.000 C 
BRANCH   3   4
ATOM      4  C   UNL     1     158.825 162.020 149.996  1.00  0.00     0.000 C 
BRANCH   4   5
ATOM      5  C   UNL     1     158.894 162.395 151.486  1.00  0.00     0.000 C 
BRANCH   5   6
ATOM      6  C   UNL     1     159.005 161.166 152.401  1.00  0.00     0.000 C 
BRANCH   6   7
ATOM      7  C   UNL     1     159.056 159.846 151.612  1.00  0.00     0.006 C 
BRANCH   7   8
ATOM      8  C   UNL     1     160.486 159.304 151.482  1.00  0.00     0.053 C 
BRANCH   8   9
ATOM      9  C   UNL     1     160.726 158.139 152.393  1.00  0.00     0.041 C 
ATOM     10  O   UNL     1     160.705 158.296 153.642  1.00  0.00    -0.550 OA
ATOM     11  O   UNL     1     161.002 156.887 151.861  1.00  0.00    -0.550 OA
ENDBRANCH   8   9
ENDBRANCH   7   8
ENDBRANCH   6   7
ENDBRANCH   5   6
ENDBRANCH   4   5
ENDBRANCH   3   4
ENDBRANCH   2   3
ENDBRANCH   1   2
BRANCH   1  12
ATOM     12  C   UNL     1     159.948 159.190 147.370  1.00  0.00     0.000 C 
BRANCH  12  13
ATOM     13  C   UNL     1     158.867 158.549 148.250  1.00  0.00    -0.000 C 
BRANCH  13  14
ATOM     14  C   UNL     1     159.145 157.053 148.458  1.00  0.00    -0.000 C 
BRANCH  14  15
ATOM     15  C   UNL     1     158.124 156.385 149.393  1.00  0.00    -0.000 C 
BRANCH  15  16
ATOM     16  C   UNL     1     157.083 157.378 149.940  1.00  0.00    -0.000 C 
BRANCH  16  17
ATOM     17  C   UNL     1     155.689 156.750 150.090  1.00  0.00    -0.000 C 
BRANCH  17  18
ATOM     18  C   UNL     1     155.717 155.217 150.019  1.00  0.00    -0.000 C 
BRANCH  18  19
ATOM     19  C   UNL     1     154.565 154.610 150.829  1.00  0.00    -0.003 C 
ATOM     20  C   UNL     1     155.088 153.679 151.920  1.00  0.00     0.004 C 
ENDBRANCH  18  19
ENDBRANCH  17  18
ENDBRANCH  16  17
ENDBRANCH  15  16
ENDBRANCH  14  15
ENDBRANCH  13  14
ENDBRANCH  12  13
ENDBRANCH   1  12
TORSDOF 16
ENDMDL
MODEL 3
REMARK VINA RESULT:    -5.237      5.163      7.552
REMARK INTER + INTRA:         -12.249
REMARK INTER:                  -9.988
REMARK INTRA:                  -2.261
REMARK UNBOUND:                -2.114
REMARK SMILES CCCCCCCCCCCCCCCCCC(=O)[O-]
REMARK SMILES IDX 10 1 11 2 12 3 13 4 14 5 15 6 16 7 17 8 18 9 19 10 20 11
REMARK SMILES IDX 9 12 8 13 7 14 6 15 5 16 4 17 3 18 2 19 1 20
REMARK H PARENT
REMARK Flexibility Score: inf
ROOT
ATOM      1  C   UNL     1     160.592 157.922 152.233  1.00  0.00     0.000 C 
ENDROOT
BRANCH   1   2
ATOM      2  C   UNL     1     160.567 156.956 151.038  1.00  0.00     0.000 C 
BRANCH   2   3
ATOM      3  C   UNL     1     160.748 157.676 149.690  1.00  0.00     0.000 C 
BRANCH   3   4
ATOM      4  C   UNL     1     159.546 157.479 148.751  1.00  0.00     0.000 C 
BRANCH   4   5
ATOM      5  C   UNL     1     158.394 156.707 149.418  1.00  0.00     0.000 C 
BRANCH   5   6
ATOM      6  C   UNL     1     157.272 157.632 149.914  1.00  0.00     0.000 C 
BRANCH   6   7
ATOM      7  C   UNL     1     155.973 156.869 150.227  1.00  0.00     0.006 C 
BRANCH   7   8
ATOM      8  C   UNL     1     156.093 155.371 149.914  1.00  0.00     0.053 C 
BRANCH   8   9
ATOM      9  C   UNL     1     154.769 154.675 150.007  1.00  0.00     0.041 C 
ATOM     10  O   UNL     1     154.388 154.180 151.100  1.00  0.00    -0.550 OA
ATOM     11  O   UNL     1     153.972 154.547 148.877  1.00  0.00    -0.550 OA
ENDBRANCH   8   9
ENDBRANCH   7   8
ENDBRANCH   6   7
ENDBRANCH   5   6
ENDBRANCH   4   5
ENDBRANCH   3   4
ENDBRANCH   2   3
ENDBRANCH   1   2
BRANCH   1  12
ATOM     12  C   UNL     1     160.618 159.398 151.803  1.00  0.00     0.000 C 
BRANCH  12  13
ATOM     13  C   UNL     1     159.212 160.010 151.860  1.00  0.00    -0.000 C 
BRANCH  13  14
ATOM     14  C   UNL     1     159.270 161.535 151.685  1.00  0.00    -0.000 C 
BRANCH  14  15
ATOM     15  C   UNL     1     158.571 162.012 150.402  1.00  0.00    -0.000 C 
BRANCH  15  16
ATOM     16  C   UNL     1     158.949 161.166 149.173  1.00  0.00    -0.000 C 
BRANCH  16  17
ATOM     17  C   UNL     1     160.370 161.460 148.667  1.00  0.00    -0.000 C 
BRANCH  17  18
ATOM     18  C   UNL     1     160.684 162.962 148.618  1.00  0.00    -0.000 C 
BRANCH  18  19
ATOM     19  C   UNL     1     161.968 163.279 149.394  1.00  0.00    -0.003 C 
ATOM     20  C   UNL     1     162.557 162.020 150.024  1.00  0.00     0.004 C 
ENDBRANCH  18  19
ENDBRANCH  17  18
ENDBRANCH  16  17
ENDBRANCH  15  16
ENDBRANCH  14  15
ENDBRANCH  13  14
ENDBRANCH  12  13
ENDBRANCH   1  12
TORSDOF 16
ENDMDL
MODEL 4
REMARK VINA RESULT:    -5.191      2.796      5.712
REMARK INTER + INTRA:         -12.160
REMARK INTER:                 -10.282
REMARK INTRA:                  -1.878
REMARK UNBOUND:                -2.114
REMARK SMILES CCCCCCCCCCCCCCCCCC(=O)[O-]
REMARK SMILES IDX 10 1 11 2 12 3 13 4 14 5 15 6 16 7 17 8 18 9 19 10 20 11
REMARK SMILES IDX 9 12 8 13 7 14 6 15 5 16 4 17 3 18 2 19 1 20
REMARK H PARENT
REMARK Flexibility Score: inf
ROOT
ATOM      1  C   UNL     1     159.271 158.206 147.608  1.00  0.00     0.000 C 
ENDROOT
BRANCH   1   2
ATOM      2  C   UNL     1     158.367 158.057 148.842  1.00  0.00     0.000 C 
BRANCH   2   3
ATOM      3  C   UNL     1     158.974 157.133 149.912  1.00  0.00     0.000 C 
BRANCH   3   4
ATOM      4  C   UNL     1     160.387 157.568 150.333  1.00  0.00     0.000 C 
BRANCH   4   5
ATOM      5  C   UNL     1     160.492 157.870 151.838  1.00  0.00     0.000 C 
BRANCH   5   6
ATOM      6  C   UNL     1     160.564 159.377 152.134  1.00  0.00     0.000 C 
BRANCH   6   7
ATOM      7  C   UNL     1     159.175 160.005 152.339  1.00  0.00     0.006 C 
BRANCH   7   8
ATOM      8  C   UNL     1     158.971 160.504 153.776  1.00  0.00     0.053 C 
BRANCH   8   9
ATOM      9  C   UNL     1     157.878 161.524 153.862  1.00  0.00     0.041 C 
ATOM     10  O   UNL     1     157.032 161.472 154.793  1.00  0.00    -0.550 OA
ATOM     11  O   UNL     1     157.776 162.515 152.894  1.00  0.00    -0.550 OA
ENDBRANCH   8   9
ENDBRANCH   7   8
ENDBRANCH   6   7
ENDBRANCH   5   6
ENDBRANCH   4   5
ENDBRANCH   3   4
ENDBRANCH   2   3
ENDBRANCH   1   2
BRANCH   1  12
ATOM     12  C   UNL     1     159.560 159.673 147.255  1.00  0.00     0.000 C 
BRANCH  12  13
ATOM     13  C   UNL     1     158.904 160.620 148.269  1.00  0.00    -0.000 C 
BRANCH  13  14
ATOM     14  C   UNL     1     159.926 161.626 148.822  1.00  0.00    -0.000 C 
BRANCH  14  15
ATOM     15  C   UNL     1     161.322 161.010 149.009  1.00  0.00    -0.000 C 
BRANCH  15  16
ATOM     16  C   UNL     1     162.138 161.718 150.105  1.00  0.00    -0.000 C 
BRANCH  16  17
ATOM     17  C   UNL     1     162.720 163.060 149.634  1.00  0.00    -0.000 C 
BRANCH  17  18
ATOM     18  C   UNL     1     163.975 163.472 150.417  1.00  0.00    -0.000 C 
BRANCH  18  19
ATOM     19  C   UNL     1     164.429 164.882 150.023  1.00  0.00    -0.003 C 
ATOM     20  C   UNL     1     165.559 164.832 148.998  1.00  0.00     0.004 C 
ENDBRANCH  18  19
ENDBRANCH  17  18
ENDBRANCH  16  17
ENDBRANCH  15  16
ENDBRANCH  14  15
ENDBRANCH  13  14
ENDBRANCH  12  13
ENDBRANCH   1  12
TORSDOF 16
ENDMDL
MODEL 5
REMARK VINA RESULT:    -5.186      2.181      4.506
REMARK INTER + INTRA:         -12.151
REMARK INTER:                  -9.923
REMARK INTRA:                  -2.229
REMARK UNBOUND:                -2.114
REMARK SMILES CCCCCCCCCCCCCCCCCC(=O)[O-]
REMARK SMILES IDX 10 1 11 2 12 3 13 4 14 5 15 6 16 7 17 8 18 9 19 10 20 11
REMARK SMILES IDX 9 12 8 13 7 14 6 15 5 16 4 17 3 18 2 19 1 20
REMARK H PARENT
REMARK Flexibility Score: inf
ROOT
ATOM      1  C   UNL     1     160.835 158.794 152.263  1.00  0.00     0.000 C 
ENDROOT
BRANCH   1   2
ATOM      2  C   UNL     1     160.144 159.135 153.592  1.00  0.00     0.000 C 
BRANCH   2   3
ATOM      3  C   UNL     1     159.096 160.252 153.445  1.00  0.00     0.000 C 
BRANCH   3   4
ATOM      4  C   UNL     1     158.828 160.618 151.976  1.00  0.00     0.000 C 
BRANCH   4   5
ATOM      5  C   UNL     1     158.911 162.133 151.717  1.00  0.00     0.000 C 
BRANCH   5   6
ATOM      6  C   UNL     1     158.635 162.498 150.250  1.00  0.00     0.000 C 
BRANCH   6   7
ATOM      7  C   UNL     1     159.683 161.910 149.289  1.00  0.00     0.006 C 
BRANCH   7   8
ATOM      8  C   UNL     1     160.777 162.926 148.934  1.00  0.00     0.053 C 
BRANCH   8   9
ATOM      9  C   UNL     1     162.054 162.646 149.665  1.00  0.00     0.041 C 
ATOM     10  O   UNL     1     162.206 161.561 150.286  1.00  0.00    -0.550 OA
ATOM     11  O   UNL     1     163.065 163.598 149.687  1.00  0.00    -0.550 OA
ENDBRANCH   8   9
ENDBRANCH   7   8
ENDBRANCH   6   7
ENDBRANCH   5   6
ENDBRANCH   4   5
ENDBRANCH   3   4
ENDBRANCH   2   3
ENDBRANCH   1   2
BRANCH   1  12
ATOM     12  C   UNL     1     160.782 157.294 151.932  1.00  0.00     0.000 C 
BRANCH  12  13
ATOM     13  C   UNL     1     161.056 157.050 150.442  1.00  0.00    -0.000 C 
BRANCH  13  14
ATOM     14  C   UNL     1     160.682 158.284 149.606  1.00  0.00    -0.000 C 
BRANCH  14  15
ATOM     15  C   UNL     1     159.623 157.975 148.536  1.00  0.00    -0.000 C 
BRANCH  15  16
ATOM     16  C   UNL     1     158.232 158.520 148.906  1.00  0.00    -0.000 C 
BRANCH  16  17
ATOM     17  C   UNL     1     157.604 157.778 150.096  1.00  0.00    -0.000 C 
BRANCH  17  18
ATOM     18  C   UNL     1     156.964 156.441 149.693  1.00  0.00    -0.000 C 
BRANCH  18  19
ATOM     19  C   UNL     1     155.480 156.408 150.075  1.00  0.00    -0.003 C 
ATOM     20  C   UNL     1     155.160 155.194 150.943  1.00  0.00     0.004 C 
ENDBRANCH  18  19
ENDBRANCH  17  18
ENDBRANCH  16  17
ENDBRANCH  15  16
ENDBRANCH  14  15
ENDBRANCH  13  14
ENDBRANCH  12  13
ENDBRANCH   1  12
TORSDOF 16
ENDMDL
MODEL 6
REMARK VINA RESULT:    -5.145      1.793      3.727
REMARK INTER + INTRA:         -12.072
REMARK INTER:                  -9.805
REMARK INTRA:                  -2.266
REMARK UNBOUND:                -2.114
REMARK SMILES CCCCCCCCCCCCCCCCCC(=O)[O-]
REMARK SMILES IDX 10 1 11 2 12 3 13 4 14 5 15 6 16 7 17 8 18 9 19 10 20 11
REMARK SMILES IDX 9 12 8 13 7 14 6 15 5 16 4 17 3 18 2 19 1 20
REMARK H PARENT
REMARK Flexibility Score: inf
ROOT
ATOM      1  C   UNL     1     159.892 160.415 153.088  1.00  0.00     0.000 C 
ENDROOT
BRANCH   1   2
ATOM      2  C   UNL     1     158.692 160.923 152.273  1.00  0.00     0.000 C 
BRANCH   2   3
ATOM      3  C   UNL     1     159.030 162.169 151.436  1.00  0.00     0.000 C 
BRANCH   3   4
ATOM      4  C   UNL     1     158.933 161.906 149.924  1.00  0.00     0.000 C 
BRANCH   4   5
ATOM      5  C   UNL     1     160.112 162.510 149.141  1.00  0.00     0.000 C 
BRANCH   5   6
ATOM      6  C   UNL     1     161.298 161.541 149.017  1.00  0.00     0.000 C 
BRANCH   6   7
ATOM      7  C   UNL     1     162.466 161.918 149.945  1.00  0.00     0.006 C 
BRANCH   7   8
ATOM      8  C   UNL     1     162.889 163.384 149.778  1.00  0.00     0.053 C 
BRANCH   8   9
ATOM      9  C   UNL     1     164.321 163.598 150.162  1.00  0.00     0.041 C 
ATOM     10  O   UNL     1     165.236 162.952 149.587  1.00  0.00    -0.550 OA
ATOM     11  O   UNL     1     164.641 164.490 151.177  1.00  0.00    -0.550 OA
ENDBRANCH   8   9
ENDBRANCH   7   8
ENDBRANCH   6   7
ENDBRANCH   5   6
ENDBRANCH   4   5
ENDBRANCH   3   4
ENDBRANCH   2   3
ENDBRANCH   1   2
BRANCH   1  12
ATOM     12  C   UNL     1     160.866 159.572 152.251  1.00  0.00     0.000 C 
BRANCH  12  13
ATOM     13  C   UNL     1     160.718 158.080 152.576  1.00  0.00    -0.000 C 
BRANCH  13  14
ATOM     14  C   UNL     1     160.514 157.256 151.295  1.00  0.00    -0.000 C 
BRANCH  14  15
ATOM     15  C   UNL     1     160.605 158.110 150.020  1.00  0.00    -0.000 C 
BRANCH  15  16
ATOM     16  C   UNL     1     159.290 158.123 149.221  1.00  0.00    -0.000 C 
BRANCH  16  17
ATOM     17  C   UNL     1     158.057 157.897 150.109  1.00  0.00    -0.000 C 
BRANCH  17  18
ATOM     18  C   UNL     1     157.250 156.656 149.701  1.00  0.00    -0.000 C 
BRANCH  18  19
ATOM     19  C   UNL     1     155.837 156.701 150.295  1.00  0.00    -0.003 C 
ATOM     20  C   UNL     1     155.295 155.295 150.536  1.00  0.00     0.004 C 
ENDBRANCH  18  19
ENDBRANCH  17  18
ENDBRANCH  16  17
ENDBRANCH  15  16
ENDBRANCH  14  15
ENDBRANCH  13  14
ENDBRANCH  12  13
ENDBRANCH   1  12
TORSDOF 16
ENDMDL
MODEL 7
REMARK VINA RESULT:    -5.123      0.780      3.344
REMARK INTER + INTRA:         -12.029
REMARK INTER:                  -9.769
REMARK INTRA:                  -2.260
REMARK UNBOUND:                -2.114
REMARK SMILES CCCCCCCCCCCCCCCCCC(=O)[O-]
REMARK SMILES IDX 10 1 11 2 12 3 13 4 14 5 15 6 16 7 17 8 18 9 19 10 20 11
REMARK SMILES IDX 9 12 8 13 7 14 6 15 5 16 4 17 3 18 2 19 1 20
REMARK H PARENT
REMARK Flexibility Score: inf
ROOT
ATOM      1  C   UNL     1     159.237 161.269 152.228  1.00  0.00     0.000 C 
ENDROOT
BRANCH   1   2
ATOM      2  C   UNL     1     158.489 162.556 151.851  1.00  0.00     0.000 C 
BRANCH   2   3
ATOM      3  C   UNL     1     158.445 162.792 150.330  1.00  0.00     0.000 C 
BRANCH   3   4
ATOM      4  C   UNL     1     159.002 161.600 149.534  1.00  0.00     0.000 C 
BRANCH   4   5
ATOM      5  C   UNL     1     160.248 161.968 148.710  1.00  0.00     0.000 C 
BRANCH   5   6
ATOM      6  C   UNL     1     161.559 161.682 149.459  1.00  0.00     0.000 C 
BRANCH   6   7
ATOM      7  C   UNL     1     162.409 162.948 149.665  1.00  0.00     0.006 C 
BRANCH   7   8
ATOM      8  C   UNL     1     163.787 162.629 150.261  1.00  0.00     0.053 C 
BRANCH   8   9
ATOM      9  C   UNL     1     164.637 163.857 150.385  1.00  0.00     0.041 C 
ATOM     10  O   UNL     1     164.610 164.543 151.441  1.00  0.00    -0.550 OA
ATOM     11  O   UNL     1     165.435 164.259 149.323  1.00  0.00    -0.550 OA
ENDBRANCH   8   9
ENDBRANCH   7   8
ENDBRANCH   6   7
ENDBRANCH   5   6
ENDBRANCH   4   5
ENDBRANCH   3   4
ENDBRANCH   2   3
ENDBRANCH   1   2
BRANCH   1  12
ATOM     12  C   UNL     1     158.765 160.677 153.566  1.00  0.00     0.000 C 
BRANCH  12  13
ATOM     13  C   UNL     1     159.676 159.524 154.007  1.00  0.00    -0.000 C 
BRANCH  13  14
ATOM     14  C   UNL     1     160.777 159.265 152.968  1.00  0.00    -0.000 C 
BRANCH  14  15
ATOM     15  C   UNL     1     161.168 157.781 152.875  1.00  0.00    -0.000 C 
BRANCH  15  16
ATOM     16  C   UNL     1     160.786 157.152 151.523  1.00  0.00    -0.000 C 
BRANCH  16  17
ATOM     17  C   UNL     1     160.163 158.168 150.554  1.00  0.00    -0.000 C 
BRANCH  17  18
ATOM     18  C   UNL     1     158.694 157.860 150.232  1.00  0.00    -0.000 C 
BRANCH  18  19
ATOM     19  C   UNL     1     158.389 158.124 148.753  1.00  0.00    -0.003 C 
ATOM     20  C   UNL     1     159.673 158.223 147.934  1.00  0.00     0.004 C 
ENDBRANCH  18  19
ENDBRANCH  17  18
ENDBRANCH  16  17
ENDBRANCH  15  16
ENDBRANCH  14  15
ENDBRANCH  13  14
ENDBRANCH  12  13
ENDBRANCH   1  12
TORSDOF 16
ENDMDL
MODEL 8
REMARK VINA RESULT:    -5.117      5.290      7.579
REMARK INTER + INTRA:         -12.017
REMARK INTER:                 -10.144
REMARK INTRA:                  -1.873
REMARK UNBOUND:                -2.114
REMARK SMILES CCCCCCCCCCCCCCCCCC(=O)[O-]
REMARK SMILES IDX 10 1 11 2 12 3 13 4 14 5 15 6 16 7 17 8 18 9 19 10 20 11
REMARK SMILES IDX 9 12 8 13 7 14 6 15 5 16 4 17 3 18 2 19 1 20
REMARK H PARENT
REMARK Flexibility Score: inf
ROOT
ATOM      1  C   UNL     1     161.017 160.418 148.929  1.00  0.00     0.000 C 
ENDROOT
BRANCH   1   2
ATOM      2  C   UNL     1     160.567 159.404 147.866  1.00  0.00     0.000 C 
BRANCH   2   3
ATOM      3  C   UNL     1     159.280 158.659 148.266  1.00  0.00     0.000 C 
BRANCH   3   4
ATOM      4  C   UNL     1     159.568 157.297 148.919  1.00  0.00     0.000 C 
BRANCH   4   5
ATOM      5  C   UNL     1     158.286 156.504 149.225  1.00  0.00     0.000 C 
BRANCH   5   6
ATOM      6  C   UNL     1     157.269 157.316 150.042  1.00  0.00     0.000 C 
BRANCH   6   7
ATOM      7  C   UNL     1     155.846 156.735 149.958  1.00  0.00     0.006 C 
BRANCH   7   8
ATOM      8  C   UNL     1     155.849 155.202 149.896  1.00  0.00     0.053 C 
BRANCH   8   9
ATOM      9  C   UNL     1     154.462 154.639 149.948  1.00  0.00     0.041 C 
ATOM     10  O   UNL     1     154.016 154.148 151.018  1.00  0.00    -0.550 OA
ATOM     11  O   UNL     1     153.673 154.630 148.805  1.00  0.00    -0.550 OA
ENDBRANCH   8   9
ENDBRANCH   7   8
ENDBRANCH   6   7
ENDBRANCH   5   6
ENDBRANCH   4   5
ENDBRANCH   3   4
ENDBRANCH   2   3
ENDBRANCH   1   2
BRANCH   1  12
ATOM     12  C   UNL     1     160.840 161.875 148.474  1.00  0.00     0.000 C 
BRANCH  12  13
ATOM     13  C   UNL     1     160.114 162.701 149.544  1.00  0.00    -0.000 C 
BRANCH  13  14
ATOM     14  C   UNL     1     159.006 161.875 150.216  1.00  0.00    -0.000 C 
BRANCH  14  15
ATOM     15  C   UNL     1     158.771 162.279 151.680  1.00  0.00    -0.000 C 
BRANCH  15  16
ATOM     16  C   UNL     1     158.981 161.109 152.658  1.00  0.00    -0.000 C 
BRANCH  16  17
ATOM     17  C   UNL     1     159.076 159.752 151.943  1.00  0.00    -0.000 C 
BRANCH  17  18
ATOM     18  C   UNL     1     160.383 159.007 152.254  1.00  0.00    -0.000 C 
BRANCH  18  19
ATOM     19  C   UNL     1     160.684 159.035 153.758  1.00  0.00    -0.003 C 
ATOM     20  C   UNL     1     161.875 158.143 154.098  1.00  0.00     0.004 C 
ENDBRANCH  18  19
ENDBRANCH  17  18
ENDBRANCH  16  17
ENDBRANCH  15  16
ENDBRANCH  14  15
ENDBRANCH  13  14
ENDBRANCH  12  13
ENDBRANCH   1  12
TORSDOF 16
ENDMDL
MODEL 9
REMARK VINA RESULT:    -5.114      3.834      6.767
REMARK INTER + INTRA:         -12.012
REMARK INTER:                  -9.859
REMARK INTRA:                  -2.153
REMARK UNBOUND:                -2.114
REMARK SMILES CCCCCCCCCCCCCCCCCC(=O)[O-]
REMARK SMILES IDX 10 1 11 2 12 3 13 4 14 5 15 6 16 7 17 8 18 9 19 10 20 11
REMARK SMILES IDX 9 12 8 13 7 14 6 15 5 16 4 17 3 18 2 19 1 20
REMARK H PARENT
REMARK Flexibility Score: inf
ROOT
ATOM      1  C   UNL     1     158.865 160.882 152.104  1.00  0.00     0.000 C 
ENDROOT
BRANCH   1   2
ATOM      2  C   UNL     1     159.353 160.532 153.519  1.00  0.00     0.000 C 
BRANCH   2   3
ATOM      3  C   UNL     1     160.124 159.200 153.566  1.00  0.00     0.000 C 
BRANCH   3   4
ATOM      4  C   UNL     1     160.918 158.933 152.277  1.00  0.00     0.000 C 
BRANCH   4   5
ATOM      5  C   UNL     1     160.409 157.698 151.513  1.00  0.00     0.000 C 
BRANCH   5   6
ATOM      6  C   UNL     1     160.710 157.768 150.008  1.00  0.00     0.000 C 
BRANCH   6   7
ATOM      7  C   UNL     1     159.438 157.954 149.161  1.00  0.00     0.006 C 
BRANCH   7   8
ATOM      8  C   UNL     1     158.173 158.035 150.026  1.00  0.00     0.053 C 
BRANCH   8   9
ATOM      9  C   UNL     1     157.253 156.879 149.776  1.00  0.00     0.041 C 
ATOM     10  O   UNL     1     157.685 155.831 149.229  1.00  0.00    -0.550 OA
ATOM     11  O   UNL     1     155.911 156.974 150.118  1.00  0.00    -0.550 OA
ENDBRANCH   8   9
ENDBRANCH   7   8
ENDBRANCH   6   7
ENDBRANCH   5   6
ENDBRANCH   4   5
ENDBRANCH   3   4
ENDBRANCH   2   3
ENDBRANCH   1   2
BRANCH   1  12
ATOM     12  C   UNL     1     158.621 162.387 151.915  1.00  0.00     0.000 C 
BRANCH  12  13
ATOM     13  C   UNL     1     158.986 162.828 150.492  1.00  0.00    -0.000 C 
BRANCH  13  14
ATOM     14  C   UNL     1     159.101 161.616 149.554  1.00  0.00    -0.000 C 
BRANCH  14  15
ATOM     15  C   UNL     1     160.419 161.600 148.764  1.00  0.00    -0.000 C 
BRANCH  15  16
ATOM     16  C   UNL     1     161.656 161.541 149.678  1.00  0.00    -0.000 C 
BRANCH  16  17
ATOM     17  C   UNL     1     162.495 162.828 149.621  1.00  0.00    -0.000 C 
BRANCH  17  18
ATOM     18  C   UNL     1     163.878 162.664 150.268  1.00  0.00    -0.000 C 
BRANCH  18  19
ATOM     19  C   UNL     1     164.525 164.030 150.528  1.00  0.00    -0.003 C 
ATOM     20  C   UNL     1     165.331 164.498 149.319  1.00  0.00     0.004 C 
ENDBRANCH  18  19
ENDBRANCH  17  18
ENDBRANCH  16  17
ENDBRANCH  15  16
ENDBRANCH  14  15
ENDBRANCH  13  14
ENDBRANCH  12  13
ENDBRANCH   1  12
TORSDOF 16
ENDMDL
