MODEL 1
REMARK VINA RESULT:    -3.154      0.000      0.000
REMARK INTER + INTRA:          -6.640
REMARK INTER:                  -6.105
REMARK INTRA:                  -0.535
REMARK UNBOUND:                -0.535
REMARK SMILES CCCCCCCCCCCCCCCCCC(=O)[O-]
REMARK SMILES IDX 10 1 11 2 12 3 13 4 14 5 15 6 16 7 17 8 18 9 19 10 20 11
REMARK SMILES IDX 9 12 8 13 7 14 6 15 5 16 4 17 3 18 2 19 1 20
REMARK H PARENT
REMARK Flexibility Score: inf
ROOT
ATOM      1  C   UNL     1       0.296  19.877  16.194  1.00  0.00     0.000 C 
ENDROOT
BRANCH   1   2
ATOM      2  C   UNL     1       1.490  20.805  16.481  1.00  0.00     0.000 C 
BRANCH   2   3
ATOM      3  C   UNL     1       2.813  20.037  16.649  1.00  0.00     0.000 C 
BRANCH   3   4
ATOM      4  C   UNL     1       4.040  20.894  16.306  1.00  0.00     0.000 C 
BRANCH   4   5
ATOM      5  C   UNL     1       5.091  20.122  15.493  1.00  0.00     0.000 C 
BRANCH   5   6
ATOM      6  C   UNL     1       6.207  21.055  15.012  1.00  0.00     0.000 C 
BRANCH   6   7
ATOM      7  C   UNL     1       7.585  20.540  15.451  1.00  0.00     0.006 C 
BRANCH   7   8
ATOM      8  C   UNL     1       8.550  20.376  14.269  1.00  0.00     0.053 C 
BRANCH   8   9
ATOM      9  C   UNL     1       9.622  21.421  14.277  1.00  0.00     0.041 C 
ATOM     10  O   UNL     1      10.225  21.702  15.346  1.00  0.00    -0.550 OA
ATOM     11  O   UNL     1       9.932  22.110  13.110  1.00  0.00    -0.550 OA
ENDBRANCH   8   9
ENDBRANCH   7   8
ENDBRANCH   6   7
ENDBRANCH   5   6
ENDBRANCH   4   5
ENDBRANCH   3   4
ENDBRANCH   2   3
ENDBRANCH   1   2
BRANCH   1  12
ATOM     12  C   UNL     1      -0.948  20.133  17.068  1.00  0.00     0.000 C 
BRANCH  12  13
ATOM     13  C   UNL     1      -2.130  20.810  16.346  1.00  0.00    -0.000 C 
BRANCH  13  14
ATOM     14  C   UNL     1      -3.299  19.875  15.982  1.00  0.00    -0.000 C 
BRANCH  14  15
ATOM     15  C   UNL     1      -4.674  20.542  16.153  1.00  0.00    -0.000 C 
BRANCH  15  16
ATOM     16  C   UNL     1      -5.319  20.938  14.812  1.00  0.00    -0.000 C 
BRANCH  16  17
ATOM     17  C   UNL     1      -6.854  20.817  14.764  1.00  0.00    -0.000 C 
BRANCH  17  18
ATOM     18  C   UNL     1      -7.453  20.291  16.079  1.00  0.00    -0.000 C 
BRANCH  18  19
ATOM     19  C   UNL     1      -8.634  21.144  16.571  1.00  0.00    -0.003 C 
ATOM     20  C   UNL     1      -8.266  22.025  17.765  1.00  0.00     0.004 C 
ENDBRANCH  18  19
ENDBRANCH  17  18
ENDBRANCH  16  17
ENDBRANCH  15  16
ENDBRANCH  14  15
ENDBRANCH  13  14
ENDBRANCH  12  13
ENDBRANCH   1  12
TORSDOF 16
ENDMDL
MODEL 2
REMARK VINA RESULT:    -3.023      5.977     12.720
REMARK INTER + INTRA:          -6.386
REMARK INTER:                  -5.918
REMARK INTRA:                  -0.468
REMARK UNBOUND:                -0.535
REMARK SMILES CCCCCCCCCCCCCCCCCC(=O)[O-]
REMARK SMILES IDX 10 1 11 2 12 3 13 4 14 5 15 6 16 7 17 8 18 9 19 10 20 11
REMARK SMILES IDX 9 12 8 13 7 14 6 15 5 16 4 17 3 18 2 19 1 20
REMARK H PARENT
REMARK Flexibility Score: inf
ROOT
ATOM      1  C   UNL     1       0.156  20.665  15.996  1.00  0.00     0.000 C 
ENDROOT
BRANCH   1   2
ATOM      2  C   UNL     1      -0.688  19.917  17.043  1.00  0.00     0.000 C 
BRANCH   2   3
ATOM      3  C   UNL     1      -2.124  20.461  17.147  1.00  0.00     0.000 C 
BRANCH   3   4
ATOM      4  C   UNL     1      -3.001  20.041  15.958  1.00  0.00     0.000 C 
BRANCH   4   5
ATOM      5  C   UNL     1      -4.497  20.283  16.213  1.00  0.00     0.000 C 
BRANCH   5   6
ATOM      6  C   UNL     1      -5.231  20.608  14.908  1.00  0.00     0.000 C 
BRANCH   6   7
ATOM      7  C   UNL     1      -6.266  21.722  15.120  1.00  0.00     0.006 C 
BRANCH   7   8
ATOM      8  C   UNL     1      -7.687  21.171  15.301  1.00  0.00     0.053 C 
BRANCH   8   9
ATOM      9  C   UNL     1      -8.161  21.308  16.716  1.00  0.00     0.041 C 
ATOM     10  O   UNL     1      -8.252  22.447  17.245  1.00  0.00    -0.550 OA
ATOM     11  O   UNL     1      -8.469  20.176  17.460  1.00  0.00    -0.550 OA
ENDBRANCH   8   9
ENDBRANCH   7   8
ENDBRANCH   6   7
ENDBRANCH   5   6
ENDBRANCH   4   5
ENDBRANCH   3   4
ENDBRANCH   2   3
ENDBRANCH   1   2
BRANCH   1  12
ATOM     12  C   UNL     1       1.591  21.005  16.444  1.00  0.00     0.000 C 
BRANCH  12  13
ATOM     13  C   UNL     1       2.639  19.902  16.190  1.00  0.00    -0.000 C 
BRANCH  13  14
ATOM     14  C   UNL     1       4.095  20.295  16.504  1.00  0.00    -0.000 C 
BRANCH  14  15
ATOM     15  C   UNL     1       5.039  20.096  15.308  1.00  0.00    -0.000 C 
BRANCH  15  16
ATOM     16  C   UNL     1       6.527  20.185  15.696  1.00  0.00    -0.000 C 
BRANCH  16  17
ATOM     17  C   UNL     1       7.433  20.874  14.658  1.00  0.00    -0.000 C 
BRANCH  17  18
ATOM     18  C   UNL     1       8.207  19.875  13.782  1.00  0.00    -0.000 C 
BRANCH  18  19
ATOM     19  C   UNL     1       8.954  20.561  12.627  1.00  0.00    -0.003 C 
ATOM     20  C   UNL     1       9.547  21.912  13.029  1.00  0.00     0.004 C 
ENDBRANCH  18  19
ENDBRANCH  17  18
ENDBRANCH  16  17
ENDBRANCH  15  16
ENDBRANCH  14  15
ENDBRANCH  13  14
ENDBRANCH  12  13
ENDBRANCH   1  12
TORSDOF 16
ENDMDL
MODEL 3
REMARK VINA RESULT:    -2.981      5.777     12.699
REMARK INTER + INTRA:          -6.304
REMARK INTER:                  -5.828
REMARK INTRA:                  -0.476
REMARK UNBOUND:                -0.535
REMARK SMILES CCCCCCCCCCCCCCCCCC(=O)[O-]
REMARK SMILES IDX 10 1 11 2 12 3 13 4 14 5 15 6 16 7 17 8 18 9 19 10 20 11
REMARK SMILES IDX 9 12 8 13 7 14 6 15 5 16 4 17 3 18 2 19 1 20
REMARK H PARENT
REMARK Flexibility Score: inf
ROOT
ATOM      1  C   UNL     1       1.423  21.002  16.155  1.00  0.00     0.000 C 
ENDROOT
BRANCH   1   2
ATOM      2  C   UNL     1       0.554  19.875  16.740  1.00  0.00     0.000 C 
BRANCH   2   3
ATOM      3  C   UNL     1      -0.948  20.088  16.483  1.00  0.00     0.000 C 
BRANCH   3   4
ATOM      4  C   UNL     1      -1.718  20.461  17.759  1.00  0.00     0.000 C 
BRANCH   4   5
ATOM      5  C   UNL     1      -3.143  19.887  17.777  1.00  0.00     0.000 C 
BRANCH   5   6
ATOM      6  C   UNL     1      -3.762  19.908  16.375  1.00  0.00     0.000 C 
BRANCH   6   7
ATOM      7  C   UNL     1      -5.251  20.276  16.435  1.00  0.00     0.006 C 
BRANCH   7   8
ATOM      8  C   UNL     1      -5.735  20.956  15.147  1.00  0.00     0.053 C 
BRANCH   8   9
ATOM      9  C   UNL     1      -7.172  21.367  15.240  1.00  0.00     0.041 C 
ATOM     10  O   UNL     1      -7.932  21.245  14.244  1.00  0.00    -0.550 OA
ATOM     11  O   UNL     1      -7.664  21.916  16.418  1.00  0.00    -0.550 OA
ENDBRANCH   8   9
ENDBRANCH   7   8
ENDBRANCH   6   7
ENDBRANCH   5   6
ENDBRANCH   4   5
ENDBRANCH   3   4
ENDBRANCH   2   3
ENDBRANCH   1   2
BRANCH   1  12
ATOM     12  C   UNL     1       2.872  21.040  16.678  1.00  0.00     0.000 C 
BRANCH  12  13
ATOM     13  C   UNL     1       3.845  20.058  15.994  1.00  0.00    -0.000 C 
BRANCH  13  14
ATOM     14  C   UNL     1       5.326  20.478  16.019  1.00  0.00    -0.000 C 
BRANCH  14  15
ATOM     15  C   UNL     1       6.097  20.026  14.767  1.00  0.00    -0.000 C 
BRANCH  15  16
ATOM     16  C   UNL     1       7.516  20.618  14.689  1.00  0.00    -0.000 C 
BRANCH  16  17
ATOM     17  C   UNL     1       8.162  20.585  13.291  1.00  0.00    -0.000 C 
BRANCH  17  18
ATOM     18  C   UNL     1       9.684  20.374  13.340  1.00  0.00    -0.000 C 
BRANCH  18  19
ATOM     19  C   UNL     1      10.439  21.313  12.386  1.00  0.00    -0.003 C 
ATOM     20  C   UNL     1      10.287  22.786  12.767  1.00  0.00     0.004 C 
ENDBRANCH  18  19
ENDBRANCH  17  18
ENDBRANCH  16  17
ENDBRANCH  15  16
ENDBRANCH  14  15
ENDBRANCH  13  14
ENDBRANCH  12  13
ENDBRANCH   1  12
TORSDOF 16
ENDMDL
MODEL 4
REMARK VINA RESULT:    -2.800      1.461      2.961
REMARK INTER + INTRA:          -5.955
REMARK INTER:                  -5.510
REMARK INTRA:                  -0.444
REMARK UNBOUND:                -0.535
REMARK SMILES CCCCCCCCCCCCCCCCCC(=O)[O-]
REMARK SMILES IDX 10 1 11 2 12 3 13 4 14 5 15 6 16 7 17 8 18 9 19 10 20 11
REMARK SMILES IDX 9 12 8 13 7 14 6 15 5 16 4 17 3 18 2 19 1 20
REMARK H PARENT
REMARK Flexibility Score: inf
ROOT
ATOM      1  C   UNL     1       3.431  19.891  16.113  1.00  0.00     0.000 C 
ENDROOT
BRANCH   1   2
ATOM      2  C   UNL     1       4.536  20.931  16.368  1.00  0.00     0.000 C 
BRANCH   2   3
ATOM      3  C   UNL     1       5.825  20.635  15.581  1.00  0.00     0.000 C 
BRANCH   3   4
ATOM      4  C   UNL     1       7.057  20.515  16.489  1.00  0.00     0.000 C 
BRANCH   4   5
ATOM      5  C   UNL     1       8.346  20.992  15.802  1.00  0.00     0.000 C 
BRANCH   5   6
ATOM      6  C   UNL     1       8.519  20.323  14.435  1.00  0.00     0.000 C 
BRANCH   6   7
ATOM      7  C   UNL     1       8.749  21.368  13.334  1.00  0.00     0.006 C 
BRANCH   7   8
ATOM      8  C   UNL     1      10.061  22.140  13.528  1.00  0.00     0.053 C 
BRANCH   8   9
ATOM      9  C   UNL     1      10.460  22.880  12.288  1.00  0.00     0.041 C 
ATOM     10  O   UNL     1      10.782  22.247  11.248  1.00  0.00    -0.550 OA
ATOM     11  O   UNL     1      10.510  24.269  12.292  1.00  0.00    -0.550 OA
ENDBRANCH   8   9
ENDBRANCH   7   8
ENDBRANCH   6   7
ENDBRANCH   5   6
ENDBRANCH   4   5
ENDBRANCH   3   4
ENDBRANCH   2   3
ENDBRANCH   1   2
BRANCH   1  12
ATOM     12  C   UNL     1       2.132  20.118  16.910  1.00  0.00     0.000 C 
BRANCH  12  13
ATOM     13  C   UNL     1       0.827  19.878  16.124  1.00  0.00    -0.000 C 
BRANCH  13  14
ATOM     14  C   UNL     1      -0.466  19.958  16.957  1.00  0.00    -0.000 C 
BRANCH  14  15
ATOM     15  C   UNL     1      -1.567  20.785  16.274  1.00  0.00    -0.000 C 
BRANCH  15  16
ATOM     16  C   UNL     1      -2.986  20.352  16.687  1.00  0.00    -0.000 C 
BRANCH  16  17
ATOM     17  C   UNL     1      -4.005  20.269  15.535  1.00  0.00    -0.000 C 
BRANCH  17  18
ATOM     18  C   UNL     1      -5.458  20.443  16.008  1.00  0.00    -0.000 C 
BRANCH  18  19
ATOM     19  C   UNL     1      -6.275  21.353  15.076  1.00  0.00    -0.003 C 
ATOM     20  C   UNL     1      -7.770  21.039  15.109  1.00  0.00     0.004 C 
ENDBRANCH  18  19
ENDBRANCH  17  18
ENDBRANCH  16  17
ENDBRANCH  15  16
ENDBRANCH  14  15
ENDBRANCH  13  14
ENDBRANCH  12  13
ENDBRANCH   1  12
TORSDOF 16
ENDMDL
MODEL 5
REMARK VINA RESULT:    -2.333      5.288     12.888
REMARK INTER + INTRA:          -5.050
REMARK INTER:                  -4.536
REMARK INTRA:                  -0.514
REMARK UNBOUND:                -0.535
REMARK SMILES CCCCCCCCCCCCCCCCCC(=O)[O-]
REMARK SMILES IDX 10 1 11 2 12 3 13 4 14 5 15 6 16 7 17 8 18 9 19 10 20 11
REMARK SMILES IDX 9 12 8 13 7 14 6 15 5 16 4 17 3 18 2 19 1 20
REMARK H PARENT
REMARK Flexibility Score: inf
ROOT
ATOM      1  C   UNL     1       4.855  19.995  14.807  1.00  0.00     0.000 C 
ENDROOT
BRANCH   1   2
ATOM      2  C   UNL     1       4.008  20.747  15.848  1.00  0.00     0.000 C 
BRANCH   2   3
ATOM      3  C   UNL     1       2.832  19.907  16.376  1.00  0.00     0.000 C 
BRANCH   3   4
ATOM      4  C   UNL     1       1.554  20.738  16.572  1.00  0.00     0.000 C 
BRANCH   4   5
ATOM      5  C   UNL     1       0.281  19.878  16.538  1.00  0.00     0.000 C 
BRANCH   5   6
ATOM      6  C   UNL     1      -0.975  20.756  16.565  1.00  0.00     0.000 C 
BRANCH   6   7
ATOM      7  C   UNL     1      -2.112  20.069  17.336  1.00  0.00     0.006 C 
BRANCH   7   8
ATOM      8  C   UNL     1      -3.377  19.904  16.482  1.00  0.00     0.053 C 
BRANCH   8   9
ATOM      9  C   UNL     1      -4.621  19.975  17.313  1.00  0.00     0.041 C 
ATOM     10  O   UNL     1      -5.753  19.920  16.765  1.00  0.00    -0.550 OA
ATOM     11  O   UNL     1      -4.530  20.138  18.690  1.00  0.00    -0.550 OA
ENDBRANCH   8   9
ENDBRANCH   7   8
ENDBRANCH   6   7
ENDBRANCH   5   6
ENDBRANCH   4   5
ENDBRANCH   3   4
ENDBRANCH   2   3
ENDBRANCH   1   2
BRANCH   1  12
ATOM     12  C   UNL     1       6.306  20.499  14.667  1.00  0.00     0.000 C 
BRANCH  12  13
ATOM     13  C   UNL     1       7.109  19.876  13.507  1.00  0.00    -0.000 C 
BRANCH  13  14
ATOM     14  C   UNL     1       8.566  20.359  13.384  1.00  0.00    -0.000 C 
BRANCH  14  15
ATOM     15  C   UNL     1       8.854  21.610  14.231  1.00  0.00    -0.000 C 
BRANCH  15  16
ATOM     16  C   UNL     1      10.357  21.835  14.478  1.00  0.00    -0.000 C 
BRANCH  16  17
ATOM     17  C   UNL     1      11.118  22.502  13.316  1.00  0.00    -0.000 C 
BRANCH  17  18
ATOM     18  C   UNL     1      10.284  23.570  12.590  1.00  0.00    -0.000 C 
BRANCH  18  19
ATOM     19  C   UNL     1      11.124  24.410  11.615  1.00  0.00    -0.003 C 
ATOM     20  C   UNL     1      10.568  24.392  10.191  1.00  0.00     0.004 C 
ENDBRANCH  18  19
ENDBRANCH  17  18
ENDBRANCH  16  17
ENDBRANCH  15  16
ENDBRANCH  14  15
ENDBRANCH  13  14
ENDBRANCH  12  13
ENDBRANCH   1  12
TORSDOF 16
ENDMDL
MODEL 6
REMARK VINA RESULT:    -2.291      5.550     12.703
REMARK INTER + INTRA:          -4.969
REMARK INTER:                  -4.476
REMARK INTRA:                  -0.493
REMARK UNBOUND:                -0.535
REMARK SMILES CCCCCCCCCCCCCCCCCC(=O)[O-]
REMARK SMILES IDX 10 1 11 2 12 3 13 4 14 5 15 6 16 7 17 8 18 9 19 10 20 11
REMARK SMILES IDX 9 12 8 13 7 14 6 15 5 16 4 17 3 18 2 19 1 20
REMARK H PARENT
REMARK Flexibility Score: inf
ROOT
ATOM      1  C   UNL     1       3.832  21.103  16.354  1.00  0.00     0.000 C 
ENDROOT
BRANCH   1   2
ATOM      2  C   UNL     1       2.809  19.968  16.178  1.00  0.00     0.000 C 
BRANCH   2   3
ATOM      3  C   UNL     1       1.506  20.215  16.958  1.00  0.00     0.000 C 
BRANCH   3   4
ATOM      4  C   UNL     1       0.262  20.179  16.058  1.00  0.00     0.000 C 
BRANCH   4   5
ATOM      5  C   UNL     1      -1.026  19.884  16.842  1.00  0.00     0.000 C 
BRANCH   5   6
ATOM      6  C   UNL     1      -2.200  20.705  16.298  1.00  0.00     0.000 C 
BRANCH   6   7
ATOM      7  C   UNL     1      -3.493  19.877  16.287  1.00  0.00     0.006 C 
BRANCH   7   8
ATOM      8  C   UNL     1      -4.654  20.619  15.611  1.00  0.00     0.053 C 
BRANCH   8   9
ATOM      9  C   UNL     1      -5.948  20.405  16.335  1.00  0.00     0.041 C 
ATOM     10  O   UNL     1      -5.961  20.291  17.589  1.00  0.00    -0.550 OA
ATOM     11  O   UNL     1      -7.135  20.297  15.621  1.00  0.00    -0.550 OA
ENDBRANCH   8   9
ENDBRANCH   7   8
ENDBRANCH   6   7
ENDBRANCH   5   6
ENDBRANCH   4   5
ENDBRANCH   3   4
ENDBRANCH   2   3
ENDBRANCH   1   2
BRANCH   1  12
ATOM     12  C   UNL     1       5.290  20.638  16.544  1.00  0.00     0.000 C 
BRANCH  12  13
ATOM     13  C   UNL     1       6.134  20.579  15.254  1.00  0.00    -0.000 C 
BRANCH  13  14
ATOM     14  C   UNL     1       7.513  19.909  15.404  1.00  0.00    -0.000 C 
BRANCH  14  15
ATOM     15  C   UNL     1       8.668  20.923  15.452  1.00  0.00    -0.000 C 
BRANCH  15  16
ATOM     16  C   UNL     1       9.662  20.757  14.287  1.00  0.00    -0.000 C 
BRANCH  16  17
ATOM     17  C   UNL     1       9.599  21.859  13.213  1.00  0.00    -0.000 C 
BRANCH  17  18
ATOM     18  C   UNL     1      10.109  21.387  11.841  1.00  0.00    -0.000 C 
BRANCH  18  19
ATOM     19  C   UNL     1       9.097  20.485  11.116  1.00  0.00    -0.003 C 
ATOM     20  C   UNL     1       9.658  19.892   9.823  1.00  0.00     0.004 C 
ENDBRANCH  18  19
ENDBRANCH  17  18
ENDBRANCH  16  17
ENDBRANCH  15  16
ENDBRANCH  14  15
ENDBRANCH  13  14
ENDBRANCH  12  13
ENDBRANCH   1  12
TORSDOF 16
ENDMDL
MODEL 7
REMARK VINA RESULT:    -2.157      3.462      6.318
REMARK INTER + INTRA:          -4.710
REMARK INTER:                  -4.006
REMARK INTRA:                  -0.704
REMARK UNBOUND:                -0.535
REMARK SMILES CCCCCCCCCCCCCCCCCC(=O)[O-]
REMARK SMILES IDX 10 1 11 2 12 3 13 4 14 5 15 6 16 7 17 8 18 9 19 10 20 11
REMARK SMILES IDX 9 12 8 13 7 14 6 15 5 16 4 17 3 18 2 19 1 20
REMARK H PARENT
REMARK Flexibility Score: inf
ROOT
ATOM      1  C   UNL     1       6.534  21.046  16.575  1.00  0.00     0.000 C 
ENDROOT
BRANCH   1   2
ATOM      2  C   UNL     1       8.049  21.310  16.522  1.00  0.00     0.000 C 
BRANCH   2   3
ATOM      3  C   UNL     1       8.653  21.027  15.136  1.00  0.00     0.000 C 
BRANCH   3   4
ATOM      4  C   UNL     1      10.090  21.554  15.000  1.00  0.00     0.000 C 
BRANCH   4   5
ATOM      5  C   UNL     1      10.772  21.081  13.707  1.00  0.00     0.000 C 
BRANCH   5   6
ATOM      6  C   UNL     1      10.191  21.800  12.485  1.00  0.00     0.000 C 
BRANCH   6   7
ATOM      7  C   UNL     1      10.747  21.207  11.181  1.00  0.00     0.006 C 
BRANCH   7   8
ATOM      8  C   UNL     1       9.710  20.347  10.444  1.00  0.00     0.053 C 
BRANCH   8   9
ATOM      9  C   UNL     1       9.709  20.618   8.971  1.00  0.00     0.041 C 
ATOM     10  O   UNL     1      10.797  20.718   8.345  1.00  0.00    -0.550 OA
ATOM     11  O   UNL     1       8.507  20.795   8.297  1.00  0.00    -0.550 OA
ENDBRANCH   8   9
ENDBRANCH   7   8
ENDBRANCH   6   7
ENDBRANCH   5   6
ENDBRANCH   4   5
ENDBRANCH   3   4
ENDBRANCH   2   3
ENDBRANCH   1   2
BRANCH   1  12
ATOM     12  C   UNL     1       5.812  21.140  15.217  1.00  0.00     0.000 C 
BRANCH  12  13
ATOM     13  C   UNL     1       4.578  20.227  15.063  1.00  0.00    -0.000 C 
BRANCH  13  14
ATOM     14  C   UNL     1       3.809  19.938  16.366  1.00  0.00    -0.000 C 
BRANCH  14  15
ATOM     15  C   UNL     1       2.719  20.981  16.660  1.00  0.00    -0.000 C 
BRANCH  15  16
ATOM     16  C   UNL     1       1.401  20.699  15.915  1.00  0.00    -0.000 C 
BRANCH  16  17
ATOM     17  C   UNL     1       0.205  20.336  16.815  1.00  0.00    -0.000 C 
BRANCH  17  18
ATOM     18  C   UNL     1      -1.151  20.542  16.120  1.00  0.00    -0.000 C 
BRANCH  18  19
ATOM     19  C   UNL     1      -2.327  20.532  17.110  1.00  0.00    -0.003 C 
ATOM     20  C   UNL     1      -1.963  19.891  18.450  1.00  0.00     0.004 C 
ENDBRANCH  18  19
ENDBRANCH  17  18
ENDBRANCH  16  17
ENDBRANCH  15  16
ENDBRANCH  14  15
ENDBRANCH  13  14
ENDBRANCH  12  13
ENDBRANCH   1  12
TORSDOF 16
ENDMDL
MODEL 8
REMARK VINA RESULT:    -2.142      1.226      1.619
REMARK INTER + INTRA:          -4.680
REMARK INTER:                  -4.105
REMARK INTRA:                  -0.575
REMARK UNBOUND:                -0.535
REMARK SMILES CCCCCCCCCCCCCCCCCC(=O)[O-]
REMARK SMILES IDX 10 1 11 2 12 3 13 4 14 5 15 6 16 7 17 8 18 9 19 10 20 11
REMARK SMILES IDX 9 12 8 13 7 14 6 15 5 16 4 17 3 18 2 19 1 20
REMARK H PARENT
REMARK Flexibility Score: inf
ROOT
ATOM      1  C   UNL     1      -0.431  20.434  16.031  1.00  0.00     0.000 C 
ENDROOT
BRANCH   1   2
ATOM      2  C   UNL     1       1.078  20.157  16.147  1.00  0.00     0.000 C 
BRANCH   2   3
ATOM      3  C   UNL     1       1.866  21.367  16.679  1.00  0.00     0.000 C 
BRANCH   3   4
ATOM      4  C   UNL     1       3.378  21.105  16.741  1.00  0.00     0.000 C 
BRANCH   4   5
ATOM      5  C   UNL     1       3.799  19.876  15.921  1.00  0.00     0.000 C 
BRANCH   5   6
ATOM      6  C   UNL     1       5.173  20.089  15.278  1.00  0.00     0.000 C 
BRANCH   6   7
ATOM      7  C   UNL     1       6.248  20.344  16.345  1.00  0.00     0.006 C 
BRANCH   7   8
ATOM      8  C   UNL     1       7.638  19.875  15.895  1.00  0.00     0.053 C 
BRANCH   8   9
ATOM      9  C   UNL     1       8.252  20.820  14.908  1.00  0.00     0.041 C 
ATOM     10  O   UNL     1       8.775  21.895  15.301  1.00  0.00    -0.550 OA
ATOM     11  O   UNL     1       8.214  20.529  13.550  1.00  0.00    -0.550 OA
ENDBRANCH   8   9
ENDBRANCH   7   8
ENDBRANCH   6   7
ENDBRANCH   5   6
ENDBRANCH   4   5
ENDBRANCH   3   4
ENDBRANCH   2   3
ENDBRANCH   1   2
BRANCH   1  12
ATOM     12  C   UNL     1      -1.281  19.891  17.196  1.00  0.00     0.000 C 
BRANCH  12  13
ATOM     13  C   UNL     1      -2.724  20.430  17.265  1.00  0.00    -0.000 C 
BRANCH  13  14
ATOM     14  C   UNL     1      -3.379  20.726  15.902  1.00  0.00    -0.000 C 
BRANCH  14  15
ATOM     15  C   UNL     1      -4.849  20.280  15.836  1.00  0.00    -0.000 C 
BRANCH  15  16
ATOM     16  C   UNL     1      -5.498  20.143  17.226  1.00  0.00    -0.000 C 
BRANCH  16  17
ATOM     17  C   UNL     1      -7.038  20.116  17.228  1.00  0.00    -0.000 C 
BRANCH  17  18
ATOM     18  C   UNL     1      -7.661  21.510  17.040  1.00  0.00    -0.000 C 
BRANCH  18  19
ATOM     19  C   UNL     1      -8.116  22.135  18.369  1.00  0.00    -0.003 C 
ATOM     20  C   UNL     1      -7.337  21.598  19.569  1.00  0.00     0.004 C 
ENDBRANCH  18  19
ENDBRANCH  17  18
ENDBRANCH  16  17
ENDBRANCH  15  16
ENDBRANCH  14  15
ENDBRANCH  13  14
ENDBRANCH  12  13
ENDBRANCH   1  12
TORSDOF 16
ENDMDL
MODEL 9
REMARK VINA RESULT:    -2.033      1.611      4.480
REMARK INTER + INTRA:          -4.469
REMARK INTER:                  -3.935
REMARK INTRA:                  -0.534
REMARK UNBOUND:                -0.535
REMARK SMILES CCCCCCCCCCCCCCCCCC(=O)[O-]
REMARK SMILES IDX 10 1 11 2 12 3 13 4 14 5 15 6 16 7 17 8 18 9 19 10 20 11
REMARK SMILES IDX 9 12 8 13 7 14 6 15 5 16 4 17 3 18 2 19 1 20
REMARK H PARENT
REMARK Flexibility Score: inf
ROOT
ATOM      1  C   UNL     1       5.329  21.350  16.570  1.00  0.00     0.000 C 
ENDROOT
BRANCH   1   2
ATOM      2  C   UNL     1       6.647  21.281  15.779  1.00  0.00     0.000 C 
BRANCH   2   3
ATOM      3  C   UNL     1       7.327  19.904  15.876  1.00  0.00     0.000 C 
BRANCH   3   4
ATOM      4  C   UNL     1       8.814  19.951  15.492  1.00  0.00     0.000 C 
BRANCH   4   5
ATOM      5  C   UNL     1       9.111  21.005  14.413  1.00  0.00     0.000 C 
BRANCH   5   6
ATOM      6  C   UNL     1      10.546  20.868  13.894  1.00  0.00     0.000 C 
BRANCH   6   7
ATOM      7  C   UNL     1      10.687  21.487  12.495  1.00  0.00     0.006 C 
BRANCH   7   8
ATOM      8  C   UNL     1       9.877  22.782  12.347  1.00  0.00     0.053 C 
BRANCH   8   9
ATOM      9  C   UNL     1      10.719  23.997  12.592  1.00  0.00     0.041 C 
ATOM     10  O   UNL     1      11.090  24.715  11.627  1.00  0.00    -0.550 OA
ATOM     11  O   UNL     1      11.124  24.315  13.883  1.00  0.00    -0.550 OA
ENDBRANCH   8   9
ENDBRANCH   7   8
ENDBRANCH   6   7
ENDBRANCH   5   6
ENDBRANCH   4   5
ENDBRANCH   3   4
ENDBRANCH   2   3
ENDBRANCH   1   2
BRANCH   1  12
ATOM     12  C   UNL     1       4.135  20.640  15.903  1.00  0.00     0.000 C 
BRANCH  12  13
ATOM     13  C   UNL     1       2.768  20.880  16.575  1.00  0.00    -0.000 C 
BRANCH  13  14
ATOM     14  C   UNL     1       1.615  20.007  16.045  1.00  0.00    -0.000 C 
BRANCH  14  15
ATOM     15  C   UNL     1       0.314  20.186  16.845  1.00  0.00    -0.000 C 
BRANCH  15  16
ATOM     16  C   UNL     1      -0.874  20.627  15.970  1.00  0.00    -0.000 C 
BRANCH  16  17
ATOM     17  C   UNL     1      -2.252  20.122  16.436  1.00  0.00    -0.000 C 
BRANCH  17  18
ATOM     18  C   UNL     1      -3.416  20.954  15.871  1.00  0.00    -0.000 C 
BRANCH  18  19
ATOM     19  C   UNL     1      -4.773  20.249  16.028  1.00  0.00    -0.003 C 
ATOM     20  C   UNL     1      -5.933  21.075  15.473  1.00  0.00     0.004 C 
ENDBRANCH  18  19
ENDBRANCH  17  18
ENDBRANCH  16  17
ENDBRANCH  15  16
ENDBRANCH  14  15
ENDBRANCH  13  14
ENDBRANCH  12  13
ENDBRANCH   1  12
TORSDOF 16
ENDMDL
