MODEL 1
REMARK VINA RESULT:    -3.374      0.000      0.000
REMARK INTER + INTRA:          -3.962
REMARK INTER:                  -3.670
REMARK INTRA:                  -0.292
REMARK UNBOUND:                -0.292
REMARK SMILES CC1(C)CC[C@]2(C(=O)[O-])CC[C@]3(C)C(=CC[C@H]4[C@@]5(C)CC[C@H](O)C(C)(C)[C@H]5CC[C@@]43C)[C@@H]2C1
REMARK SMILES IDX 6 1 5 2 10 3 32 4 4 5 11 6 14 7 33 8 2 9 12 10 15 11 1 12
REMARK SMILES IDX 3 13 13 14 30 15 16 16 17 17 29 18 31 19 18 20 28 21 27 22
REMARK SMILES IDX 20 23 19 24 24 25 21 26 22 27 25 28 26 29 7 30 8 31 9 32
REMARK SMILES IDX 23 33
REMARK H PARENT 23 34
REMARK Flexibility Score: inf
ROOT
ATOM      1  C   UNL     1     -10.556   7.017  -0.113  1.00  0.00     0.017 C 
ATOM      2  C   UNL     1     -10.968   5.568   0.272  1.00  0.00     0.014 C 
ATOM      3  C   UNL     1     -10.858   7.278  -1.619  1.00  0.00     0.014 C 
ATOM      4  C   UNL     1      -9.030   7.257   0.218  1.00  0.00     0.028 C 
ATOM      5  C   UNL     1     -10.689   5.235   1.753  1.00  0.00     0.007 C 
ATOM      6  C   UNL     1      -9.926   6.555  -2.610  1.00  0.00     0.013 C 
ATOM      7  C   UNL     1      -8.209   7.572  -1.047  1.00  0.00    -0.064 C 
ATOM      8  C   UNL     1      -8.374   6.168   1.109  1.00  0.00     0.015 C 
ATOM      9  C   UNL     1      -9.284   5.691   2.274  1.00  0.00    -0.035 C 
ATOM     10  C   UNL     1      -8.378   6.688  -2.320  1.00  0.00    -0.006 C 
ATOM     11  C   UNL     1      -7.665   8.817  -1.107  1.00  0.00    -0.027 C 
ATOM     12  C   UNL     1      -8.589   4.500   2.974  1.00  0.00     0.011 C 
ATOM     13  C   UNL     1      -9.439   6.818   3.323  1.00  0.00     0.011 C 
ATOM     14  C   UNL     1      -7.844   5.249  -2.026  1.00  0.00     0.017 C 
ATOM     15  C   UNL     1      -7.551   7.301  -3.574  1.00  0.00    -0.020 C 
ATOM     16  C   UNL     1      -7.252   9.520  -2.368  1.00  0.00     0.032 C 
ATOM     17  C   UNL     1      -7.846   8.852  -3.629  1.00  0.00     0.006 C 
ATOM     18  C   UNL     1      -7.926   6.606  -4.932  1.00  0.00     0.008 C 
ATOM     19  C   UNL     1      -6.021   7.023  -3.344  1.00  0.00     0.012 C 
ATOM     20  C   UNL     1      -7.577   9.662  -4.984  1.00  0.00    -0.025 C 
ATOM     21  C   UNL     1      -8.677   7.476  -5.943  1.00  0.00     0.005 C 
ATOM     22  C   UNL     1      -8.005   8.831  -6.274  1.00  0.00     0.003 C 
ATOM     23  C   UNL     1      -6.106  10.177  -5.074  1.00  0.00     0.010 C 
ATOM     24  C   UNL     1      -8.474  10.944  -4.931  1.00  0.00     0.012 C 
ATOM     25  C   UNL     1      -6.980   8.810  -7.483  1.00  0.00    -0.006 C 
ATOM     26  C   UNL     1      -5.699  10.815  -6.413  1.00  0.00     0.033 C 
ATOM     27  C   UNL     1      -6.384  10.239  -7.673  1.00  0.00     0.120 C 
ATOM     28  C   UNL     1      -7.708   8.438  -8.811  1.00  0.00     0.014 C 
ATOM     29  C   UNL     1      -5.836   7.778  -7.316  1.00  0.00     0.014 C 
ENDROOT
BRANCH   1  30
ATOM     30  C   UNL     1     -11.434   8.018   0.642  1.00  0.00     0.048 C 
ATOM     31  O   UNL     1     -12.686   7.876   0.695  1.00  0.00    -0.550 OA
ATOM     32  O   UNL     1     -10.877   9.180   1.169  1.00  0.00    -0.550 OA
ENDBRANCH   1  30
BRANCH  27  33
ATOM     33  O   UNL     1      -7.393  11.124  -8.100  1.00  0.00    -0.393 OA
ATOM     34  H   UNL     1      -8.032  10.600  -8.650  1.00  0.00     0.210 HD
ENDBRANCH  27  33
TORSDOF 2
ENDMDL
MODEL 2
REMARK VINA RESULT:    -3.224      2.210      3.655
REMARK INTER + INTRA:          -3.799
REMARK INTER:                  -3.555
REMARK INTRA:                  -0.244
REMARK UNBOUND:                -0.292
REMARK SMILES CC1(C)CC[C@]2(C(=O)[O-])CC[C@]3(C)C(=CC[C@H]4[C@@]5(C)CC[C@H](O)C(C)(C)[C@H]5CC[C@@]43C)[C@@H]2C1
REMARK SMILES IDX 6 1 5 2 10 3 32 4 4 5 11 6 14 7 33 8 2 9 12 10 15 11 1 12
REMARK SMILES IDX 3 13 13 14 30 15 16 16 17 17 29 18 31 19 18 20 28 21 27 22
REMARK SMILES IDX 20 23 19 24 24 25 21 26 22 27 25 28 26 29 7 30 8 31 9 32
REMARK SMILES IDX 23 33
REMARK H PARENT 23 34
REMARK Flexibility Score: inf
ROOT
ATOM      1  C   UNL     1      -8.924   6.813  -2.931  1.00  0.00     0.017 C 
ATOM      2  C   UNL     1      -8.512   5.450  -2.308  1.00  0.00     0.014 C 
ATOM      3  C   UNL     1      -9.487   6.598  -4.368  1.00  0.00     0.014 C 
ATOM      4  C   UNL     1      -7.695   7.805  -2.938  1.00  0.00     0.028 C 
ATOM      5  C   UNL     1      -7.936   5.588  -0.883  1.00  0.00     0.007 C 
ATOM      6  C   UNL     1      -8.440   6.220  -5.433  1.00  0.00     0.013 C 
ATOM      7  C   UNL     1      -7.293   8.214  -4.368  1.00  0.00    -0.064 C 
ATOM      8  C   UNL     1      -6.486   7.356  -2.075  1.00  0.00     0.015 C 
ATOM      9  C   UNL     1      -6.895   6.746  -0.705  1.00  0.00    -0.035 C 
ATOM     10  C   UNL     1      -7.143   7.123  -5.472  1.00  0.00    -0.006 C 
ATOM     11  C   UNL     1      -7.454   9.529  -4.677  1.00  0.00    -0.027 C 
ATOM     12  C   UNL     1      -5.625   6.190  -0.024  1.00  0.00     0.011 C 
ATOM     13  C   UNL     1      -7.470   7.848   0.217  1.00  0.00     0.011 C 
ATOM     14  C   UNL     1      -5.933   6.197  -5.125  1.00  0.00     0.017 C 
ATOM     15  C   UNL     1      -6.882   7.793  -6.927  1.00  0.00    -0.020 C 
ATOM     16  C   UNL     1      -7.594  10.078  -6.068  1.00  0.00     0.032 C 
ATOM     17  C   UNL     1      -7.916   8.975  -7.100  1.00  0.00     0.006 C 
ATOM     18  C   UNL     1      -7.014   6.750  -8.094  1.00  0.00     0.008 C 
ATOM     19  C   UNL     1      -5.403   8.322  -6.973  1.00  0.00     0.012 C 
ATOM     20  C   UNL     1      -8.245   9.530  -8.566  1.00  0.00    -0.025 C 
ATOM     21  C   UNL     1      -8.209   6.943  -9.031  1.00  0.00     0.005 C 
ATOM     22  C   UNL     1      -8.346   8.359  -9.642  1.00  0.00     0.003 C 
ATOM     23  C   UNL     1      -7.248  10.649  -9.004  1.00  0.00     0.010 C 
ATOM     24  C   UNL     1      -9.649  10.218  -8.486  1.00  0.00     0.012 C 
ATOM     25  C   UNL     1      -7.594   8.587 -11.019  1.00  0.00    -0.006 C 
ATOM     26  C   UNL     1      -7.371  11.125 -10.461  1.00  0.00     0.033 C 
ATOM     27  C   UNL     1      -7.817  10.058 -11.486  1.00  0.00     0.120 C 
ATOM     28  C   UNL     1      -8.187   7.662 -12.125  1.00  0.00     0.014 C 
ATOM     29  C   UNL     1      -6.078   8.273 -10.963  1.00  0.00     0.014 C 
ENDROOT
BRANCH   1  30
ATOM     30  C   UNL     1     -10.092   7.407  -2.139  1.00  0.00     0.048 C 
ATOM     31  O   UNL     1     -11.002   6.672  -1.670  1.00  0.00    -0.550 OA
ATOM     32  O   UNL     1     -10.238   8.788  -2.038  1.00  0.00    -0.550 OA
ENDBRANCH   1  30
BRANCH  27  33
ATOM     33  O   UNL     1      -9.174  10.258 -11.805  1.00  0.00    -0.393 OA
ATOM     34  H   UNL     1      -9.349   9.785 -12.660  1.00  0.00     0.210 HD
ENDBRANCH  27  33
TORSDOF 2
ENDMDL
MODEL 3
REMARK VINA RESULT:    -3.168      1.987      8.482
REMARK INTER + INTRA:          -3.737
REMARK INTER:                  -3.446
REMARK INTRA:                  -0.291
REMARK UNBOUND:                -0.292
REMARK SMILES CC1(C)CC[C@]2(C(=O)[O-])CC[C@]3(C)C(=CC[C@H]4[C@@]5(C)CC[C@H](O)C(C)(C)[C@H]5CC[C@@]43C)[C@@H]2C1
REMARK SMILES IDX 6 1 5 2 10 3 32 4 4 5 11 6 14 7 33 8 2 9 12 10 15 11 1 12
REMARK SMILES IDX 3 13 13 14 30 15 16 16 17 17 29 18 31 19 18 20 28 21 27 22
REMARK SMILES IDX 20 23 19 24 24 25 21 26 22 27 25 28 26 29 7 30 8 31 9 32
REMARK SMILES IDX 23 33
REMARK H PARENT 23 34
REMARK Flexibility Score: inf
ROOT
ATOM      1  C   UNL     1      -7.450   8.977  -8.506  1.00  0.00     0.017 C 
ATOM      2  C   UNL     1      -7.101  10.282  -9.276  1.00  0.00     0.014 C 
ATOM      3  C   UNL     1      -8.645   9.230  -7.537  1.00  0.00     0.014 C 
ATOM      4  C   UNL     1      -6.182   8.446  -7.728  1.00  0.00     0.028 C 
ATOM      5  C   UNL     1      -5.918  10.109 -10.251  1.00  0.00     0.007 C 
ATOM      6  C   UNL     1      -8.317  10.089  -6.301  1.00  0.00     0.013 C 
ATOM      7  C   UNL     1      -6.409   8.424  -6.204  1.00  0.00    -0.064 C 
ATOM      8  C   UNL     1      -4.840   9.114  -8.130  1.00  0.00     0.015 C 
ATOM      9  C   UNL     1      -4.691   9.332  -9.661  1.00  0.00    -0.035 C 
ATOM     10  C   UNL     1      -7.025   9.668  -5.494  1.00  0.00    -0.006 C 
ATOM     11  C   UNL     1      -6.406   7.194  -5.622  1.00  0.00    -0.027 C 
ATOM     12  C   UNL     1      -3.403  10.148  -9.911  1.00  0.00     0.011 C 
ATOM     13  C   UNL     1      -4.522   7.971 -10.378  1.00  0.00     0.011 C 
ATOM     14  C   UNL     1      -6.023  10.863  -5.582  1.00  0.00     0.017 C 
ATOM     15  C   UNL     1      -7.328   9.359  -3.930  1.00  0.00    -0.020 C 
ATOM     16  C   UNL     1      -7.051   6.860  -4.308  1.00  0.00     0.032 C 
ATOM     17  C   UNL     1      -8.043   7.953  -3.851  1.00  0.00     0.006 C 
ATOM     18  C   UNL     1      -8.206  10.479  -3.263  1.00  0.00     0.008 C 
ATOM     19  C   UNL     1      -5.963   9.347  -3.152  1.00  0.00     0.012 C 
ATOM     20  C   UNL     1      -8.884   7.566  -2.543  1.00  0.00    -0.025 C 
ATOM     21  C   UNL     1      -9.625  10.067  -2.865  1.00  0.00     0.005 C 
ATOM     22  C   UNL     1      -9.720   8.799  -1.981  1.00  0.00     0.003 C 
ATOM     23  C   UNL     1      -7.987   6.910  -1.446  1.00  0.00     0.010 C 
ATOM     24  C   UNL     1      -9.906   6.460  -2.973  1.00  0.00     0.012 C 
ATOM     25  C   UNL     1      -9.660   9.049  -0.417  1.00  0.00    -0.006 C 
ATOM     26  C   UNL     1      -8.664   6.662  -0.087  1.00  0.00     0.033 C 
ATOM     27  C   UNL     1      -9.750   7.679   0.324  1.00  0.00     0.120 C 
ATOM     28  C   UNL     1     -10.881   9.901   0.048  1.00  0.00     0.014 C 
ATOM     29  C   UNL     1      -8.398   9.819   0.046  1.00  0.00     0.014 C 
ENDROOT
BRANCH   1  30
ATOM     30  C   UNL     1      -7.960   7.921  -9.490  1.00  0.00     0.048 C 
ATOM     31  O   UNL     1      -8.818   8.209 -10.367  1.00  0.00    -0.550 OA
ATOM     32  O   UNL     1      -7.583   6.590  -9.344  1.00  0.00    -0.550 OA
ENDBRANCH   1  30
BRANCH  27  33
ATOM     33  O   UNL     1     -11.023   7.110   0.121  1.00  0.00    -0.393 OA
ATOM     34  H   UNL     1     -11.685   7.700   0.567  1.00  0.00     0.210 HD
ENDBRANCH  27  33
TORSDOF 2
ENDMDL
MODEL 4
REMARK VINA RESULT:    -2.907      2.879      5.410
REMARK INTER + INTRA:          -3.453
REMARK INTER:                  -3.208
REMARK INTRA:                  -0.246
REMARK UNBOUND:                -0.292
REMARK SMILES CC1(C)CC[C@]2(C(=O)[O-])CC[C@]3(C)C(=CC[C@H]4[C@@]5(C)CC[C@H](O)C(C)(C)[C@H]5CC[C@@]43C)[C@@H]2C1
REMARK SMILES IDX 6 1 5 2 10 3 32 4 4 5 11 6 14 7 33 8 2 9 12 10 15 11 1 12
REMARK SMILES IDX 3 13 13 14 30 15 16 16 17 17 29 18 31 19 18 20 28 21 27 22
REMARK SMILES IDX 20 23 19 24 24 25 21 26 22 27 25 28 26 29 7 30 8 31 9 32
REMARK SMILES IDX 23 33
REMARK H PARENT 23 34
REMARK Flexibility Score: inf
ROOT
ATOM      1  C   UNL     1      -7.460   8.881  -3.570  1.00  0.00     0.017 C 
ATOM      2  C   UNL     1      -8.932   9.214  -3.197  1.00  0.00     0.014 C 
ATOM      3  C   UNL     1      -6.920   9.919  -4.600  1.00  0.00     0.014 C 
ATOM      4  C   UNL     1      -7.358   7.408  -4.132  1.00  0.00     0.028 C 
ATOM      5  C   UNL     1      -9.537   8.219  -2.184  1.00  0.00     0.007 C 
ATOM      6  C   UNL     1      -7.500   9.797  -6.021  1.00  0.00     0.013 C 
ATOM      7  C   UNL     1      -6.863   7.381  -5.591  1.00  0.00    -0.064 C 
ATOM      8  C   UNL     1      -8.619   6.532  -3.905  1.00  0.00     0.015 C 
ATOM      9  C   UNL     1      -9.251   6.710  -2.497  1.00  0.00    -0.035 C 
ATOM     10  C   UNL     1      -7.498   8.343  -6.642  1.00  0.00    -0.006 C 
ATOM     11  C   UNL     1      -5.656   6.790  -5.797  1.00  0.00    -0.027 C 
ATOM     12  C   UNL     1     -10.580   5.922  -2.459  1.00  0.00     0.011 C 
ATOM     13  C   UNL     1      -8.323   6.104  -1.417  1.00  0.00     0.011 C 
ATOM     14  C   UNL     1      -8.990   7.944  -6.875  1.00  0.00     0.017 C 
ATOM     15  C   UNL     1      -6.712   8.262  -8.059  1.00  0.00    -0.020 C 
ATOM     16  C   UNL     1      -4.761   7.043  -6.976  1.00  0.00     0.032 C 
ATOM     17  C   UNL     1      -5.164   8.317  -7.751  1.00  0.00     0.006 C 
ATOM     18  C   UNL     1      -7.135   9.414  -9.040  1.00  0.00     0.008 C 
ATOM     19  C   UNL     1      -7.102   6.914  -8.768  1.00  0.00     0.012 C 
ATOM     20  C   UNL     1      -4.140   8.725  -8.913  1.00  0.00    -0.025 C 
ATOM     21  C   UNL     1      -6.063  10.465  -9.339  1.00  0.00     0.005 C 
ATOM     22  C   UNL     1      -4.705   9.902  -9.826  1.00  0.00     0.003 C 
ATOM     23  C   UNL     1      -3.690   7.489  -9.755  1.00  0.00     0.010 C 
ATOM     24  C   UNL     1      -2.844   9.255  -8.210  1.00  0.00     0.012 C 
ATOM     25  C   UNL     1      -4.561   9.723 -11.394  1.00  0.00    -0.006 C 
ATOM     26  C   UNL     1      -2.844   7.799 -11.002  1.00  0.00     0.033 C 
ATOM     27  C   UNL     1      -3.152   9.135 -11.714  1.00  0.00     0.120 C 
ATOM     28  C   UNL     1      -4.654  11.104 -12.113  1.00  0.00     0.014 C 
ATOM     29  C   UNL     1      -5.661   8.834 -12.026  1.00  0.00     0.014 C 
ENDROOT
BRANCH   1  30
ATOM     30  C   UNL     1      -6.567   9.051  -2.338  1.00  0.00     0.048 C 
ATOM     31  O   UNL     1      -5.721   8.171  -2.021  1.00  0.00    -0.550 OA
ATOM     32  O   UNL     1      -6.769  10.119  -1.469  1.00  0.00    -0.550 OA
ENDBRANCH   1  30
BRANCH  27  33
ATOM     33  O   UNL     1      -2.156  10.076 -11.387  1.00  0.00    -0.393 OA
ATOM     34  H   UNL     1      -2.381  10.920 -11.861  1.00  0.00     0.210 HD
ENDBRANCH  27  33
TORSDOF 2
ENDMDL
MODEL 5
REMARK VINA RESULT:    -2.401      2.365      4.578
REMARK INTER + INTRA:          -2.904
REMARK INTER:                  -2.669
REMARK INTRA:                  -0.234
REMARK UNBOUND:                -0.292
REMARK SMILES CC1(C)CC[C@]2(C(=O)[O-])CC[C@]3(C)C(=CC[C@H]4[C@@]5(C)CC[C@H](O)C(C)(C)[C@H]5CC[C@@]43C)[C@@H]2C1
REMARK SMILES IDX 6 1 5 2 10 3 32 4 4 5 11 6 14 7 33 8 2 9 12 10 15 11 1 12
REMARK SMILES IDX 3 13 13 14 30 15 16 16 17 17 29 18 31 19 18 20 28 21 27 22
REMARK SMILES IDX 20 23 19 24 24 25 21 26 22 27 25 28 26 29 7 30 8 31 9 32
REMARK SMILES IDX 23 33
REMARK H PARENT 23 34
REMARK Flexibility Score: inf
ROOT
ATOM      1  C   UNL     1      -7.338   7.362  -2.121  1.00  0.00     0.017 C 
ATOM      2  C   UNL     1      -7.162   8.292  -0.887  1.00  0.00     0.014 C 
ATOM      3  C   UNL     1      -6.148   7.552  -3.109  1.00  0.00     0.014 C 
ATOM      4  C   UNL     1      -8.723   7.646  -2.826  1.00  0.00     0.028 C 
ATOM      5  C   UNL     1      -8.312   8.163   0.134  1.00  0.00     0.007 C 
ATOM      6  C   UNL     1      -6.145   8.884  -3.884  1.00  0.00     0.013 C 
ATOM      7  C   UNL     1      -8.540   8.150  -4.271  1.00  0.00    -0.064 C 
ATOM      8  C   UNL     1      -9.711   8.515  -2.004  1.00  0.00     0.015 C 
ATOM      9  C   UNL     1      -9.748   8.149  -0.494  1.00  0.00    -0.035 C 
ATOM     10  C   UNL     1      -7.511   9.282  -4.573  1.00  0.00    -0.006 C 
ATOM     11  C   UNL     1      -9.011   7.330  -5.249  1.00  0.00    -0.027 C 
ATOM     12  C   UNL     1     -10.632   9.187   0.234  1.00  0.00     0.011 C 
ATOM     13  C   UNL     1     -10.406   6.762  -0.299  1.00  0.00     0.011 C 
ATOM     14  C   UNL     1      -7.990  10.609  -3.902  1.00  0.00     0.017 C 
ATOM     15  C   UNL     1      -7.365   9.531  -6.169  1.00  0.00    -0.020 C 
ATOM     16  C   UNL     1      -8.555   7.343  -6.680  1.00  0.00     0.032 C 
ATOM     17  C   UNL     1      -7.232   8.118  -6.863  1.00  0.00     0.006 C 
ATOM     18  C   UNL     1      -6.140  10.451  -6.518  1.00  0.00     0.008 C 
ATOM     19  C   UNL     1      -8.645  10.292  -6.673  1.00  0.00     0.012 C 
ATOM     20  C   UNL     1      -6.614   8.016  -8.338  1.00  0.00    -0.025 C 
ATOM     21  C   UNL     1      -4.984   9.772  -7.258  1.00  0.00     0.005 C 
ATOM     22  C   UNL     1      -5.384   9.006  -8.543  1.00  0.00     0.003 C 
ATOM     23  C   UNL     1      -7.705   8.193  -9.441  1.00  0.00     0.010 C 
ATOM     24  C   UNL     1      -6.076   6.555  -8.503  1.00  0.00     0.012 C 
ATOM     25  C   UNL     1      -5.364   9.855  -9.881  1.00  0.00    -0.006 C 
ATOM     26  C   UNL     1      -7.189   8.285 -10.886  1.00  0.00     0.033 C 
ATOM     27  C   UNL     1      -5.804   8.946 -11.070  1.00  0.00     0.120 C 
ATOM     28  C   UNL     1      -3.920  10.350 -10.194  1.00  0.00     0.014 C 
ATOM     29  C   UNL     1      -6.252  11.124  -9.829  1.00  0.00     0.014 C 
ENDROOT
BRANCH   1  30
ATOM     30  C   UNL     1      -7.249   5.899  -1.678  1.00  0.00     0.048 C 
ATOM     31  O   UNL     1      -8.134   5.064  -2.008  1.00  0.00    -0.550 OA
ATOM     32  O   UNL     1      -6.257   5.497  -0.789  1.00  0.00    -0.550 OA
ENDBRANCH   1  30
BRANCH  27  33
ATOM     33  O   UNL     1      -4.837   7.947 -11.290  1.00  0.00    -0.393 OA
ATOM     34  H   UNL     1      -4.068   8.376 -11.749  1.00  0.00     0.210 HD
ENDBRANCH  27  33
TORSDOF 2
ENDMDL
MODEL 6
REMARK VINA RESULT:    -2.062      1.746      2.362
REMARK INTER + INTRA:          -2.535
REMARK INTER:                  -3.085
REMARK INTRA:                   0.550
REMARK UNBOUND:                -0.292
REMARK SMILES CC1(C)CC[C@]2(C(=O)[O-])CC[C@]3(C)C(=CC[C@H]4[C@@]5(C)CC[C@H](O)C(C)(C)[C@H]5CC[C@@]43C)[C@@H]2C1
REMARK SMILES IDX 6 1 5 2 10 3 32 4 4 5 11 6 14 7 33 8 2 9 12 10 15 11 1 12
REMARK SMILES IDX 3 13 13 14 30 15 16 16 17 17 29 18 31 19 18 20 28 21 27 22
REMARK SMILES IDX 20 23 19 24 24 25 21 26 22 27 25 28 26 29 7 30 8 31 9 32
REMARK SMILES IDX 23 33
REMARK H PARENT 23 34
REMARK Flexibility Score: inf
ROOT
ATOM      1  C   UNL     1      -9.022   6.241   2.058  1.00  0.00     0.017 C 
ATOM      2  C   UNL     1      -8.840   4.813   2.645  1.00  0.00     0.014 C 
ATOM      3  C   UNL     1      -9.627   6.158   0.624  1.00  0.00     0.014 C 
ATOM      4  C   UNL     1      -7.642   7.010   2.056  1.00  0.00     0.028 C 
ATOM      5  C   UNL     1      -8.235   4.817   4.065  1.00  0.00     0.007 C 
ATOM      6  C   UNL     1      -8.670   5.634  -0.463  1.00  0.00     0.013 C 
ATOM      7  C   UNL     1      -7.191   7.378   0.629  1.00  0.00    -0.064 C 
ATOM      8  C   UNL     1      -6.518   6.342   2.892  1.00  0.00     0.015 C 
ATOM      9  C   UNL     1      -7.012   5.778   4.254  1.00  0.00    -0.035 C 
ATOM     10  C   UNL     1      -7.239   6.304  -0.500  1.00  0.00    -0.006 C 
ATOM     11  C   UNL     1      -7.129   8.708   0.352  1.00  0.00    -0.027 C 
ATOM     12  C   UNL     1      -5.848   4.999   4.905  1.00  0.00     0.011 C 
ATOM     13  C   UNL     1      -7.383   6.939   5.207  1.00  0.00     0.011 C 
ATOM     14  C   UNL     1      -6.200   5.179  -0.189  1.00  0.00     0.017 C 
ATOM     15  C   UNL     1      -6.882   6.955  -1.943  1.00  0.00    -0.020 C 
ATOM     16  C   UNL     1      -7.188   9.307  -1.025  1.00  0.00     0.032 C 
ATOM     17  C   UNL     1      -7.702   8.299  -2.077  1.00  0.00     0.006 C 
ATOM     18  C   UNL     1      -7.200   5.977  -3.131  1.00  0.00     0.008 C 
ATOM     19  C   UNL     1      -5.335   7.226  -1.998  1.00  0.00     0.012 C 
ATOM     20  C   UNL     1      -7.946   8.936  -3.526  1.00  0.00    -0.025 C 
ATOM     21  C   UNL     1      -8.355   6.392  -4.047  1.00  0.00     0.005 C 
ATOM     22  C   UNL     1      -8.255   7.825  -4.625  1.00  0.00     0.003 C 
ATOM     23  C   UNL     1      -6.778   9.880  -3.953  1.00  0.00     0.010 C 
ATOM     24  C   UNL     1      -9.213   9.850  -3.412  1.00  0.00     0.012 C 
ATOM     25  C   UNL     1      -7.489   7.955  -6.007  1.00  0.00    -0.006 C 
ATOM     26  C   UNL     1      -6.833  10.404  -5.397  1.00  0.00     0.033 C 
ATOM     27  C   UNL     1      -7.463   9.453  -6.439  1.00  0.00     0.120 C 
ATOM     28  C   UNL     1      -8.241   7.169  -7.125  1.00  0.00     0.014 C 
ATOM     29  C   UNL     1      -6.047   7.388  -5.979  1.00  0.00     0.014 C 
ENDROOT
BRANCH   1  30
ATOM     30  C   UNL     1     -10.064   7.005   2.879  1.00  0.00     0.048 C 
ATOM     31  O   UNL     1     -10.295   6.703   4.081  1.00  0.00    -0.550 OA
ATOM     32  O   UNL     1     -10.872   7.960   2.269  1.00  0.00    -0.550 OA
ENDBRANCH   1  30
BRANCH  27  33
ATOM     33  O   UNL     1      -8.771   9.887  -6.735  1.00  0.00    -0.393 OA
ATOM     34  H   UNL     1      -8.757  10.259  -7.656  1.00  0.00     0.210 HD
ENDBRANCH  27  33
TORSDOF 2
ENDMDL
MODEL 7
REMARK VINA RESULT:    -1.748      2.351      8.730
REMARK INTER + INTRA:          -2.193
REMARK INTER:                  -1.958
REMARK INTRA:                  -0.235
REMARK UNBOUND:                -0.292
REMARK SMILES CC1(C)CC[C@]2(C(=O)[O-])CC[C@]3(C)C(=CC[C@H]4[C@@]5(C)CC[C@H](O)C(C)(C)[C@H]5CC[C@@]43C)[C@@H]2C1
REMARK SMILES IDX 6 1 5 2 10 3 32 4 4 5 11 6 14 7 33 8 2 9 12 10 15 11 1 12
REMARK SMILES IDX 3 13 13 14 30 15 16 16 17 17 29 18 31 19 18 20 28 21 27 22
REMARK SMILES IDX 20 23 19 24 24 25 21 26 22 27 25 28 26 29 7 30 8 31 9 32
REMARK SMILES IDX 23 33
REMARK H PARENT 23 34
REMARK Flexibility Score: inf
ROOT
ATOM      1  C   UNL     1      -5.176   8.760  -8.639  1.00  0.00     0.017 C 
ATOM      2  C   UNL     1      -4.931   7.609  -9.655  1.00  0.00     0.014 C 
ATOM      3  C   UNL     1      -4.638   8.358  -7.232  1.00  0.00     0.014 C 
ATOM      4  C   UNL     1      -6.713   9.122  -8.584  1.00  0.00     0.028 C 
ATOM      5  C   UNL     1      -5.448   7.934 -11.071  1.00  0.00     0.007 C 
ATOM      6  C   UNL     1      -5.463   7.286  -6.496  1.00  0.00     0.013 C 
ATOM      7  C   UNL     1      -7.313   8.875  -7.187  1.00  0.00    -0.064 C 
ATOM      8  C   UNL     1      -7.570   8.515  -9.726  1.00  0.00     0.015 C 
ATOM      9  C   UNL     1      -6.879   8.573 -11.117  1.00  0.00    -0.035 C 
ATOM     10  C   UNL     1      -7.024   7.534  -6.445  1.00  0.00    -0.006 C 
ATOM     11  C   UNL     1      -7.751   9.980  -6.525  1.00  0.00    -0.027 C 
ATOM     12  C   UNL     1      -7.753   7.793 -12.125  1.00  0.00     0.011 C 
ATOM     13  C   UNL     1      -6.798  10.037 -11.610  1.00  0.00     0.011 C 
ATOM     14  C   UNL     1      -7.698   6.358  -7.220  1.00  0.00     0.017 C 
ATOM     15  C   UNL     1      -7.611   7.563  -4.933  1.00  0.00    -0.020 C 
ATOM     16  C   UNL     1      -7.922  10.084  -5.036  1.00  0.00     0.032 C 
ATOM     17  C   UNL     1      -7.199   8.944  -4.286  1.00  0.00     0.006 C 
ATOM     18  C   UNL     1      -7.091   6.357  -4.070  1.00  0.00     0.008 C 
ATOM     19  C   UNL     1      -9.174   7.413  -5.003  1.00  0.00     0.012 C 
ATOM     20  C   UNL     1      -7.206   9.105  -2.692  1.00  0.00    -0.025 C 
ATOM     21  C   UNL     1      -6.138   6.714  -2.927  1.00  0.00     0.005 C 
ATOM     22  C   UNL     1      -6.655   7.804  -1.956  1.00  0.00     0.003 C 
ATOM     23  C   UNL     1      -8.607   9.538  -2.156  1.00  0.00     0.010 C 
ATOM     24  C   UNL     1      -6.236  10.286  -2.352  1.00  0.00     0.012 C 
ATOM     25  C   UNL     1      -7.489   7.277  -0.715  1.00  0.00    -0.006 C 
ATOM     26  C   UNL     1      -8.765   9.551  -0.626  1.00  0.00     0.033 C 
ATOM     27  C   UNL     1      -7.945   8.494   0.148  1.00  0.00     0.120 C 
ATOM     28  C   UNL     1      -6.602   6.376   0.197  1.00  0.00     0.014 C 
ATOM     29  C   UNL     1      -8.716   6.417  -1.107  1.00  0.00     0.014 C 
ENDROOT
BRANCH   1  30
ATOM     30  C   UNL     1      -4.348   9.984  -9.040  1.00  0.00     0.048 C 
ATOM     31  O   UNL     1      -4.878  11.123  -9.141  1.00  0.00    -0.550 OA
ATOM     32  O   UNL     1      -3.022   9.833  -9.432  1.00  0.00    -0.550 OA
ENDBRANCH   1  30
BRANCH  27  33
ATOM     33  O   UNL     1      -6.823   9.112   0.733  1.00  0.00    -0.393 OA
ATOM     34  H   UNL     1      -6.362   8.425   1.283  1.00  0.00     0.210 HD
ENDBRANCH  27  33
TORSDOF 2
ENDMDL
