MODEL 1
REMARK VINA RESULT:    -4.652      0.000      0.000
REMARK INTER + INTRA:         -11.695
REMARK INTER:                  -9.003
REMARK INTRA:                  -2.692
REMARK UNBOUND:                -2.692
REMARK SMILES CCCCCCCCCCCCCCCCCC(=O)[O-]
REMARK SMILES IDX 10 1 11 2 12 3 13 4 14 5 15 6 16 7 17 8 18 9 19 10 20 11
REMARK SMILES IDX 9 12 8 13 7 14 6 15 5 16 4 17 3 18 2 19 1 20
REMARK H PARENT
REMARK Flexibility Score: inf
ROOT
ATOM      1  C   UNL     1      61.080  28.677  12.163  1.00  0.00     0.000 C 
ENDROOT
BRANCH   1   2
ATOM      2  C   UNL     1      59.664  29.091  12.604  1.00  0.00     0.000 C 
BRANCH   2   3
ATOM      3  C   UNL     1      59.595  30.381  13.441  1.00  0.00     0.000 C 
BRANCH   3   4
ATOM      4  C   UNL     1      59.948  31.638  12.635  1.00  0.00     0.000 C 
BRANCH   4   5
ATOM      5  C   UNL     1      60.305  32.804  13.571  1.00  0.00     0.000 C 
BRANCH   5   6
ATOM      6  C   UNL     1      60.380  32.379  15.047  1.00  0.00     0.000 C 
BRANCH   6   7
ATOM      7  C   UNL     1      60.712  33.550  15.983  1.00  0.00     0.006 C 
BRANCH   7   8
ATOM      8  C   UNL     1      62.064  33.334  16.671  1.00  0.00     0.053 C 
BRANCH   8   9
ATOM      9  C   UNL     1      62.225  34.281  17.818  1.00  0.00     0.041 C 
ATOM     10  O   UNL     1      63.222  35.049  17.872  1.00  0.00    -0.550 OA
ATOM     11  O   UNL     1      61.295  34.288  18.850  1.00  0.00    -0.550 OA
ENDBRANCH   8   9
ENDBRANCH   7   8
ENDBRANCH   6   7
ENDBRANCH   5   6
ENDBRANCH   4   5
ENDBRANCH   3   4
ENDBRANCH   2   3
ENDBRANCH   1   2
BRANCH   1  12
ATOM     12  C   UNL     1      62.048  28.497  13.346  1.00  0.00     0.000 C 
BRANCH  12  13
ATOM     13  C   UNL     1      63.368  29.260  13.142  1.00  0.00    -0.000 C 
BRANCH  13  14
ATOM     14  C   UNL     1      63.489  30.476  14.077  1.00  0.00    -0.000 C 
BRANCH  14  15
ATOM     15  C   UNL     1      63.837  31.777  13.330  1.00  0.00    -0.000 C 
BRANCH  15  16
ATOM     16  C   UNL     1      63.393  31.836  11.853  1.00  0.00    -0.000 C 
BRANCH  16  17
ATOM     17  C   UNL     1      64.532  32.053  10.839  1.00  0.00    -0.000 C 
BRANCH  17  18
ATOM     18  C   UNL     1      64.643  30.932   9.780  1.00  0.00    -0.000 C 
BRANCH  18  19
ATOM     19  C   UNL     1      63.301  30.248   9.472  1.00  0.00    -0.003 C 
ATOM     20  C   UNL     1      63.441  28.743   9.253  1.00  0.00     0.004 C 
ENDBRANCH  18  19
ENDBRANCH  17  18
ENDBRANCH  16  17
ENDBRANCH  15  16
ENDBRANCH  14  15
ENDBRANCH  13  14
ENDBRANCH  12  13
ENDBRANCH   1  12
TORSDOF 16
ENDMDL
MODEL 2
REMARK VINA RESULT:    -4.631      1.214      3.954
REMARK INTER + INTRA:         -11.654
REMARK INTER:                  -9.673
REMARK INTRA:                  -1.981
REMARK UNBOUND:                -2.692
REMARK SMILES CCCCCCCCCCCCCCCCCC(=O)[O-]
REMARK SMILES IDX 10 1 11 2 12 3 13 4 14 5 15 6 16 7 17 8 18 9 19 10 20 11
REMARK SMILES IDX 9 12 8 13 7 14 6 15 5 16 4 17 3 18 2 19 1 20
REMARK H PARENT
REMARK Flexibility Score: inf
ROOT
ATOM      1  C   UNL     1      63.566  31.168  11.084  1.00  0.00     0.000 C 
ENDROOT
BRANCH   1   2
ATOM      2  C   UNL     1      64.137  32.345  11.895  1.00  0.00     0.000 C 
BRANCH   2   3
ATOM      3  C   UNL     1      63.349  32.700  13.169  1.00  0.00     0.000 C 
BRANCH   3   4
ATOM      4  C   UNL     1      62.177  31.746  13.434  1.00  0.00     0.000 C 
BRANCH   4   5
ATOM      5  C   UNL     1      60.833  32.468  13.254  1.00  0.00     0.000 C 
BRANCH   5   6
ATOM      6  C   UNL     1      59.987  32.474  14.538  1.00  0.00     0.000 C 
BRANCH   6   7
ATOM      7  C   UNL     1      60.412  33.575  15.521  1.00  0.00     0.006 C 
BRANCH   7   8
ATOM      8  C   UNL     1      61.067  32.973  16.768  1.00  0.00     0.053 C 
BRANCH   8   9
ATOM      9  C   UNL     1      61.940  33.984  17.443  1.00  0.00     0.041 C 
ATOM     10  O   UNL     1      61.559  34.543  18.505  1.00  0.00    -0.550 OA
ATOM     11  O   UNL     1      63.158  34.337  16.877  1.00  0.00    -0.550 OA
ENDBRANCH   8   9
ENDBRANCH   7   8
ENDBRANCH   6   7
ENDBRANCH   5   6
ENDBRANCH   4   5
ENDBRANCH   3   4
ENDBRANCH   2   3
ENDBRANCH   1   2
BRANCH   1  12
ATOM     12  C   UNL     1      64.298  30.947   9.749  1.00  0.00     0.000 C 
BRANCH  12  13
ATOM     13  C   UNL     1      63.863  29.647   9.051  1.00  0.00    -0.000 C 
BRANCH  13  14
ATOM     14  C   UNL     1      62.966  28.775   9.947  1.00  0.00    -0.000 C 
BRANCH  14  15
ATOM     15  C   UNL     1      61.629  28.405   9.281  1.00  0.00    -0.000 C 
BRANCH  15  16
ATOM     16  C   UNL     1      60.442  29.335   9.608  1.00  0.00    -0.000 C 
BRANCH  16  17
ATOM     17  C   UNL     1      60.206  29.588  11.109  1.00  0.00    -0.000 C 
BRANCH  17  18
ATOM     18  C   UNL     1      59.217  28.594  11.759  1.00  0.00    -0.000 C 
BRANCH  18  19
ATOM     19  C   UNL     1      59.792  27.876  12.991  1.00  0.00    -0.003 C 
ATOM     20  C   UNL     1      61.232  28.284  13.296  1.00  0.00     0.004 C 
ENDBRANCH  18  19
ENDBRANCH  17  18
ENDBRANCH  16  17
ENDBRANCH  15  16
ENDBRANCH  14  15
ENDBRANCH  13  14
ENDBRANCH  12  13
ENDBRANCH   1  12
TORSDOF 16
ENDMDL
MODEL 3
REMARK VINA RESULT:    -4.629      3.587      6.378
REMARK INTER + INTRA:         -11.650
REMARK INTER:                  -8.973
REMARK INTRA:                  -2.677
REMARK UNBOUND:                -2.692
REMARK SMILES CCCCCCCCCCCCCCCCCC(=O)[O-]
REMARK SMILES IDX 10 1 11 2 12 3 13 4 14 5 15 6 16 7 17 8 18 9 19 10 20 11
REMARK SMILES IDX 9 12 8 13 7 14 6 15 5 16 4 17 3 18 2 19 1 20
REMARK H PARENT
REMARK Flexibility Score: inf
ROOT
ATOM      1  C   UNL     1      62.708  29.239  13.314  1.00  0.00     0.000 C 
ENDROOT
BRANCH   1   2
ATOM      2  C   UNL     1      61.691  28.194  12.817  1.00  0.00     0.000 C 
BRANCH   2   3
ATOM      3  C   UNL     1      60.297  28.285  13.465  1.00  0.00     0.000 C 
BRANCH   3   4
ATOM      4  C   UNL     1      59.159  28.323  12.436  1.00  0.00     0.000 C 
BRANCH   4   5
ATOM      5  C   UNL     1      59.555  29.168  11.215  1.00  0.00     0.000 C 
BRANCH   5   6
ATOM      6  C   UNL     1      59.575  28.353   9.912  1.00  0.00     0.000 C 
BRANCH   6   7
ATOM      7  C   UNL     1      60.909  28.474   9.160  1.00  0.00     0.006 C 
BRANCH   7   8
ATOM      8  C   UNL     1      61.631  29.774   9.533  1.00  0.00     0.053 C 
BRANCH   8   9
ATOM      9  C   UNL     1      63.103  29.642   9.298  1.00  0.00     0.041 C 
ATOM     10  O   UNL     1      63.841  30.662   9.308  1.00  0.00    -0.550 OA
ATOM     11  O   UNL     1      63.655  28.396   9.029  1.00  0.00    -0.550 OA
ENDBRANCH   8   9
ENDBRANCH   7   8
ENDBRANCH   6   7
ENDBRANCH   5   6
ENDBRANCH   4   5
ENDBRANCH   3   4
ENDBRANCH   2   3
ENDBRANCH   1   2
BRANCH   1  12
ATOM     12  C   UNL     1      62.041  30.496  13.897  1.00  0.00     0.000 C 
BRANCH  12  13
ATOM     13  C   UNL     1      61.844  31.597  12.840  1.00  0.00    -0.000 C 
BRANCH  13  14
ATOM     14  C   UNL     1      60.504  32.335  13.009  1.00  0.00    -0.000 C 
BRANCH  14  15
ATOM     15  C   UNL     1      59.897  32.165  14.413  1.00  0.00    -0.000 C 
BRANCH  15  16
ATOM     16  C   UNL     1      60.219  33.290  15.419  1.00  0.00    -0.000 C 
BRANCH  16  17
ATOM     17  C   UNL     1      61.356  32.973  16.409  1.00  0.00    -0.000 C 
BRANCH  17  18
ATOM     18  C   UNL     1      62.612  33.854  16.215  1.00  0.00    -0.000 C 
BRANCH  18  19
ATOM     19  C   UNL     1      63.838  33.069  15.720  1.00  0.00    -0.003 C 
ATOM     20  C   UNL     1      64.516  33.725  14.519  1.00  0.00     0.004 C 
ENDBRANCH  18  19
ENDBRANCH  17  18
ENDBRANCH  16  17
ENDBRANCH  15  16
ENDBRANCH  14  15
ENDBRANCH  13  14
ENDBRANCH  12  13
ENDBRANCH   1  12
TORSDOF 16
ENDMDL
MODEL 4
REMARK VINA RESULT:    -4.602      1.428      3.097
REMARK INTER + INTRA:         -11.598
REMARK INTER:                  -9.393
REMARK INTRA:                  -2.205
REMARK UNBOUND:                -2.692
REMARK SMILES CCCCCCCCCCCCCCCCCC(=O)[O-]
REMARK SMILES IDX 10 1 11 2 12 3 13 4 14 5 15 6 16 7 17 8 18 9 19 10 20 11
REMARK SMILES IDX 9 12 8 13 7 14 6 15 5 16 4 17 3 18 2 19 1 20
REMARK H PARENT
REMARK Flexibility Score: inf
ROOT
ATOM      1  C   UNL     1      62.150  30.510  13.615  1.00  0.00     0.000 C 
ENDROOT
BRANCH   1   2
ATOM      2  C   UNL     1      61.696  31.611  12.638  1.00  0.00     0.000 C 
BRANCH   2   3
ATOM      3  C   UNL     1      60.402  32.343  13.040  1.00  0.00     0.000 C 
BRANCH   3   4
ATOM      4  C   UNL     1      60.016  32.115  14.508  1.00  0.00     0.000 C 
BRANCH   4   5
ATOM      5  C   UNL     1      60.215  33.398  15.331  1.00  0.00     0.000 C 
BRANCH   5   6
ATOM      6  C   UNL     1      61.683  33.627  15.726  1.00  0.00     0.000 C 
BRANCH   6   7
ATOM      7  C   UNL     1      62.186  32.600  16.751  1.00  0.00     0.006 C 
BRANCH   7   8
ATOM      8  C   UNL     1      63.061  33.271  17.815  1.00  0.00     0.053 C 
BRANCH   8   9
ATOM      9  C   UNL     1      62.265  33.544  19.052  1.00  0.00     0.041 C 
ATOM     10  O   UNL     1      62.844  33.892  20.115  1.00  0.00    -0.550 OA
ATOM     11  O   UNL     1      60.886  33.376  19.043  1.00  0.00    -0.550 OA
ENDBRANCH   8   9
ENDBRANCH   7   8
ENDBRANCH   6   7
ENDBRANCH   5   6
ENDBRANCH   4   5
ENDBRANCH   3   4
ENDBRANCH   2   3
ENDBRANCH   1   2
BRANCH   1  12
ATOM     12  C   UNL     1      61.866  29.091  13.094  1.00  0.00     0.000 C 
BRANCH  12  13
ATOM     13  C   UNL     1      60.565  28.506  13.671  1.00  0.00    -0.000 C 
BRANCH  13  14
ATOM     14  C   UNL     1      59.573  28.091  12.570  1.00  0.00    -0.000 C 
BRANCH  14  15
ATOM     15  C   UNL     1      59.451  29.136  11.446  1.00  0.00    -0.000 C 
BRANCH  15  16
ATOM     16  C   UNL     1      59.418  28.571  10.011  1.00  0.00    -0.000 C 
BRANCH  16  17
ATOM     17  C   UNL     1      60.718  27.880   9.552  1.00  0.00    -0.000 C 
BRANCH  17  18
ATOM     18  C   UNL     1      61.786  28.861   9.018  1.00  0.00    -0.000 C 
BRANCH  18  19
ATOM     19  C   UNL     1      63.144  28.731   9.726  1.00  0.00    -0.003 C 
ATOM     20  C   UNL     1      63.789  30.083  10.025  1.00  0.00     0.004 C 
ENDBRANCH  18  19
ENDBRANCH  17  18
ENDBRANCH  16  17
ENDBRANCH  15  16
ENDBRANCH  14  15
ENDBRANCH  13  14
ENDBRANCH  12  13
ENDBRANCH   1  12
TORSDOF 16
ENDMDL
MODEL 5
REMARK VINA RESULT:    -4.492      1.522      2.821
REMARK INTER + INTRA:         -11.386
REMARK INTER:                  -9.095
REMARK INTRA:                  -2.290
REMARK UNBOUND:                -2.692
REMARK SMILES CCCCCCCCCCCCCCCCCC(=O)[O-]
REMARK SMILES IDX 10 1 11 2 12 3 13 4 14 5 15 6 16 7 17 8 18 9 19 10 20 11
REMARK SMILES IDX 9 12 8 13 7 14 6 15 5 16 4 17 3 18 2 19 1 20
REMARK H PARENT
REMARK Flexibility Score: inf
ROOT
ATOM      1  C   UNL     1      59.631  30.984  12.672  1.00  0.00     0.000 C 
ENDROOT
BRANCH   1   2
ATOM      2  C   UNL     1      60.753  31.921  13.156  1.00  0.00     0.000 C 
BRANCH   2   3
ATOM      3  C   UNL     1      60.285  33.096  14.034  1.00  0.00     0.000 C 
BRANCH   3   4
ATOM      4  C   UNL     1      60.730  32.965  15.497  1.00  0.00     0.000 C 
BRANCH   4   5
ATOM      5  C   UNL     1      62.127  32.332  15.588  1.00  0.00     0.000 C 
BRANCH   5   6
ATOM      6  C   UNL     1      63.255  33.376  15.542  1.00  0.00     0.000 C 
BRANCH   6   7
ATOM      7  C   UNL     1      63.330  34.222  16.821  1.00  0.00     0.006 C 
BRANCH   7   8
ATOM      8  C   UNL     1      63.441  33.329  18.062  1.00  0.00     0.053 C 
BRANCH   8   9
ATOM      9  C   UNL     1      62.474  33.772  19.115  1.00  0.00     0.041 C 
ATOM     10  O   UNL     1      61.330  34.186  18.791  1.00  0.00    -0.550 OA
ATOM     11  O   UNL     1      62.851  33.764  20.451  1.00  0.00    -0.550 OA
ENDBRANCH   8   9
ENDBRANCH   7   8
ENDBRANCH   6   7
ENDBRANCH   5   6
ENDBRANCH   4   5
ENDBRANCH   3   4
ENDBRANCH   2   3
ENDBRANCH   1   2
BRANCH   1  12
ATOM     12  C   UNL     1      59.829  29.527  13.124  1.00  0.00     0.000 C 
BRANCH  12  13
ATOM     13  C   UNL     1      61.079  29.352  14.003  1.00  0.00    -0.000 C 
BRANCH  13  14
ATOM     14  C   UNL     1      62.162  28.503  13.315  1.00  0.00    -0.000 C 
BRANCH  14  15
ATOM     15  C   UNL     1      63.386  29.329  12.877  1.00  0.00    -0.000 C 
BRANCH  15  16
ATOM     16  C   UNL     1      63.335  29.884  11.438  1.00  0.00    -0.000 C 
BRANCH  16  17
ATOM     17  C   UNL     1      63.039  28.838  10.346  1.00  0.00    -0.000 C 
BRANCH  17  18
ATOM     18  C   UNL     1      61.773  29.149   9.516  1.00  0.00    -0.000 C 
BRANCH  18  19
ATOM     19  C   UNL     1      60.740  28.010   9.527  1.00  0.00    -0.003 C 
ATOM     20  C   UNL     1      59.303  28.516   9.638  1.00  0.00     0.004 C 
ENDBRANCH  18  19
ENDBRANCH  17  18
ENDBRANCH  16  17
ENDBRANCH  15  16
ENDBRANCH  14  15
ENDBRANCH  13  14
ENDBRANCH  12  13
ENDBRANCH   1  12
TORSDOF 16
ENDMDL
MODEL 6
REMARK VINA RESULT:    -4.491      1.332      3.167
REMARK INTER + INTRA:         -11.383
REMARK INTER:                  -8.910
REMARK INTRA:                  -2.473
REMARK UNBOUND:                -2.692
REMARK SMILES CCCCCCCCCCCCCCCCCC(=O)[O-]
REMARK SMILES IDX 10 1 11 2 12 3 13 4 14 5 15 6 16 7 17 8 18 9 19 10 20 11
REMARK SMILES IDX 9 12 8 13 7 14 6 15 5 16 4 17 3 18 2 19 1 20
REMARK H PARENT
REMARK Flexibility Score: inf
ROOT
ATOM      1  C   UNL     1      62.599  30.155  14.506  1.00  0.00     0.000 C 
ENDROOT
BRANCH   1   2
ATOM      2  C   UNL     1      61.195  29.741  14.985  1.00  0.00     0.000 C 
BRANCH   2   3
ATOM      3  C   UNL     1      60.266  30.909  15.363  1.00  0.00     0.000 C 
BRANCH   3   4
ATOM      4  C   UNL     1      59.817  31.734  14.149  1.00  0.00     0.000 C 
BRANCH   4   5
ATOM      5  C   UNL     1      60.366  33.167  14.228  1.00  0.00     0.000 C 
BRANCH   5   6
ATOM      6  C   UNL     1      60.943  33.505  15.613  1.00  0.00     0.000 C 
BRANCH   6   7
ATOM      7  C   UNL     1      62.477  33.581  15.610  1.00  0.00     0.006 C 
BRANCH   7   8
ATOM      8  C   UNL     1      63.051  33.110  16.951  1.00  0.00     0.053 C 
BRANCH   8   9
ATOM      9  C   UNL     1      62.871  34.163  17.998  1.00  0.00     0.041 C 
ATOM     10  O   UNL     1      61.989  34.028  18.888  1.00  0.00    -0.550 OA
ATOM     11  O   UNL     1      63.649  35.312  17.969  1.00  0.00    -0.550 OA
ENDBRANCH   8   9
ENDBRANCH   7   8
ENDBRANCH   6   7
ENDBRANCH   5   6
ENDBRANCH   4   5
ENDBRANCH   3   4
ENDBRANCH   2   3
ENDBRANCH   1   2
BRANCH   1  12
ATOM     12  C   UNL     1      62.888  29.726  13.057  1.00  0.00     0.000 C 
BRANCH  12  13
ATOM     13  C   UNL     1      62.989  30.926  12.100  1.00  0.00    -0.000 C 
BRANCH  13  14
ATOM     14  C   UNL     1      63.391  30.505  10.676  1.00  0.00    -0.000 C 
BRANCH  14  15
ATOM     15  C   UNL     1      63.152  29.009  10.401  1.00  0.00    -0.000 C 
BRANCH  15  16
ATOM     16  C   UNL     1      62.124  28.691   9.295  1.00  0.00    -0.000 C 
BRANCH  16  17
ATOM     17  C   UNL     1      60.831  28.010   9.784  1.00  0.00    -0.000 C 
BRANCH  17  18
ATOM     18  C   UNL     1      59.690  29.003  10.105  1.00  0.00    -0.000 C 
BRANCH  18  19
ATOM     19  C   UNL     1      59.439  29.178  11.611  1.00  0.00    -0.003 C 
ATOM     20  C   UNL     1      59.729  27.910  12.412  1.00  0.00     0.004 C 
ENDBRANCH  18  19
ENDBRANCH  17  18
ENDBRANCH  16  17
ENDBRANCH  15  16
ENDBRANCH  14  15
ENDBRANCH  13  14
ENDBRANCH  12  13
ENDBRANCH   1  12
TORSDOF 16
ENDMDL
MODEL 7
REMARK VINA RESULT:    -4.482      1.360      4.309
REMARK INTER + INTRA:         -11.365
REMARK INTER:                  -8.611
REMARK INTRA:                  -2.754
REMARK UNBOUND:                -2.692
REMARK SMILES CCCCCCCCCCCCCCCCCC(=O)[O-]
REMARK SMILES IDX 10 1 11 2 12 3 13 4 14 5 15 6 16 7 17 8 18 9 19 10 20 11
REMARK SMILES IDX 9 12 8 13 7 14 6 15 5 16 4 17 3 18 2 19 1 20
REMARK H PARENT
REMARK Flexibility Score: inf
ROOT
ATOM      1  C   UNL     1      63.021  28.919  10.655  1.00  0.00     0.000 C 
ENDROOT
BRANCH   1   2
ATOM      2  C   UNL     1      63.390  29.793  11.868  1.00  0.00     0.000 C 
BRANCH   2   3
ATOM      3  C   UNL     1      63.398  31.308  11.598  1.00  0.00     0.000 C 
BRANCH   3   4
ATOM      4  C   UNL     1      63.544  32.144  12.878  1.00  0.00     0.000 C 
BRANCH   4   5
ATOM      5  C   UNL     1      63.800  31.240  14.094  1.00  0.00     0.000 C 
BRANCH   5   6
ATOM      6  C   UNL     1      62.868  31.558  15.275  1.00  0.00     0.000 C 
BRANCH   6   7
ATOM      7  C   UNL     1      62.769  33.064  15.560  1.00  0.00     0.006 C 
BRANCH   7   8
ATOM      8  C   UNL     1      62.918  33.349  17.059  1.00  0.00     0.053 C 
BRANCH   8   9
ATOM      9  C   UNL     1      61.654  33.930  17.610  1.00  0.00     0.041 C 
ATOM     10  O   UNL     1      60.674  34.153  16.850  1.00  0.00    -0.550 OA
ATOM     11  O   UNL     1      61.571  34.264  18.955  1.00  0.00    -0.550 OA
ENDBRANCH   8   9
ENDBRANCH   7   8
ENDBRANCH   6   7
ENDBRANCH   5   6
ENDBRANCH   4   5
ENDBRANCH   3   4
ENDBRANCH   2   3
ENDBRANCH   1   2
BRANCH   1  12
ATOM     12  C   UNL     1      62.545  29.741   9.445  1.00  0.00     0.000 C 
BRANCH  12  13
ATOM     13  C   UNL     1      61.080  29.452   9.080  1.00  0.00    -0.000 C 
BRANCH  13  14
ATOM     14  C   UNL     1      60.532  28.209   9.804  1.00  0.00    -0.000 C 
BRANCH  14  15
ATOM     15  C   UNL     1      59.402  28.541  10.796  1.00  0.00    -0.000 C 
BRANCH  15  16
ATOM     16  C   UNL     1      59.716  28.262  12.281  1.00  0.00    -0.000 C 
BRANCH  16  17
ATOM     17  C   UNL     1      60.004  29.513  13.133  1.00  0.00    -0.000 C 
BRANCH  17  18
ATOM     18  C   UNL     1      59.823  30.842  12.364  1.00  0.00    -0.000 C 
BRANCH  18  19
ATOM     19  C   UNL     1      59.894  32.085  13.267  1.00  0.00    -0.003 C 
ATOM     20  C   UNL     1      59.193  31.883  14.608  1.00  0.00     0.004 C 
ENDBRANCH  18  19
ENDBRANCH  17  18
ENDBRANCH  16  17
ENDBRANCH  15  16
ENDBRANCH  14  15
ENDBRANCH  13  14
ENDBRANCH  12  13
ENDBRANCH   1  12
TORSDOF 16
ENDMDL
MODEL 8
REMARK VINA RESULT:    -4.473     10.151     13.664
REMARK INTER + INTRA:         -11.348
REMARK INTER:                  -8.763
REMARK INTRA:                  -2.585
REMARK UNBOUND:                -2.692
REMARK SMILES CCCCCCCCCCCCCCCCCC(=O)[O-]
REMARK SMILES IDX 10 1 11 2 12 3 13 4 14 5 15 6 16 7 17 8 18 9 19 10 20 11
REMARK SMILES IDX 9 12 8 13 7 14 6 15 5 16 4 17 3 18 2 19 1 20
REMARK H PARENT
REMARK Flexibility Score: inf
ROOT
ATOM      1  C   UNL     1      61.507  29.167  24.903  1.00  0.00     0.000 C 
ENDROOT
BRANCH   1   2
ATOM      2  C   UNL     1      62.022  27.800  24.416  1.00  0.00     0.000 C 
BRANCH   2   3
ATOM      3  C   UNL     1      62.437  26.826  25.534  1.00  0.00     0.000 C 
BRANCH   3   4
ATOM      4  C   UNL     1      63.317  25.675  25.029  1.00  0.00     0.000 C 
BRANCH   4   5
ATOM      5  C   UNL     1      64.752  26.158  24.768  1.00  0.00     0.000 C 
BRANCH   5   6
ATOM      6  C   UNL     1      65.257  25.787  23.364  1.00  0.00     0.000 C 
BRANCH   6   7
ATOM      7  C   UNL     1      65.099  26.935  22.357  1.00  0.00     0.006 C 
BRANCH   7   8
ATOM      8  C   UNL     1      66.451  27.317  21.745  1.00  0.00     0.053 C 
BRANCH   8   9
ATOM      9  C   UNL     1      66.513  26.899  20.309  1.00  0.00     0.041 C 
ATOM     10  O   UNL     1      66.924  27.704  19.431  1.00  0.00    -0.550 OA
ATOM     11  O   UNL     1      66.080  25.634  19.934  1.00  0.00    -0.550 OA
ENDBRANCH   8   9
ENDBRANCH   7   8
ENDBRANCH   6   7
ENDBRANCH   5   6
ENDBRANCH   4   5
ENDBRANCH   3   4
ENDBRANCH   2   3
ENDBRANCH   1   2
BRANCH   1  12
ATOM     12  C   UNL     1      62.641  30.143  25.263  1.00  0.00     0.000 C 
BRANCH  12  13
ATOM     13  C   UNL     1      63.869  29.973  24.352  1.00  0.00    -0.000 C 
BRANCH  13  14
ATOM     14  C   UNL     1      65.170  29.794  25.154  1.00  0.00    -0.000 C 
BRANCH  14  15
ATOM     15  C   UNL     1      64.925  29.338  26.604  1.00  0.00    -0.000 C 
BRANCH  15  16
ATOM     16  C   UNL     1      65.136  30.417  27.686  1.00  0.00    -0.000 C 
BRANCH  16  17
ATOM     17  C   UNL     1      64.428  30.141  29.027  1.00  0.00    -0.000 C 
BRANCH  17  18
ATOM     18  C   UNL     1      63.238  29.161  28.911  1.00  0.00    -0.000 C 
BRANCH  18  19
ATOM     19  C   UNL     1      61.873  29.864  28.838  1.00  0.00    -0.003 C 
ATOM     20  C   UNL     1      60.727  28.902  28.533  1.00  0.00     0.004 C 
ENDBRANCH  18  19
ENDBRANCH  17  18
ENDBRANCH  16  17
ENDBRANCH  15  16
ENDBRANCH  14  15
ENDBRANCH  13  14
ENDBRANCH  12  13
ENDBRANCH   1  12
TORSDOF 16
ENDMDL
MODEL 9
REMARK VINA RESULT:    -4.441      3.074      6.194
REMARK INTER + INTRA:         -11.286
REMARK INTER:                  -8.939
REMARK INTRA:                  -2.347
REMARK UNBOUND:                -2.692
REMARK SMILES CCCCCCCCCCCCCCCCCC(=O)[O-]
REMARK SMILES IDX 10 1 11 2 12 3 13 4 14 5 15 6 16 7 17 8 18 9 19 10 20 11
REMARK SMILES IDX 9 12 8 13 7 14 6 15 5 16 4 17 3 18 2 19 1 20
REMARK H PARENT
REMARK Flexibility Score: inf
ROOT
ATOM      1  C   UNL     1      63.377  30.020  14.090  1.00  0.00     0.000 C 
ENDROOT
BRANCH   1   2
ATOM      2  C   UNL     1      63.130  29.450  12.681  1.00  0.00     0.000 C 
BRANCH   2   3
ATOM      3  C   UNL     1      63.229  30.476  11.538  1.00  0.00     0.000 C 
BRANCH   3   4
ATOM      4  C   UNL     1      63.742  29.865  10.227  1.00  0.00     0.000 C 
BRANCH   4   5
ATOM      5  C   UNL     1      62.863  28.679   9.797  1.00  0.00     0.000 C 
BRANCH   5   6
ATOM      6  C   UNL     1      61.415  29.095   9.490  1.00  0.00     0.000 C 
BRANCH   6   7
ATOM      7  C   UNL     1      60.384  28.247  10.249  1.00  0.00     0.006 C 
BRANCH   7   8
ATOM      8  C   UNL     1      59.650  29.087  11.299  1.00  0.00     0.053 C 
BRANCH   8   9
ATOM      9  C   UNL     1      59.294  28.249  12.487  1.00  0.00     0.041 C 
ATOM     10  O   UNL     1      58.123  27.807  12.623  1.00  0.00    -0.550 OA
ATOM     11  O   UNL     1      60.246  27.991  13.465  1.00  0.00    -0.550 OA
ENDBRANCH   8   9
ENDBRANCH   7   8
ENDBRANCH   6   7
ENDBRANCH   5   6
ENDBRANCH   4   5
ENDBRANCH   3   4
ENDBRANCH   2   3
ENDBRANCH   1   2
BRANCH   1  12
ATOM     12  C   UNL     1      63.745  31.514  14.077  1.00  0.00     0.000 C 
BRANCH  12  13
ATOM     13  C   UNL     1      63.845  32.104  15.494  1.00  0.00    -0.000 C 
BRANCH  13  14
ATOM     14  C   UNL     1      63.308  33.544  15.566  1.00  0.00    -0.000 C 
BRANCH  14  15
ATOM     15  C   UNL     1      62.656  33.876  16.921  1.00  0.00    -0.000 C 
BRANCH  15  16
ATOM     16  C   UNL     1      61.126  33.687  16.988  1.00  0.00    -0.000 C 
BRANCH  16  17
ATOM     17  C   UNL     1      60.443  33.411  15.635  1.00  0.00    -0.000 C 
BRANCH  17  18
ATOM     18  C   UNL     1      60.001  31.941  15.451  1.00  0.00    -0.000 C 
BRANCH  18  19
ATOM     19  C   UNL     1      59.573  31.607  14.013  1.00  0.00    -0.003 C 
ATOM     20  C   UNL     1      60.373  32.375  12.963  1.00  0.00     0.004 C 
ENDBRANCH  18  19
ENDBRANCH  17  18
ENDBRANCH  16  17
ENDBRANCH  15  16
ENDBRANCH  14  15
ENDBRANCH  13  14
ENDBRANCH  12  13
ENDBRANCH   1  12
TORSDOF 16
ENDMDL
