MODEL 1
REMARK VINA RESULT:    -4.356      0.000      0.000
REMARK INTER + INTRA:          -9.188
REMARK INTER:                  -7.920
REMARK INTRA:                  -1.268
REMARK UNBOUND:                -1.268
REMARK SMILES CCCCCCCCCCCCCCCC(=O)[O-]
REMARK SMILES IDX 9 1 10 2 11 3 12 4 13 5 14 6 15 7 16 8 17 9 18 10 8 11 7 12
REMARK SMILES IDX 6 13 5 14 4 15 3 16 2 17 1 18
REMARK H PARENT
REMARK Flexibility Score: inf
ROOT
ATOM      1  C   UNL     1      15.714  12.056  16.838  1.00  0.00     0.000 C 
ENDROOT
BRANCH   1   2
ATOM      2  C   UNL     1      14.396  12.023  16.044  1.00  0.00     0.000 C 
BRANCH   2   3
ATOM      3  C   UNL     1      14.562  11.363  14.658  1.00  0.00     0.000 C 
BRANCH   3   4
ATOM      4  C   UNL     1      13.493  11.794  13.637  1.00  0.00     0.000 C 
BRANCH   4   5
ATOM      5  C   UNL     1      12.478  10.699  13.258  1.00  0.00     0.000 C 
BRANCH   5   6
ATOM      6  C   UNL     1      11.644  10.991  11.992  1.00  0.00     0.006 C 
BRANCH   6   7
ATOM      7  C   UNL     1      12.136  10.274  10.725  1.00  0.00     0.053 C 
BRANCH   7   8
ATOM      8  C   UNL     1      12.688  11.231   9.715  1.00  0.00     0.041 C 
ATOM      9  O   UNL     1      12.797  10.887   8.508  1.00  0.00    -0.550 OA
ATOM     10  O   UNL     1      13.114  12.493  10.112  1.00  0.00    -0.550 OA
ENDBRANCH   7   8
ENDBRANCH   6   7
ENDBRANCH   5   6
ENDBRANCH   4   5
ENDBRANCH   3   4
ENDBRANCH   2   3
ENDBRANCH   1   2
BRANCH   1  11
ATOM     11  C   UNL     1      15.489  12.082  18.358  1.00  0.00     0.000 C 
BRANCH  11  12
ATOM     12  C   UNL     1      16.798  12.209  19.151  1.00  0.00    -0.000 C 
BRANCH  12  13
ATOM     13  C   UNL     1      17.967  12.577  18.225  1.00  0.00    -0.000 C 
BRANCH  13  14
ATOM     14  C   UNL     1      19.082  11.519  18.223  1.00  0.00    -0.000 C 
BRANCH  14  15
ATOM     15  C   UNL     1      19.697  11.311  16.828  1.00  0.00    -0.000 C 
BRANCH  15  16
ATOM     16  C   UNL     1      19.217  12.357  15.810  1.00  0.00    -0.000 C 
BRANCH  16  17
ATOM     17  C   UNL     1      18.564  11.725  14.572  1.00  0.00    -0.003 C 
ATOM     18  C   UNL     1      17.951  12.791  13.670  1.00  0.00     0.004 C 
ENDBRANCH  16  17
ENDBRANCH  15  16
ENDBRANCH  14  15
ENDBRANCH  13  14
ENDBRANCH  12  13
ENDBRANCH  11  12
ENDBRANCH   1  11
TORSDOF 14
ENDMDL
MODEL 2
REMARK VINA RESULT:    -4.166      3.858      8.515
REMARK INTER + INTRA:          -8.844
REMARK INTER:                  -7.848
REMARK INTRA:                  -0.996
REMARK UNBOUND:                -1.268
REMARK SMILES CCCCCCCCCCCCCCCC(=O)[O-]
REMARK SMILES IDX 9 1 10 2 11 3 12 4 13 5 14 6 15 7 16 8 17 9 18 10 8 11 7 12
REMARK SMILES IDX 6 13 5 14 4 15 3 16 2 17 1 18
REMARK H PARENT
REMARK Flexibility Score: inf
ROOT
ATOM      1  C   UNL     1      12.700  11.227  13.510  1.00  0.00     0.000 C 
ENDROOT
BRANCH   1   2
ATOM      2  C   UNL     1      13.907  12.039  14.010  1.00  0.00     0.000 C 
BRANCH   2   3
ATOM      3  C   UNL     1      14.873  11.189  14.864  1.00  0.00     0.000 C 
BRANCH   3   4
ATOM      4  C   UNL     1      16.119  11.960  15.340  1.00  0.00     0.000 C 
BRANCH   4   5
ATOM      5  C   UNL     1      17.319  11.912  14.377  1.00  0.00     0.000 C 
BRANCH   5   6
ATOM      6  C   UNL     1      18.704  11.917  15.059  1.00  0.00     0.006 C 
BRANCH   6   7
ATOM      7  C   UNL     1      18.776  12.747  16.351  1.00  0.00     0.053 C 
BRANCH   7   8
ATOM      8  C   UNL     1      19.054  11.897  17.552  1.00  0.00     0.041 C 
ATOM      9  O   UNL     1      18.193  11.786  18.464  1.00  0.00    -0.550 OA
ATOM     10  O   UNL     1      20.279  11.253  17.680  1.00  0.00    -0.550 OA
ENDBRANCH   7   8
ENDBRANCH   6   7
ENDBRANCH   5   6
ENDBRANCH   4   5
ENDBRANCH   3   4
ENDBRANCH   2   3
ENDBRANCH   1   2
BRANCH   1  11
ATOM     11  C   UNL     1      12.278  11.611  12.083  1.00  0.00     0.000 C 
BRANCH  11  12
ATOM     12  C   UNL     1      12.270  10.413  11.122  1.00  0.00    -0.000 C 
BRANCH  12  13
ATOM     13  C   UNL     1      12.194  10.882   9.661  1.00  0.00    -0.000 C 
BRANCH  13  14
ATOM     14  C   UNL     1      12.388  12.399   9.511  1.00  0.00    -0.000 C 
BRANCH  14  15
ATOM     15  C   UNL     1      11.268  13.060   8.689  1.00  0.00    -0.000 C 
BRANCH  15  16
ATOM     16  C   UNL     1      10.740  14.348   9.340  1.00  0.00    -0.000 C 
BRANCH  16  17
ATOM     17  C   UNL     1      11.673  14.886  10.434  1.00  0.00    -0.003 C 
ATOM     18  C   UNL     1      10.920  15.090  11.745  1.00  0.00     0.004 C 
ENDBRANCH  16  17
ENDBRANCH  15  16
ENDBRANCH  14  15
ENDBRANCH  13  14
ENDBRANCH  12  13
ENDBRANCH  11  12
ENDBRANCH   1  11
TORSDOF 14
ENDMDL
MODEL 3
REMARK VINA RESULT:    -4.120      1.502      2.110
REMARK INTER + INTRA:          -8.759
REMARK INTER:                  -7.698
REMARK INTRA:                  -1.060
REMARK UNBOUND:                -1.268
REMARK SMILES CCCCCCCCCCCCCCCC(=O)[O-]
REMARK SMILES IDX 9 1 10 2 11 3 12 4 13 5 14 6 15 7 16 8 17 9 18 10 8 11 7 12
REMARK SMILES IDX 6 13 5 14 4 15 3 16 2 17 1 18
REMARK H PARENT
REMARK Flexibility Score: inf
ROOT
ATOM      1  C   UNL     1      14.592  11.938  16.523  1.00  0.00     0.000 C 
ENDROOT
BRANCH   1   2
ATOM      2  C   UNL     1      14.793  11.834  15.001  1.00  0.00     0.000 C 
BRANCH   2   3
ATOM      3  C   UNL     1      13.869  10.777  14.358  1.00  0.00     0.000 C 
BRANCH   3   4
ATOM      4  C   UNL     1      12.663  11.380  13.614  1.00  0.00     0.000 C 
BRANCH   4   5
ATOM      5  C   UNL     1      12.348  10.732  12.254  1.00  0.00     0.000 C 
BRANCH   5   6
ATOM      6  C   UNL     1      11.914  11.715  11.146  1.00  0.00     0.006 C 
BRANCH   6   7
ATOM      7  C   UNL     1      10.849  12.734  11.579  1.00  0.00     0.053 C 
BRANCH   7   8
ATOM      8  C   UNL     1      11.319  14.146  11.414  1.00  0.00     0.041 C 
ATOM      9  O   UNL     1      10.768  15.078  12.057  1.00  0.00    -0.550 OA
ATOM     10  O   UNL     1      12.346  14.438  10.523  1.00  0.00    -0.550 OA
ENDBRANCH   7   8
ENDBRANCH   6   7
ENDBRANCH   5   6
ENDBRANCH   4   5
ENDBRANCH   3   4
ENDBRANCH   2   3
ENDBRANCH   1   2
BRANCH   1  11
ATOM     11  C   UNL     1      15.881  12.327  17.266  1.00  0.00     0.000 C 
BRANCH  11  12
ATOM     12  C   UNL     1      15.854  11.935  18.750  1.00  0.00    -0.000 C 
BRANCH  12  13
ATOM     13  C   UNL     1      17.275  11.896  19.333  1.00  0.00    -0.000 C 
BRANCH  13  14
ATOM     14  C   UNL     1      18.317  12.539  18.404  1.00  0.00    -0.000 C 
BRANCH  14  15
ATOM     15  C   UNL     1      19.445  11.567  18.018  1.00  0.00    -0.000 C 
BRANCH  15  16
ATOM     16  C   UNL     1      19.516  11.319  16.503  1.00  0.00    -0.000 C 
BRANCH  16  17
ATOM     17  C   UNL     1      19.048  12.529  15.681  1.00  0.00    -0.003 C 
ATOM     18  C   UNL     1      18.487  12.092  14.331  1.00  0.00     0.004 C 
ENDBRANCH  16  17
ENDBRANCH  15  16
ENDBRANCH  14  15
ENDBRANCH  13  14
ENDBRANCH  12  13
ENDBRANCH  11  12
ENDBRANCH   1  11
TORSDOF 14
ENDMDL
MODEL 4
REMARK VINA RESULT:    -4.047      3.966      8.320
REMARK INTER + INTRA:          -8.626
REMARK INTER:                  -7.658
REMARK INTRA:                  -0.968
REMARK UNBOUND:                -1.268
REMARK SMILES CCCCCCCCCCCCCCCC(=O)[O-]
REMARK SMILES IDX 9 1 10 2 11 3 12 4 13 5 14 6 15 7 16 8 17 9 18 10 8 11 7 12
REMARK SMILES IDX 6 13 5 14 4 15 3 16 2 17 1 18
REMARK H PARENT
REMARK Flexibility Score: inf
ROOT
ATOM      1  C   UNL     1      14.538  11.147  14.864  1.00  0.00     0.000 C 
ENDROOT
BRANCH   1   2
ATOM      2  C   UNL     1      15.738  12.002  15.310  1.00  0.00     0.000 C 
BRANCH   2   3
ATOM      3  C   UNL     1      16.974  11.794  14.409  1.00  0.00     0.000 C 
BRANCH   3   4
ATOM      4  C   UNL     1      18.200  12.620  14.841  1.00  0.00     0.000 C 
BRANCH   4   5
ATOM      5  C   UNL     1      18.989  12.039  16.028  1.00  0.00     0.000 C 
BRANCH   5   6
ATOM      6  C   UNL     1      18.684  12.686  17.395  1.00  0.00     0.006 C 
BRANCH   6   7
ATOM      7  C   UNL     1      18.490  11.685  18.545  1.00  0.00     0.053 C 
BRANCH   7   8
ATOM      8  C   UNL     1      17.326  12.046  19.416  1.00  0.00     0.041 C 
ATOM      9  O   UNL     1      17.026  13.254  19.605  1.00  0.00    -0.550 OA
ATOM     10  O   UNL     1      16.593  11.048  20.047  1.00  0.00    -0.550 OA
ENDBRANCH   7   8
ENDBRANCH   6   7
ENDBRANCH   5   6
ENDBRANCH   4   5
ENDBRANCH   3   4
ENDBRANCH   2   3
ENDBRANCH   1   2
BRANCH   1  11
ATOM     11  C   UNL     1      13.684  11.840  13.790  1.00  0.00     0.000 C 
BRANCH  11  12
ATOM     12  C   UNL     1      12.623  10.911  13.183  1.00  0.00    -0.000 C 
BRANCH  12  13
ATOM     13  C   UNL     1      11.234  11.567  13.219  1.00  0.00    -0.000 C 
BRANCH  13  14
ATOM     14  C   UNL     1      10.439  11.350  11.921  1.00  0.00    -0.000 C 
BRANCH  14  15
ATOM     15  C   UNL     1      10.542  12.546  10.959  1.00  0.00    -0.000 C 
BRANCH  15  16
ATOM     16  C   UNL     1      10.437  13.897  11.683  1.00  0.00    -0.000 C 
BRANCH  16  17
ATOM     17  C   UNL     1      11.451  14.928  11.166  1.00  0.00    -0.003 C 
ATOM     18  C   UNL     1      12.625  14.243  10.473  1.00  0.00     0.004 C 
ENDBRANCH  16  17
ENDBRANCH  15  16
ENDBRANCH  14  15
ENDBRANCH  13  14
ENDBRANCH  12  13
ENDBRANCH  11  12
ENDBRANCH   1  11
TORSDOF 14
ENDMDL
MODEL 5
REMARK VINA RESULT:    -4.018      1.286      3.203
REMARK INTER + INTRA:          -8.575
REMARK INTER:                  -7.435
REMARK INTRA:                  -1.139
REMARK UNBOUND:                -1.268
REMARK SMILES CCCCCCCCCCCCCCCC(=O)[O-]
REMARK SMILES IDX 9 1 10 2 11 3 12 4 13 5 14 6 15 7 16 8 17 9 18 10 8 11 7 12
REMARK SMILES IDX 6 13 5 14 4 15 3 16 2 17 1 18
REMARK H PARENT
REMARK Flexibility Score: inf
ROOT
ATOM      1  C   UNL     1      16.250  11.578  15.178  1.00  0.00     0.000 C 
ENDROOT
BRANCH   1   2
ATOM      2  C   UNL     1      14.715  11.690  15.212  1.00  0.00     0.000 C 
BRANCH   2   3
ATOM      3  C   UNL     1      14.116  11.971  13.817  1.00  0.00     0.000 C 
BRANCH   3   4
ATOM      4  C   UNL     1      12.901  11.088  13.477  1.00  0.00     0.000 C 
BRANCH   4   5
ATOM      5  C   UNL     1      11.995  11.633  12.358  1.00  0.00     0.000 C 
BRANCH   5   6
ATOM      6  C   UNL     1      12.263  11.045  10.956  1.00  0.00     0.006 C 
BRANCH   6   7
ATOM      7  C   UNL     1      12.942  12.015   9.976  1.00  0.00     0.053 C 
BRANCH   7   8
ATOM      8  C   UNL     1      12.271  13.353   9.953  1.00  0.00     0.041 C 
ATOM      9  O   UNL     1      12.874  14.373  10.379  1.00  0.00    -0.550 OA
ATOM     10  O   UNL     1      10.965  13.469   9.491  1.00  0.00    -0.550 OA
ENDBRANCH   7   8
ENDBRANCH   6   7
ENDBRANCH   5   6
ENDBRANCH   4   5
ENDBRANCH   3   4
ENDBRANCH   2   3
ENDBRANCH   1   2
BRANCH   1  11
ATOM     11  C   UNL     1      16.868  12.271  13.954  1.00  0.00     0.000 C 
BRANCH  11  12
ATOM     12  C   UNL     1      18.329  12.686  14.179  1.00  0.00    -0.000 C 
BRANCH  12  13
ATOM     13  C   UNL     1      18.987  11.813  15.258  1.00  0.00    -0.000 C 
BRANCH  13  14
ATOM     14  C   UNL     1      19.733  12.638  16.319  1.00  0.00    -0.000 C 
BRANCH  14  15
ATOM     15  C   UNL     1      18.830  13.037  17.499  1.00  0.00    -0.000 C 
BRANCH  15  16
ATOM     16  C   UNL     1      18.360  11.824  18.318  1.00  0.00    -0.000 C 
BRANCH  16  17
ATOM     17  C   UNL     1      16.944  12.004  18.884  1.00  0.00    -0.003 C 
ATOM     18  C   UNL     1      16.888  11.614  20.358  1.00  0.00     0.004 C 
ENDBRANCH  16  17
ENDBRANCH  15  16
ENDBRANCH  14  15
ENDBRANCH  13  14
ENDBRANCH  12  13
ENDBRANCH  11  12
ENDBRANCH   1  11
TORSDOF 14
ENDMDL
MODEL 6
REMARK VINA RESULT:    -4.018      5.794      8.206
REMARK INTER + INTRA:          -8.574
REMARK INTER:                  -6.864
REMARK INTRA:                  -1.710
REMARK UNBOUND:                -1.268
REMARK SMILES CCCCCCCCCCCCCCCC(=O)[O-]
REMARK SMILES IDX 9 1 10 2 11 3 12 4 13 5 14 6 15 7 16 8 17 9 18 10 8 11 7 12
REMARK SMILES IDX 6 13 5 14 4 15 3 16 2 17 1 18
REMARK H PARENT
REMARK Flexibility Score: inf
ROOT
ATOM      1  C   UNL     1      12.217  10.541  12.858  1.00  0.00     0.000 C 
ENDROOT
BRANCH   1   2
ATOM      2  C   UNL     1      11.501  11.626  13.683  1.00  0.00     0.000 C 
BRANCH   2   3
ATOM      3  C   UNL     1      10.029  11.812  13.256  1.00  0.00     0.000 C 
BRANCH   3   4
ATOM      4  C   UNL     1       9.070  12.061  14.435  1.00  0.00     0.000 C 
BRANCH   4   5
ATOM      5  C   UNL     1       9.445  11.336  15.741  1.00  0.00     0.000 C 
BRANCH   5   6
ATOM      6  C   UNL     1       9.120  12.112  17.035  1.00  0.00     0.006 C 
BRANCH   6   7
ATOM      7  C   UNL     1       9.821  11.576  18.293  1.00  0.00     0.053 C 
BRANCH   7   8
ATOM      8  C   UNL     1      10.908  12.491  18.765  1.00  0.00     0.041 C 
ATOM      9  O   UNL     1      10.683  13.322  19.684  1.00  0.00    -0.550 OA
ATOM     10  O   UNL     1      12.162  12.451  18.166  1.00  0.00    -0.550 OA
ENDBRANCH   7   8
ENDBRANCH   6   7
ENDBRANCH   5   6
ENDBRANCH   4   5
ENDBRANCH   3   4
ENDBRANCH   2   3
ENDBRANCH   1   2
BRANCH   1  11
ATOM     11  C   UNL     1      11.378  10.052  11.668  1.00  0.00     0.000 C 
BRANCH  11  12
ATOM     12  C   UNL     1      12.151  10.084  10.341  1.00  0.00    -0.000 C 
BRANCH  12  13
ATOM     13  C   UNL     1      11.811  11.350   9.539  1.00  0.00    -0.000 C 
BRANCH  13  14
ATOM     14  C   UNL     1      13.006  12.307   9.401  1.00  0.00    -0.000 C 
BRANCH  14  15
ATOM     15  C   UNL     1      13.100  13.306  10.566  1.00  0.00    -0.000 C 
BRANCH  15  16
ATOM     16  C   UNL     1      12.259  14.571  10.329  1.00  0.00    -0.000 C 
BRANCH  16  17
ATOM     17  C   UNL     1      11.105  14.713  11.331  1.00  0.00    -0.003 C 
ATOM     18  C   UNL     1       9.762  14.422  10.668  1.00  0.00     0.004 C 
ENDBRANCH  16  17
ENDBRANCH  15  16
ENDBRANCH  14  15
ENDBRANCH  13  14
ENDBRANCH  12  13
ENDBRANCH  11  12
ENDBRANCH   1  11
TORSDOF 14
ENDMDL
MODEL 7
REMARK VINA RESULT:    -4.016      3.425      7.707
REMARK INTER + INTRA:          -8.570
REMARK INTER:                  -6.992
REMARK INTRA:                  -1.579
REMARK UNBOUND:                -1.268
REMARK SMILES CCCCCCCCCCCCCCCC(=O)[O-]
REMARK SMILES IDX 9 1 10 2 11 3 12 4 13 5 14 6 15 7 16 8 17 9 18 10 8 11 7 12
REMARK SMILES IDX 6 13 5 14 4 15 3 16 2 17 1 18
REMARK H PARENT
REMARK Flexibility Score: inf
ROOT
ATOM      1  C   UNL     1      10.754  11.040  12.510  1.00  0.00     0.000 C 
ENDROOT
BRANCH   1   2
ATOM      2  C   UNL     1      12.225  10.611  12.662  1.00  0.00     0.000 C 
BRANCH   2   3
ATOM      3  C   UNL     1      13.028  11.577  13.560  1.00  0.00     0.000 C 
BRANCH   3   4
ATOM      4  C   UNL     1      14.073  10.873  14.444  1.00  0.00     0.000 C 
BRANCH   4   5
ATOM      5  C   UNL     1      14.970  11.817  15.267  1.00  0.00     0.000 C 
BRANCH   5   6
ATOM      6  C   UNL     1      16.455  11.837  14.848  1.00  0.00     0.006 C 
BRANCH   6   7
ATOM      7  C   UNL     1      17.425  12.275  15.957  1.00  0.00     0.053 C 
BRANCH   7   8
ATOM      8  C   UNL     1      18.800  12.541  15.429  1.00  0.00     0.041 C 
ATOM      9  O   UNL     1      19.762  12.712  16.224  1.00  0.00    -0.550 OA
ATOM     10  O   UNL     1      19.015  12.635  14.059  1.00  0.00    -0.550 OA
ENDBRANCH   7   8
ENDBRANCH   6   7
ENDBRANCH   5   6
ENDBRANCH   4   5
ENDBRANCH   3   4
ENDBRANCH   2   3
ENDBRANCH   1   2
BRANCH   1  11
ATOM     11  C   UNL     1      10.315  12.043  13.589  1.00  0.00     0.000 C 
BRANCH  11  12
ATOM     12  C   UNL     1       9.373  13.127  13.046  1.00  0.00    -0.000 C 
BRANCH  12  13
ATOM     13  C   UNL     1       9.838  13.616  11.665  1.00  0.00    -0.000 C 
BRANCH  13  14
ATOM     14  C   UNL     1      10.931  14.694  11.751  1.00  0.00    -0.000 C 
BRANCH  14  15
ATOM     15  C   UNL     1      11.798  14.759  10.483  1.00  0.00    -0.000 C 
BRANCH  15  16
ATOM     16  C   UNL     1      13.108  13.967  10.622  1.00  0.00    -0.000 C 
BRANCH  16  17
ATOM     17  C   UNL     1      13.075  12.628   9.873  1.00  0.00    -0.003 C 
ATOM     18  C   UNL     1      12.101  12.679   8.700  1.00  0.00     0.004 C 
ENDBRANCH  16  17
ENDBRANCH  15  16
ENDBRANCH  14  15
ENDBRANCH  13  14
ENDBRANCH  12  13
ENDBRANCH  11  12
ENDBRANCH   1  11
TORSDOF 14
ENDMDL
MODEL 8
REMARK VINA RESULT:    -3.971      3.987      8.317
REMARK INTER + INTRA:          -8.489
REMARK INTER:                  -7.376
REMARK INTRA:                  -1.113
REMARK UNBOUND:                -1.268
REMARK SMILES CCCCCCCCCCCCCCCC(=O)[O-]
REMARK SMILES IDX 9 1 10 2 11 3 12 4 13 5 14 6 15 7 16 8 17 9 18 10 8 11 7 12
REMARK SMILES IDX 6 13 5 14 4 15 3 16 2 17 1 18
REMARK H PARENT
REMARK Flexibility Score: inf
ROOT
ATOM      1  C   UNL     1      12.664  11.029  13.413  1.00  0.00     0.000 C 
ENDROOT
BRANCH   1   2
ATOM      2  C   UNL     1      13.788  11.915  13.979  1.00  0.00     0.000 C 
BRANCH   2   3
ATOM      3  C   UNL     1      14.871  11.093  14.711  1.00  0.00     0.000 C 
BRANCH   3   4
ATOM      4  C   UNL     1      15.987  11.955  15.330  1.00  0.00     0.000 C 
BRANCH   4   5
ATOM      5  C   UNL     1      17.205  12.193  14.419  1.00  0.00     0.000 C 
BRANCH   5   6
ATOM      6  C   UNL     1      18.565  11.793  15.029  1.00  0.00     0.006 C 
BRANCH   6   7
ATOM      7  C   UNL     1      19.023  12.676  16.201  1.00  0.00     0.053 C 
BRANCH   7   8
ATOM      8  C   UNL     1      19.109  11.908  17.483  1.00  0.00     0.041 C 
ATOM      9  O   UNL     1      20.112  11.187  17.725  1.00  0.00    -0.550 OA
ATOM     10  O   UNL     1      18.064  11.962  18.399  1.00  0.00    -0.550 OA
ENDBRANCH   7   8
ENDBRANCH   6   7
ENDBRANCH   5   6
ENDBRANCH   4   5
ENDBRANCH   3   4
ENDBRANCH   2   3
ENDBRANCH   1   2
BRANCH   1  11
ATOM     11  C   UNL     1      11.263  11.585  13.714  1.00  0.00     0.000 C 
BRANCH  11  12
ATOM     12  C   UNL     1      10.182  11.009  12.788  1.00  0.00    -0.000 C 
BRANCH  12  13
ATOM     13  C   UNL     1       9.659  12.083  11.821  1.00  0.00    -0.000 C 
BRANCH  13  14
ATOM     14  C   UNL     1       9.035  13.285  12.547  1.00  0.00    -0.000 C 
BRANCH  14  15
ATOM     15  C   UNL     1       9.468  14.631  11.943  1.00  0.00    -0.000 C 
BRANCH  15  16
ATOM     16  C   UNL     1      10.991  14.833  11.983  1.00  0.00    -0.000 C 
BRANCH  16  17
ATOM     17  C   UNL     1      11.640  14.735  10.595  1.00  0.00    -0.003 C 
ATOM     18  C   UNL     1      12.945  13.948  10.653  1.00  0.00     0.004 C 
ENDBRANCH  16  17
ENDBRANCH  15  16
ENDBRANCH  14  15
ENDBRANCH  13  14
ENDBRANCH  12  13
ENDBRANCH  11  12
ENDBRANCH   1  11
TORSDOF 14
ENDMDL
MODEL 9
REMARK VINA RESULT:    -3.859      5.847      8.840
REMARK INTER + INTRA:          -8.285
REMARK INTER:                  -6.010
REMARK INTRA:                  -2.275
REMARK UNBOUND:                -1.268
REMARK SMILES CCCCCCCCCCCCCCCC(=O)[O-]
REMARK SMILES IDX 9 1 10 2 11 3 12 4 13 5 14 6 15 7 16 8 17 9 18 10 8 11 7 12
REMARK SMILES IDX 6 13 5 14 4 15 3 16 2 17 1 18
REMARK H PARENT
REMARK Flexibility Score: inf
ROOT
ATOM      1  C   UNL     1      13.377  12.467  11.071  1.00  0.00     0.000 C 
ENDROOT
BRANCH   1   2
ATOM      2  C   UNL     1      12.882  13.812  11.632  1.00  0.00     0.000 C 
BRANCH   2   3
ATOM      3  C   UNL     1      11.697  14.384  10.823  1.00  0.00     0.000 C 
BRANCH   3   4
ATOM      4  C   UNL     1      10.723  15.227  11.667  1.00  0.00     0.000 C 
BRANCH   4   5
ATOM      5  C   UNL     1       9.365  14.558  11.951  1.00  0.00     0.000 C 
BRANCH   5   6
ATOM      6  C   UNL     1       9.442  13.070  12.355  1.00  0.00     0.006 C 
BRANCH   6   7
ATOM      7  C   UNL     1       9.078  12.788  13.821  1.00  0.00     0.053 C 
BRANCH   7   8
ATOM      8  C   UNL     1      10.001  11.789  14.448  1.00  0.00     0.041 C 
ATOM      9  O   UNL     1       9.680  11.214  15.521  1.00  0.00    -0.550 OA
ATOM     10  O   UNL     1      11.233  11.517  13.864  1.00  0.00    -0.550 OA
ENDBRANCH   7   8
ENDBRANCH   6   7
ENDBRANCH   5   6
ENDBRANCH   4   5
ENDBRANCH   3   4
ENDBRANCH   2   3
ENDBRANCH   1   2
BRANCH   1  11
ATOM     11  C   UNL     1      12.258  11.657  10.397  1.00  0.00     0.000 C 
BRANCH  11  12
ATOM     12  C   UNL     1      12.567  11.321   8.931  1.00  0.00    -0.000 C 
BRANCH  12  13
ATOM     13  C   UNL     1      11.492  11.899   7.998  1.00  0.00    -0.000 C 
BRANCH  13  14
ATOM     14  C   UNL     1      10.062  11.601   8.479  1.00  0.00    -0.000 C 
BRANCH  14  15
ATOM     15  C   UNL     1       9.191  12.865   8.562  1.00  0.00    -0.000 C 
BRANCH  15  16
ATOM     16  C   UNL     1       9.735  14.015   7.699  1.00  0.00    -0.000 C 
BRANCH  16  17
ATOM     17  C   UNL     1       9.201  15.387   8.134  1.00  0.00    -0.003 C 
ATOM     18  C   UNL     1       9.964  16.516   7.447  1.00  0.00     0.004 C 
ENDBRANCH  16  17
ENDBRANCH  15  16
ENDBRANCH  14  15
ENDBRANCH  13  14
ENDBRANCH  12  13
ENDBRANCH  11  12
ENDBRANCH   1  11
TORSDOF 14
ENDMDL
