MODEL 1
REMARK VINA RESULT:    -3.851      0.000      0.000
REMARK INTER + INTRA:          -6.217
REMARK INTER:                  -5.652
REMARK INTRA:                  -0.565
REMARK UNBOUND:                -0.565
REMARK SMILES O=c1c(O[C@H]2O[C@@H](CO)[C@@H](O)[C@H](O)[C@@H]2O)c(-c2ccc(O)c(O)c2)oc2cc(O)cc(O)c12
REMARK SMILES IDX 4 1 3 2 16 3 25 4 2 5 26 6 1 7 33 8 27 9 31 10 28 11 30 12
REMARK SMILES IDX 17 13 18 14 19 15 20 16 24 17 22 18 21 19 23 21 32 23 29 25
REMARK SMILES IDX 5 27 14 28 6 29 12 30 7 31 10 32 15 33 13 35 8 37 9 38 11 40
REMARK H PARENT 21 20 23 22 32 24 29 26 15 34 13 36 9 39 11 41
REMARK Flexibility Score: inf
ROOT
ATOM      1  O   UNL     1      47.014   7.873  18.279  1.00  0.00    -0.454 OA
ENDROOT
BRANCH   1   2
ATOM      2  C   UNL     1      46.380   8.390  19.427  1.00  0.00     0.214 A 
ATOM      3  C   UNL     1      45.598   9.555  19.322  1.00  0.00     0.180 A 
ATOM      4  O   UNL     1      44.921  10.031  20.374  1.00  0.00    -0.452 OA
ATOM      5  C   UNL     1      46.486   7.784  20.690  1.00  0.00     0.239 A 
ATOM      6  C   UNL     1      45.009   9.483  21.573  1.00  0.00     0.146 A 
ATOM      7  O   UNL     1      47.022   6.648  20.796  1.00  0.00    -0.285 OA
ATOM      8  C   UNL     1      45.900   8.412  21.809  1.00  0.00     0.111 A 
ATOM      9  C   UNL     1      44.172   9.951  22.597  1.00  0.00     0.094 A 
ATOM     10  C   UNL     1      46.012   7.887  23.126  1.00  0.00     0.134 A 
ATOM     11  C   UNL     1      44.286   9.429  23.883  1.00  0.00     0.123 A 
ATOM     12  C   UNL     1      45.233   8.425  24.157  1.00  0.00     0.093 A 
BRANCH   3  13
ATOM     13  C   UNL     1      45.590  10.303  18.040  1.00  0.00     0.025 A 
ATOM     14  C   UNL     1      44.459  10.302  17.228  1.00  0.00     0.016 A 
ATOM     15  C   UNL     1      44.590  10.517  15.849  1.00  0.00     0.051 A 
ATOM     16  C   UNL     1      45.837  10.756  15.266  1.00  0.00     0.157 A 
ATOM     17  C   UNL     1      46.838  10.648  17.485  1.00  0.00     0.062 A 
ATOM     18  C   UNL     1      46.977  10.851  16.106  1.00  0.00     0.158 A 
BRANCH  16  19
ATOM     19  O   UNL     1      45.900  10.917  13.875  1.00  0.00    -0.504 OA
ATOM     20  H   UNL     1      46.741  11.088  13.341  1.00  0.00     0.293 HD
ENDBRANCH  16  19
BRANCH  18  21
ATOM     21  O   UNL     1      48.259  11.109  15.598  1.00  0.00    -0.504 OA
ATOM     22  H   UNL     1      49.010  10.427  15.683  1.00  0.00     0.293 HD
ENDBRANCH  18  21
ENDBRANCH   3  13
BRANCH  10  23
ATOM     23  O   UNL     1      46.790   6.780  23.429  1.00  0.00    -0.507 OA
ATOM     24  H   UNL     1      46.375   5.865  23.437  1.00  0.00     0.293 HD
ENDBRANCH  10  23
BRANCH  11  25
ATOM     25  O   UNL     1      43.548   9.992  24.923  1.00  0.00    -0.508 OA
ATOM     26  H   UNL     1      43.778   9.832  25.876  1.00  0.00     0.293 HD
ENDBRANCH  11  25
ENDBRANCH   1   2
BRANCH   1  27
ATOM     27  C   UNL     1      46.408   6.906  17.421  1.00  0.00     0.339 C 
ATOM     28  C   UNL     1      47.412   6.560  16.292  1.00  0.00     0.214 C 
ATOM     29  O   UNL     1      45.232   7.469  16.855  1.00  0.00    -0.332 OA
ATOM     30  C   UNL     1      46.751   5.622  15.261  1.00  0.00     0.180 C 
ATOM     31  C   UNL     1      44.503   6.511  16.107  1.00  0.00     0.179 C 
ATOM     32  C   UNL     1      45.307   6.072  14.857  1.00  0.00     0.177 C 
BRANCH  28  33
ATOM     33  O   UNL     1      48.528   5.935  16.855  1.00  0.00    -0.384 OA
ATOM     34  H   UNL     1      48.726   5.115  16.302  1.00  0.00     0.211 HD
ENDBRANCH  28  33
BRANCH  30  35
ATOM     35  O   UNL     1      46.747   4.289  15.715  1.00  0.00    -0.387 OA
ATOM     36  H   UNL     1      46.725   4.315  16.703  1.00  0.00     0.211 HD
ENDBRANCH  30  35
BRANCH  31  37
ATOM     37  C   UNL     1      43.107   7.063  15.736  1.00  0.00     0.191 C 
BRANCH  37  38
ATOM     38  O   UNL     1      42.549   6.379  14.658  1.00  0.00    -0.394 OA
ATOM     39  H   UNL     1      42.768   6.891  13.839  1.00  0.00     0.210 HD
ENDBRANCH  37  38
ENDBRANCH  31  37
BRANCH  32  40
ATOM     40  O   UNL     1      45.370   7.111  13.881  1.00  0.00    -0.387 OA
ATOM     41  H   UNL     1      46.333   7.350  13.755  1.00  0.00     0.211 HD
ENDBRANCH  32  40
ENDBRANCH   1  27
TORSDOF 12
ENDMDL
MODEL 2
REMARK VINA RESULT:    -3.275      1.117      2.111
REMARK INTER + INTRA:          -5.372
REMARK INTER:                  -6.401
REMARK INTRA:                   1.029
REMARK UNBOUND:                -0.565
REMARK SMILES O=c1c(O[C@H]2O[C@@H](CO)[C@@H](O)[C@H](O)[C@@H]2O)c(-c2ccc(O)c(O)c2)oc2cc(O)cc(O)c12
REMARK SMILES IDX 4 1 3 2 16 3 25 4 2 5 26 6 1 7 33 8 27 9 31 10 28 11 30 12
REMARK SMILES IDX 17 13 18 14 19 15 20 16 24 17 22 18 21 19 23 21 32 23 29 25
REMARK SMILES IDX 5 27 14 28 6 29 12 30 7 31 10 32 15 33 13 35 8 37 9 38 11 40
REMARK H PARENT 21 20 23 22 32 24 29 26 15 34 13 36 9 39 11 41
REMARK Flexibility Score: inf
ROOT
ATOM      1  O   UNL     1      46.621   8.092  18.395  1.00  0.00    -0.454 OA
ENDROOT
BRANCH   1   2
ATOM      2  C   UNL     1      46.118   8.771  19.524  1.00  0.00     0.214 A 
ATOM      3  C   UNL     1      45.586  10.065  19.374  1.00  0.00     0.180 A 
ATOM      4  O   UNL     1      45.032  10.709  20.409  1.00  0.00    -0.452 OA
ATOM      5  C   UNL     1      46.115   8.206  20.810  1.00  0.00     0.239 A 
ATOM      6  C   UNL     1      45.021  10.201  21.628  1.00  0.00     0.146 A 
ATOM      7  O   UNL     1      46.412   6.990  20.960  1.00  0.00    -0.285 OA
ATOM      8  C   UNL     1      45.681   8.983  21.904  1.00  0.00     0.111 A 
ATOM      9  C   UNL     1      44.307  10.868  22.635  1.00  0.00     0.094 A 
ATOM     10  C   UNL     1      45.700   8.497  23.241  1.00  0.00     0.134 A 
ATOM     11  C   UNL     1      44.329  10.384  23.941  1.00  0.00     0.123 A 
ATOM     12  C   UNL     1      45.057   9.221  24.253  1.00  0.00     0.093 A 
BRANCH   3  13
ATOM     13  C   UNL     1      45.714  10.748  18.063  1.00  0.00     0.025 A 
ATOM     14  C   UNL     1      44.596  10.949  17.258  1.00  0.00     0.016 A 
ATOM     15  C   UNL     1      44.749  11.079  15.870  1.00  0.00     0.051 A 
ATOM     16  C   UNL     1      46.010  11.034  15.272  1.00  0.00     0.157 A 
ATOM     17  C   UNL     1      46.999  10.808  17.487  1.00  0.00     0.062 A 
ATOM     18  C   UNL     1      47.158  10.926  16.101  1.00  0.00     0.158 A 
BRANCH  16  19
ATOM     19  O   UNL     1      46.086  11.125  13.875  1.00  0.00    -0.504 OA
ATOM     20  H   UNL     1      46.929  11.289  13.342  1.00  0.00     0.293 HD
ENDBRANCH  16  19
BRANCH  18  21
ATOM     21  O   UNL     1      48.458  10.894  15.575  1.00  0.00    -0.504 OA
ATOM     22  H   UNL     1      48.669  11.284  14.660  1.00  0.00     0.293 HD
ENDBRANCH  18  21
ENDBRANCH   3  13
BRANCH  10  23
ATOM     23  O   UNL     1      46.242   7.269  23.586  1.00  0.00    -0.507 OA
ATOM     24  H   UNL     1      46.221   6.964  24.543  1.00  0.00     0.293 HD
ENDBRANCH  10  23
BRANCH  11  25
ATOM     25  O   UNL     1      43.732  11.125  24.960  1.00  0.00    -0.508 OA
ATOM     26  H   UNL     1      43.140  11.900  24.768  1.00  0.00     0.293 HD
ENDBRANCH  11  25
ENDBRANCH   1   2
BRANCH   1  27
ATOM     27  C   UNL     1      45.899   7.972  17.169  1.00  0.00     0.339 C 
ATOM     28  C   UNL     1      44.604   7.167  17.445  1.00  0.00     0.214 C 
ATOM     29  O   UNL     1      46.703   7.273  16.230  1.00  0.00    -0.332 OA
ATOM     30  C   UNL     1      43.857   6.892  16.123  1.00  0.00     0.180 C 
ATOM     31  C   UNL     1      46.104   7.248  14.946  1.00  0.00     0.179 C 
ATOM     32  C   UNL     1      44.801   6.408  14.972  1.00  0.00     0.177 C 
BRANCH  28  33
ATOM     33  O   UNL     1      43.787   7.903  18.307  1.00  0.00    -0.384 OA
ATOM     34  H   UNL     1      43.380   7.255  18.964  1.00  0.00     0.211 HD
ENDBRANCH  28  33
BRANCH  30  35
ATOM     35  O   UNL     1      43.114   8.017  15.715  1.00  0.00    -0.387 OA
ATOM     36  H   UNL     1      43.711   8.579  15.163  1.00  0.00     0.211 HD
ENDBRANCH  30  35
BRANCH  31  37
ATOM     37  C   UNL     1      47.108   6.730  13.890  1.00  0.00     0.191 C 
BRANCH  37  38
ATOM     38  O   UNL     1      47.724   5.547  14.296  1.00  0.00    -0.394 OA
ATOM     39  H   UNL     1      48.649   5.561  13.943  1.00  0.00     0.210 HD
ENDBRANCH  37  38
ENDBRANCH  31  37
BRANCH  32  40
ATOM     40  O   UNL     1      45.076   5.016  15.113  1.00  0.00    -0.387 OA
ATOM     41  H   UNL     1      44.200   4.537  15.159  1.00  0.00     0.211 HD
ENDBRANCH  32  40
ENDBRANCH   1  27
TORSDOF 12
ENDMDL
MODEL 3
REMARK VINA RESULT:    -3.230      2.306      8.222
REMARK INTER + INTRA:          -5.306
REMARK INTER:                  -5.477
REMARK INTRA:                   0.171
REMARK UNBOUND:                -0.565
REMARK SMILES O=c1c(O[C@H]2O[C@@H](CO)[C@@H](O)[C@H](O)[C@@H]2O)c(-c2ccc(O)c(O)c2)oc2cc(O)cc(O)c12
REMARK SMILES IDX 4 1 3 2 16 3 25 4 2 5 26 6 1 7 33 8 27 9 31 10 28 11 30 12
REMARK SMILES IDX 17 13 18 14 19 15 20 16 24 17 22 18 21 19 23 21 32 23 29 25
REMARK SMILES IDX 5 27 14 28 6 29 12 30 7 31 10 32 15 33 13 35 8 37 9 38 11 40
REMARK H PARENT 21 20 23 22 32 24 29 26 15 34 13 36 9 39 11 41
REMARK Flexibility Score: inf
ROOT
ATOM      1  O   UNL     1      44.220  10.530  21.546  1.00  0.00    -0.454 OA
ENDROOT
BRANCH   1   2
ATOM      2  C   UNL     1      44.515   9.810  20.371  1.00  0.00     0.214 A 
ATOM      3  C   UNL     1      45.533   8.838  20.391  1.00  0.00     0.180 A 
ATOM      4  O   UNL     1      45.790   8.084  19.315  1.00  0.00    -0.452 OA
ATOM      5  C   UNL     1      43.827  10.012  19.164  1.00  0.00     0.239 A 
ATOM      6  C   UNL     1      45.159   8.258  18.167  1.00  0.00     0.146 A 
ATOM      7  O   UNL     1      42.795  10.736  19.146  1.00  0.00    -0.285 OA
ATOM      8  C   UNL     1      44.242   9.320  18.007  1.00  0.00     0.111 A 
ATOM      9  C   UNL     1      45.383   7.347  17.125  1.00  0.00     0.094 A 
ATOM     10  C   UNL     1      43.628   9.514  16.739  1.00  0.00     0.134 A 
ATOM     11  C   UNL     1      44.776   7.543  15.886  1.00  0.00     0.123 A 
ATOM     12  C   UNL     1      43.929   8.648  15.681  1.00  0.00     0.093 A 
BRANCH   3  13
ATOM     13  C   UNL     1      46.380   8.708  21.603  1.00  0.00     0.025 A 
ATOM     14  C   UNL     1      46.976   9.830  22.172  1.00  0.00     0.016 A 
ATOM     15  C   UNL     1      48.148   9.690  22.929  1.00  0.00     0.051 A 
ATOM     16  C   UNL     1      48.726   8.437  23.147  1.00  0.00     0.157 A 
ATOM     17  C   UNL     1      46.890   7.429  21.901  1.00  0.00     0.062 A 
ATOM     18  C   UNL     1      48.067   7.283  22.646  1.00  0.00     0.158 A 
BRANCH  16  19
ATOM     19  O   UNL     1      49.922   8.375  23.874  1.00  0.00    -0.504 OA
ATOM     20  H   UNL     1      50.032   7.963  24.791  1.00  0.00     0.293 HD
ENDBRANCH  16  19
BRANCH  18  21
ATOM     21  O   UNL     1      48.575   5.990  22.841  1.00  0.00    -0.504 OA
ATOM     22  H   UNL     1      47.996   5.166  22.694  1.00  0.00     0.293 HD
ENDBRANCH  18  21
ENDBRANCH   3  13
BRANCH  10  23
ATOM     23  O   UNL     1      42.649  10.471  16.517  1.00  0.00    -0.507 OA
ATOM     24  H   UNL     1      42.397  11.108  17.252  1.00  0.00     0.293 HD
ENDBRANCH  10  23
BRANCH  11  25
ATOM     25  O   UNL     1      45.108   6.713  14.817  1.00  0.00    -0.508 OA
ATOM     26  H   UNL     1      44.680   6.809  13.925  1.00  0.00     0.293 HD
ENDBRANCH  11  25
ENDBRANCH   1   2
BRANCH   1  27
ATOM     27  C   UNL     1      43.618   9.936  22.697  1.00  0.00     0.339 C 
ATOM     28  C   UNL     1      42.591  10.938  23.282  1.00  0.00     0.214 C 
ATOM     29  O   UNL     1      44.629   9.673  23.659  1.00  0.00    -0.332 OA
ATOM     30  C   UNL     1      42.014  10.396  24.606  1.00  0.00     0.180 C 
ATOM     31  C   UNL     1      44.121   8.948  24.766  1.00  0.00     0.179 C 
ATOM     32  C   UNL     1      43.108   9.812  25.561  1.00  0.00     0.177 C 
BRANCH  28  33
ATOM     33  O   UNL     1      41.561  11.125  22.356  1.00  0.00    -0.384 OA
ATOM     34  H   UNL     1      41.906  10.824  21.457  1.00  0.00     0.211 HD
ENDBRANCH  28  33
BRANCH  30  35
ATOM     35  O   UNL     1      41.003   9.445  24.368  1.00  0.00    -0.387 OA
ATOM     36  H   UNL     1      40.652   9.163  25.249  1.00  0.00     0.211 HD
ENDBRANCH  30  35
BRANCH  31  37
ATOM     37  C   UNL     1      45.278   8.441  25.658  1.00  0.00     0.191 C 
BRANCH  37  38
ATOM     38  O   UNL     1      44.925   8.426  27.006  1.00  0.00    -0.394 OA
ATOM     39  H   UNL     1      45.763   8.345  27.529  1.00  0.00     0.210 HD
ENDBRANCH  37  38
ENDBRANCH  31  37
BRANCH  32  40
ATOM     40  O   UNL     1      43.758  10.866  26.268  1.00  0.00    -0.387 OA
ATOM     41  H   UNL     1      43.054  11.391  26.745  1.00  0.00     0.211 HD
ENDBRANCH  32  40
ENDBRANCH   1  27
TORSDOF 12
ENDMDL
MODEL 4
REMARK VINA RESULT:    -1.592      1.699      2.728
REMARK INTER + INTRA:          -2.902
REMARK INTER:                  -2.710
REMARK INTRA:                  -0.192
REMARK UNBOUND:                -0.565
REMARK SMILES O=c1c(O[C@H]2O[C@@H](CO)[C@@H](O)[C@H](O)[C@@H]2O)c(-c2ccc(O)c(O)c2)oc2cc(O)cc(O)c12
REMARK SMILES IDX 4 1 3 2 16 3 25 4 2 5 26 6 1 7 33 8 27 9 31 10 28 11 30 12
REMARK SMILES IDX 17 13 18 14 19 15 20 16 24 17 22 18 21 19 23 21 32 23 29 25
REMARK SMILES IDX 5 27 14 28 6 29 12 30 7 31 10 32 15 33 13 35 8 37 9 38 11 40
REMARK H PARENT 21 20 23 22 32 24 29 26 15 34 13 36 9 39 11 41
REMARK Flexibility Score: inf
ROOT
ATOM      1  O   UNL     1      46.065   9.042  20.472  1.00  0.00    -0.454 OA
ENDROOT
BRANCH   1   2
ATOM      2  C   UNL     1      45.070   9.523  21.348  1.00  0.00     0.214 A 
ATOM      3  C   UNL     1      44.125  10.455  20.878  1.00  0.00     0.180 A 
ATOM      4  O   UNL     1      43.122  10.875  21.659  1.00  0.00    -0.452 OA
ATOM      5  C   UNL     1      44.969   9.105  22.685  1.00  0.00     0.239 A 
ATOM      6  C   UNL     1      43.008  10.500  22.921  1.00  0.00     0.146 A 
ATOM      7  O   UNL     1      45.675   8.145  23.095  1.00  0.00    -0.285 OA
ATOM      8  C   UNL     1      44.005   9.701  23.524  1.00  0.00     0.111 A 
ATOM      9  C   UNL     1      41.863  10.872  23.640  1.00  0.00     0.094 A 
ATOM     10  C   UNL     1      43.880   9.368  24.902  1.00  0.00     0.134 A 
ATOM     11  C   UNL     1      41.747  10.540  24.987  1.00  0.00     0.123 A 
ATOM     12  C   UNL     1      42.773   9.822  25.629  1.00  0.00     0.093 A 
BRANCH   3  13
ATOM     13  C   UNL     1      44.295  11.031  19.522  1.00  0.00     0.025 A 
ATOM     14  C   UNL     1      43.219  11.097  18.642  1.00  0.00     0.016 A 
ATOM     15  C   UNL     1      43.448  11.118  17.258  1.00  0.00     0.051 A 
ATOM     16  C   UNL     1      44.743  11.096  16.737  1.00  0.00     0.157 A 
ATOM     17  C   UNL     1      45.607  11.116  19.015  1.00  0.00     0.062 A 
ATOM     18  C   UNL     1      45.843  11.125  17.634  1.00  0.00     0.158 A 
BRANCH  16  19
ATOM     19  O   UNL     1      44.898  11.073  15.344  1.00  0.00    -0.504 OA
ATOM     20  H   UNL     1      44.341  11.596  14.681  1.00  0.00     0.293 HD
ENDBRANCH  16  19
BRANCH  18  21
ATOM     21  O   UNL     1      47.172  11.125  17.186  1.00  0.00    -0.504 OA
ATOM     22  H   UNL     1      47.950  11.048  17.837  1.00  0.00     0.293 HD
ENDBRANCH  18  21
ENDBRANCH   3  13
BRANCH  10  23
ATOM     23  O   UNL     1      44.759   8.514  25.550  1.00  0.00    -0.507 OA
ATOM     24  H   UNL     1      45.636   8.277  25.119  1.00  0.00     0.293 HD
ENDBRANCH  10  23
BRANCH  11  25
ATOM     25  O   UNL     1      40.672  11.028  25.727  1.00  0.00    -0.508 OA
ATOM     26  H   UNL     1      40.805  11.587  26.539  1.00  0.00     0.293 HD
ENDBRANCH  11  25
ENDBRANCH   1   2
BRANCH   1  27
ATOM     27  C   UNL     1      45.935   7.828  19.733  1.00  0.00     0.339 C 
ATOM     28  C   UNL     1      47.288   7.075  19.792  1.00  0.00     0.214 C 
ATOM     29  O   UNL     1      45.624   8.143  18.383  1.00  0.00    -0.332 OA
ATOM     30  C   UNL     1      47.240   5.822  18.893  1.00  0.00     0.180 C 
ATOM     31  C   UNL     1      45.337   6.979  17.628  1.00  0.00     0.179 C 
ATOM     32  C   UNL     1      46.604   6.096  17.489  1.00  0.00     0.177 C 
BRANCH  28  33
ATOM     33  O   UNL     1      47.542   6.701  21.115  1.00  0.00    -0.384 OA
ATOM     34  H   UNL     1      46.652   6.497  21.546  1.00  0.00     0.211 HD
ENDBRANCH  28  33
BRANCH  30  35
ATOM     35  O   UNL     1      46.579   4.758  19.539  1.00  0.00    -0.387 OA
ATOM     36  H   UNL     1      45.708   5.103  19.855  1.00  0.00     0.211 HD
ENDBRANCH  30  35
BRANCH  31  37
ATOM     37  C   UNL     1      44.741   7.360  16.253  1.00  0.00     0.191 C 
BRANCH  37  38
ATOM     38  O   UNL     1      43.587   6.632  15.968  1.00  0.00    -0.394 OA
ATOM     39  H   UNL     1      43.862   5.692  15.821  1.00  0.00     0.210 HD
ENDBRANCH  37  38
ENDBRANCH  31  37
BRANCH  32  40
ATOM     40  O   UNL     1      47.566   6.690  16.621  1.00  0.00    -0.387 OA
ATOM     41  H   UNL     1      47.859   5.991  15.969  1.00  0.00     0.211 HD
ENDBRANCH  32  40
ENDBRANCH   1  27
TORSDOF 12
ENDMDL
MODEL 5
REMARK VINA RESULT:    -1.212      1.893      3.024
REMARK INTER + INTRA:          -2.343
REMARK INTER:                  -2.244
REMARK INTRA:                  -0.099
REMARK UNBOUND:                -0.565
REMARK SMILES O=c1c(O[C@H]2O[C@@H](CO)[C@@H](O)[C@H](O)[C@@H]2O)c(-c2ccc(O)c(O)c2)oc2cc(O)cc(O)c12
REMARK SMILES IDX 4 1 3 2 16 3 25 4 2 5 26 6 1 7 33 8 27 9 31 10 28 11 30 12
REMARK SMILES IDX 17 13 18 14 19 15 20 16 24 17 22 18 21 19 23 21 32 23 29 25
REMARK SMILES IDX 5 27 14 28 6 29 12 30 7 31 10 32 15 33 13 35 8 37 9 38 11 40
REMARK H PARENT 21 20 23 22 32 24 29 26 15 34 13 36 9 39 11 41
REMARK Flexibility Score: inf
ROOT
ATOM      1  O   UNL     1      44.801   7.528  18.213  1.00  0.00    -0.454 OA
ENDROOT
BRANCH   1   2
ATOM      2  C   UNL     1      45.426   8.109  19.336  1.00  0.00     0.214 A 
ATOM      3  C   UNL     1      45.169   9.456  19.652  1.00  0.00     0.180 A 
ATOM      4  O   UNL     1      45.685  10.018  20.752  1.00  0.00    -0.452 OA
ATOM      5  C   UNL     1      46.300   7.395  20.172  1.00  0.00     0.239 A 
ATOM      6  C   UNL     1      46.513   9.370  21.551  1.00  0.00     0.146 A 
ATOM      7  O   UNL     1      46.418   6.147  20.035  1.00  0.00    -0.285 OA
ATOM      8  C   UNL     1      46.958   8.070  21.220  1.00  0.00     0.111 A 
ATOM      9  C   UNL     1      46.909   9.973  22.753  1.00  0.00     0.094 A 
ATOM     10  C   UNL     1      47.898   7.427  22.073  1.00  0.00     0.134 A 
ATOM     11  C   UNL     1      47.827   9.336  23.584  1.00  0.00     0.123 A 
ATOM     12  C   UNL     1      48.352   8.080  23.225  1.00  0.00     0.093 A 
BRANCH   3  13
ATOM     13  C   UNL     1      44.374  10.278  18.706  1.00  0.00     0.025 A 
ATOM     14  C   UNL     1      42.993  10.376  18.843  1.00  0.00     0.016 A 
ATOM     15  C   UNL     1      42.199  10.667  17.724  1.00  0.00     0.051 A 
ATOM     16  C   UNL     1      42.768  10.884  16.467  1.00  0.00     0.157 A 
ATOM     17  C   UNL     1      44.970  10.599  17.470  1.00  0.00     0.062 A 
ATOM     18  C   UNL     1      44.182  10.878  16.346  1.00  0.00     0.158 A 
BRANCH  16  19
ATOM     19  O   UNL     1      41.912  11.125  15.383  1.00  0.00    -0.504 OA
ATOM     20  H   UNL     1      40.908  11.232  15.439  1.00  0.00     0.293 HD
ENDBRANCH  16  19
BRANCH  18  21
ATOM     21  O   UNL     1      44.828  11.108  15.122  1.00  0.00    -0.504 OA
ATOM     22  H   UNL     1      45.736  11.564  15.079  1.00  0.00     0.293 HD
ENDBRANCH  18  21
ENDBRANCH   3  13
BRANCH  10  23
ATOM     23  O   UNL     1      48.317   6.120  21.877  1.00  0.00    -0.507 OA
ATOM     24  H   UNL     1      48.175   5.678  20.985  1.00  0.00     0.293 HD
ENDBRANCH  10  23
BRANCH  11  25
ATOM     25  O   UNL     1      48.318  10.000  24.707  1.00  0.00    -0.508 OA
ATOM     26  H   UNL     1      48.728   9.510  25.469  1.00  0.00     0.293 HD
ENDBRANCH  11  25
ENDBRANCH   1   2
BRANCH   1  27
ATOM     27  C   UNL     1      45.425   7.439  16.932  1.00  0.00     0.339 C 
ATOM     28  C   UNL     1      44.322   7.191  15.871  1.00  0.00     0.214 C 
ATOM     29  O   UNL     1      46.333   6.346  16.938  1.00  0.00    -0.332 OA
ATOM     30  C   UNL     1      44.960   6.951  14.487  1.00  0.00     0.180 C 
ATOM     31  C   UNL     1      47.093   6.292  15.744  1.00  0.00     0.179 C 
ATOM     32  C   UNL     1      46.179   5.969  14.533  1.00  0.00     0.177 C 
BRANCH  28  33
ATOM     33  O   UNL     1      43.484   8.309  15.819  1.00  0.00    -0.384 OA
ATOM     34  H   UNL     1      42.546   7.974  15.657  1.00  0.00     0.211 HD
ENDBRANCH  28  33
BRANCH  30  35
ATOM     35  O   UNL     1      45.325   8.167  13.877  1.00  0.00    -0.387 OA
ATOM     36  H   UNL     1      46.167   8.007  13.384  1.00  0.00     0.211 HD
ENDBRANCH  30  35
BRANCH  31  37
ATOM     37  C   UNL     1      48.251   5.276  15.885  1.00  0.00     0.191 C 
BRANCH  37  38
ATOM     38  O   UNL     1      48.746   4.880  14.644  1.00  0.00    -0.394 OA
ATOM     39  H   UNL     1      49.308   4.077  14.794  1.00  0.00     0.210 HD
ENDBRANCH  37  38
ENDBRANCH  31  37
BRANCH  32  40
ATOM     40  O   UNL     1      45.723   4.619  14.565  1.00  0.00    -0.387 OA
ATOM     41  H   UNL     1      44.780   4.625  14.897  1.00  0.00     0.211 HD
ENDBRANCH  32  40
ENDBRANCH   1  27
TORSDOF 12
ENDMDL
