MODEL 1
REMARK VINA RESULT:    -5.915      0.000      0.000
REMARK INTER + INTRA:          -6.088
REMARK INTER:                  -6.088
REMARK INTRA:                   0.000
REMARK UNBOUND:                 0.000
REMARK SMILES O=c1ccc2ccc(O)cc2o1
REMARK SMILES IDX 6 1 7 2 8 3 10 4 11 5 5 6 4 7 3 8 2 9 1 10 12 11 9 12
REMARK H PARENT 9 13
REMARK Flexibility Score: inf
ROOT
ATOM      1  C   UNL     1      29.561  24.609  47.256  1.00  0.00     0.016 A 
ATOM      2  C   UNL     1      29.111  24.983  45.986  1.00  0.00     0.047 A 
ATOM      3  C   UNL     1      27.836  24.607  45.548  1.00  0.00     0.119 A 
ATOM      4  C   UNL     1      27.002  23.851  46.386  1.00  0.00     0.094 A 
ATOM      5  C   UNL     1      27.443  23.473  47.658  1.00  0.00     0.142 A 
ATOM      6  C   UNL     1      28.731  23.855  48.097  1.00  0.00     0.018 A 
ATOM      7  C   UNL     1      29.144  23.462  49.374  1.00  0.00     0.019 A 
ATOM      8  C   UNL     1      28.280  22.711  50.172  1.00  0.00     0.094 A 
ATOM      9  C   UNL     1      27.019  22.370  49.671  1.00  0.00     0.336 A 
ATOM     10  O   UNL     1      26.225  21.693  50.376  1.00  0.00    -0.246 OA
ATOM     11  O   UNL     1      26.650  22.756  48.452  1.00  0.00    -0.423 OA
ENDROOT
BRANCH   3  12
ATOM     12  O   UNL     1      27.406  24.988  44.278  1.00  0.00    -0.508 OA
ATOM     13  H   UNL     1      27.647  24.450  43.454  1.00  0.00     0.293 HD
ENDBRANCH   3  12
TORSDOF 1
ENDMDL
MODEL 2
REMARK VINA RESULT:    -5.885      1.441      4.516
REMARK INTER + INTRA:          -6.057
REMARK INTER:                  -6.057
REMARK INTRA:                   0.000
REMARK UNBOUND:                 0.000
REMARK SMILES O=c1ccc2ccc(O)cc2o1
REMARK SMILES IDX 6 1 7 2 8 3 10 4 11 5 5 6 4 7 3 8 2 9 1 10 12 11 9 12
REMARK H PARENT 9 13
REMARK Flexibility Score: inf
ROOT
ATOM      1  C   UNL     1      28.758  24.220  50.813  1.00  0.00     0.016 A 
ATOM      2  C   UNL     1      28.298  23.364  51.819  1.00  0.00     0.047 A 
ATOM      3  C   UNL     1      27.356  22.371  51.526  1.00  0.00     0.119 A 
ATOM      4  C   UNL     1      26.870  22.230  50.217  1.00  0.00     0.094 A 
ATOM      5  C   UNL     1      27.324  23.081  49.204  1.00  0.00     0.142 A 
ATOM      6  C   UNL     1      28.275  24.083  49.504  1.00  0.00     0.018 A 
ATOM      7  C   UNL     1      28.710  24.919  48.470  1.00  0.00     0.019 A 
ATOM      8  C   UNL     1      28.199  24.741  47.185  1.00  0.00     0.094 A 
ATOM      9  C   UNL     1      27.260  23.727  46.963  1.00  0.00     0.336 A 
ATOM     10  O   UNL     1      26.787  23.551  45.809  1.00  0.00    -0.246 OA
ATOM     11  O   UNL     1      26.862  22.946  47.964  1.00  0.00    -0.423 OA
ENDROOT
BRANCH   3  12
ATOM     12  O   UNL     1      26.909  21.528  52.542  1.00  0.00    -0.508 OA
ATOM     13  H   UNL     1      27.180  21.674  53.508  1.00  0.00     0.293 HD
ENDBRANCH   3  12
TORSDOF 1
ENDMDL
MODEL 3
REMARK VINA RESULT:    -5.791      1.817      4.832
REMARK INTER + INTRA:          -5.960
REMARK INTER:                  -5.960
REMARK INTRA:                   0.000
REMARK UNBOUND:                 0.000
REMARK SMILES O=c1ccc2ccc(O)cc2o1
REMARK SMILES IDX 6 1 7 2 8 3 10 4 11 5 5 6 4 7 3 8 2 9 1 10 12 11 9 12
REMARK H PARENT 9 13
REMARK Flexibility Score: inf
ROOT
ATOM      1  C   UNL     1      26.630  22.804  49.101  1.00  0.00     0.016 A 
ATOM      2  C   UNL     1      27.019  22.041  50.207  1.00  0.00     0.047 A 
ATOM      3  C   UNL     1      28.374  21.912  50.535  1.00  0.00     0.119 A 
ATOM      4  C   UNL     1      29.348  22.550  49.753  1.00  0.00     0.094 A 
ATOM      5  C   UNL     1      28.969  23.315  48.646  1.00  0.00     0.142 A 
ATOM      6  C   UNL     1      27.600  23.444  48.317  1.00  0.00     0.018 A 
ATOM      7  C   UNL     1      27.252  24.215  47.204  1.00  0.00     0.019 A 
ATOM      8  C   UNL     1      28.255  24.831  46.457  1.00  0.00     0.094 A 
ATOM      9  C   UNL     1      29.589  24.660  46.842  1.00  0.00     0.336 A 
ATOM     10  O   UNL     1      30.509  25.208  46.180  1.00  0.00    -0.246 OA
ATOM     11  O   UNL     1      29.895  23.920  47.905  1.00  0.00    -0.423 OA
ENDROOT
BRANCH   3  12
ATOM     12  O   UNL     1      28.742  21.146  51.640  1.00  0.00    -0.508 OA
ATOM     13  H   UNL     1      29.026  21.577  52.512  1.00  0.00     0.293 HD
ENDBRANCH   3  12
TORSDOF 1
ENDMDL
MODEL 4
REMARK VINA RESULT:    -5.567      1.849      4.322
REMARK INTER + INTRA:          -5.729
REMARK INTER:                  -5.729
REMARK INTRA:                   0.000
REMARK UNBOUND:                 0.000
REMARK SMILES O=c1ccc2ccc(O)cc2o1
REMARK SMILES IDX 6 1 7 2 8 3 10 4 11 5 5 6 4 7 3 8 2 9 1 10 12 11 9 12
REMARK H PARENT 9 13
REMARK Flexibility Score: inf
ROOT
ATOM      1  C   UNL     1      29.378  22.451  49.427  1.00  0.00     0.016 A 
ATOM      2  C   UNL     1      28.031  22.464  49.805  1.00  0.00     0.047 A 
ATOM      3  C   UNL     1      27.115  23.278  49.129  1.00  0.00     0.119 A 
ATOM      4  C   UNL     1      27.547  24.085  48.066  1.00  0.00     0.094 A 
ATOM      5  C   UNL     1      28.891  24.079  47.680  1.00  0.00     0.142 A 
ATOM      6  C   UNL     1      29.813  23.256  48.365  1.00  0.00     0.018 A 
ATOM      7  C   UNL     1      31.151  23.271  47.957  1.00  0.00     0.019 A 
ATOM      8  C   UNL     1      31.533  24.090  46.894  1.00  0.00     0.094 A 
ATOM      9  C   UNL     1      30.565  24.877  46.263  1.00  0.00     0.336 A 
ATOM     10  O   UNL     1      30.890  25.623  45.302  1.00  0.00    -0.246 OA
ATOM     11  O   UNL     1      29.298  24.846  46.671  1.00  0.00    -0.423 OA
ENDROOT
BRANCH   3  12
ATOM     12  O   UNL     1      25.777  23.278  49.521  1.00  0.00    -0.508 OA
ATOM     13  H   UNL     1      25.512  23.206  50.496  1.00  0.00     0.293 HD
ENDBRANCH   3  12
TORSDOF 1
ENDMDL
MODEL 5
REMARK VINA RESULT:    -5.439      1.759      2.407
REMARK INTER + INTRA:          -5.598
REMARK INTER:                  -5.598
REMARK INTRA:                   0.000
REMARK UNBOUND:                 0.000
REMARK SMILES O=c1ccc2ccc(O)cc2o1
REMARK SMILES IDX 6 1 7 2 8 3 10 4 11 5 5 6 4 7 3 8 2 9 1 10 12 11 9 12
REMARK H PARENT 9 13
REMARK Flexibility Score: inf
ROOT
ATOM      1  C   UNL     1      27.191  24.273  47.393  1.00  0.00     0.016 A 
ATOM      2  C   UNL     1      28.163  24.839  46.562  1.00  0.00     0.047 A 
ATOM      3  C   UNL     1      29.523  24.660  46.840  1.00  0.00     0.119 A 
ATOM      4  C   UNL     1      29.916  23.907  47.957  1.00  0.00     0.094 A 
ATOM      5  C   UNL     1      28.952  23.337  48.794  1.00  0.00     0.142 A 
ATOM      6  C   UNL     1      27.579  23.521  48.510  1.00  0.00     0.018 A 
ATOM      7  C   UNL     1      26.638  22.938  49.365  1.00  0.00     0.019 A 
ATOM      8  C   UNL     1      27.077  22.199  50.464  1.00  0.00     0.094 A 
ATOM      9  C   UNL     1      28.451  22.059  50.682  1.00  0.00     0.336 A 
ATOM     10  O   UNL     1      28.866  21.395  51.668  1.00  0.00    -0.246 OA
ATOM     11  O   UNL     1      29.326  22.624  49.853  1.00  0.00    -0.423 OA
ENDROOT
BRANCH   3  12
ATOM     12  O   UNL     1      30.476  25.233  46.000  1.00  0.00    -0.508 OA
ATOM     13  H   UNL     1      31.393  25.498  46.342  1.00  0.00     0.293 HD
ENDBRANCH   3  12
TORSDOF 1
ENDMDL
MODEL 6
REMARK VINA RESULT:    -5.410      1.465      1.741
REMARK INTER + INTRA:          -5.568
REMARK INTER:                  -5.568
REMARK INTRA:                   0.000
REMARK UNBOUND:                 0.000
REMARK SMILES O=c1ccc2ccc(O)cc2o1
REMARK SMILES IDX 6 1 7 2 8 3 10 4 11 5 5 6 4 7 3 8 2 9 1 10 12 11 9 12
REMARK H PARENT 9 13
REMARK Flexibility Score: inf
ROOT
ATOM      1  C   UNL     1      28.759  25.078  48.279  1.00  0.00     0.016 A 
ATOM      2  C   UNL     1      28.210  24.830  47.017  1.00  0.00     0.047 A 
ATOM      3  C   UNL     1      27.276  23.802  46.842  1.00  0.00     0.119 A 
ATOM      4  C   UNL     1      26.887  23.015  47.936  1.00  0.00     0.094 A 
ATOM      5  C   UNL     1      27.431  23.256  49.203  1.00  0.00     0.142 A 
ATOM      6  C   UNL     1      28.373  24.295  49.376  1.00  0.00     0.018 A 
ATOM      7  C   UNL     1      28.899  24.512  50.653  1.00  0.00     0.019 A 
ATOM      8  C   UNL     1      28.482  23.704  51.711  1.00  0.00     0.094 A 
ATOM      9  C   UNL     1      27.545  22.695  51.465  1.00  0.00     0.336 A 
ATOM     10  O   UNL     1      27.157  21.955  52.407  1.00  0.00    -0.246 OA
ATOM     11  O   UNL     1      27.061  22.508  50.240  1.00  0.00    -0.423 OA
ENDROOT
BRANCH   3  12
ATOM     12  O   UNL     1      26.741  23.570  45.576  1.00  0.00    -0.508 OA
ATOM     13  H   UNL     1      26.788  22.656  45.141  1.00  0.00     0.293 HD
ENDBRANCH   3  12
TORSDOF 1
ENDMDL
MODEL 7
REMARK VINA RESULT:    -5.307      2.184      5.103
REMARK INTER + INTRA:          -5.462
REMARK INTER:                  -5.462
REMARK INTRA:                   0.000
REMARK UNBOUND:                 0.000
REMARK SMILES O=c1ccc2ccc(O)cc2o1
REMARK SMILES IDX 6 1 7 2 8 3 10 4 11 5 5 6 4 7 3 8 2 9 1 10 12 11 9 12
REMARK H PARENT 9 13
REMARK Flexibility Score: inf
ROOT
ATOM      1  C   UNL     1      27.255  22.941  51.183  1.00  0.00     0.016 A 
ATOM      2  C   UNL     1      28.134  22.270  52.038  1.00  0.00     0.047 A 
ATOM      3  C   UNL     1      29.476  22.098  51.680  1.00  0.00     0.119 A 
ATOM      4  C   UNL     1      29.944  22.602  50.457  1.00  0.00     0.094 A 
ATOM      5  C   UNL     1      29.073  23.275  49.595  1.00  0.00     0.142 A 
ATOM      6  C   UNL     1      27.718  23.446  49.960  1.00  0.00     0.018 A 
ATOM      7  C   UNL     1      26.871  24.124  49.078  1.00  0.00     0.019 A 
ATOM      8  C   UNL     1      27.382  24.607  47.873  1.00  0.00     0.094 A 
ATOM      9  C   UNL     1      28.734  24.401  47.579  1.00  0.00     0.336 A 
ATOM     10  O   UNL     1      29.213  24.830  46.497  1.00  0.00    -0.246 OA
ATOM     11  O   UNL     1      29.519  23.753  48.435  1.00  0.00    -0.423 OA
ENDROOT
BRANCH   3  12
ATOM     12  O   UNL     1      30.337  21.425  52.545  1.00  0.00    -0.508 OA
ATOM     13  H   UNL     1      30.030  21.110  53.458  1.00  0.00     0.293 HD
ENDBRANCH   3  12
TORSDOF 1
ENDMDL
MODEL 8
REMARK VINA RESULT:    -5.254      1.860      2.720
REMARK INTER + INTRA:          -5.408
REMARK INTER:                  -5.408
REMARK INTRA:                   0.000
REMARK UNBOUND:                 0.000
REMARK SMILES O=c1ccc2ccc(O)cc2o1
REMARK SMILES IDX 6 1 7 2 8 3 10 4 11 5 5 6 4 7 3 8 2 9 1 10 12 11 9 12
REMARK H PARENT 9 13
REMARK Flexibility Score: inf
ROOT
ATOM      1  C   UNL     1      29.717  23.301  48.846  1.00  0.00     0.016 A 
ATOM      2  C   UNL     1      28.914  23.981  47.925  1.00  0.00     0.047 A 
ATOM      3  C   UNL     1      27.569  24.239  48.215  1.00  0.00     0.119 A 
ATOM      4  C   UNL     1      27.022  23.814  49.435  1.00  0.00     0.094 A 
ATOM      5  C   UNL     1      27.818  23.134  50.363  1.00  0.00     0.142 A 
ATOM      6  C   UNL     1      29.176  22.876  50.066  1.00  0.00     0.018 A 
ATOM      7  C   UNL     1      29.946  22.193  51.013  1.00  0.00     0.019 A 
ATOM      8  C   UNL     1      29.359  21.791  52.212  1.00  0.00     0.094 A 
ATOM      9  C   UNL     1      28.009  22.082  52.437  1.00  0.00     0.336 A 
ATOM     10  O   UNL     1      27.461  21.727  53.514  1.00  0.00    -0.246 OA
ATOM     11  O   UNL     1      27.297  22.732  51.520  1.00  0.00    -0.423 OA
ENDROOT
BRANCH   3  12
ATOM     12  O   UNL     1      26.784  24.917  47.284  1.00  0.00    -0.508 OA
ATOM     13  H   UNL     1      25.786  24.756  47.216  1.00  0.00     0.293 HD
ENDBRANCH   3  12
TORSDOF 1
ENDMDL
MODEL 9
REMARK VINA RESULT:    -5.101     11.262     12.087
REMARK INTER + INTRA:          -5.250
REMARK INTER:                  -5.250
REMARK INTRA:                   0.000
REMARK UNBOUND:                 0.000
REMARK SMILES O=c1ccc2ccc(O)cc2o1
REMARK SMILES IDX 6 1 7 2 8 3 10 4 11 5 5 6 4 7 3 8 2 9 1 10 12 11 9 12
REMARK H PARENT 9 13
REMARK Flexibility Score: inf
ROOT
ATOM      1  C   UNL     1      16.083  26.284  45.669  1.00  0.00     0.016 A 
ATOM      2  C   UNL     1      16.588  27.487  46.172  1.00  0.00     0.047 A 
ATOM      3  C   UNL     1      17.641  28.139  45.520  1.00  0.00     0.119 A 
ATOM      4  C   UNL     1      18.193  27.586  44.355  1.00  0.00     0.094 A 
ATOM      5  C   UNL     1      17.694  26.383  43.844  1.00  0.00     0.142 A 
ATOM      6  C   UNL     1      16.631  25.727  44.506  1.00  0.00     0.018 A 
ATOM      7  C   UNL     1      16.154  24.526  43.971  1.00  0.00     0.019 A 
ATOM      8  C   UNL     1      16.734  24.015  42.810  1.00  0.00     0.094 A 
ATOM      9  C   UNL     1      17.782  24.720  42.209  1.00  0.00     0.336 A 
ATOM     10  O   UNL     1      18.319  24.274  41.161  1.00  0.00    -0.246 OA
ATOM     11  O   UNL     1      18.219  25.860  42.738  1.00  0.00    -0.423 OA
ENDROOT
BRANCH   3  12
ATOM     12  O   UNL     1      18.132  29.337  46.037  1.00  0.00    -0.508 OA
ATOM     13  H   UNL     1      18.153  30.184  45.482  1.00  0.00     0.293 HD
ENDBRANCH   3  12
TORSDOF 1
ENDMDL
