MODEL 1
REMARK VINA RESULT:    -4.986      0.000      0.000
REMARK INTER + INTRA:         -11.703
REMARK INTER:                  -9.650
REMARK INTRA:                  -2.053
REMARK UNBOUND:                -2.053
REMARK SMILES CCCCCCCCCCCCCCCCCC(=O)[O-]
REMARK SMILES IDX 10 1 11 2 12 3 13 4 14 5 15 6 16 7 17 8 18 9 19 10 20 11
REMARK SMILES IDX 9 12 8 13 7 14 6 15 5 16 4 17 3 18 2 19 1 20
REMARK H PARENT
REMARK Flexibility Score: inf
ROOT
ATOM      1  C   UNL     1      23.175 -11.351  28.286  1.00  0.00     0.000 C 
ENDROOT
BRANCH   1   2
ATOM      2  C   UNL     1      23.599  -9.950  28.767  1.00  0.00     0.000 C 
BRANCH   2   3
ATOM      3  C   UNL     1      22.669  -8.835  28.258  1.00  0.00     0.000 C 
BRANCH   3   4
ATOM      4  C   UNL     1      21.772  -9.301  27.100  1.00  0.00     0.000 C 
BRANCH   4   5
ATOM      5  C   UNL     1      20.289  -8.973  27.335  1.00  0.00     0.000 C 
BRANCH   5   6
ATOM      6  C   UNL     1      20.037  -8.271  28.682  1.00  0.00     0.000 C 
BRANCH   6   7
ATOM      7  C   UNL     1      19.018  -8.970  29.605  1.00  0.00     0.006 C 
BRANCH   7   8
ATOM      8  C   UNL     1      19.575  -9.376  30.978  1.00  0.00     0.053 C 
BRANCH   8   9
ATOM      9  C   UNL     1      20.516 -10.536  30.882  1.00  0.00     0.041 C 
ATOM     10  O   UNL     1      21.589 -10.539  31.542  1.00  0.00    -0.550 OA
ATOM     11  O   UNL     1      20.195 -11.630  30.088  1.00  0.00    -0.550 OA
ENDBRANCH   8   9
ENDBRANCH   7   8
ENDBRANCH   6   7
ENDBRANCH   5   6
ENDBRANCH   4   5
ENDBRANCH   3   4
ENDBRANCH   2   3
ENDBRANCH   1   2
BRANCH   1  12
ATOM     12  C   UNL     1      24.256 -12.135  27.520  1.00  0.00     0.000 C 
BRANCH  12  13
ATOM     13  C   UNL     1      25.686 -11.744  27.932  1.00  0.00    -0.000 C 
BRANCH  13  14
ATOM     14  C   UNL     1      26.752 -12.345  27.002  1.00  0.00    -0.000 C 
BRANCH  14  15
ATOM     15  C   UNL     1      26.426 -12.125  25.514  1.00  0.00    -0.000 C 
BRANCH  15  16
ATOM     16  C   UNL     1      26.473 -13.429  24.700  1.00  0.00    -0.000 C 
BRANCH  16  17
ATOM     17  C   UNL     1      26.564 -14.679  25.590  1.00  0.00    -0.000 C 
BRANCH  17  18
ATOM     18  C   UNL     1      25.470 -15.711  25.273  1.00  0.00    -0.000 C 
BRANCH  18  19
ATOM     19  C   UNL     1      24.059 -15.103  25.287  1.00  0.00    -0.003 C 
ATOM     20  C   UNL     1      23.175 -15.792  26.323  1.00  0.00     0.004 C 
ENDBRANCH  18  19
ENDBRANCH  17  18
ENDBRANCH  16  17
ENDBRANCH  15  16
ENDBRANCH  14  15
ENDBRANCH  13  14
ENDBRANCH  12  13
ENDBRANCH   1  12
TORSDOF 16
ENDMDL
MODEL 2
REMARK VINA RESULT:    -4.808      2.661      7.049
REMARK INTER + INTRA:         -11.359
REMARK INTER:                  -8.952
REMARK INTRA:                  -2.407
REMARK UNBOUND:                -2.053
REMARK SMILES CCCCCCCCCCCCCCCCCC(=O)[O-]
REMARK SMILES IDX 10 1 11 2 12 3 13 4 14 5 15 6 16 7 17 8 18 9 19 10 20 11
REMARK SMILES IDX 9 12 8 13 7 14 6 15 5 16 4 17 3 18 2 19 1 20
REMARK H PARENT
REMARK Flexibility Score: inf
ROOT
ATOM      1  C   UNL     1      23.696 -10.037  29.672  1.00  0.00     0.000 C 
ENDROOT
BRANCH   1   2
ATOM      2  C   UNL     1      25.216  -9.835  29.529  1.00  0.00     0.000 C 
BRANCH   2   3
ATOM      3  C   UNL     1      25.975 -11.151  29.282  1.00  0.00     0.000 C 
BRANCH   3   4
ATOM      4  C   UNL     1      27.134 -10.982  28.286  1.00  0.00     0.000 C 
BRANCH   4   5
ATOM      5  C   UNL     1      27.404 -12.260  27.474  1.00  0.00     0.000 C 
BRANCH   5   6
ATOM      6  C   UNL     1      26.942 -12.148  26.010  1.00  0.00     0.000 C 
BRANCH   6   7
ATOM      7  C   UNL     1      25.445 -12.432  25.772  1.00  0.00     0.006 C 
BRANCH   7   8
ATOM      8  C   UNL     1      24.879 -13.603  26.591  1.00  0.00     0.053 C 
BRANCH   8   9
ATOM      9  C   UNL     1      24.901 -14.888  25.822  1.00  0.00     0.041 C 
ATOM     10  O   UNL     1      25.996 -15.394  25.464  1.00  0.00    -0.550 OA
ATOM     11  O   UNL     1      23.712 -15.544  25.529  1.00  0.00    -0.550 OA
ENDBRANCH   8   9
ENDBRANCH   7   8
ENDBRANCH   6   7
ENDBRANCH   5   6
ENDBRANCH   4   5
ENDBRANCH   3   4
ENDBRANCH   2   3
ENDBRANCH   1   2
BRANCH   1  12
ATOM     12  C   UNL     1      23.059 -10.978  28.633  1.00  0.00     0.000 C 
BRANCH  12  13
ATOM     13  C   UNL     1      22.755 -10.279  27.298  1.00  0.00    -0.000 C 
BRANCH  13  14
ATOM     14  C   UNL     1      22.033  -8.934  27.487  1.00  0.00    -0.000 C 
BRANCH  14  15
ATOM     15  C   UNL     1      20.552  -8.998  27.072  1.00  0.00    -0.000 C 
BRANCH  15  16
ATOM     16  C   UNL     1      19.601  -8.596  28.211  1.00  0.00    -0.000 C 
BRANCH  16  17
ATOM     17  C   UNL     1      20.340  -8.333  29.534  1.00  0.00    -0.000 C 
BRANCH  17  18
ATOM     18  C   UNL     1      19.977  -9.353  30.626  1.00  0.00    -0.000 C 
BRANCH  18  19
ATOM     19  C   UNL     1      19.483 -10.688  30.050  1.00  0.00    -0.003 C 
ATOM     20  C   UNL     1      20.179 -11.867  30.723  1.00  0.00     0.004 C 
ENDBRANCH  18  19
ENDBRANCH  17  18
ENDBRANCH  16  17
ENDBRANCH  15  16
ENDBRANCH  14  15
ENDBRANCH  13  14
ENDBRANCH  12  13
ENDBRANCH   1  12
TORSDOF 16
ENDMDL
MODEL 3
REMARK VINA RESULT:    -4.696      1.270      2.489
REMARK INTER + INTRA:         -11.141
REMARK INTER:                  -9.508
REMARK INTRA:                  -1.633
REMARK UNBOUND:                -2.053
REMARK SMILES CCCCCCCCCCCCCCCCCC(=O)[O-]
REMARK SMILES IDX 10 1 11 2 12 3 13 4 14 5 15 6 16 7 17 8 18 9 19 10 20 11
REMARK SMILES IDX 9 12 8 13 7 14 6 15 5 16 4 17 3 18 2 19 1 20
REMARK H PARENT
REMARK Flexibility Score: inf
ROOT
ATOM      1  C   UNL     1      22.341  -9.623  27.302  1.00  0.00     0.000 C 
ENDROOT
BRANCH   1   2
ATOM      2  C   UNL     1      20.848  -9.301  27.105  1.00  0.00     0.000 C 
BRANCH   2   3
ATOM      3  C   UNL     1      19.960  -9.861  28.229  1.00  0.00     0.000 C 
BRANCH   3   4
ATOM      4  C   UNL     1      19.319  -8.751  29.078  1.00  0.00     0.000 C 
BRANCH   4   5
ATOM      5  C   UNL     1      19.535  -8.963  30.586  1.00  0.00     0.000 C 
BRANCH   5   6
ATOM      6  C   UNL     1      20.992  -8.724  31.021  1.00  0.00     0.000 C 
BRANCH   6   7
ATOM      7  C   UNL     1      21.713  -9.958  31.603  1.00  0.00     0.006 C 
BRANCH   7   8
ATOM      8  C   UNL     1      20.837 -10.843  32.503  1.00  0.00     0.053 C 
BRANCH   8   9
ATOM      9  C   UNL     1      20.594 -12.191  31.899  1.00  0.00     0.041 C 
ATOM     10  O   UNL     1      20.567 -12.330  30.648  1.00  0.00    -0.550 OA
ATOM     11  O   UNL     1      20.429 -13.302  32.717  1.00  0.00    -0.550 OA
ENDBRANCH   8   9
ENDBRANCH   7   8
ENDBRANCH   6   7
ENDBRANCH   5   6
ENDBRANCH   4   5
ENDBRANCH   3   4
ENDBRANCH   2   3
ENDBRANCH   1   2
BRANCH   1  12
ATOM     12  C   UNL     1      22.635 -10.877  28.146  1.00  0.00     0.000 C 
BRANCH  12  13
ATOM     13  C   UNL     1      24.119 -11.280  28.123  1.00  0.00    -0.000 C 
BRANCH  13  14
ATOM     14  C   UNL     1      24.378 -12.525  27.258  1.00  0.00    -0.000 C 
BRANCH  14  15
ATOM     15  C   UNL     1      25.283 -12.224  26.049  1.00  0.00    -0.000 C 
BRANCH  15  16
ATOM     16  C   UNL     1      26.754 -12.592  26.305  1.00  0.00    -0.000 C 
BRANCH  16  17
ATOM     17  C   UNL     1      27.409 -13.284  25.098  1.00  0.00    -0.000 C 
BRANCH  17  18
ATOM     18  C   UNL     1      26.398 -14.071  24.248  1.00  0.00    -0.000 C 
BRANCH  18  19
ATOM     19  C   UNL     1      26.295 -15.546  24.664  1.00  0.00    -0.003 C 
ATOM     20  C   UNL     1      25.031 -15.797  25.482  1.00  0.00     0.004 C 
ENDBRANCH  18  19
ENDBRANCH  17  18
ENDBRANCH  16  17
ENDBRANCH  15  16
ENDBRANCH  14  15
ENDBRANCH  13  14
ENDBRANCH  12  13
ENDBRANCH   1  12
TORSDOF 16
ENDMDL
MODEL 4
REMARK VINA RESULT:    -4.688      1.701      2.355
REMARK INTER + INTRA:         -11.126
REMARK INTER:                  -9.765
REMARK INTRA:                  -1.361
REMARK UNBOUND:                -2.053
REMARK SMILES CCCCCCCCCCCCCCCCCC(=O)[O-]
REMARK SMILES IDX 10 1 11 2 12 3 13 4 14 5 15 6 16 7 17 8 18 9 19 10 20 11
REMARK SMILES IDX 9 12 8 13 7 14 6 15 5 16 4 17 3 18 2 19 1 20
REMARK H PARENT
REMARK Flexibility Score: inf
ROOT
ATOM      1  C   UNL     1      23.513 -11.700  28.077  1.00  0.00     0.000 C 
ENDROOT
BRANCH   1   2
ATOM      2  C   UNL     1      23.640 -10.387  28.873  1.00  0.00     0.000 C 
BRANCH   2   3
ATOM      3  C   UNL     1      22.646  -9.308  28.412  1.00  0.00     0.000 C 
BRANCH   3   4
ATOM      4  C   UNL     1      21.875  -9.721  27.147  1.00  0.00     0.000 C 
BRANCH   4   5
ATOM      5  C   UNL     1      20.572  -8.924  26.965  1.00  0.00     0.000 C 
BRANCH   5   6
ATOM      6  C   UNL     1      20.183  -8.118  28.217  1.00  0.00     0.000 C 
BRANCH   6   7
ATOM      7  C   UNL     1      18.987  -8.679  29.012  1.00  0.00     0.006 C 
BRANCH   7   8
ATOM      8  C   UNL     1      19.341  -9.206  30.412  1.00  0.00     0.053 C 
BRANCH   8   9
ATOM      9  C   UNL     1      19.284 -10.701  30.479  1.00  0.00     0.041 C 
ATOM     10  O   UNL     1      20.044 -11.398  29.757  1.00  0.00    -0.550 OA
ATOM     11  O   UNL     1      18.414 -11.326  31.364  1.00  0.00    -0.550 OA
ENDBRANCH   8   9
ENDBRANCH   7   8
ENDBRANCH   6   7
ENDBRANCH   5   6
ENDBRANCH   4   5
ENDBRANCH   3   4
ENDBRANCH   2   3
ENDBRANCH   1   2
BRANCH   1  12
ATOM     12  C   UNL     1      24.841 -12.288  27.568  1.00  0.00     0.000 C 
BRANCH  12  13
ATOM     13  C   UNL     1      25.048 -12.085  26.057  1.00  0.00    -0.000 C 
BRANCH  13  14
ATOM     14  C   UNL     1      26.130 -13.012  25.480  1.00  0.00    -0.000 C 
BRANCH  14  15
ATOM     15  C   UNL     1      26.079 -14.426  26.087  1.00  0.00    -0.000 C 
BRANCH  15  16
ATOM     16  C   UNL     1      26.087 -15.530  25.017  1.00  0.00    -0.000 C 
BRANCH  16  17
ATOM     17  C   UNL     1      26.309 -14.978  23.599  1.00  0.00    -0.000 C 
BRANCH  17  18
ATOM     18  C   UNL     1      27.219 -15.879  22.750  1.00  0.00    -0.000 C 
BRANCH  18  19
ATOM     19  C   UNL     1      27.334 -17.304  23.312  1.00  0.00    -0.003 C 
ATOM     20  C   UNL     1      27.875 -18.267  22.259  1.00  0.00     0.004 C 
ENDBRANCH  18  19
ENDBRANCH  17  18
ENDBRANCH  16  17
ENDBRANCH  15  16
ENDBRANCH  14  15
ENDBRANCH  13  14
ENDBRANCH  12  13
ENDBRANCH   1  12
TORSDOF 16
ENDMDL
MODEL 5
REMARK VINA RESULT:    -4.672      6.173     10.220
REMARK INTER + INTRA:         -11.096
REMARK INTER:                  -9.390
REMARK INTRA:                  -1.706
REMARK UNBOUND:                -2.053
REMARK SMILES CCCCCCCCCCCCCCCCCC(=O)[O-]
REMARK SMILES IDX 10 1 11 2 12 3 13 4 14 5 15 6 16 7 17 8 18 9 19 10 20 11
REMARK SMILES IDX 9 12 8 13 7 14 6 15 5 16 4 17 3 18 2 19 1 20
REMARK H PARENT
REMARK Flexibility Score: inf
ROOT
ATOM      1  C   UNL     1      25.185 -15.545  25.447  1.00  0.00     0.000 C 
ENDROOT
BRANCH   1   2
ATOM      2  C   UNL     1      26.459 -15.941  24.678  1.00  0.00     0.000 C 
BRANCH   2   3
ATOM      3  C   UNL     1      26.458 -15.447  23.221  1.00  0.00     0.000 C 
BRANCH   3   4
ATOM      4  C   UNL     1      27.504 -16.169  22.356  1.00  0.00     0.000 C 
BRANCH   4   5
ATOM      5  C   UNL     1      27.640 -17.658  22.716  1.00  0.00     0.000 C 
BRANCH   5   6
ATOM      6  C   UNL     1      27.790 -18.562  21.478  1.00  0.00     0.000 C 
BRANCH   6   7
ATOM      7  C   UNL     1      28.834 -19.689  21.613  1.00  0.00     0.006 C 
BRANCH   7   8
ATOM      8  C   UNL     1      29.988 -19.378  22.579  1.00  0.00     0.053 C 
BRANCH   8   9
ATOM      9  C   UNL     1      30.036 -20.340  23.726  1.00  0.00     0.041 C 
ATOM     10  O   UNL     1      29.578 -20.009  24.851  1.00  0.00    -0.550 OA
ATOM     11  O   UNL     1      30.556 -21.615  23.544  1.00  0.00    -0.550 OA
ENDBRANCH   8   9
ENDBRANCH   7   8
ENDBRANCH   6   7
ENDBRANCH   5   6
ENDBRANCH   4   5
ENDBRANCH   3   4
ENDBRANCH   2   3
ENDBRANCH   1   2
BRANCH   1  12
ATOM     12  C   UNL     1      24.654 -14.130  25.151  1.00  0.00     0.000 C 
BRANCH  12  13
ATOM     13  C   UNL     1      25.031 -13.108  26.237  1.00  0.00    -0.000 C 
BRANCH  13  14
ATOM     14  C   UNL     1      26.107 -12.117  25.766  1.00  0.00    -0.000 C 
BRANCH  14  15
ATOM     15  C   UNL     1      27.424 -12.261  26.550  1.00  0.00    -0.000 C 
BRANCH  15  16
ATOM     16  C   UNL     1      28.665 -12.146  25.650  1.00  0.00    -0.000 C 
BRANCH  16  17
ATOM     17  C   UNL     1      28.326 -12.287  24.156  1.00  0.00    -0.000 C 
BRANCH  17  18
ATOM     18  C   UNL     1      29.356 -13.138  23.395  1.00  0.00    -0.000 C 
BRANCH  18  19
ATOM     19  C   UNL     1      30.489 -12.297  22.789  1.00  0.00    -0.003 C 
ATOM     20  C   UNL     1      29.982 -10.923  22.359  1.00  0.00     0.004 C 
ENDBRANCH  18  19
ENDBRANCH  17  18
ENDBRANCH  16  17
ENDBRANCH  15  16
ENDBRANCH  14  15
ENDBRANCH  13  14
ENDBRANCH  12  13
ENDBRANCH   1  12
TORSDOF 16
ENDMDL
MODEL 6
REMARK VINA RESULT:    -4.629      1.175      1.943
REMARK INTER + INTRA:         -11.011
REMARK INTER:                  -9.270
REMARK INTRA:                  -1.742
REMARK UNBOUND:                -2.053
REMARK SMILES CCCCCCCCCCCCCCCCCC(=O)[O-]
REMARK SMILES IDX 10 1 11 2 12 3 13 4 14 5 15 6 16 7 17 8 18 9 19 10 20 11
REMARK SMILES IDX 9 12 8 13 7 14 6 15 5 16 4 17 3 18 2 19 1 20
REMARK H PARENT
REMARK Flexibility Score: inf
ROOT
ATOM      1  C   UNL     1      22.968  -9.760  28.593  1.00  0.00     0.000 C 
ENDROOT
BRANCH   1   2
ATOM      2  C   UNL     1      22.373  -8.868  27.487  1.00  0.00     0.000 C 
BRANCH   2   3
ATOM      3  C   UNL     1      21.011  -9.371  26.979  1.00  0.00     0.000 C 
BRANCH   3   4
ATOM      4  C   UNL     1      19.877  -8.369  27.253  1.00  0.00     0.000 C 
BRANCH   4   5
ATOM      5  C   UNL     1      19.669  -8.111  28.755  1.00  0.00     0.000 C 
BRANCH   5   6
ATOM      6  C   UNL     1      19.077  -9.323  29.496  1.00  0.00     0.000 C 
BRANCH   6   7
ATOM      7  C   UNL     1      19.367  -9.372  31.010  1.00  0.00     0.006 C 
BRANCH   7   8
ATOM      8  C   UNL     1      20.537 -10.287  31.406  1.00  0.00     0.053 C 
BRANCH   8   9
ATOM      9  C   UNL     1      21.611  -9.541  32.136  1.00  0.00     0.041 C 
ATOM     10  O   UNL     1      21.968  -8.399  31.744  1.00  0.00    -0.550 OA
ATOM     11  O   UNL     1      22.195 -10.092  33.269  1.00  0.00    -0.550 OA
ENDBRANCH   8   9
ENDBRANCH   7   8
ENDBRANCH   6   7
ENDBRANCH   5   6
ENDBRANCH   4   5
ENDBRANCH   3   4
ENDBRANCH   2   3
ENDBRANCH   1   2
BRANCH   1  12
ATOM     12  C   UNL     1      22.709 -11.269  28.427  1.00  0.00     0.000 C 
BRANCH  12  13
ATOM     13  C   UNL     1      23.812 -11.983  27.628  1.00  0.00    -0.000 C 
BRANCH  13  14
ATOM     14  C   UNL     1      25.223 -11.529  28.036  1.00  0.00    -0.000 C 
BRANCH  14  15
ATOM     15  C   UNL     1      26.323 -12.194  27.189  1.00  0.00    -0.000 C 
BRANCH  15  16
ATOM     16  C   UNL     1      25.887 -12.431  25.734  1.00  0.00    -0.000 C 
BRANCH  16  17
ATOM     17  C   UNL     1      26.710 -13.531  25.041  1.00  0.00    -0.000 C 
BRANCH  17  18
ATOM     18  C   UNL     1      25.831 -14.523  24.262  1.00  0.00    -0.000 C 
BRANCH  18  19
ATOM     19  C   UNL     1      25.360 -15.703  25.125  1.00  0.00    -0.003 C 
ATOM     20  C   UNL     1      23.999 -15.414  25.752  1.00  0.00     0.004 C 
ENDBRANCH  18  19
ENDBRANCH  17  18
ENDBRANCH  16  17
ENDBRANCH  15  16
ENDBRANCH  14  15
ENDBRANCH  13  14
ENDBRANCH  12  13
ENDBRANCH   1  12
TORSDOF 16
ENDMDL
MODEL 7
REMARK VINA RESULT:    -4.597      5.823      8.859
REMARK INTER + INTRA:         -10.951
REMARK INTER:                  -9.362
REMARK INTRA:                  -1.589
REMARK UNBOUND:                -2.053
REMARK SMILES CCCCCCCCCCCCCCCCCC(=O)[O-]
REMARK SMILES IDX 10 1 11 2 12 3 13 4 14 5 15 6 16 7 17 8 18 9 19 10 20 11
REMARK SMILES IDX 9 12 8 13 7 14 6 15 5 16 4 17 3 18 2 19 1 20
REMARK H PARENT
REMARK Flexibility Score: inf
ROOT
ATOM      1  C   UNL     1      27.508 -16.248  22.499  1.00  0.00     0.000 C 
ENDROOT
BRANCH   1   2
ATOM      2  C   UNL     1      26.783 -15.317  23.490  1.00  0.00     0.000 C 
BRANCH   2   3
ATOM      3  C   UNL     1      26.355 -16.034  24.782  1.00  0.00     0.000 C 
BRANCH   3   4
ATOM      4  C   UNL     1      25.355 -15.209  25.608  1.00  0.00     0.000 C 
BRANCH   4   5
ATOM      5  C   UNL     1      25.011 -13.865  24.944  1.00  0.00     0.000 C 
BRANCH   5   6
ATOM      6  C   UNL     1      25.391 -12.653  25.814  1.00  0.00     0.000 C 
BRANCH   6   7
ATOM      7  C   UNL     1      26.789 -12.723  26.461  1.00  0.00     0.006 C 
BRANCH   7   8
ATOM      8  C   UNL     1      27.945 -12.327  25.527  1.00  0.00     0.053 C 
BRANCH   8   9
ATOM      9  C   UNL     1      28.916 -11.405  26.196  1.00  0.00     0.041 C 
ATOM     10  O   UNL     1      29.171 -10.279  25.693  1.00  0.00    -0.550 OA
ATOM     11  O   UNL     1      29.517 -11.774  27.393  1.00  0.00    -0.550 OA
ENDBRANCH   8   9
ENDBRANCH   7   8
ENDBRANCH   6   7
ENDBRANCH   5   6
ENDBRANCH   4   5
ENDBRANCH   3   4
ENDBRANCH   2   3
ENDBRANCH   1   2
BRANCH   1  12
ATOM     12  C   UNL     1      27.411 -17.750  22.821  1.00  0.00     0.000 C 
BRANCH  12  13
ATOM     13  C   UNL     1      28.686 -18.526  22.449  1.00  0.00    -0.000 C 
BRANCH  13  14
ATOM     14  C   UNL     1      29.142 -19.480  23.566  1.00  0.00    -0.000 C 
BRANCH  14  15
ATOM     15  C   UNL     1      30.671 -19.483  23.749  1.00  0.00    -0.000 C 
BRANCH  15  16
ATOM     16  C   UNL     1      31.409 -18.831  22.568  1.00  0.00    -0.000 C 
BRANCH  16  17
ATOM     17  C   UNL     1      32.091 -19.863  21.654  1.00  0.00    -0.000 C 
BRANCH  17  18
ATOM     18  C   UNL     1      31.765 -19.640  20.168  1.00  0.00    -0.000 C 
BRANCH  18  19
ATOM     19  C   UNL     1      30.373 -20.162  19.781  1.00  0.00    -0.003 C 
ATOM     20  C   UNL     1      30.162 -21.586  20.286  1.00  0.00     0.004 C 
ENDBRANCH  18  19
ENDBRANCH  17  18
ENDBRANCH  16  17
ENDBRANCH  15  16
ENDBRANCH  14  15
ENDBRANCH  13  14
ENDBRANCH  12  13
ENDBRANCH   1  12
TORSDOF 16
ENDMDL
MODEL 8
REMARK VINA RESULT:    -4.581      5.695      8.929
REMARK INTER + INTRA:         -10.918
REMARK INTER:                  -9.301
REMARK INTRA:                  -1.618
REMARK UNBOUND:                -2.053
REMARK SMILES CCCCCCCCCCCCCCCCCC(=O)[O-]
REMARK SMILES IDX 10 1 11 2 12 3 13 4 14 5 15 6 16 7 17 8 18 9 19 10 20 11
REMARK SMILES IDX 9 12 8 13 7 14 6 15 5 16 4 17 3 18 2 19 1 20
REMARK H PARENT
REMARK Flexibility Score: inf
ROOT
ATOM      1  C   UNL     1      27.354 -17.583  22.910  1.00  0.00     0.000 C 
ENDROOT
BRANCH   1   2
ATOM      2  C   UNL     1      27.414 -16.057  22.713  1.00  0.00     0.000 C 
BRANCH   2   3
ATOM      3  C   UNL     1      26.288 -15.312  23.451  1.00  0.00     0.000 C 
BRANCH   3   4
ATOM      4  C   UNL     1      26.086 -15.827  24.885  1.00  0.00     0.000 C 
BRANCH   4   5
ATOM      5  C   UNL     1      25.960 -14.686  25.908  1.00  0.00     0.000 C 
BRANCH   5   6
ATOM      6  C   UNL     1      25.183 -13.474  25.361  1.00  0.00     0.000 C 
BRANCH   6   7
ATOM      7  C   UNL     1      25.911 -12.120  25.485  1.00  0.00     0.006 C 
BRANCH   7   8
ATOM      8  C   UNL     1      27.429 -12.187  25.253  1.00  0.00     0.053 C 
BRANCH   8   9
ATOM      9  C   UNL     1      28.194 -11.505  26.344  1.00  0.00     0.041 C 
ATOM     10  O   UNL     1      28.780 -10.413  26.120  1.00  0.00    -0.550 OA
ATOM     11  O   UNL     1      28.234 -12.057  27.618  1.00  0.00    -0.550 OA
ENDBRANCH   8   9
ENDBRANCH   7   8
ENDBRANCH   6   7
ENDBRANCH   5   6
ENDBRANCH   4   5
ENDBRANCH   3   4
ENDBRANCH   2   3
ENDBRANCH   1   2
BRANCH   1  12
ATOM     12  C   UNL     1      27.778 -18.419  21.688  1.00  0.00     0.000 C 
BRANCH  12  13
ATOM     13  C   UNL     1      28.648 -17.630  20.695  1.00  0.00    -0.000 C 
BRANCH  13  14
ATOM     14  C   UNL     1      29.202 -18.514  19.566  1.00  0.00    -0.000 C 
BRANCH  14  15
ATOM     15  C   UNL     1      29.438 -19.967  20.018  1.00  0.00    -0.000 C 
BRANCH  15  16
ATOM     16  C   UNL     1      30.916 -20.259  20.324  1.00  0.00    -0.000 C 
BRANCH  16  17
ATOM     17  C   UNL     1      31.302 -19.900  21.770  1.00  0.00    -0.000 C 
BRANCH  17  18
ATOM     18  C   UNL     1      31.170 -21.094  22.729  1.00  0.00    -0.000 C 
BRANCH  18  19
ATOM     19  C   UNL     1      29.828 -21.110  23.476  1.00  0.00    -0.003 C 
ATOM     20  C   UNL     1      29.727 -19.936  24.446  1.00  0.00     0.004 C 
ENDBRANCH  18  19
ENDBRANCH  17  18
ENDBRANCH  16  17
ENDBRANCH  15  16
ENDBRANCH  14  15
ENDBRANCH  13  14
ENDBRANCH  12  13
ENDBRANCH   1  12
TORSDOF 16
ENDMDL
MODEL 9
REMARK VINA RESULT:    -4.539      5.296      8.372
REMARK INTER + INTRA:         -10.837
REMARK INTER:                  -8.515
REMARK INTRA:                  -2.322
REMARK UNBOUND:                -2.053
REMARK SMILES CCCCCCCCCCCCCCCCCC(=O)[O-]
REMARK SMILES IDX 10 1 11 2 12 3 13 4 14 5 15 6 16 7 17 8 18 9 19 10 20 11
REMARK SMILES IDX 9 12 8 13 7 14 6 15 5 16 4 17 3 18 2 19 1 20
REMARK H PARENT
REMARK Flexibility Score: inf
ROOT
ATOM      1  C   UNL     1      28.194 -12.579  24.437  1.00  0.00     0.000 C 
ENDROOT
BRANCH   1   2
ATOM      2  C   UNL     1      27.042 -12.148  25.363  1.00  0.00     0.000 C 
BRANCH   2   3
ATOM      3  C   UNL     1      26.574 -13.273  26.302  1.00  0.00     0.000 C 
BRANCH   3   4
ATOM      4  C   UNL     1      25.104 -13.659  26.069  1.00  0.00     0.000 C 
BRANCH   4   5
ATOM      5  C   UNL     1      24.937 -15.141  25.694  1.00  0.00     0.000 C 
BRANCH   5   6
ATOM      6  C   UNL     1      26.160 -15.713  24.955  1.00  0.00     0.000 C 
BRANCH   6   7
ATOM      7  C   UNL     1      26.181 -15.465  23.433  1.00  0.00     0.006 C 
BRANCH   7   8
ATOM      8  C   UNL     1      27.486 -15.883  22.736  1.00  0.00     0.053 C 
BRANCH   8   9
ATOM      9  C   UNL     1      27.382 -17.243  22.117  1.00  0.00     0.041 C 
ATOM     10  O   UNL     1      26.793 -17.394  21.015  1.00  0.00    -0.550 OA
ATOM     11  O   UNL     1      27.964 -18.339  22.741  1.00  0.00    -0.550 OA
ENDBRANCH   8   9
ENDBRANCH   7   8
ENDBRANCH   6   7
ENDBRANCH   5   6
ENDBRANCH   4   5
ENDBRANCH   3   4
ENDBRANCH   2   3
ENDBRANCH   1   2
BRANCH   1  12
ATOM     12  C   UNL     1      29.536 -11.867  24.685  1.00  0.00     0.000 C 
BRANCH  12  13
ATOM     13  C   UNL     1      29.386 -10.575  25.507  1.00  0.00    -0.000 C 
BRANCH  13  14
ATOM     14  C   UNL     1      30.310 -10.548  26.735  1.00  0.00    -0.000 C 
BRANCH  14  15
ATOM     15  C   UNL     1      30.272 -11.866  27.530  1.00  0.00    -0.000 C 
BRANCH  15  16
ATOM     16  C   UNL     1      29.151 -11.889  28.582  1.00  0.00    -0.000 C 
BRANCH  16  17
ATOM     17  C   UNL     1      28.936 -10.519  29.248  1.00  0.00    -0.000 C 
BRANCH  17  18
ATOM     18  C   UNL     1      27.460 -10.090  29.253  1.00  0.00    -0.000 C 
BRANCH  18  19
ATOM     19  C   UNL     1      26.501 -11.268  29.479  1.00  0.00    -0.003 C 
ATOM     20  C   UNL     1      25.146 -11.005  28.826  1.00  0.00     0.004 C 
ENDBRANCH  18  19
ENDBRANCH  17  18
ENDBRANCH  16  17
ENDBRANCH  15  16
ENDBRANCH  14  15
ENDBRANCH  13  14
ENDBRANCH  12  13
ENDBRANCH   1  12
TORSDOF 16
ENDMDL
