MODEL 1
REMARK VINA RESULT:    -4.627      0.000      0.000
REMARK INTER + INTRA:          -5.458
REMARK INTER:                  -5.303
REMARK INTRA:                  -0.155
REMARK UNBOUND:                -0.155
REMARK SMILES O=C([O-])C=Cc1ccc(O)cc1
REMARK SMILES IDX 6 1 7 2 12 3 8 4 11 5 9 6 5 7 4 8 2 9 1 10 3 11 10 12
REMARK H PARENT 10 13
REMARK Flexibility Score: inf
ROOT
ATOM      1  C   UNL     1     477.439  35.771 461.782  1.00  0.00    -0.025 A 
ATOM      2  C   UNL     1     478.119  34.778 461.056  1.00  0.00     0.012 A 
ATOM      3  C   UNL     1     477.777  37.122 461.565  1.00  0.00     0.012 A 
ATOM      4  C   UNL     1     479.129  35.122 460.154  1.00  0.00     0.047 A 
ATOM      5  C   UNL     1     478.788  37.463 460.662  1.00  0.00     0.047 A 
ATOM      6  C   UNL     1     479.468  36.466 459.956  1.00  0.00     0.115 A 
ENDROOT
BRANCH   1   7
ATOM      7  C   UNL     1     476.366  35.355 462.721  1.00  0.00     0.010 C 
ATOM      8  C   UNL     1     475.954  34.089 462.865  1.00  0.00     0.025 C 
BRANCH   8   9
ATOM      9  C   UNL     1     474.879  33.724 463.802  1.00  0.00     0.064 C 
ATOM     10  O   UNL     1     474.368  34.608 464.537  1.00  0.00    -0.545 OA
ATOM     11  O   UNL     1     474.416  32.416 463.888  1.00  0.00    -0.545 OA
ENDBRANCH   8   9
ENDBRANCH   1   7
BRANCH   6  12
ATOM     12  O   UNL     1     480.474  36.822 459.060  1.00  0.00    -0.508 OA
ATOM     13  H   UNL     1     480.258  37.173 458.134  1.00  0.00     0.293 HD
ENDBRANCH   6  12
TORSDOF 3
ENDMDL
MODEL 2
REMARK VINA RESULT:    -4.475      1.323      6.138
REMARK INTER + INTRA:          -5.284
REMARK INTER:                  -5.144
REMARK INTRA:                  -0.141
REMARK UNBOUND:                -0.155
REMARK SMILES O=C([O-])C=Cc1ccc(O)cc1
REMARK SMILES IDX 6 1 7 2 12 3 8 4 11 5 9 6 5 7 4 8 2 9 1 10 3 11 10 12
REMARK H PARENT 10 13
REMARK Flexibility Score: inf
ROOT
ATOM      1  C   UNL     1     478.146  36.432 461.222  1.00  0.00    -0.025 A 
ATOM      2  C   UNL     1     477.119  37.042 461.964  1.00  0.00     0.012 A 
ATOM      3  C   UNL     1     478.251  35.027 461.234  1.00  0.00     0.012 A 
ATOM      4  C   UNL     1     476.234  36.269 462.721  1.00  0.00     0.047 A 
ATOM      5  C   UNL     1     477.362  34.257 461.991  1.00  0.00     0.047 A 
ATOM      6  C   UNL     1     476.355  34.874 462.738  1.00  0.00     0.115 A 
ENDROOT
BRANCH   1   7
ATOM      7  C   UNL     1     479.055  37.296 460.426  1.00  0.00     0.010 C 
ATOM      8  C   UNL     1     479.750  36.865 459.365  1.00  0.00     0.025 C 
BRANCH   8   9
ATOM      9  C   UNL     1     480.648  37.755 458.612  1.00  0.00     0.064 C 
ATOM     10  O   UNL     1     480.424  37.978 457.394  1.00  0.00    -0.545 OA
ATOM     11  O   UNL     1     481.743  38.355 459.224  1.00  0.00    -0.545 OA
ENDBRANCH   8   9
ENDBRANCH   1   7
BRANCH   6  12
ATOM     12  O   UNL     1     475.478  34.094 463.488  1.00  0.00    -0.508 OA
ATOM     13  H   UNL     1     474.875  34.503 464.193  1.00  0.00     0.293 HD
ENDBRANCH   6  12
TORSDOF 3
ENDMDL
MODEL 3
REMARK VINA RESULT:    -4.453      1.307      5.974
REMARK INTER + INTRA:          -5.259
REMARK INTER:                  -5.109
REMARK INTRA:                  -0.150
REMARK UNBOUND:                -0.155
REMARK SMILES O=C([O-])C=Cc1ccc(O)cc1
REMARK SMILES IDX 6 1 7 2 12 3 8 4 11 5 9 6 5 7 4 8 2 9 1 10 3 11 10 12
REMARK H PARENT 10 13
REMARK Flexibility Score: inf
ROOT
ATOM      1  C   UNL     1     478.065  36.474 461.213  1.00  0.00    -0.025 A 
ATOM      2  C   UNL     1     478.236  35.079 461.232  1.00  0.00     0.012 A 
ATOM      3  C   UNL     1     477.042  37.044 461.998  1.00  0.00     0.012 A 
ATOM      4  C   UNL     1     477.392  34.269 461.996  1.00  0.00     0.047 A 
ATOM      5  C   UNL     1     476.201  36.230 462.763  1.00  0.00     0.047 A 
ATOM      6  C   UNL     1     476.370  34.843 462.762  1.00  0.00     0.115 A 
ENDROOT
BRANCH   1   7
ATOM      7  C   UNL     1     478.993  37.292 460.392  1.00  0.00     0.010 C 
ATOM      8  C   UNL     1     479.727  36.800 459.385  1.00  0.00     0.025 C 
BRANCH   8   9
ATOM      9  C   UNL     1     480.643  37.647 458.605  1.00  0.00     0.064 C 
ATOM     10  O   UNL     1     480.539  37.684 457.351  1.00  0.00    -0.545 OA
ATOM     11  O   UNL     1     481.624  38.408 459.230  1.00  0.00    -0.545 OA
ENDBRANCH   8   9
ENDBRANCH   1   7
BRANCH   6  12
ATOM     12  O   UNL     1     475.522  34.046 463.528  1.00  0.00    -0.508 OA
ATOM     13  H   UNL     1     475.827  33.637 464.404  1.00  0.00     0.293 HD
ENDBRANCH   6  12
TORSDOF 3
ENDMDL
MODEL 4
REMARK VINA RESULT:    -4.440      1.669      6.413
REMARK INTER + INTRA:          -5.244
REMARK INTER:                  -5.096
REMARK INTRA:                  -0.148
REMARK UNBOUND:                -0.155
REMARK SMILES O=C([O-])C=Cc1ccc(O)cc1
REMARK SMILES IDX 6 1 7 2 12 3 8 4 11 5 9 6 5 7 4 8 2 9 1 10 3 11 10 12
REMARK H PARENT 10 13
REMARK Flexibility Score: inf
ROOT
ATOM      1  C   UNL     1     478.634  36.360 460.589  1.00  0.00    -0.025 A 
ATOM      2  C   UNL     1     477.763  37.325 461.125  1.00  0.00     0.012 A 
ATOM      3  C   UNL     1     478.462  35.011 460.958  1.00  0.00     0.012 A 
ATOM      4  C   UNL     1     476.761  36.957 462.026  1.00  0.00     0.047 A 
ATOM      5  C   UNL     1     477.458  34.646 461.860  1.00  0.00     0.047 A 
ATOM      6  C   UNL     1     476.607  35.615 462.398  1.00  0.00     0.115 A 
ENDROOT
BRANCH   1   7
ATOM      7  C   UNL     1     479.676  36.800 459.627  1.00  0.00     0.010 C 
ATOM      8  C   UNL     1     480.320  37.972 459.713  1.00  0.00     0.025 C 
BRANCH   8   9
ATOM      9  C   UNL     1     481.339  38.372 458.730  1.00  0.00     0.064 C 
ATOM     10  O   UNL     1     481.211  38.027 457.526  1.00  0.00    -0.545 OA
ATOM     11  O   UNL     1     482.444  39.126 459.108  1.00  0.00    -0.545 OA
ENDBRANCH   8   9
ENDBRANCH   1   7
BRANCH   6  12
ATOM     12  O   UNL     1     475.612  35.236 463.296  1.00  0.00    -0.508 OA
ATOM     13  H   UNL     1     474.658  35.075 462.993  1.00  0.00     0.293 HD
ENDBRANCH   6  12
TORSDOF 3
ENDMDL
MODEL 5
REMARK VINA RESULT:    -4.159      3.082      3.860
REMARK INTER + INTRA:          -4.922
REMARK INTER:                  -4.784
REMARK INTRA:                  -0.137
REMARK UNBOUND:                -0.155
REMARK SMILES O=C([O-])C=Cc1ccc(O)cc1
REMARK SMILES IDX 6 1 7 2 12 3 8 4 11 5 9 6 5 7 4 8 2 9 1 10 3 11 10 12
REMARK H PARENT 10 13
REMARK Flexibility Score: inf
ROOT
ATOM      1  C   UNL     1     477.690  37.259 461.594  1.00  0.00    -0.025 A 
ATOM      2  C   UNL     1     478.602  37.655 460.601  1.00  0.00     0.012 A 
ATOM      3  C   UNL     1     477.524  35.883 461.854  1.00  0.00     0.012 A 
ATOM      4  C   UNL     1     479.313  36.702 459.867  1.00  0.00     0.047 A 
ATOM      5  C   UNL     1     478.238  34.933 461.118  1.00  0.00     0.047 A 
ATOM      6  C   UNL     1     479.131  35.337 460.122  1.00  0.00     0.115 A 
ENDROOT
BRANCH   1   7
ATOM      7  C   UNL     1     476.966  38.309 462.353  1.00  0.00     0.010 C 
ATOM      8  C   UNL     1     475.631  38.372 462.449  1.00  0.00     0.025 C 
BRANCH   8   9
ATOM      9  C   UNL     1     474.955  39.439 463.204  1.00  0.00     0.064 C 
ATOM     10  O   UNL     1     475.490  39.895 464.249  1.00  0.00    -0.545 OA
ATOM     11  O   UNL     1     473.734  39.954 462.784  1.00  0.00    -0.545 OA
ENDBRANCH   8   9
ENDBRANCH   1   7
BRANCH   6  12
ATOM     12  O   UNL     1     479.834  34.378 459.396  1.00  0.00    -0.508 OA
ATOM     13  H   UNL     1     480.845  34.321 459.435  1.00  0.00     0.293 HD
ENDBRANCH   6  12
TORSDOF 3
ENDMDL
MODEL 6
REMARK VINA RESULT:    -4.041      2.108      5.927
REMARK INTER + INTRA:          -4.786
REMARK INTER:                  -4.645
REMARK INTRA:                  -0.141
REMARK UNBOUND:                -0.155
REMARK SMILES O=C([O-])C=Cc1ccc(O)cc1
REMARK SMILES IDX 6 1 7 2 12 3 8 4 11 5 9 6 5 7 4 8 2 9 1 10 3 11 10 12
REMARK H PARENT 10 13
REMARK Flexibility Score: inf
ROOT
ATOM      1  C   UNL     1     477.900  36.974 461.191  1.00  0.00    -0.025 A 
ATOM      2  C   UNL     1     478.513  35.760 460.837  1.00  0.00     0.012 A 
ATOM      3  C   UNL     1     476.829  36.953 462.107  1.00  0.00     0.012 A 
ATOM      4  C   UNL     1     478.053  34.550 461.365  1.00  0.00     0.047 A 
ATOM      5  C   UNL     1     476.372  35.741 462.633  1.00  0.00     0.047 A 
ATOM      6  C   UNL     1     476.978  34.538 462.263  1.00  0.00     0.115 A 
ENDROOT
BRANCH   1   7
ATOM      7  C   UNL     1     478.433  38.234 460.612  1.00  0.00     0.010 C 
ATOM      8  C   UNL     1     479.669  38.695 460.843  1.00  0.00     0.025 C 
BRANCH   8   9
ATOM      9  C   UNL     1     480.151  39.955 460.256  1.00  0.00     0.064 C 
ATOM     10  O   UNL     1     479.379  40.947 460.194  1.00  0.00    -0.545 OA
ATOM     11  O   UNL     1     481.447  40.069 459.766  1.00  0.00    -0.545 OA
ENDBRANCH   8   9
ENDBRANCH   1   7
BRANCH   6  12
ATOM     12  O   UNL     1     476.511  33.338 462.795  1.00  0.00    -0.508 OA
ATOM     13  H   UNL     1     476.857  32.443 462.468  1.00  0.00     0.293 HD
ENDBRANCH   6  12
TORSDOF 3
ENDMDL
MODEL 7
REMARK VINA RESULT:    -3.936      8.920     10.873
REMARK INTER + INTRA:          -4.666
REMARK INTER:                  -4.522
REMARK INTRA:                  -0.144
REMARK UNBOUND:                -0.155
REMARK SMILES O=C([O-])C=Cc1ccc(O)cc1
REMARK SMILES IDX 6 1 7 2 12 3 8 4 11 5 9 6 5 7 4 8 2 9 1 10 3 11 10 12
REMARK H PARENT 10 13
REMARK Flexibility Score: inf
ROOT
ATOM      1  C   UNL     1     485.505  40.439 460.295  1.00  0.00    -0.025 A 
ATOM      2  C   UNL     1     485.294  39.133 460.772  1.00  0.00     0.012 A 
ATOM      3  C   UNL     1     485.304  40.702 458.925  1.00  0.00     0.012 A 
ATOM      4  C   UNL     1     484.916  38.109 459.900  1.00  0.00     0.047 A 
ATOM      5  C   UNL     1     484.924  39.675 458.055  1.00  0.00     0.047 A 
ATOM      6  C   UNL     1     484.732  38.377 458.538  1.00  0.00     0.115 A 
ENDROOT
BRANCH   1   7
ATOM      7  C   UNL     1     485.897  41.494 461.263  1.00  0.00     0.010 C 
ATOM      8  C   UNL     1     486.814  41.319 462.223  1.00  0.00     0.025 C 
BRANCH   8   9
ATOM      9  C   UNL     1     487.164  42.391 463.169  1.00  0.00     0.064 C 
ATOM     10  O   UNL     1     487.544  43.508 462.729  1.00  0.00    -0.545 OA
ATOM     11  O   UNL     1     487.080  42.193 464.542  1.00  0.00    -0.545 OA
ENDBRANCH   8   9
ENDBRANCH   1   7
BRANCH   6  12
ATOM     12  O   UNL     1     484.355  37.365 457.659  1.00  0.00    -0.508 OA
ATOM     13  H   UNL     1     484.494  36.386 457.887  1.00  0.00     0.293 HD
ENDBRANCH   6  12
TORSDOF 3
ENDMDL
MODEL 8
REMARK VINA RESULT:    -3.736      3.591      5.472
REMARK INTER + INTRA:          -4.437
REMARK INTER:                  -4.297
REMARK INTRA:                  -0.140
REMARK UNBOUND:                -0.155
REMARK SMILES O=C([O-])C=Cc1ccc(O)cc1
REMARK SMILES IDX 6 1 7 2 12 3 8 4 11 5 9 6 5 7 4 8 2 9 1 10 3 11 10 12
REMARK H PARENT 10 13
REMARK Flexibility Score: inf
ROOT
ATOM      1  C   UNL     1     480.822  38.032 458.479  1.00  0.00    -0.025 A 
ATOM      2  C   UNL     1     481.982  38.456 459.151  1.00  0.00     0.012 A 
ATOM      3  C   UNL     1     480.933  37.588 457.146  1.00  0.00     0.012 A 
ATOM      4  C   UNL     1     483.219  38.461 458.500  1.00  0.00     0.047 A 
ATOM      5  C   UNL     1     482.172  37.594 456.499  1.00  0.00     0.047 A 
ATOM      6  C   UNL     1     483.317  38.031 457.171  1.00  0.00     0.115 A 
ENDROOT
BRANCH   1   7
ATOM      7  C   UNL     1     479.533  38.037 459.217  1.00  0.00     0.010 C 
ATOM      8  C   UNL     1     479.269  37.236 460.258  1.00  0.00     0.025 C 
BRANCH   8   9
ATOM      9  C   UNL     1     477.973  37.267 460.953  1.00  0.00     0.064 C 
ATOM     10  O   UNL     1     477.627  36.290 461.668  1.00  0.00    -0.545 OA
ATOM     11  O   UNL     1     477.121  38.359 460.834  1.00  0.00    -0.545 OA
ENDBRANCH   8   9
ENDBRANCH   1   7
BRANCH   6  12
ATOM     12  O   UNL     1     484.544  38.032 456.512  1.00  0.00    -0.508 OA
ATOM     13  H   UNL     1     485.085  38.882 456.401  1.00  0.00     0.293 HD
ENDBRANCH   6  12
TORSDOF 3
ENDMDL
MODEL 9
REMARK VINA RESULT:    -3.730      3.419      4.824
REMARK INTER + INTRA:          -4.430
REMARK INTER:                  -4.278
REMARK INTRA:                  -0.152
REMARK UNBOUND:                -0.155
REMARK SMILES O=C([O-])C=Cc1ccc(O)cc1
REMARK SMILES IDX 6 1 7 2 12 3 8 4 11 5 9 6 5 7 4 8 2 9 1 10 3 11 10 12
REMARK H PARENT 10 13
REMARK Flexibility Score: inf
ROOT
ATOM      1  C   UNL     1     478.240  37.311 461.440  1.00  0.00    -0.025 A 
ATOM      2  C   UNL     1     479.115  37.641 460.390  1.00  0.00     0.012 A 
ATOM      3  C   UNL     1     477.907  35.957 461.647  1.00  0.00     0.012 A 
ATOM      4  C   UNL     1     479.626  36.647 459.551  1.00  0.00     0.047 A 
ATOM      5  C   UNL     1     478.421  34.965 460.806  1.00  0.00     0.047 A 
ATOM      6  C   UNL     1     479.278  35.306 459.756  1.00  0.00     0.115 A 
ENDROOT
BRANCH   1   7
ATOM      7  C   UNL     1     477.732  38.402 462.310  1.00  0.00     0.010 C 
ATOM      8  C   UNL     1     478.369  39.566 462.492  1.00  0.00     0.025 C 
BRANCH   8   9
ATOM      9  C   UNL     1     477.833  40.616 463.373  1.00  0.00     0.064 C 
ATOM     10  O   UNL     1     476.587  40.744 463.500  1.00  0.00    -0.545 OA
ATOM     11  O   UNL     1     478.680  41.470 464.070  1.00  0.00    -0.545 OA
ENDBRANCH   8   9
ENDBRANCH   1   7
BRANCH   6  12
ATOM     12  O   UNL     1     479.781  34.307 458.925  1.00  0.00    -0.508 OA
ATOM     13  H   UNL     1     480.064  34.503 457.972  1.00  0.00     0.293 HD
ENDBRANCH   6  12
TORSDOF 3
ENDMDL
