MODEL 1
REMARK VINA RESULT:    24.924      0.000      0.000
REMARK INTER + INTRA:          64.304
REMARK INTER:                  65.721
REMARK INTRA:                  -1.418
REMARK UNBOUND:                -1.418
REMARK SMILES CCCCCCCCCCCCCCCCCCCCCCCCCCCCCC(=O)[O-]
REMARK SMILES IDX 16 1 17 2 18 3 19 4 20 5 21 6 22 7 23 8 24 9 25 10 26 11
REMARK SMILES IDX 27 12 28 13 29 14 30 15 31 16 32 17 15 18 14 19 13 20 12 21
REMARK SMILES IDX 11 22 10 23 9 24 8 25 7 26 6 27 5 28 4 29 3 30 2 31 1 32
REMARK H PARENT
REMARK Flexibility Score: inf
ROOT
ATOM      1  C   UNL     1       6.570  15.676  45.991  1.00  0.00     0.000 C 
ENDROOT
BRANCH   1   2
ATOM      2  C   UNL     1       7.680  15.728  44.925  1.00  0.00     0.000 C 
BRANCH   2   3
ATOM      3  C   UNL     1       8.879  14.827  45.277  1.00  0.00     0.000 C 
BRANCH   3   4
ATOM      4  C   UNL     1       9.343  13.975  44.076  1.00  0.00     0.000 C 
BRANCH   4   5
ATOM      5  C   UNL     1      10.788  14.259  43.629  1.00  0.00     0.000 C 
BRANCH   5   6
ATOM      6  C   UNL     1      11.302  13.256  42.582  1.00  0.00     0.000 C 
BRANCH   6   7
ATOM      7  C   UNL     1      12.039  12.062  43.231  1.00  0.00     0.000 C 
BRANCH   7   8
ATOM      8  C   UNL     1      13.545  12.308  43.425  1.00  0.00     0.000 C 
BRANCH   8   9
ATOM      9  C   UNL     1      14.239  11.173  44.196  1.00  0.00     0.000 C 
BRANCH   9  10
ATOM     10  C   UNL     1      14.662  11.591  45.613  1.00  0.00     0.000 C 
BRANCH  10  11
ATOM     11  C   UNL     1      16.112  11.195  45.945  1.00  0.00     0.000 C 
BRANCH  11  12
ATOM     12  C   UNL     1      16.996  11.099  44.691  1.00  0.00     0.000 C 
BRANCH  12  13
ATOM     13  C   UNL     1      17.630  12.446  44.312  1.00  0.00     0.006 C 
BRANCH  13  14
ATOM     14  C   UNL     1      17.571  12.673  42.799  1.00  0.00     0.053 C 
BRANCH  14  15
ATOM     15  C   UNL     1      17.300  14.113  42.483  1.00  0.00     0.041 C 
ATOM     16  O   UNL     1      16.834  14.439  41.358  1.00  0.00    -0.550 OA
ATOM     17  O   UNL     1      17.584  15.097  43.421  1.00  0.00    -0.550 OA
ENDBRANCH  14  15
ENDBRANCH  13  14
ENDBRANCH  12  13
ENDBRANCH  11  12
ENDBRANCH  10  11
ENDBRANCH   9  10
ENDBRANCH   8   9
ENDBRANCH   7   8
ENDBRANCH   6   7
ENDBRANCH   5   6
ENDBRANCH   4   5
ENDBRANCH   3   4
ENDBRANCH   2   3
ENDBRANCH   1   2
BRANCH   1  18
ATOM     18  C   UNL     1       6.105  17.066  46.484  1.00  0.00     0.000 C 
BRANCH  18  19
ATOM     19  C   UNL     1       6.649  17.449  47.876  1.00  0.00     0.000 C 
BRANCH  19  20
ATOM     20  C   UNL     1       5.991  18.687  48.514  1.00  0.00     0.000 C 
BRANCH  20  21
ATOM     21  C   UNL     1       5.792  18.608  50.040  1.00  0.00     0.000 C 
BRANCH  21  22
ATOM     22  C   UNL     1       4.633  19.455  50.599  1.00  0.00     0.000 C 
BRANCH  22  23
ATOM     23  C   UNL     1       5.046  20.876  51.042  1.00  0.00     0.000 C 
BRANCH  23  24
ATOM     24  C   UNL     1       5.525  20.935  52.506  1.00  0.00    -0.000 C 
BRANCH  24  25
ATOM     25  C   UNL     1       4.460  20.435  53.496  1.00  0.00    -0.000 C 
BRANCH  25  26
ATOM     26  C   UNL     1       4.795  20.777  54.956  1.00  0.00    -0.000 C 
BRANCH  26  27
ATOM     27  C   UNL     1       6.156  20.191  55.355  1.00  0.00    -0.000 C 
BRANCH  27  28
ATOM     28  C   UNL     1       7.128  21.296  55.798  1.00  0.00    -0.000 C 
BRANCH  28  29
ATOM     29  C   UNL     1       8.516  21.154  55.137  1.00  0.00    -0.000 C 
BRANCH  29  30
ATOM     30  C   UNL     1       9.463  20.200  55.884  1.00  0.00    -0.000 C 
BRANCH  30  31
ATOM     31  C   UNL     1      10.869  20.156  55.271  1.00  0.00    -0.003 C 
ATOM     32  C   UNL     1      11.862  20.947  56.119  1.00  0.00     0.004 C 
ENDBRANCH  30  31
ENDBRANCH  29  30
ENDBRANCH  28  29
ENDBRANCH  27  28
ENDBRANCH  26  27
ENDBRANCH  25  26
ENDBRANCH  24  25
ENDBRANCH  23  24
ENDBRANCH  22  23
ENDBRANCH  21  22
ENDBRANCH  20  21
ENDBRANCH  19  20
ENDBRANCH  18  19
ENDBRANCH   1  18
TORSDOF 28
ENDMDL
MODEL 2
REMARK VINA RESULT:    26.312      2.160      2.606
REMARK INTER + INTRA:          67.964
REMARK INTER:                  69.195
REMARK INTRA:                  -1.231
REMARK UNBOUND:                -1.418
REMARK SMILES CCCCCCCCCCCCCCCCCCCCCCCCCCCCCC(=O)[O-]
REMARK SMILES IDX 16 1 17 2 18 3 19 4 20 5 21 6 22 7 23 8 24 9 25 10 26 11
REMARK SMILES IDX 27 12 28 13 29 14 30 15 31 16 32 17 15 18 14 19 13 20 12 21
REMARK SMILES IDX 11 22 10 23 9 24 8 25 7 26 6 27 5 28 4 29 3 30 2 31 1 32
REMARK H PARENT
REMARK Flexibility Score: inf
ROOT
ATOM      1  C   UNL     1       6.493  15.718  45.987  1.00  0.00     0.000 C 
ENDROOT
BRANCH   1   2
ATOM      2  C   UNL     1       7.522  15.769  44.843  1.00  0.00     0.000 C 
BRANCH   2   3
ATOM      3  C   UNL     1       8.678  14.770  45.044  1.00  0.00     0.000 C 
BRANCH   3   4
ATOM      4  C   UNL     1       8.931  13.908  43.788  1.00  0.00     0.000 C 
BRANCH   4   5
ATOM      5  C   UNL     1      10.311  14.132  43.144  1.00  0.00     0.000 C 
BRANCH   5   6
ATOM      6  C   UNL     1      10.566  13.215  41.935  1.00  0.00     0.000 C 
BRANCH   6   7
ATOM      7  C   UNL     1      11.274  11.902  42.338  1.00  0.00     0.000 C 
BRANCH   7   8
ATOM      8  C   UNL     1      12.807  12.023  42.380  1.00  0.00     0.000 C 
BRANCH   8   9
ATOM      9  C   UNL     1      13.488  10.770  42.953  1.00  0.00     0.000 C 
BRANCH   9  10
ATOM     10  C   UNL     1      13.971  10.966  44.399  1.00  0.00     0.000 C 
BRANCH  10  11
ATOM     11  C   UNL     1      15.446  10.572  44.594  1.00  0.00     0.000 C 
BRANCH  11  12
ATOM     12  C   UNL     1      16.233  11.621  45.396  1.00  0.00     0.000 C 
BRANCH  12  13
ATOM     13  C   UNL     1      15.987  11.515  46.909  1.00  0.00     0.006 C 
BRANCH  13  14
ATOM     14  C   UNL     1      15.719  12.893  47.519  1.00  0.00     0.053 C 
BRANCH  14  15
ATOM     15  C   UNL     1      14.593  12.833  48.505  1.00  0.00     0.041 C 
ATOM     16  O   UNL     1      13.983  13.886  48.838  1.00  0.00    -0.550 OA
ATOM     17  O   UNL     1      14.230  11.619  49.075  1.00  0.00    -0.550 OA
ENDBRANCH  14  15
ENDBRANCH  13  14
ENDBRANCH  12  13
ENDBRANCH  11  12
ENDBRANCH  10  11
ENDBRANCH   9  10
ENDBRANCH   8   9
ENDBRANCH   7   8
ENDBRANCH   6   7
ENDBRANCH   5   6
ENDBRANCH   4   5
ENDBRANCH   3   4
ENDBRANCH   2   3
ENDBRANCH   1   2
BRANCH   1  18
ATOM     18  C   UNL     1       6.020  17.108  46.471  1.00  0.00     0.000 C 
BRANCH  18  19
ATOM     19  C   UNL     1       6.565  17.506  47.858  1.00  0.00     0.000 C 
BRANCH  19  20
ATOM     20  C   UNL     1       5.934  18.772  48.467  1.00  0.00     0.000 C 
BRANCH  20  21
ATOM     21  C   UNL     1       5.708  18.722  49.990  1.00  0.00     0.000 C 
BRANCH  21  22
ATOM     22  C   UNL     1       4.553  19.596  50.516  1.00  0.00     0.000 C 
BRANCH  22  23
ATOM     23  C   UNL     1       4.981  21.019  50.938  1.00  0.00     0.000 C 
BRANCH  23  24
ATOM     24  C   UNL     1       5.367  21.116  52.427  1.00  0.00    -0.000 C 
BRANCH  24  25
ATOM     25  C   UNL     1       4.211  20.722  53.363  1.00  0.00    -0.000 C 
BRANCH  25  26
ATOM     26  C   UNL     1       4.462  21.129  54.823  1.00  0.00    -0.000 C 
BRANCH  26  27
ATOM     27  C   UNL     1       5.770  20.516  55.343  1.00  0.00    -0.000 C 
BRANCH  27  28
ATOM     28  C   UNL     1       6.734  21.606  55.837  1.00  0.00    -0.000 C 
BRANCH  28  29
ATOM     29  C   UNL     1       8.165  21.412  55.291  1.00  0.00    -0.000 C 
BRANCH  29  30
ATOM     30  C   UNL     1       9.021  20.444  56.124  1.00  0.00    -0.000 C 
BRANCH  30  31
ATOM     31  C   UNL     1      10.474  20.365  55.639  1.00  0.00    -0.003 C 
ATOM     32  C   UNL     1      11.280  21.568  56.121  1.00  0.00     0.004 C 
ENDBRANCH  30  31
ENDBRANCH  29  30
ENDBRANCH  28  29
ENDBRANCH  27  28
ENDBRANCH  26  27
ENDBRANCH  25  26
ENDBRANCH  24  25
ENDBRANCH  23  24
ENDBRANCH  22  23
ENDBRANCH  21  22
ENDBRANCH  20  21
ENDBRANCH  19  20
ENDBRANCH  18  19
ENDBRANCH   1  18
TORSDOF 28
ENDMDL
MODEL 3
REMARK VINA RESULT:    26.717      5.044     12.208
REMARK INTER + INTRA:          69.031
REMARK INTER:                  70.058
REMARK INTRA:                  -1.028
REMARK UNBOUND:                -1.418
REMARK SMILES CCCCCCCCCCCCCCCCCCCCCCCCCCCCCC(=O)[O-]
REMARK SMILES IDX 16 1 17 2 18 3 19 4 20 5 21 6 22 7 23 8 24 9 25 10 26 11
REMARK SMILES IDX 27 12 28 13 29 14 30 15 31 16 32 17 15 18 14 19 13 20 12 21
REMARK SMILES IDX 11 22 10 23 9 24 8 25 7 26 6 27 5 28 4 29 3 30 2 31 1 32
REMARK H PARENT
REMARK Flexibility Score: inf
ROOT
ATOM      1  C   UNL     1       6.460  18.324  49.172  1.00  0.00     0.000 C 
ENDROOT
BRANCH   1   2
ATOM      2  C   UNL     1       5.252  18.808  49.995  1.00  0.00     0.000 C 
BRANCH   2   3
ATOM      3  C   UNL     1       5.374  20.287  50.409  1.00  0.00     0.000 C 
BRANCH   3   4
ATOM      4  C   UNL     1       5.646  20.451  51.920  1.00  0.00     0.000 C 
BRANCH   4   5
ATOM      5  C   UNL     1       4.385  20.357  52.796  1.00  0.00     0.000 C 
BRANCH   5   6
ATOM      6  C   UNL     1       4.110  21.643  53.595  1.00  0.00     0.000 C 
BRANCH   6   7
ATOM      7  C   UNL     1       5.188  21.902  54.672  1.00  0.00     0.000 C 
BRANCH   7   8
ATOM      8  C   UNL     1       5.985  20.641  55.051  1.00  0.00     0.000 C 
BRANCH   8   9
ATOM      9  C   UNL     1       7.425  20.664  54.512  1.00  0.00     0.000 C 
BRANCH   9  10
ATOM     10  C   UNL     1       8.456  21.029  55.591  1.00  0.00     0.000 C 
BRANCH  10  11
ATOM     11  C   UNL     1       9.350  19.841  55.989  1.00  0.00     0.000 C 
BRANCH  11  12
ATOM     12  C   UNL     1      10.830  20.237  56.123  1.00  0.00     0.000 C 
BRANCH  12  13
ATOM     13  C   UNL     1      11.230  21.357  55.150  1.00  0.00     0.006 C 
BRANCH  13  14
ATOM     14  C   UNL     1      12.451  22.123  55.668  1.00  0.00     0.053 C 
BRANCH  14  15
ATOM     15  C   UNL     1      13.723  21.454  55.245  1.00  0.00     0.041 C 
ATOM     16  O   UNL     1      13.693  20.309  54.719  1.00  0.00    -0.550 OA
ATOM     17  O   UNL     1      14.944  22.084  55.452  1.00  0.00    -0.550 OA
ENDBRANCH  14  15
ENDBRANCH  13  14
ENDBRANCH  12  13
ENDBRANCH  11  12
ENDBRANCH  10  11
ENDBRANCH   9  10
ENDBRANCH   8   9
ENDBRANCH   7   8
ENDBRANCH   6   7
ENDBRANCH   5   6
ENDBRANCH   4   5
ENDBRANCH   3   4
ENDBRANCH   2   3
ENDBRANCH   1   2
BRANCH   1  18
ATOM     18  C   UNL     1       6.085  17.720  47.799  1.00  0.00     0.000 C 
BRANCH  18  19
ATOM     19  C   UNL     1       6.067  18.747  46.648  1.00  0.00     0.000 C 
BRANCH  19  20
ATOM     20  C   UNL     1       4.691  18.962  45.990  1.00  0.00     0.000 C 
BRANCH  20  21
ATOM     21  C   UNL     1       4.607  18.561  44.504  1.00  0.00     0.000 C 
BRANCH  21  22
ATOM     22  C   UNL     1       5.835  17.814  43.951  1.00  0.00     0.000 C 
BRANCH  22  23
ATOM     23  C   UNL     1       5.958  17.854  42.412  1.00  0.00     0.000 C 
BRANCH  23  24
ATOM     24  C   UNL     1       6.661  16.612  41.831  1.00  0.00    -0.000 C 
BRANCH  24  25
ATOM     25  C   UNL     1       7.577  15.920  42.855  1.00  0.00    -0.000 C 
BRANCH  25  26
ATOM     26  C   UNL     1       8.263  14.667  42.290  1.00  0.00    -0.000 C 
BRANCH  26  27
ATOM     27  C   UNL     1       8.880  13.827  43.416  1.00  0.00    -0.000 C 
BRANCH  27  28
ATOM     28  C   UNL     1       8.062  13.950  44.712  1.00  0.00    -0.000 C 
BRANCH  28  29
ATOM     29  C   UNL     1       8.960  14.099  45.958  1.00  0.00    -0.000 C 
BRANCH  29  30
ATOM     30  C   UNL     1       9.633  15.477  46.076  1.00  0.00    -0.000 C 
BRANCH  30  31
ATOM     31  C   UNL     1      10.140  15.773  47.493  1.00  0.00    -0.003 C 
ATOM     32  C   UNL     1      11.659  15.642  47.572  1.00  0.00     0.004 C 
ENDBRANCH  30  31
ENDBRANCH  29  30
ENDBRANCH  28  29
ENDBRANCH  27  28
ENDBRANCH  26  27
ENDBRANCH  25  26
ENDBRANCH  24  25
ENDBRANCH  23  24
ENDBRANCH  22  23
ENDBRANCH  21  22
ENDBRANCH  20  21
ENDBRANCH  19  20
ENDBRANCH  18  19
ENDBRANCH   1  18
TORSDOF 28
ENDMDL
MODEL 4
REMARK VINA RESULT:    26.837      5.076     12.766
REMARK INTER + INTRA:          69.347
REMARK INTER:                  70.863
REMARK INTRA:                  -1.516
REMARK UNBOUND:                -1.418
REMARK SMILES CCCCCCCCCCCCCCCCCCCCCCCCCCCCCC(=O)[O-]
REMARK SMILES IDX 16 1 17 2 18 3 19 4 20 5 21 6 22 7 23 8 24 9 25 10 26 11
REMARK SMILES IDX 27 12 28 13 29 14 30 15 31 16 32 17 15 18 14 19 13 20 12 21
REMARK SMILES IDX 11 22 10 23 9 24 8 25 7 26 6 27 5 28 4 29 3 30 2 31 1 32
REMARK H PARENT
REMARK Flexibility Score: inf
ROOT
ATOM      1  C   UNL     1       6.976  18.238  49.529  1.00  0.00     0.000 C 
ENDROOT
BRANCH   1   2
ATOM      2  C   UNL     1       5.611  18.944  49.620  1.00  0.00     0.000 C 
BRANCH   2   3
ATOM      3  C   UNL     1       5.663  20.220  50.481  1.00  0.00     0.000 C 
BRANCH   3   4
ATOM      4  C   UNL     1       4.948  20.041  51.838  1.00  0.00     0.000 C 
BRANCH   4   5
ATOM      5  C   UNL     1       4.717  21.357  52.602  1.00  0.00     0.000 C 
BRANCH   5   6
ATOM      6  C   UNL     1       3.591  21.258  53.645  1.00  0.00     0.000 C 
BRANCH   6   7
ATOM      7  C   UNL     1       3.876  22.120  54.895  1.00  0.00     0.000 C 
BRANCH   7   8
ATOM      8  C   UNL     1       4.765  21.414  55.933  1.00  0.00     0.000 C 
BRANCH   8   9
ATOM      9  C   UNL     1       6.124  22.107  56.123  1.00  0.00     0.000 C 
BRANCH   9  10
ATOM     10  C   UNL     1       7.248  21.441  55.313  1.00  0.00     0.000 C 
BRANCH  10  11
ATOM     11  C   UNL     1       8.545  21.265  56.125  1.00  0.00     0.000 C 
BRANCH  11  12
ATOM     12  C   UNL     1       9.805  21.513  55.280  1.00  0.00     0.000 C 
BRANCH  12  13
ATOM     13  C   UNL     1      10.789  20.334  55.329  1.00  0.00     0.006 C 
BRANCH  13  14
ATOM     14  C   UNL     1      12.221  20.825  55.560  1.00  0.00     0.053 C 
BRANCH  14  15
ATOM     15  C   UNL     1      13.194  19.686  55.503  1.00  0.00     0.041 C 
ATOM     16  O   UNL     1      14.317  19.782  56.067  1.00  0.00    -0.550 OA
ATOM     17  O   UNL     1      12.869  18.527  54.810  1.00  0.00    -0.550 OA
ENDBRANCH  14  15
ENDBRANCH  13  14
ENDBRANCH  12  13
ENDBRANCH  11  12
ENDBRANCH  10  11
ENDBRANCH   9  10
ENDBRANCH   8   9
ENDBRANCH   7   8
ENDBRANCH   6   7
ENDBRANCH   5   6
ENDBRANCH   4   5
ENDBRANCH   3   4
ENDBRANCH   2   3
ENDBRANCH   1   2
BRANCH   1  18
ATOM     18  C   UNL     1       7.246  17.563  48.164  1.00  0.00     0.000 C 
BRANCH  18  19
ATOM     19  C   UNL     1       6.017  16.844  47.569  1.00  0.00     0.000 C 
BRANCH  19  20
ATOM     20  C   UNL     1       5.734  17.160  46.088  1.00  0.00     0.000 C 
BRANCH  20  21
ATOM     21  C   UNL     1       4.880  18.419  45.840  1.00  0.00     0.000 C 
BRANCH  21  22
ATOM     22  C   UNL     1       4.859  18.927  44.386  1.00  0.00     0.000 C 
BRANCH  22  23
ATOM     23  C   UNL     1       5.881  18.232  43.460  1.00  0.00     0.000 C 
BRANCH  23  24
ATOM     24  C   UNL     1       5.249  17.136  42.580  1.00  0.00    -0.000 C 
BRANCH  24  25
ATOM     25  C   UNL     1       6.296  16.355  41.767  1.00  0.00    -0.000 C 
BRANCH  25  26
ATOM     26  C   UNL     1       7.446  17.243  41.268  1.00  0.00    -0.000 C 
BRANCH  26  27
ATOM     27  C   UNL     1       8.805  16.661  41.682  1.00  0.00    -0.000 C 
BRANCH  27  28
ATOM     28  C   UNL     1       8.866  16.421  43.199  1.00  0.00    -0.000 C 
BRANCH  28  29
ATOM     29  C   UNL     1       8.460  14.981  43.580  1.00  0.00    -0.000 C 
BRANCH  29  30
ATOM     30  C   UNL     1       9.576  14.186  44.277  1.00  0.00    -0.000 C 
BRANCH  30  31
ATOM     31  C   UNL     1       9.048  13.259  45.379  1.00  0.00    -0.003 C 
ATOM     32  C   UNL     1       7.957  12.336  44.844  1.00  0.00     0.004 C 
ENDBRANCH  30  31
ENDBRANCH  29  30
ENDBRANCH  28  29
ENDBRANCH  27  28
ENDBRANCH  26  27
ENDBRANCH  25  26
ENDBRANCH  24  25
ENDBRANCH  23  24
ENDBRANCH  22  23
ENDBRANCH  21  22
ENDBRANCH  20  21
ENDBRANCH  19  20
ENDBRANCH  18  19
ENDBRANCH   1  18
TORSDOF 28
ENDMDL
MODEL 5
REMARK VINA RESULT:    27.479      4.874     13.372
REMARK INTER + INTRA:          71.042
REMARK INTER:                  71.413
REMARK INTRA:                  -0.371
REMARK UNBOUND:                -1.418
REMARK SMILES CCCCCCCCCCCCCCCCCCCCCCCCCCCCCC(=O)[O-]
REMARK SMILES IDX 16 1 17 2 18 3 19 4 20 5 21 6 22 7 23 8 24 9 25 10 26 11
REMARK SMILES IDX 27 12 28 13 29 14 30 15 31 16 32 17 15 18 14 19 13 20 12 21
REMARK SMILES IDX 11 22 10 23 9 24 8 25 7 26 6 27 5 28 4 29 3 30 2 31 1 32
REMARK H PARENT
REMARK Flexibility Score: inf
ROOT
ATOM      1  C   UNL     1       9.852  16.264  46.820  1.00  0.00     0.000 C 
ENDROOT
BRANCH   1   2
ATOM      2  C   UNL     1       8.470  15.954  47.424  1.00  0.00     0.000 C 
BRANCH   2   3
ATOM      3  C   UNL     1       8.350  16.412  48.890  1.00  0.00     0.000 C 
BRANCH   3   4
ATOM      4  C   UNL     1       7.419  17.633  49.048  1.00  0.00     0.000 C 
BRANCH   4   5
ATOM      5  C   UNL     1       6.113  17.532  48.241  1.00  0.00     0.000 C 
BRANCH   5   6
ATOM      6  C   UNL     1       5.725  18.854  47.556  1.00  0.00     0.000 C 
BRANCH   6   7
ATOM      7  C   UNL     1       4.842  19.742  48.461  1.00  0.00     0.000 C 
BRANCH   7   8
ATOM      8  C   UNL     1       4.704  19.203  49.896  1.00  0.00     0.000 C 
BRANCH   8   9
ATOM      9  C   UNL     1       5.568  19.975  50.907  1.00  0.00     0.000 C 
BRANCH   9  10
ATOM     10  C   UNL     1       4.779  21.063  51.652  1.00  0.00     0.000 C 
BRANCH  10  11
ATOM     11  C   UNL     1       5.225  21.228  53.116  1.00  0.00     0.000 C 
BRANCH  11  12
ATOM     12  C   UNL     1       4.278  20.525  54.102  1.00  0.00     0.000 C 
BRANCH  12  13
ATOM     13  C   UNL     1       4.092  21.315  55.406  1.00  0.00     0.006 C 
BRANCH  13  14
ATOM     14  C   UNL     1       5.348  22.124  55.741  1.00  0.00     0.053 C 
BRANCH  14  15
ATOM     15  C   UNL     1       6.555  21.237  55.808  1.00  0.00     0.041 C 
ATOM     16  O   UNL     1       7.705  21.715  55.619  1.00  0.00    -0.550 OA
ATOM     17  O   UNL     1       6.407  19.878  56.058  1.00  0.00    -0.550 OA
ENDBRANCH  14  15
ENDBRANCH  13  14
ENDBRANCH  12  13
ENDBRANCH  11  12
ENDBRANCH  10  11
ENDBRANCH   9  10
ENDBRANCH   8   9
ENDBRANCH   7   8
ENDBRANCH   6   7
ENDBRANCH   5   6
ENDBRANCH   4   5
ENDBRANCH   3   4
ENDBRANCH   2   3
ENDBRANCH   1   2
BRANCH   1  18
ATOM     18  C   UNL     1      10.112  15.580  45.458  1.00  0.00     0.000 C 
BRANCH  18  19
ATOM     19  C   UNL     1       8.829  15.268  44.661  1.00  0.00     0.000 C 
BRANCH  19  20
ATOM     20  C   UNL     1       8.414  13.784  44.651  1.00  0.00     0.000 C 
BRANCH  20  21
ATOM     21  C   UNL     1       8.949  12.963  43.462  1.00  0.00     0.000 C 
BRANCH  21  22
ATOM     22  C   UNL     1      10.219  13.521  42.792  1.00  0.00     0.000 C 
BRANCH  22  23
ATOM     23  C   UNL     1      11.534  13.092  43.478  1.00  0.00     0.000 C 
BRANCH  23  24
ATOM     24  C   UNL     1      12.531  12.428  42.509  1.00  0.00    -0.000 C 
BRANCH  24  25
ATOM     25  C   UNL     1      13.837  12.006  43.204  1.00  0.00    -0.000 C 
BRANCH  25  26
ATOM     26  C   UNL     1      13.632  10.876  44.224  1.00  0.00    -0.000 C 
BRANCH  26  27
ATOM     27  C   UNL     1      14.889  10.681  45.083  1.00  0.00    -0.000 C 
BRANCH  27  28
ATOM     28  C   UNL     1      15.370  12.017  45.672  1.00  0.00    -0.000 C 
BRANCH  28  29
ATOM     29  C   UNL     1      16.515  11.828  46.691  1.00  0.00    -0.000 C 
BRANCH  29  30
ATOM     30  C   UNL     1      16.088  12.046  48.152  1.00  0.00    -0.000 C 
BRANCH  30  31
ATOM     31  C   UNL     1      15.481  13.433  48.394  1.00  0.00    -0.003 C 
ATOM     32  C   UNL     1      14.004  13.330  48.763  1.00  0.00     0.004 C 
ENDBRANCH  30  31
ENDBRANCH  29  30
ENDBRANCH  28  29
ENDBRANCH  27  28
ENDBRANCH  26  27
ENDBRANCH  25  26
ENDBRANCH  24  25
ENDBRANCH  23  24
ENDBRANCH  22  23
ENDBRANCH  21  22
ENDBRANCH  20  21
ENDBRANCH  19  20
ENDBRANCH  18  19
ENDBRANCH   1  18
TORSDOF 28
ENDMDL
