MODEL 1
REMARK VINA RESULT:   139.620      0.000      0.000
REMARK INTER + INTRA:         152.834
REMARK INTER:                 151.864
REMARK INTRA:                   0.970
REMARK UNBOUND:                 0.970
REMARK SMILES C[C@@H]1[C@@H](C)CC[C@]2(C(=O)[O-])CC[C@@]3(C)C(=CC[C@@H]4[C@@]5(C)CC[C@H](O)C(C)(C)[C@H]5CC[C@]43C)[C@@H]12
REMARK SMILES IDX 7 1 6 2 11 3 33 4 5 5 12 6 15 7 2 8 3 9 13 10 16 11 1 12
REMARK SMILES IDX 4 13 14 14 31 15 17 16 18 17 30 18 32 19 19 20 29 21 28 22
REMARK SMILES IDX 21 23 20 24 25 25 22 26 23 27 26 28 27 29 8 30 9 31 10 32
REMARK SMILES IDX 24 33
REMARK H PARENT 24 34
REMARK Flexibility Score: inf
ROOT
ATOM      1  C   UNL     1      29.462  25.148  13.508  1.00  0.00     0.017 C 
ATOM      2  C   UNL     1      29.879  26.094  12.329  1.00  0.00     0.014 C 
ATOM      3  C   UNL     1      28.363  24.152  13.043  1.00  0.00     0.014 C 
ATOM      4  C   UNL     1      28.813  26.029  14.633  1.00  0.00     0.030 C 
ATOM      5  C   UNL     1      30.164  27.564  12.739  1.00  0.00     0.004 C 
ATOM      6  C   UNL     1      27.887  23.168  14.151  1.00  0.00     0.013 C 
ATOM      7  C   UNL     1      27.828  25.272  15.555  1.00  0.00    -0.063 C 
ATOM      8  C   UNL     1      29.837  27.005  15.290  1.00  0.00    -0.003 C 
ATOM      9  C   UNL     1      30.676  27.769  14.191  1.00  0.00    -0.011 C 
ATOM     10  C   UNL     1      27.886  23.724  15.639  1.00  0.00    -0.006 C 
ATOM     11  C   UNL     1      26.709  25.960  15.927  1.00  0.00    -0.027 C 
ATOM     12  C   UNL     1      29.160  28.019  16.228  1.00  0.00     0.008 C 
ATOM     13  C   UNL     1      32.187  27.496  14.282  1.00  0.00     0.008 C 
ATOM     14  C   UNL     1      29.226  23.297  16.340  1.00  0.00     0.017 C 
ATOM     15  C   UNL     1      26.650  23.167  16.514  1.00  0.00    -0.020 C 
ATOM     16  C   UNL     1      25.403  25.344  16.366  1.00  0.00     0.032 C 
ATOM     17  C   UNL     1      25.326  23.837  16.008  1.00  0.00     0.006 C 
ATOM     18  C   UNL     1      26.493  21.638  16.361  1.00  0.00     0.008 C 
ATOM     19  C   UNL     1      26.898  23.507  18.037  1.00  0.00     0.012 C 
ATOM     20  C   UNL     1      23.948  23.036  16.309  1.00  0.00    -0.025 C 
ATOM     21  C   UNL     1      25.378  21.051  17.233  1.00  0.00     0.005 C 
ATOM     22  C   UNL     1      24.109  21.948  17.455  1.00  0.00     0.003 C 
ATOM     23  C   UNL     1      23.458  22.312  14.996  1.00  0.00     0.010 C 
ATOM     24  C   UNL     1      22.856  24.078  16.692  1.00  0.00     0.012 C 
ATOM     25  C   UNL     1      22.793  21.077  17.765  1.00  0.00    -0.006 C 
ATOM     26  C   UNL     1      22.769  20.942  15.180  1.00  0.00     0.033 C 
ATOM     27  C   UNL     1      21.938  20.810  16.467  1.00  0.00     0.120 C 
ATOM     28  C   UNL     1      21.936  21.769  18.870  1.00  0.00     0.014 C 
ATOM     29  C   UNL     1      23.142  19.692  18.399  1.00  0.00     0.014 C 
ENDROOT
BRANCH   1  30
ATOM     30  C   UNL     1      30.707  24.336  13.870  1.00  0.00     0.048 C 
ATOM     31  O   UNL     1      31.067  23.322  13.219  1.00  0.00    -0.550 OA
ATOM     32  O   UNL     1      31.438  24.678  15.003  1.00  0.00    -0.550 OA
ENDBRANCH   1  30
BRANCH  27  33
ATOM     33  O   UNL     1      20.802  21.636  16.395  1.00  0.00    -0.393 OA
ATOM     34  H   UNL     1      20.070  21.179  16.885  1.00  0.00     0.210 HD
ENDBRANCH  27  33
TORSDOF 2
ENDMDL
