MODEL 1
REMARK VINA RESULT:    -4.146      0.000      0.000
REMARK INTER + INTRA:          -8.372
REMARK INTER:                  -7.055
REMARK INTRA:                  -1.318
REMARK UNBOUND:                -1.318
REMARK SMILES CCCCCCCCCCCCCC(=O)[O-]
REMARK SMILES IDX 8 1 9 2 10 3 11 4 12 5 13 6 14 7 15 8 16 9 7 10 6 11 5 12
REMARK SMILES IDX 4 13 3 14 2 15 1 16
REMARK H PARENT
REMARK Flexibility Score: inf
ROOT
ATOM      1  C   UNL     1    -117.304  12.559  21.256  1.00  0.00     0.000 C 
ENDROOT
BRANCH   1   2
ATOM      2  C   UNL     1    -116.447  11.313  20.982  1.00  0.00     0.000 C 
BRANCH   2   3
ATOM      3  C   UNL     1    -115.557  10.929  22.178  1.00  0.00     0.000 C 
BRANCH   3   4
ATOM      4  C   UNL     1    -116.143  11.388  23.522  1.00  0.00     0.000 C 
BRANCH   4   5
ATOM      5  C   UNL     1    -115.137  12.197  24.359  1.00  0.00     0.006 C 
BRANCH   5   6
ATOM      6  C   UNL     1    -114.357  11.311  25.341  1.00  0.00     0.053 C 
BRANCH   6   7
ATOM      7  C   UNL     1    -112.881  11.368  25.094  1.00  0.00     0.041 C 
ATOM      8  O   UNL     1    -112.175  10.334  25.225  1.00  0.00    -0.550 OA
ATOM      9  O   UNL     1    -112.279  12.573  24.748  1.00  0.00    -0.550 OA
ENDBRANCH   6   7
ENDBRANCH   5   6
ENDBRANCH   4   5
ENDBRANCH   3   4
ENDBRANCH   2   3
ENDBRANCH   1   2
BRANCH   1  10
ATOM     10  C   UNL     1    -117.815  13.220  19.965  1.00  0.00     0.000 C 
BRANCH  10  11
ATOM     11  C   UNL     1    -118.351  14.642  20.201  1.00  0.00    -0.000 C 
BRANCH  11  12
ATOM     12  C   UNL     1    -119.707  14.653  20.922  1.00  0.00    -0.000 C 
BRANCH  12  13
ATOM     13  C   UNL     1    -119.585  15.286  22.314  1.00  0.00    -0.000 C 
BRANCH  13  14
ATOM     14  C   UNL     1    -119.954  14.277  23.412  1.00  0.00    -0.000 C 
BRANCH  14  15
ATOM     15  C   UNL     1    -118.766  13.932  24.322  1.00  0.00    -0.003 C 
ATOM     16  C   UNL     1    -117.613  14.927  24.190  1.00  0.00     0.004 C 
ENDBRANCH  14  15
ENDBRANCH  13  14
ENDBRANCH  12  13
ENDBRANCH  11  12
ENDBRANCH  10  11
ENDBRANCH   1  10
TORSDOF 12
ENDMDL
MODEL 2
REMARK VINA RESULT:    -3.980      0.805      2.951
REMARK INTER + INTRA:          -8.090
REMARK INTER:                  -6.702
REMARK INTRA:                  -1.388
REMARK UNBOUND:                -1.318
REMARK SMILES CCCCCCCCCCCCCC(=O)[O-]
REMARK SMILES IDX 8 1 9 2 10 3 11 4 12 5 13 6 14 7 15 8 16 9 7 10 6 11 5 12
REMARK SMILES IDX 4 13 3 14 2 15 1 16
REMARK H PARENT
REMARK Flexibility Score: inf
ROOT
ATOM      1  C   UNL     1    -118.036  14.723  23.932  1.00  0.00     0.000 C 
ENDROOT
BRANCH   1   2
ATOM      2  C   UNL     1    -116.866  13.728  23.861  1.00  0.00     0.000 C 
BRANCH   2   3
ATOM      3  C   UNL     1    -117.307  12.274  24.102  1.00  0.00     0.000 C 
BRANCH   3   4
ATOM      4  C   UNL     1    -116.126  11.339  24.405  1.00  0.00     0.000 C 
BRANCH   4   5
ATOM      5  C   UNL     1    -114.787  12.092  24.502  1.00  0.00     0.006 C 
BRANCH   5   6
ATOM      6  C   UNL     1    -113.879  11.517  25.598  1.00  0.00     0.053 C 
BRANCH   6   7
ATOM      7  C   UNL     1    -112.603  10.968  25.035  1.00  0.00     0.041 C 
ATOM      8  O   UNL     1    -111.989  11.593  24.132  1.00  0.00    -0.550 OA
ATOM      9  O   UNL     1    -112.110   9.750  25.488  1.00  0.00    -0.550 OA
ENDBRANCH   6   7
ENDBRANCH   5   6
ENDBRANCH   4   5
ENDBRANCH   3   4
ENDBRANCH   2   3
ENDBRANCH   1   2
BRANCH   1  10
ATOM     10  C   UNL     1    -119.272  14.236  23.157  1.00  0.00     0.000 C 
BRANCH  10  11
ATOM     11  C   UNL     1    -119.744  15.250  22.101  1.00  0.00    -0.000 C 
BRANCH  11  12
ATOM     12  C   UNL     1    -119.636  14.709  20.668  1.00  0.00    -0.000 C 
BRANCH  12  13
ATOM     13  C   UNL     1    -118.169  14.527  20.258  1.00  0.00    -0.000 C 
BRANCH  13  14
ATOM     14  C   UNL     1    -117.950  13.162  19.588  1.00  0.00    -0.000 C 
BRANCH  14  15
ATOM     15  C   UNL     1    -117.762  12.027  20.606  1.00  0.00    -0.003 C 
ATOM     16  C   UNL     1    -116.351  11.441  20.585  1.00  0.00     0.004 C 
ENDBRANCH  14  15
ENDBRANCH  13  14
ENDBRANCH  12  13
ENDBRANCH  11  12
ENDBRANCH  10  11
ENDBRANCH   1  10
TORSDOF 12
ENDMDL
MODEL 3
REMARK VINA RESULT:    -3.925      2.468      5.551
REMARK INTER + INTRA:          -7.996
REMARK INTER:                  -6.578
REMARK INTRA:                  -1.418
REMARK UNBOUND:                -1.318
REMARK SMILES CCCCCCCCCCCCCC(=O)[O-]
REMARK SMILES IDX 8 1 9 2 10 3 11 4 12 5 13 6 14 7 15 8 16 9 7 10 6 11 5 12
REMARK SMILES IDX 4 13 3 14 2 15 1 16
REMARK H PARENT
REMARK Flexibility Score: inf
ROOT
ATOM      1  C   UNL     1    -116.062  10.181  20.962  1.00  0.00     0.000 C 
ENDROOT
BRANCH   1   2
ATOM      2  C   UNL     1    -116.468  11.509  20.303  1.00  0.00     0.000 C 
BRANCH   2   3
ATOM      3  C   UNL     1    -117.686  12.161  20.983  1.00  0.00     0.000 C 
BRANCH   3   4
ATOM      4  C   UNL     1    -117.942  13.593  20.489  1.00  0.00     0.000 C 
BRANCH   4   5
ATOM      5  C   UNL     1    -118.405  14.532  21.616  1.00  0.00     0.006 C 
BRANCH   5   6
ATOM      6  C   UNL     1    -118.895  13.759  22.849  1.00  0.00     0.053 C 
BRANCH   6   7
ATOM      7  C   UNL     1    -118.475  14.420  24.126  1.00  0.00     0.041 C 
ATOM      8  O   UNL     1    -117.419  15.104  24.168  1.00  0.00    -0.550 OA
ATOM      9  O   UNL     1    -119.235  14.255  25.278  1.00  0.00    -0.550 OA
ENDBRANCH   6   7
ENDBRANCH   5   6
ENDBRANCH   4   5
ENDBRANCH   3   4
ENDBRANCH   2   3
ENDBRANCH   1   2
BRANCH   1  10
ATOM     10  C   UNL     1    -115.121  10.381  22.162  1.00  0.00     0.000 C 
BRANCH  10  11
ATOM     11  C   UNL     1    -115.808  10.090  23.506  1.00  0.00    -0.000 C 
BRANCH  11  12
ATOM     12  C   UNL     1    -116.259  11.366  24.232  1.00  0.00    -0.000 C 
BRANCH  12  13
ATOM     13  C   UNL     1    -115.097  12.357  24.374  1.00  0.00    -0.000 C 
BRANCH  13  14
ATOM     14  C   UNL     1    -114.012  11.803  25.310  1.00  0.00    -0.000 C 
BRANCH  14  15
ATOM     15  C   UNL     1    -112.591  12.065  24.786  1.00  0.00    -0.003 C 
ATOM     16  C   UNL     1    -112.009  10.869  24.034  1.00  0.00     0.004 C 
ENDBRANCH  14  15
ENDBRANCH  13  14
ENDBRANCH  12  13
ENDBRANCH  11  12
ENDBRANCH  10  11
ENDBRANCH   1  10
TORSDOF 12
ENDMDL
MODEL 4
REMARK VINA RESULT:    -3.848      1.136      2.916
REMARK INTER + INTRA:          -7.865
REMARK INTER:                  -6.537
REMARK INTRA:                  -1.327
REMARK UNBOUND:                -1.318
REMARK SMILES CCCCCCCCCCCCCC(=O)[O-]
REMARK SMILES IDX 8 1 9 2 10 3 11 4 12 5 13 6 14 7 15 8 16 9 7 10 6 11 5 12
REMARK SMILES IDX 4 13 3 14 2 15 1 16
REMARK H PARENT
REMARK Flexibility Score: inf
ROOT
ATOM      1  C   UNL     1    -117.515  14.489  23.695  1.00  0.00     0.000 C 
ENDROOT
BRANCH   1   2
ATOM      2  C   UNL     1    -116.414  13.524  24.163  1.00  0.00     0.000 C 
BRANCH   2   3
ATOM      3  C   UNL     1    -116.220  12.334  23.205  1.00  0.00     0.000 C 
BRANCH   3   4
ATOM      4  C   UNL     1    -115.175  11.330  23.714  1.00  0.00     0.000 C 
BRANCH   4   5
ATOM      5  C   UNL     1    -114.516  11.778  25.029  1.00  0.00     0.006 C 
BRANCH   5   6
ATOM      6  C   UNL     1    -113.025  12.100  24.849  1.00  0.00     0.053 C 
BRANCH   6   7
ATOM      7  C   UNL     1    -112.214  10.866  24.596  1.00  0.00     0.041 C 
ATOM      8  O   UNL     1    -112.220   9.923  25.429  1.00  0.00    -0.550 OA
ATOM      9  O   UNL     1    -111.427  10.772  23.455  1.00  0.00    -0.550 OA
ENDBRANCH   6   7
ENDBRANCH   5   6
ENDBRANCH   4   5
ENDBRANCH   3   4
ENDBRANCH   2   3
ENDBRANCH   1   2
BRANCH   1  10
ATOM     10  C   UNL     1    -118.903  14.110  24.240  1.00  0.00     0.000 C 
BRANCH  10  11
ATOM     11  C   UNL     1    -119.998  14.170  23.162  1.00  0.00    -0.000 C 
BRANCH  11  12
ATOM     12  C   UNL     1    -119.739  15.262  22.112  1.00  0.00    -0.000 C 
BRANCH  12  13
ATOM     13  C   UNL     1    -119.714  14.669  20.698  1.00  0.00    -0.000 C 
BRANCH  13  14
ATOM     14  C   UNL     1    -118.276  14.577  20.165  1.00  0.00    -0.000 C 
BRANCH  14  15
ATOM     15  C   UNL     1    -117.920  13.168  19.666  1.00  0.00    -0.003 C 
ATOM     16  C   UNL     1    -118.641  12.067  20.442  1.00  0.00     0.004 C 
ENDBRANCH  14  15
ENDBRANCH  13  14
ENDBRANCH  12  13
ENDBRANCH  11  12
ENDBRANCH  10  11
ENDBRANCH   1  10
TORSDOF 12
ENDMDL
MODEL 5
REMARK VINA RESULT:    -3.839      2.601      6.152
REMARK INTER + INTRA:          -7.851
REMARK INTER:                  -6.252
REMARK INTRA:                  -1.598
REMARK UNBOUND:                -1.318
REMARK SMILES CCCCCCCCCCCCCC(=O)[O-]
REMARK SMILES IDX 8 1 9 2 10 3 11 4 12 5 13 6 14 7 15 8 16 9 7 10 6 11 5 12
REMARK SMILES IDX 4 13 3 14 2 15 1 16
REMARK H PARENT
REMARK Flexibility Score: inf
ROOT
ATOM      1  C   UNL     1    -116.567  10.606  23.302  1.00  0.00     0.000 C 
ENDROOT
BRANCH   1   2
ATOM      2  C   UNL     1    -115.793  11.194  22.111  1.00  0.00     0.000 C 
BRANCH   2   3
ATOM      3  C   UNL     1    -116.719  11.790  21.036  1.00  0.00     0.000 C 
BRANCH   3   4
ATOM      4  C   UNL     1    -118.011  12.375  21.628  1.00  0.00     0.000 C 
BRANCH   4   5
ATOM      5  C   UNL     1    -117.980  13.910  21.712  1.00  0.00     0.006 C 
BRANCH   5   6
ATOM      6  C   UNL     1    -118.989  14.454  22.734  1.00  0.00     0.053 C 
BRANCH   6   7
ATOM      7  C   UNL     1    -118.422  14.481  24.120  1.00  0.00     0.041 C 
ATOM      8  O   UNL     1    -119.084  14.020  25.085  1.00  0.00    -0.550 OA
ATOM      9  O   UNL     1    -117.172  15.046  24.349  1.00  0.00    -0.550 OA
ENDBRANCH   6   7
ENDBRANCH   5   6
ENDBRANCH   4   5
ENDBRANCH   3   4
ENDBRANCH   2   3
ENDBRANCH   1   2
BRANCH   1  10
ATOM     10  C   UNL     1    -116.091  11.171  24.651  1.00  0.00     0.000 C 
BRANCH  10  11
ATOM     11  C   UNL     1    -114.962  12.203  24.495  1.00  0.00    -0.000 C 
BRANCH  11  12
ATOM     12  C   UNL     1    -113.739  11.882  25.368  1.00  0.00    -0.000 C 
BRANCH  12  13
ATOM     13  C   UNL     1    -112.528  11.513  24.502  1.00  0.00    -0.000 C 
BRANCH  13  14
ATOM     14  C   UNL     1    -112.166  10.028  24.666  1.00  0.00    -0.000 C 
BRANCH  14  15
ATOM     15  C   UNL     1    -112.940   9.122  23.696  1.00  0.00    -0.003 C 
ATOM     16  C   UNL     1    -112.571   9.371  22.234  1.00  0.00     0.004 C 
ENDBRANCH  14  15
ENDBRANCH  13  14
ENDBRANCH  12  13
ENDBRANCH  11  12
ENDBRANCH  10  11
ENDBRANCH   1  10
TORSDOF 12
ENDMDL
MODEL 6
REMARK VINA RESULT:    -3.584     18.275     19.859
REMARK INTER + INTRA:          -7.416
REMARK INTER:                  -6.218
REMARK INTRA:                  -1.199
REMARK UNBOUND:                -1.318
REMARK SMILES CCCCCCCCCCCCCC(=O)[O-]
REMARK SMILES IDX 8 1 9 2 10 3 11 4 12 5 13 6 14 7 15 8 16 9 7 10 6 11 5 12
REMARK SMILES IDX 4 13 3 14 2 15 1 16
REMARK H PARENT
REMARK Flexibility Score: inf
ROOT
ATOM      1  C   UNL     1    -101.356  24.804  19.913  1.00  0.00     0.000 C 
ENDROOT
BRANCH   1   2
ATOM      2  C   UNL     1    -102.430  25.903  19.951  1.00  0.00     0.000 C 
BRANCH   2   3
ATOM      3  C   UNL     1    -101.835  27.318  19.832  1.00  0.00     0.000 C 
BRANCH   3   4
ATOM      4  C   UNL     1    -102.633  28.363  20.626  1.00  0.00     0.000 C 
BRANCH   4   5
ATOM      5  C   UNL     1    -103.526  27.729  21.706  1.00  0.00     0.006 C 
BRANCH   5   6
ATOM      6  C   UNL     1    -104.803  28.546  21.954  1.00  0.00     0.053 C 
BRANCH   6   7
ATOM      7  C   UNL     1    -106.027  27.829  21.474  1.00  0.00     0.041 C 
ATOM      8  O   UNL     1    -107.109  27.926  22.110  1.00  0.00    -0.550 OA
ATOM      9  O   UNL     1    -105.965  27.028  20.340  1.00  0.00    -0.550 OA
ENDBRANCH   6   7
ENDBRANCH   5   6
ENDBRANCH   4   5
ENDBRANCH   3   4
ENDBRANCH   2   3
ENDBRANCH   1   2
BRANCH   1  10
ATOM     10  C   UNL     1    -100.168  25.170  19.008  1.00  0.00     0.000 C 
BRANCH  10  11
ATOM     11  C   UNL     1     -99.897  24.108  17.930  1.00  0.00    -0.000 C 
BRANCH  11  12
ATOM     12  C   UNL     1    -101.083  23.919  16.971  1.00  0.00    -0.000 C 
BRANCH  12  13
ATOM     13  C   UNL     1    -101.036  22.538  16.305  1.00  0.00    -0.000 C 
BRANCH  13  14
ATOM     14  C   UNL     1    -102.027  21.572  16.971  1.00  0.00    -0.000 C 
BRANCH  14  15
ATOM     15  C   UNL     1    -103.160  22.303  17.707  1.00  0.00    -0.003 C 
ATOM     16  C   UNL     1    -103.259  21.909  19.181  1.00  0.00     0.004 C 
ENDBRANCH  14  15
ENDBRANCH  13  14
ENDBRANCH  12  13
ENDBRANCH  11  12
ENDBRANCH  10  11
ENDBRANCH   1  10
TORSDOF 12
ENDMDL
MODEL 7
REMARK VINA RESULT:    -3.506      3.107      6.337
REMARK INTER + INTRA:          -7.284
REMARK INTER:                  -5.862
REMARK INTRA:                  -1.421
REMARK UNBOUND:                -1.318
REMARK SMILES CCCCCCCCCCCCCC(=O)[O-]
REMARK SMILES IDX 8 1 9 2 10 3 11 4 12 5 13 6 14 7 15 8 16 9 7 10 6 11 5 12
REMARK SMILES IDX 4 13 3 14 2 15 1 16
REMARK H PARENT
REMARK Flexibility Score: inf
ROOT
ATOM      1  C   UNL     1    -117.397  11.903  24.131  1.00  0.00     0.000 C 
ENDROOT
BRANCH   1   2
ATOM      2  C   UNL     1    -116.600  13.179  23.816  1.00  0.00     0.000 C 
BRANCH   2   3
ATOM      3  C   UNL     1    -117.434  14.460  23.996  1.00  0.00     0.000 C 
BRANCH   3   4
ATOM      4  C   UNL     1    -118.907  14.166  24.322  1.00  0.00     0.000 C 
BRANCH   4   5
ATOM      5  C   UNL     1    -119.840  14.428  23.128  1.00  0.00     0.006 C 
BRANCH   5   6
ATOM      6  C   UNL     1    -119.183  15.322  22.066  1.00  0.00     0.053 C 
BRANCH   6   7
ATOM      7  C   UNL     1    -119.007  14.605  20.763  1.00  0.00     0.041 C 
ATOM      8  O   UNL     1    -119.921  14.629  19.898  1.00  0.00    -0.550 OA
ATOM      9  O   UNL     1    -117.845  13.884  20.517  1.00  0.00    -0.550 OA
ENDBRANCH   6   7
ENDBRANCH   5   6
ENDBRANCH   4   5
ENDBRANCH   3   4
ENDBRANCH   2   3
ENDBRANCH   1   2
BRANCH   1  10
ATOM     10  C   UNL     1    -116.897  10.684  23.337  1.00  0.00     0.000 C 
BRANCH  10  11
ATOM     11  C   UNL     1    -116.035  11.080  22.128  1.00  0.00    -0.000 C 
BRANCH  11  12
ATOM     12  C   UNL     1    -114.732  10.270  22.036  1.00  0.00    -0.000 C 
BRANCH  12  13
ATOM     13  C   UNL     1    -114.212   9.907  23.433  1.00  0.00    -0.000 C 
BRANCH  13  14
ATOM     14  C   UNL     1    -112.752  10.351  23.609  1.00  0.00    -0.000 C 
BRANCH  14  15
ATOM     15  C   UNL     1    -112.593  11.449  24.672  1.00  0.00    -0.003 C 
ATOM     16  C   UNL     1    -113.810  11.564  25.589  1.00  0.00     0.004 C 
ENDBRANCH  14  15
ENDBRANCH  13  14
ENDBRANCH  12  13
ENDBRANCH  11  12
ENDBRANCH  10  11
ENDBRANCH   1  10
TORSDOF 12
ENDMDL
MODEL 8
REMARK VINA RESULT:    -3.479      2.926      6.621
REMARK INTER + INTRA:          -7.236
REMARK INTER:                  -6.319
REMARK INTRA:                  -0.917
REMARK UNBOUND:                -1.318
REMARK SMILES CCCCCCCCCCCCCC(=O)[O-]
REMARK SMILES IDX 8 1 9 2 10 3 11 4 12 5 13 6 14 7 15 8 16 9 7 10 6 11 5 12
REMARK SMILES IDX 4 13 3 14 2 15 1 16
REMARK H PARENT
REMARK Flexibility Score: inf
ROOT
ATOM      1  C   UNL     1    -116.672  13.956  24.068  1.00  0.00     0.000 C 
ENDROOT
BRANCH   1   2
ATOM      2  C   UNL     1    -117.994  14.738  24.069  1.00  0.00     0.000 C 
BRANCH   2   3
ATOM      3  C   UNL     1    -119.227  13.822  23.973  1.00  0.00     0.000 C 
BRANCH   3   4
ATOM      4  C   UNL     1    -120.124  14.160  22.773  1.00  0.00     0.000 C 
BRANCH   4   5
ATOM      5  C   UNL     1    -119.515  15.243  21.866  1.00  0.00     0.006 C 
BRANCH   5   6
ATOM      6  C   UNL     1    -119.603  14.870  20.380  1.00  0.00     0.053 C 
BRANCH   6   7
ATOM      7  C   UNL     1    -118.298  14.354  19.855  1.00  0.00     0.041 C 
ATOM      8  O   UNL     1    -117.592  13.584  20.557  1.00  0.00    -0.550 OA
ATOM      9  O   UNL     1    -117.847  14.750  18.601  1.00  0.00    -0.550 OA
ENDBRANCH   6   7
ENDBRANCH   5   6
ENDBRANCH   4   5
ENDBRANCH   3   4
ENDBRANCH   2   3
ENDBRANCH   1   2
BRANCH   1  10
ATOM     10  C   UNL     1    -116.887  12.433  24.048  1.00  0.00     0.000 C 
BRANCH  10  11
ATOM     11  C   UNL     1    -115.846  11.701  23.185  1.00  0.00    -0.000 C 
BRANCH  11  12
ATOM     12  C   UNL     1    -114.856  10.874  24.020  1.00  0.00    -0.000 C 
BRANCH  12  13
ATOM     13  C   UNL     1    -114.212  11.732  25.116  1.00  0.00    -0.000 C 
BRANCH  13  14
ATOM     14  C   UNL     1    -112.688  11.801  24.936  1.00  0.00    -0.000 C 
BRANCH  14  15
ATOM     15  C   UNL     1    -112.072  10.436  24.590  1.00  0.00    -0.003 C 
ATOM     16  C   UNL     1    -111.291  10.456  23.276  1.00  0.00     0.004 C 
ENDBRANCH  14  15
ENDBRANCH  13  14
ENDBRANCH  12  13
ENDBRANCH  11  12
ENDBRANCH  10  11
ENDBRANCH   1  10
TORSDOF 12
ENDMDL
MODEL 9
REMARK VINA RESULT:    -3.475      2.900      5.822
REMARK INTER + INTRA:          -7.230
REMARK INTER:                  -5.983
REMARK INTRA:                  -1.247
REMARK UNBOUND:                -1.318
REMARK SMILES CCCCCCCCCCCCCC(=O)[O-]
REMARK SMILES IDX 8 1 9 2 10 3 11 4 12 5 13 6 14 7 15 8 16 9 7 10 6 11 5 12
REMARK SMILES IDX 4 13 3 14 2 15 1 16
REMARK H PARENT
REMARK Flexibility Score: inf
ROOT
ATOM      1  C   UNL     1    -118.317  14.744  23.325  1.00  0.00     0.000 C 
ENDROOT
BRANCH   1   2
ATOM      2  C   UNL     1    -119.251  14.556  22.118  1.00  0.00     0.000 C 
BRANCH   2   3
ATOM      3  C   UNL     1    -118.633  15.070  20.805  1.00  0.00     0.000 C 
BRANCH   3   4
ATOM      4  C   UNL     1    -118.168  13.930  19.884  1.00  0.00     0.000 C 
BRANCH   4   5
ATOM      5  C   UNL     1    -118.642  12.549  20.369  1.00  0.00     0.006 C 
BRANCH   5   6
ATOM      6  C   UNL     1    -118.391  11.453  19.323  1.00  0.00     0.053 C 
BRANCH   6   7
ATOM      7  C   UNL     1    -116.967  11.437  18.860  1.00  0.00     0.041 C 
ATOM      8  O   UNL     1    -116.062  10.986  19.610  1.00  0.00    -0.550 OA
ATOM      9  O   UNL     1    -116.635  11.951  17.612  1.00  0.00    -0.550 OA
ENDBRANCH   6   7
ENDBRANCH   5   6
ENDBRANCH   4   5
ENDBRANCH   3   4
ENDBRANCH   2   3
ENDBRANCH   1   2
BRANCH   1  10
ATOM     10  C   UNL     1    -117.902  13.407  23.963  1.00  0.00     0.000 C 
BRANCH  10  11
ATOM     11  C   UNL     1    -116.404  13.109  23.788  1.00  0.00    -0.000 C 
BRANCH  11  12
ATOM     12  C   UNL     1    -116.144  11.832  22.973  1.00  0.00    -0.000 C 
BRANCH  12  13
ATOM     13  C   UNL     1    -115.001  11.013  23.586  1.00  0.00    -0.000 C 
BRANCH  13  14
ATOM     14  C   UNL     1    -114.951  11.192  25.111  1.00  0.00    -0.000 C 
BRANCH  14  15
ATOM     15  C   UNL     1    -113.515  11.299  25.646  1.00  0.00    -0.003 C 
ATOM     16  C   UNL     1    -112.654  12.271  24.841  1.00  0.00     0.004 C 
ENDBRANCH  14  15
ENDBRANCH  13  14
ENDBRANCH  12  13
ENDBRANCH  11  12
ENDBRANCH  10  11
ENDBRANCH   1  10
TORSDOF 12
ENDMDL
