MODEL 1
REMARK VINA RESULT:     4.067      0.000      0.000
REMARK INTER + INTRA:           9.898
REMARK INTER:                  10.249
REMARK INTRA:                  -0.351
REMARK UNBOUND:                -0.351
REMARK SMILES CCCCCCCCCCCCCCCCCCCCCCCCCCCC(=O)[O-]
REMARK SMILES IDX 15 1 16 2 17 3 18 4 19 5 20 6 21 7 22 8 23 9 24 10 25 11
REMARK SMILES IDX 26 12 27 13 28 14 29 15 30 16 14 17 13 18 12 19 11 20 10 21
REMARK SMILES IDX 9 22 8 23 7 24 6 25 5 26 4 27 3 28 2 29 1 30
REMARK H PARENT
REMARK Flexibility Score: inf
ROOT
ATOM      1  C   UNL     1     -26.244   8.899  -6.480  1.00  0.00     0.000 C 
ENDROOT
BRANCH   1   2
ATOM      2  C   UNL     1     -26.609   8.191  -5.162  1.00  0.00     0.000 C 
BRANCH   2   3
ATOM      3  C   UNL     1     -28.026   8.486  -4.626  1.00  0.00     0.000 C 
BRANCH   3   4
ATOM      4  C   UNL     1     -29.163   7.710  -5.314  1.00  0.00     0.000 C 
BRANCH   4   5
ATOM      5  C   UNL     1     -30.510   8.449  -5.253  1.00  0.00     0.000 C 
BRANCH   5   6
ATOM      6  C   UNL     1     -31.560   7.861  -6.216  1.00  0.00     0.000 C 
BRANCH   6   7
ATOM      7  C   UNL     1     -31.638   8.538  -7.597  1.00  0.00     0.000 C 
BRANCH   7   8
ATOM      8  C   UNL     1     -33.063   8.826  -8.106  1.00  0.00     0.000 C 
BRANCH   8   9
ATOM      9  C   UNL     1     -34.059   7.670  -7.866  1.00  0.00     0.000 C 
BRANCH   9  10
ATOM     10  C   UNL     1     -33.357   6.313  -7.682  1.00  0.00     0.000 C 
BRANCH  10  11
ATOM     11  C   UNL     1     -34.124   5.156  -8.339  1.00  0.00     0.000 C 
BRANCH  11  12
ATOM     12  C   UNL     1     -34.123   5.241  -9.876  1.00  0.00     0.006 C 
BRANCH  12  13
ATOM     13  C   UNL     1     -32.874   5.953 -10.415  1.00  0.00     0.053 C 
BRANCH  13  14
ATOM     14  C   UNL     1     -32.570   5.550 -11.825  1.00  0.00     0.041 C 
ATOM     15  O   UNL     1     -31.376   5.459 -12.216  1.00  0.00    -0.550 OA
ATOM     16  O   UNL     1     -33.606   5.305 -12.717  1.00  0.00    -0.550 OA
ENDBRANCH  13  14
ENDBRANCH  12  13
ENDBRANCH  11  12
ENDBRANCH  10  11
ENDBRANCH   9  10
ENDBRANCH   8   9
ENDBRANCH   7   8
ENDBRANCH   6   7
ENDBRANCH   5   6
ENDBRANCH   4   5
ENDBRANCH   3   4
ENDBRANCH   2   3
ENDBRANCH   1   2
BRANCH   1  17
ATOM     17  C   UNL     1     -26.410  10.432  -6.474  1.00  0.00     0.000 C 
BRANCH  17  18
ATOM     18  C   UNL     1     -26.178  11.086  -5.095  1.00  0.00     0.000 C 
BRANCH  18  19
ATOM     19  C   UNL     1     -24.712  11.015  -4.640  1.00  0.00     0.000 C 
BRANCH  19  20
ATOM     20  C   UNL     1     -24.433   9.712  -3.875  1.00  0.00     0.000 C 
BRANCH  20  21
ATOM     21  C   UNL     1     -22.994   9.205  -4.068  1.00  0.00     0.000 C 
BRANCH  21  22
ATOM     22  C   UNL     1     -22.369   9.675  -5.389  1.00  0.00    -0.000 C 
BRANCH  22  23
ATOM     23  C   UNL     1     -21.887   8.480  -6.226  1.00  0.00    -0.000 C 
BRANCH  23  24
ATOM     24  C   UNL     1     -21.633   7.218  -5.380  1.00  0.00    -0.000 C 
BRANCH  24  25
ATOM     25  C   UNL     1     -21.560   5.907  -6.182  1.00  0.00    -0.000 C 
BRANCH  25  26
ATOM     26  C   UNL     1     -22.948   5.314  -6.482  1.00  0.00    -0.000 C 
BRANCH  26  27
ATOM     27  C   UNL     1     -24.049   5.904  -5.586  1.00  0.00    -0.000 C 
BRANCH  27  28
ATOM     28  C   UNL     1     -25.448   5.372  -5.945  1.00  0.00    -0.000 C 
BRANCH  28  29
ATOM     29  C   UNL     1     -25.393   4.212  -6.951  1.00  0.00    -0.003 C 
ATOM     30  C   UNL     1     -26.426   3.125  -6.660  1.00  0.00     0.004 C 
ENDBRANCH  28  29
ENDBRANCH  27  28
ENDBRANCH  26  27
ENDBRANCH  25  26
ENDBRANCH  24  25
ENDBRANCH  23  24
ENDBRANCH  22  23
ENDBRANCH  21  22
ENDBRANCH  20  21
ENDBRANCH  19  20
ENDBRANCH  18  19
ENDBRANCH  17  18
ENDBRANCH   1  17
TORSDOF 26
ENDMDL
MODEL 2
REMARK VINA RESULT:     5.694      1.653      2.346
REMARK INTER + INTRA:          13.999
REMARK INTER:                  14.875
REMARK INTRA:                  -0.876
REMARK UNBOUND:                -0.351
REMARK SMILES CCCCCCCCCCCCCCCCCCCCCCCCCCCC(=O)[O-]
REMARK SMILES IDX 15 1 16 2 17 3 18 4 19 5 20 6 21 7 22 8 23 9 24 10 25 11
REMARK SMILES IDX 26 12 27 13 28 14 29 15 30 16 14 17 13 18 12 19 11 20 10 21
REMARK SMILES IDX 9 22 8 23 7 24 6 25 5 26 4 27 3 28 2 29 1 30
REMARK H PARENT
REMARK Flexibility Score: inf
ROOT
ATOM      1  C   UNL     1     -26.645   9.171  -4.534  1.00  0.00     0.000 C 
ENDROOT
BRANCH   1   2
ATOM      2  C   UNL     1     -27.902   9.793  -3.899  1.00  0.00     0.000 C 
BRANCH   2   3
ATOM      3  C   UNL     1     -29.179   8.930  -3.982  1.00  0.00     0.000 C 
BRANCH   3   4
ATOM      4  C   UNL     1     -29.499   8.363  -5.377  1.00  0.00     0.000 C 
BRANCH   4   5
ATOM      5  C   UNL     1     -30.668   9.090  -6.061  1.00  0.00     0.000 C 
BRANCH   5   6
ATOM      6  C   UNL     1     -31.295   8.271  -7.206  1.00  0.00     0.000 C 
BRANCH   6   7
ATOM      7  C   UNL     1     -32.510   8.924  -7.892  1.00  0.00     0.000 C 
BRANCH   7   8
ATOM      8  C   UNL     1     -33.538   7.939  -8.479  1.00  0.00     0.000 C 
BRANCH   8   9
ATOM      9  C   UNL     1     -33.186   6.453  -8.248  1.00  0.00     0.000 C 
BRANCH   9  10
ATOM     10  C   UNL     1     -34.125   5.498  -9.005  1.00  0.00     0.000 C 
BRANCH  10  11
ATOM     11  C   UNL     1     -34.096   5.721 -10.525  1.00  0.00     0.000 C 
BRANCH  11  12
ATOM     12  C   UNL     1     -34.082   4.401 -11.317  1.00  0.00     0.006 C 
BRANCH  12  13
ATOM     13  C   UNL     1     -34.122   4.636 -12.833  1.00  0.00     0.053 C 
BRANCH  13  14
ATOM     14  C   UNL     1     -33.405   3.554 -13.581  1.00  0.00     0.041 C 
ATOM     15  O   UNL     1     -32.188   3.687 -13.879  1.00  0.00    -0.550 OA
ATOM     16  O   UNL     1     -34.089   2.412 -13.979  1.00  0.00    -0.550 OA
ENDBRANCH  13  14
ENDBRANCH  12  13
ENDBRANCH  11  12
ENDBRANCH  10  11
ENDBRANCH   9  10
ENDBRANCH   8   9
ENDBRANCH   7   8
ENDBRANCH   6   7
ENDBRANCH   5   6
ENDBRANCH   4   5
ENDBRANCH   3   4
ENDBRANCH   2   3
ENDBRANCH   1   2
BRANCH   1  17
ATOM     17  C   UNL     1     -26.340   9.626  -5.975  1.00  0.00     0.000 C 
BRANCH  17  18
ATOM     18  C   UNL     1     -25.127  10.572  -6.095  1.00  0.00     0.000 C 
BRANCH  18  19
ATOM     19  C   UNL     1     -24.619  11.068  -4.732  1.00  0.00     0.000 C 
BRANCH  19  20
ATOM     20  C   UNL     1     -23.838   9.965  -3.999  1.00  0.00     0.000 C 
BRANCH  20  21
ATOM     21  C   UNL     1     -22.669   9.412  -4.830  1.00  0.00     0.000 C 
BRANCH  21  22
ATOM     22  C   UNL     1     -22.714   7.885  -4.980  1.00  0.00    -0.000 C 
BRANCH  22  23
ATOM     23  C   UNL     1     -24.151   7.360  -4.839  1.00  0.00    -0.000 C 
BRANCH  23  24
ATOM     24  C   UNL     1     -24.527   6.338  -5.928  1.00  0.00    -0.000 C 
BRANCH  24  25
ATOM     25  C   UNL     1     -25.690   5.400  -5.560  1.00  0.00    -0.000 C 
BRANCH  25  26
ATOM     26  C   UNL     1     -25.521   3.986  -6.143  1.00  0.00    -0.000 C 
BRANCH  26  27
ATOM     27  C   UNL     1     -24.775   3.985  -7.487  1.00  0.00    -0.000 C 
BRANCH  27  28
ATOM     28  C   UNL     1     -25.479   3.125  -8.552  1.00  0.00    -0.000 C 
BRANCH  28  29
ATOM     29  C   UNL     1     -24.816   3.243  -9.932  1.00  0.00    -0.003 C 
ATOM     30  C   UNL     1     -25.767   3.776 -11.003  1.00  0.00     0.004 C 
ENDBRANCH  28  29
ENDBRANCH  27  28
ENDBRANCH  26  27
ENDBRANCH  25  26
ENDBRANCH  24  25
ENDBRANCH  23  24
ENDBRANCH  22  23
ENDBRANCH  21  22
ENDBRANCH  20  21
ENDBRANCH  19  20
ENDBRANCH  18  19
ENDBRANCH  17  18
ENDBRANCH   1  17
TORSDOF 26
ENDMDL
MODEL 3
REMARK VINA RESULT:     6.149      1.290      2.370
REMARK INTER + INTRA:          15.144
REMARK INTER:                  14.211
REMARK INTRA:                   0.933
REMARK UNBOUND:                -0.351
REMARK SMILES CCCCCCCCCCCCCCCCCCCCCCCCCCCC(=O)[O-]
REMARK SMILES IDX 15 1 16 2 17 3 18 4 19 5 20 6 21 7 22 8 23 9 24 10 25 11
REMARK SMILES IDX 26 12 27 13 28 14 29 15 30 16 14 17 13 18 12 19 11 20 10 21
REMARK SMILES IDX 9 22 8 23 7 24 6 25 5 26 4 27 3 28 2 29 1 30
REMARK H PARENT
REMARK Flexibility Score: inf
ROOT
ATOM      1  C   UNL     1     -25.456  10.691  -6.375  1.00  0.00     0.000 C 
ENDROOT
BRANCH   1   2
ATOM      2  C   UNL     1     -26.752   9.874  -6.210  1.00  0.00     0.000 C 
BRANCH   2   3
ATOM      3  C   UNL     1     -27.452  10.020  -4.842  1.00  0.00     0.000 C 
BRANCH   3   4
ATOM      4  C   UNL     1     -28.079   8.729  -4.285  1.00  0.00     0.000 C 
BRANCH   4   5
ATOM      5  C   UNL     1     -29.617   8.752  -4.319  1.00  0.00     0.000 C 
BRANCH   5   6
ATOM      6  C   UNL     1     -30.202   7.910  -5.468  1.00  0.00     0.000 C 
BRANCH   6   7
ATOM      7  C   UNL     1     -30.468   8.676  -6.777  1.00  0.00     0.000 C 
BRANCH   7   8
ATOM      8  C   UNL     1     -31.491   8.023  -7.724  1.00  0.00     0.000 C 
BRANCH   8   9
ATOM      9  C   UNL     1     -32.854   8.748  -7.771  1.00  0.00     0.000 C 
BRANCH   9  10
ATOM     10  C   UNL     1     -34.038   7.798  -7.519  1.00  0.00     0.000 C 
BRANCH  10  11
ATOM     11  C   UNL     1     -33.598   6.335  -7.353  1.00  0.00     0.000 C 
BRANCH  11  12
ATOM     12  C   UNL     1     -33.995   5.457  -8.554  1.00  0.00     0.006 C 
BRANCH  12  13
ATOM     13  C   UNL     1     -34.125   6.273  -9.848  1.00  0.00     0.053 C 
BRANCH  13  14
ATOM     14  C   UNL     1     -33.076   5.896 -10.849  1.00  0.00     0.041 C 
ATOM     15  O   UNL     1     -31.929   6.414 -10.791  1.00  0.00    -0.550 OA
ATOM     16  O   UNL     1     -33.374   4.999 -11.866  1.00  0.00    -0.550 OA
ENDBRANCH  13  14
ENDBRANCH  12  13
ENDBRANCH  11  12
ENDBRANCH  10  11
ENDBRANCH   9  10
ENDBRANCH   8   9
ENDBRANCH   7   8
ENDBRANCH   6   7
ENDBRANCH   5   6
ENDBRANCH   4   5
ENDBRANCH   3   4
ENDBRANCH   2   3
ENDBRANCH   1   2
BRANCH   1  17
ATOM     17  C   UNL     1     -24.587  10.812  -5.108  1.00  0.00     0.000 C 
BRANCH  17  18
ATOM     18  C   UNL     1     -24.937   9.794  -4.003  1.00  0.00     0.000 C 
BRANCH  18  19
ATOM     19  C   UNL     1     -24.033   8.551  -4.028  1.00  0.00     0.000 C 
BRANCH  19  20
ATOM     20  C   UNL     1     -22.550   8.947  -4.107  1.00  0.00     0.000 C 
BRANCH  20  21
ATOM     21  C   UNL     1     -21.900   8.553  -5.443  1.00  0.00     0.000 C 
BRANCH  21  22
ATOM     22  C   UNL     1     -22.072   7.064  -5.774  1.00  0.00    -0.000 C 
BRANCH  22  23
ATOM     23  C   UNL     1     -23.138   6.420  -4.874  1.00  0.00    -0.000 C 
BRANCH  23  24
ATOM     24  C   UNL     1     -24.460   6.143  -5.613  1.00  0.00    -0.000 C 
BRANCH  24  25
ATOM     25  C   UNL     1     -24.706   4.665  -5.965  1.00  0.00    -0.000 C 
BRANCH  25  26
ATOM     26  C   UNL     1     -25.936   4.465  -6.867  1.00  0.00    -0.000 C 
BRANCH  26  27
ATOM     27  C   UNL     1     -26.136   2.996  -7.277  1.00  0.00    -0.000 C 
BRANCH  27  28
ATOM     28  C   UNL     1     -25.927   2.772  -8.785  1.00  0.00    -0.000 C 
BRANCH  28  29
ATOM     29  C   UNL     1     -24.553   3.263  -9.265  1.00  0.00    -0.003 C 
ATOM     30  C   UNL     1     -24.489   3.461 -10.779  1.00  0.00     0.004 C 
ENDBRANCH  28  29
ENDBRANCH  27  28
ENDBRANCH  26  27
ENDBRANCH  25  26
ENDBRANCH  24  25
ENDBRANCH  23  24
ENDBRANCH  22  23
ENDBRANCH  21  22
ENDBRANCH  20  21
ENDBRANCH  19  20
ENDBRANCH  18  19
ENDBRANCH  17  18
ENDBRANCH   1  17
TORSDOF 26
ENDMDL
MODEL 4
REMARK VINA RESULT:     6.312      4.812     11.333
REMARK INTER + INTRA:          15.555
REMARK INTER:                  15.032
REMARK INTRA:                   0.522
REMARK UNBOUND:                -0.351
REMARK SMILES CCCCCCCCCCCCCCCCCCCCCCCCCCCC(=O)[O-]
REMARK SMILES IDX 15 1 16 2 17 3 18 4 19 5 20 6 21 7 22 8 23 9 24 10 25 11
REMARK SMILES IDX 26 12 27 13 28 14 29 15 30 16 14 17 13 18 12 19 11 20 10 21
REMARK SMILES IDX 9 22 8 23 7 24 6 25 5 26 4 27 3 28 2 29 1 30
REMARK H PARENT
REMARK Flexibility Score: inf
ROOT
ATOM      1  C   UNL     1     -26.689  10.228  -6.318  1.00  0.00     0.000 C 
ENDROOT
BRANCH   1   2
ATOM      2  C   UNL     1     -25.324  10.909  -6.102  1.00  0.00     0.000 C 
BRANCH   2   3
ATOM      3  C   UNL     1     -24.882  11.047  -4.630  1.00  0.00     0.000 C 
BRANCH   3   4
ATOM      4  C   UNL     1     -23.804  10.048  -4.171  1.00  0.00     0.000 C 
BRANCH   4   5
ATOM      5  C   UNL     1     -23.007   9.452  -5.344  1.00  0.00     0.000 C 
BRANCH   5   6
ATOM      6  C   UNL     1     -23.068   7.914  -5.390  1.00  0.00     0.000 C 
BRANCH   6   7
ATOM      7  C   UNL     1     -21.953   7.187  -4.615  1.00  0.00     0.000 C 
BRANCH   7   8
ATOM      8  C   UNL     1     -20.679   6.888  -5.426  1.00  0.00     0.000 C 
BRANCH   8   9
ATOM      9  C   UNL     1     -19.600   7.989  -5.328  1.00  0.00     0.000 C 
BRANCH   9  10
ATOM     10  C   UNL     1     -18.171   7.419  -5.344  1.00  0.00     0.000 C 
BRANCH  10  11
ATOM     11  C   UNL     1     -18.139   5.908  -5.623  1.00  0.00     0.000 C 
BRANCH  11  12
ATOM     12  C   UNL     1     -17.606   5.096  -4.428  1.00  0.00     0.006 C 
BRANCH  12  13
ATOM     13  C   UNL     1     -16.182   4.579  -4.670  1.00  0.00     0.053 C 
BRANCH  13  14
ATOM     14  C   UNL     1     -15.925   4.319  -6.122  1.00  0.00     0.041 C 
ATOM     15  O   UNL     1     -16.423   3.308  -6.684  1.00  0.00    -0.550 OA
ATOM     16  O   UNL     1     -15.109   5.177  -6.848  1.00  0.00    -0.550 OA
ENDBRANCH  13  14
ENDBRANCH  12  13
ENDBRANCH  11  12
ENDBRANCH  10  11
ENDBRANCH   9  10
ENDBRANCH   8   9
ENDBRANCH   7   8
ENDBRANCH   6   7
ENDBRANCH   5   6
ENDBRANCH   4   5
ENDBRANCH   3   4
ENDBRANCH   2   3
ENDBRANCH   1   2
BRANCH   1  17
ATOM     17  C   UNL     1     -26.908   8.925  -5.523  1.00  0.00     0.000 C 
BRANCH  17  18
ATOM     18  C   UNL     1     -27.691   9.113  -4.207  1.00  0.00     0.000 C 
BRANCH  18  19
ATOM     19  C   UNL     1     -29.206   8.921  -4.381  1.00  0.00     0.000 C 
BRANCH  19  20
ATOM     20  C   UNL     1     -29.516   8.070  -5.623  1.00  0.00     0.000 C 
BRANCH  20  21
ATOM     21  C   UNL     1     -31.016   7.775  -5.783  1.00  0.00     0.000 C 
BRANCH  21  22
ATOM     22  C   UNL     1     -31.510   7.962  -7.224  1.00  0.00    -0.000 C 
BRANCH  22  23
ATOM     23  C   UNL     1     -32.245   9.301  -7.386  1.00  0.00    -0.000 C 
BRANCH  23  24
ATOM     24  C   UNL     1     -33.277   9.285  -8.529  1.00  0.00    -0.000 C 
BRANCH  24  25
ATOM     25  C   UNL     1     -34.000   7.941  -8.729  1.00  0.00    -0.000 C 
BRANCH  25  26
ATOM     26  C   UNL     1     -33.972   7.057  -7.470  1.00  0.00    -0.000 C 
BRANCH  26  27
ATOM     27  C   UNL     1     -33.985   5.555  -7.802  1.00  0.00    -0.000 C 
BRANCH  27  28
ATOM     28  C   UNL     1     -34.122   5.287  -9.311  1.00  0.00    -0.000 C 
BRANCH  28  29
ATOM     29  C   UNL     1     -33.047   6.012 -10.135  1.00  0.00    -0.003 C 
ATOM     30  C   UNL     1     -32.998   5.543 -11.589  1.00  0.00     0.004 C 
ENDBRANCH  28  29
ENDBRANCH  27  28
ENDBRANCH  26  27
ENDBRANCH  25  26
ENDBRANCH  24  25
ENDBRANCH  23  24
ENDBRANCH  22  23
ENDBRANCH  21  22
ENDBRANCH  20  21
ENDBRANCH  19  20
ENDBRANCH  18  19
ENDBRANCH  17  18
ENDBRANCH   1  17
TORSDOF 26
ENDMDL
MODEL 5
REMARK VINA RESULT:     6.815      2.179      3.630
REMARK INTER + INTRA:          16.822
REMARK INTER:                  18.514
REMARK INTRA:                  -1.692
REMARK UNBOUND:                -0.351
REMARK SMILES CCCCCCCCCCCCCCCCCCCCCCCCCCCC(=O)[O-]
REMARK SMILES IDX 15 1 16 2 17 3 18 4 19 5 20 6 21 7 22 8 23 9 24 10 25 11
REMARK SMILES IDX 26 12 27 13 28 14 29 15 30 16 14 17 13 18 12 19 11 20 10 21
REMARK SMILES IDX 9 22 8 23 7 24 6 25 5 26 4 27 3 28 2 29 1 30
REMARK H PARENT
REMARK Flexibility Score: inf
ROOT
ATOM      1  C   UNL     1     -26.888  10.346  -5.905  1.00  0.00     0.000 C 
ENDROOT
BRANCH   1   2
ATOM      2  C   UNL     1     -27.452  10.364  -4.472  1.00  0.00     0.000 C 
BRANCH   2   3
ATOM      3  C   UNL     1     -28.271   9.120  -4.071  1.00  0.00     0.000 C 
BRANCH   3   4
ATOM      4  C   UNL     1     -28.624   8.164  -5.226  1.00  0.00     0.000 C 
BRANCH   4   5
ATOM      5  C   UNL     1     -30.122   8.179  -5.574  1.00  0.00     0.000 C 
BRANCH   5   6
ATOM      6  C   UNL     1     -30.428   8.954  -6.870  1.00  0.00     0.000 C 
BRANCH   6   7
ATOM      7  C   UNL     1     -31.488   8.313  -7.785  1.00  0.00     0.000 C 
BRANCH   7   8
ATOM      8  C   UNL     1     -32.913   8.268  -7.204  1.00  0.00     0.000 C 
BRANCH   8   9
ATOM      9  C   UNL     1     -33.323   6.883  -6.656  1.00  0.00     0.000 C 
BRANCH   9  10
ATOM     10  C   UNL     1     -33.677   5.887  -7.774  1.00  0.00     0.000 C 
BRANCH  10  11
ATOM     11  C   UNL     1     -34.001   6.581  -9.106  1.00  0.00     0.000 C 
BRANCH  11  12
ATOM     12  C   UNL     1     -33.210   5.991 -10.289  1.00  0.00     0.006 C 
BRANCH  12  13
ATOM     13  C   UNL     1     -34.062   5.033 -11.132  1.00  0.00     0.053 C 
BRANCH  13  14
ATOM     14  C   UNL     1     -33.426   4.747 -12.458  1.00  0.00     0.041 C 
ATOM     15  O   UNL     1     -34.120   4.754 -13.510  1.00  0.00    -0.550 OA
ATOM     16  O   UNL     1     -32.073   4.441 -12.529  1.00  0.00    -0.550 OA
ENDBRANCH  13  14
ENDBRANCH  12  13
ENDBRANCH  11  12
ENDBRANCH  10  11
ENDBRANCH   9  10
ENDBRANCH   8   9
ENDBRANCH   7   8
ENDBRANCH   6   7
ENDBRANCH   5   6
ENDBRANCH   4   5
ENDBRANCH   3   4
ENDBRANCH   2   3
ENDBRANCH   1   2
BRANCH   1  17
ATOM     17  C   UNL     1     -25.376  10.623  -6.023  1.00  0.00     0.000 C 
BRANCH  17  18
ATOM     18  C   UNL     1     -24.701  11.017  -4.692  1.00  0.00     0.000 C 
BRANCH  18  19
ATOM     19  C   UNL     1     -23.733   9.943  -4.173  1.00  0.00     0.000 C 
BRANCH  19  20
ATOM     20  C   UNL     1     -24.201   8.536  -4.577  1.00  0.00     0.000 C 
BRANCH  20  21
ATOM     21  C   UNL     1     -23.144   7.454  -4.297  1.00  0.00     0.000 C 
BRANCH  21  22
ATOM     22  C   UNL     1     -23.036   6.420  -5.425  1.00  0.00    -0.000 C 
BRANCH  22  23
ATOM     23  C   UNL     1     -21.600   6.342  -5.965  1.00  0.00    -0.000 C 
BRANCH  23  24
ATOM     24  C   UNL     1     -20.856   7.688  -5.887  1.00  0.00    -0.000 C 
BRANCH  24  25
ATOM     25  C   UNL     1     -19.674   7.718  -4.902  1.00  0.00    -0.000 C 
BRANCH  25  26
ATOM     26  C   UNL     1     -18.364   7.209  -5.528  1.00  0.00    -0.000 C 
BRANCH  26  27
ATOM     27  C   UNL     1     -17.509   6.402  -4.536  1.00  0.00    -0.000 C 
BRANCH  27  28
ATOM     28  C   UNL     1     -17.393   4.919  -4.930  1.00  0.00    -0.000 C 
BRANCH  28  29
ATOM     29  C   UNL     1     -16.193   4.651  -5.852  1.00  0.00    -0.003 C 
ATOM     30  C   UNL     1     -16.547   3.755  -7.039  1.00  0.00     0.004 C 
ENDBRANCH  28  29
ENDBRANCH  27  28
ENDBRANCH  26  27
ENDBRANCH  25  26
ENDBRANCH  24  25
ENDBRANCH  23  24
ENDBRANCH  22  23
ENDBRANCH  21  22
ENDBRANCH  20  21
ENDBRANCH  19  20
ENDBRANCH  18  19
ENDBRANCH  17  18
ENDBRANCH   1  17
TORSDOF 26
ENDMDL
