MODEL 1
REMARK VINA RESULT:    -4.176      0.000      0.000
REMARK INTER + INTRA:          -9.941
REMARK INTER:                  -7.593
REMARK INTRA:                  -2.348
REMARK UNBOUND:                -2.348
REMARK SMILES CCCCCCCCCCCCCCCC(=O)[O-]
REMARK SMILES IDX 9 1 10 2 11 3 12 4 13 5 14 6 15 7 16 8 17 9 18 10 8 11 7 12
REMARK SMILES IDX 6 13 5 14 4 15 3 16 2 17 1 18
REMARK H PARENT
REMARK Flexibility Score: inf
ROOT
ATOM      1  C   UNL     1      53.419  24.828  35.336  1.00  0.00     0.000 C 
ENDROOT
BRANCH   1   2
ATOM      2  C   UNL     1      54.354  26.021  35.052  1.00  0.00     0.000 C 
BRANCH   2   3
ATOM      3  C   UNL     1      53.866  26.991  33.957  1.00  0.00     0.000 C 
BRANCH   3   4
ATOM      4  C   UNL     1      53.941  28.484  34.327  1.00  0.00     0.000 C 
BRANCH   4   5
ATOM      5  C   UNL     1      52.614  29.029  34.883  1.00  0.00     0.000 C 
BRANCH   5   6
ATOM      6  C   UNL     1      52.749  29.555  36.321  1.00  0.00     0.006 C 
BRANCH   6   7
ATOM      7  C   UNL     1      54.149  29.324  36.907  1.00  0.00     0.053 C 
BRANCH   7   8
ATOM      8  C   UNL     1      54.716  30.607  37.426  1.00  0.00     0.041 C 
ATOM      9  O   UNL     1      54.171  31.704  37.134  1.00  0.00    -0.550 OA
ATOM     10  O   UNL     1      55.816  30.590  38.274  1.00  0.00    -0.550 OA
ENDBRANCH   7   8
ENDBRANCH   6   7
ENDBRANCH   5   6
ENDBRANCH   4   5
ENDBRANCH   3   4
ENDBRANCH   2   3
ENDBRANCH   1   2
BRANCH   1  11
ATOM     11  C   UNL     1      52.351  25.081  36.415  1.00  0.00     0.000 C 
BRANCH  11  12
ATOM     12  C   UNL     1      51.124  24.166  36.264  1.00  0.00    -0.000 C 
BRANCH  12  13
ATOM     13  C   UNL     1      49.820  24.957  36.068  1.00  0.00    -0.000 C 
BRANCH  13  14
ATOM     14  C   UNL     1      50.074  26.434  35.716  1.00  0.00    -0.000 C 
BRANCH  14  15
ATOM     15  C   UNL     1      49.486  26.832  34.351  1.00  0.00    -0.000 C 
BRANCH  15  16
ATOM     16  C   UNL     1      49.511  25.725  33.277  1.00  0.00    -0.000 C 
BRANCH  16  17
ATOM     17  C   UNL     1      50.889  25.472  32.637  1.00  0.00    -0.003 C 
ATOM     18  C   UNL     1      51.194  23.987  32.450  1.00  0.00     0.004 C 
ENDBRANCH  16  17
ENDBRANCH  15  16
ENDBRANCH  14  15
ENDBRANCH  13  14
ENDBRANCH  12  13
ENDBRANCH  11  12
ENDBRANCH   1  11
TORSDOF 14
ENDMDL
MODEL 2
REMARK VINA RESULT:    -4.158      1.082      2.324
REMARK INTER + INTRA:          -9.909
REMARK INTER:                  -7.286
REMARK INTRA:                  -2.623
REMARK UNBOUND:                -2.348
REMARK SMILES CCCCCCCCCCCCCCCC(=O)[O-]
REMARK SMILES IDX 9 1 10 2 11 3 12 4 13 5 14 6 15 7 16 8 17 9 18 10 8 11 7 12
REMARK SMILES IDX 6 13 5 14 4 15 3 16 2 17 1 18
REMARK H PARENT
REMARK Flexibility Score: inf
ROOT
ATOM      1  C   UNL     1      51.555  24.412  36.361  1.00  0.00     0.000 C 
ENDROOT
BRANCH   1   2
ATOM      2  C   UNL     1      52.592  25.526  36.116  1.00  0.00     0.000 C 
BRANCH   2   3
ATOM      3  C   UNL     1      53.634  25.224  35.020  1.00  0.00     0.000 C 
BRANCH   3   4
ATOM      4  C   UNL     1      54.135  26.453  34.239  1.00  0.00     0.000 C 
BRANCH   4   5
ATOM      5  C   UNL     1      53.031  27.496  33.995  1.00  0.00     0.000 C 
BRANCH   5   6
ATOM      6  C   UNL     1      53.401  28.884  34.541  1.00  0.00     0.006 C 
BRANCH   6   7
ATOM      7  C   UNL     1      52.610  29.255  35.803  1.00  0.00     0.053 C 
BRANCH   7   8
ATOM      8  C   UNL     1      53.543  29.583  36.925  1.00  0.00     0.041 C 
ATOM      9  O   UNL     1      54.701  29.090  36.951  1.00  0.00    -0.550 OA
ATOM     10  O   UNL     1      53.152  30.472  37.919  1.00  0.00    -0.550 OA
ENDBRANCH   7   8
ENDBRANCH   6   7
ENDBRANCH   5   6
ENDBRANCH   4   5
ENDBRANCH   3   4
ENDBRANCH   2   3
ENDBRANCH   1   2
BRANCH   1  11
ATOM     11  C   UNL     1      50.091  24.820  36.112  1.00  0.00     0.000 C 
BRANCH  11  12
ATOM     12  C   UNL     1      49.930  26.323  35.831  1.00  0.00    -0.000 C 
BRANCH  12  13
ATOM     13  C   UNL     1      49.408  26.604  34.412  1.00  0.00    -0.000 C 
BRANCH  13  14
ATOM     14  C   UNL     1      49.465  25.362  33.506  1.00  0.00    -0.000 C 
BRANCH  14  15
ATOM     15  C   UNL     1      50.698  25.349  32.585  1.00  0.00    -0.000 C 
BRANCH  15  16
ATOM     16  C   UNL     1      51.356  23.968  32.388  1.00  0.00    -0.000 C 
BRANCH  16  17
ATOM     17  C   UNL     1      50.514  22.772  32.871  1.00  0.00    -0.003 C 
ATOM     18  C   UNL     1      51.293  21.825  33.781  1.00  0.00     0.004 C 
ENDBRANCH  16  17
ENDBRANCH  15  16
ENDBRANCH  14  15
ENDBRANCH  13  14
ENDBRANCH  12  13
ENDBRANCH  11  12
ENDBRANCH   1  11
TORSDOF 14
ENDMDL
MODEL 3
REMARK VINA RESULT:    -3.919      1.625      2.722
REMARK INTER + INTRA:          -9.474
REMARK INTER:                  -7.865
REMARK INTRA:                  -1.609
REMARK UNBOUND:                -2.348
REMARK SMILES CCCCCCCCCCCCCCCC(=O)[O-]
REMARK SMILES IDX 9 1 10 2 11 3 12 4 13 5 14 6 15 7 16 8 17 9 18 10 8 11 7 12
REMARK SMILES IDX 6 13 5 14 4 15 3 16 2 17 1 18
REMARK H PARENT
REMARK Flexibility Score: inf
ROOT
ATOM      1  C   UNL     1      54.014  27.288  35.302  1.00  0.00     0.000 C 
ENDROOT
BRANCH   1   2
ATOM      2  C   UNL     1      53.732  28.510  34.406  1.00  0.00     0.000 C 
BRANCH   2   3
ATOM      3  C   UNL     1      52.863  29.610  35.049  1.00  0.00     0.000 C 
BRANCH   3   4
ATOM      4  C   UNL     1      52.991  29.732  36.578  1.00  0.00     0.000 C 
BRANCH   4   5
ATOM      5  C   UNL     1      53.723  31.012  37.016  1.00  0.00     0.000 C 
BRANCH   5   6
ATOM      6  C   UNL     1      54.859  30.730  38.012  1.00  0.00     0.006 C 
BRANCH   6   7
ATOM      7  C   UNL     1      56.181  30.378  37.317  1.00  0.00     0.053 C 
BRANCH   7   8
ATOM      8  C   UNL     1      57.115  31.546  37.350  1.00  0.00     0.041 C 
ATOM      9  O   UNL     1      58.160  31.542  36.647  1.00  0.00    -0.550 OA
ATOM     10  O   UNL     1      56.808  32.662  38.118  1.00  0.00    -0.550 OA
ENDBRANCH   7   8
ENDBRANCH   6   7
ENDBRANCH   5   6
ENDBRANCH   4   5
ENDBRANCH   3   4
ENDBRANCH   2   3
ENDBRANCH   1   2
BRANCH   1  11
ATOM     11  C   UNL     1      52.968  26.162  35.217  1.00  0.00     0.000 C 
BRANCH  11  12
ATOM     12  C   UNL     1      52.486  25.905  33.779  1.00  0.00    -0.000 C 
BRANCH  12  13
ATOM     13  C   UNL     1      51.006  26.273  33.579  1.00  0.00    -0.000 C 
BRANCH  13  14
ATOM     14  C   UNL     1      50.350  26.795  34.869  1.00  0.00    -0.000 C 
BRANCH  14  15
ATOM     15  C   UNL     1      49.260  25.852  35.409  1.00  0.00    -0.000 C 
BRANCH  15  16
ATOM     16  C   UNL     1      48.628  24.912  34.363  1.00  0.00    -0.000 C 
BRANCH  16  17
ATOM     17  C   UNL     1      48.751  23.410  34.680  1.00  0.00    -0.003 C 
ATOM     18  C   UNL     1      50.144  23.017  35.168  1.00  0.00     0.004 C 
ENDBRANCH  16  17
ENDBRANCH  15  16
ENDBRANCH  14  15
ENDBRANCH  13  14
ENDBRANCH  12  13
ENDBRANCH  11  12
ENDBRANCH   1  11
TORSDOF 14
ENDMDL
MODEL 4
REMARK VINA RESULT:    -3.896      1.786      2.694
REMARK INTER + INTRA:          -9.433
REMARK INTER:                  -7.733
REMARK INTRA:                  -1.700
REMARK UNBOUND:                -2.348
REMARK SMILES CCCCCCCCCCCCCCCC(=O)[O-]
REMARK SMILES IDX 9 1 10 2 11 3 12 4 13 5 14 6 15 7 16 8 17 9 18 10 8 11 7 12
REMARK SMILES IDX 6 13 5 14 4 15 3 16 2 17 1 18
REMARK H PARENT
REMARK Flexibility Score: inf
ROOT
ATOM      1  C   UNL     1      51.904  25.746  33.234  1.00  0.00     0.000 C 
ENDROOT
BRANCH   1   2
ATOM      2  C   UNL     1      52.681  26.282  34.452  1.00  0.00     0.000 C 
BRANCH   2   3
ATOM      3  C   UNL     1      54.026  26.962  34.127  1.00  0.00     0.000 C 
BRANCH   3   4
ATOM      4  C   UNL     1      54.006  28.501  34.164  1.00  0.00     0.000 C 
BRANCH   4   5
ATOM      5  C   UNL     1      52.745  29.065  34.839  1.00  0.00     0.000 C 
BRANCH   5   6
ATOM      6  C   UNL     1      52.981  29.438  36.311  1.00  0.00     0.006 C 
BRANCH   6   7
ATOM      7  C   UNL     1      54.469  29.604  36.648  1.00  0.00     0.053 C 
BRANCH   7   8
ATOM      8  C   UNL     1      54.855  28.690  37.768  1.00  0.00     0.041 C 
ATOM      9  O   UNL     1      55.010  27.459  37.556  1.00  0.00    -0.550 OA
ATOM     10  O   UNL     1      55.093  29.205  39.036  1.00  0.00    -0.550 OA
ENDBRANCH   7   8
ENDBRANCH   6   7
ENDBRANCH   5   6
ENDBRANCH   4   5
ENDBRANCH   3   4
ENDBRANCH   2   3
ENDBRANCH   1   2
BRANCH   1  11
ATOM     11  C   UNL     1      50.448  26.235  33.123  1.00  0.00     0.000 C 
BRANCH  11  12
ATOM     12  C   UNL     1      49.895  26.767  34.455  1.00  0.00    -0.000 C 
BRANCH  12  13
ATOM     13  C   UNL     1      48.983  25.751  35.162  1.00  0.00    -0.000 C 
BRANCH  13  14
ATOM     14  C   UNL     1      49.772  24.761  36.038  1.00  0.00    -0.000 C 
BRANCH  14  15
ATOM     15  C   UNL     1      49.969  23.392  35.362  1.00  0.00    -0.000 C 
BRANCH  15  16
ATOM     16  C   UNL     1      48.670  22.624  35.043  1.00  0.00    -0.000 C 
BRANCH  16  17
ATOM     17  C   UNL     1      48.313  22.545  33.547  1.00  0.00    -0.003 C 
ATOM     18  C   UNL     1      47.002  23.253  33.210  1.00  0.00     0.004 C 
ENDBRANCH  16  17
ENDBRANCH  15  16
ENDBRANCH  14  15
ENDBRANCH  13  14
ENDBRANCH  12  13
ENDBRANCH  11  12
ENDBRANCH   1  11
TORSDOF 14
ENDMDL
MODEL 5
REMARK VINA RESULT:    -3.894      2.876      5.568
REMARK INTER + INTRA:          -9.429
REMARK INTER:                  -7.021
REMARK INTRA:                  -2.409
REMARK UNBOUND:                -2.348
REMARK SMILES CCCCCCCCCCCCCCCC(=O)[O-]
REMARK SMILES IDX 9 1 10 2 11 3 12 4 13 5 14 6 15 7 16 8 17 9 18 10 8 11 7 12
REMARK SMILES IDX 6 13 5 14 4 15 3 16 2 17 1 18
REMARK H PARENT
REMARK Flexibility Score: inf
ROOT
ATOM      1  C   UNL     1      52.049  24.149  36.601  1.00  0.00     0.000 C 
ENDROOT
BRANCH   1   2
ATOM      2  C   UNL     1      52.122  22.962  35.619  1.00  0.00     0.000 C 
BRANCH   2   3
ATOM      3  C   UNL     1      51.163  23.046  34.415  1.00  0.00     0.000 C 
BRANCH   3   4
ATOM      4  C   UNL     1      51.777  23.634  33.131  1.00  0.00     0.000 C 
BRANCH   4   5
ATOM      5  C   UNL     1      50.937  24.777  32.537  1.00  0.00     0.000 C 
BRANCH   5   6
ATOM      6  C   UNL     1      51.088  26.090  33.322  1.00  0.00     0.006 C 
BRANCH   6   7
ATOM      7  C   UNL     1      49.739  26.751  33.636  1.00  0.00     0.053 C 
BRANCH   7   8
ATOM      8  C   UNL     1      49.151  26.168  34.882  1.00  0.00     0.041 C 
ATOM      9  O   UNL     1      48.337  25.210  34.810  1.00  0.00    -0.550 OA
ATOM     10  O   UNL     1      49.540  26.647  36.126  1.00  0.00    -0.550 OA
ENDBRANCH   7   8
ENDBRANCH   6   7
ENDBRANCH   5   6
ENDBRANCH   4   5
ENDBRANCH   3   4
ENDBRANCH   2   3
ENDBRANCH   1   2
BRANCH   1  11
ATOM     11  C   UNL     1      53.011  25.310  36.291  1.00  0.00     0.000 C 
BRANCH  11  12
ATOM     12  C   UNL     1      54.298  24.847  35.589  1.00  0.00    -0.000 C 
BRANCH  12  13
ATOM     13  C   UNL     1      54.625  25.687  34.343  1.00  0.00    -0.000 C 
BRANCH  13  14
ATOM     14  C   UNL     1      55.736  26.719  34.604  1.00  0.00    -0.000 C 
BRANCH  14  15
ATOM     15  C   UNL     1      55.215  28.167  34.622  1.00  0.00    -0.000 C 
BRANCH  15  16
ATOM     16  C   UNL     1      53.833  28.375  33.970  1.00  0.00    -0.000 C 
BRANCH  16  17
ATOM     17  C   UNL     1      52.809  29.123  34.844  1.00  0.00    -0.003 C 
ATOM     18  C   UNL     1      53.280  29.310  36.285  1.00  0.00     0.004 C 
ENDBRANCH  16  17
ENDBRANCH  15  16
ENDBRANCH  14  15
ENDBRANCH  13  14
ENDBRANCH  12  13
ENDBRANCH  11  12
ENDBRANCH   1  11
TORSDOF 14
ENDMDL
MODEL 6
REMARK VINA RESULT:    -3.885      1.307      1.762
REMARK INTER + INTRA:          -9.413
REMARK INTER:                  -7.397
REMARK INTRA:                  -2.016
REMARK UNBOUND:                -2.348
REMARK SMILES CCCCCCCCCCCCCCCC(=O)[O-]
REMARK SMILES IDX 9 1 10 2 11 3 12 4 13 5 14 6 15 7 16 8 17 9 18 10 8 11 7 12
REMARK SMILES IDX 6 13 5 14 4 15 3 16 2 17 1 18
REMARK H PARENT
REMARK Flexibility Score: inf
ROOT
ATOM      1  C   UNL     1      52.516  24.933  34.830  1.00  0.00     0.000 C 
ENDROOT
BRANCH   1   2
ATOM      2  C   UNL     1      52.859  26.083  33.861  1.00  0.00     0.000 C 
BRANCH   2   3
ATOM      3  C   UNL     1      54.273  26.676  34.020  1.00  0.00     0.000 C 
BRANCH   3   4
ATOM      4  C   UNL     1      54.362  28.204  33.855  1.00  0.00     0.000 C 
BRANCH   4   5
ATOM      5  C   UNL     1      53.363  28.960  34.747  1.00  0.00     0.000 C 
BRANCH   5   6
ATOM      6  C   UNL     1      53.725  28.878  36.239  1.00  0.00     0.006 C 
BRANCH   6   7
ATOM      7  C   UNL     1      53.024  29.955  37.078  1.00  0.00     0.053 C 
BRANCH   7   8
ATOM      8  C   UNL     1      54.027  30.735  37.868  1.00  0.00     0.041 C 
ATOM      9  O   UNL     1      54.639  31.699  37.338  1.00  0.00    -0.550 OA
ATOM     10  O   UNL     1      54.251  30.430  39.205  1.00  0.00    -0.550 OA
ENDBRANCH   7   8
ENDBRANCH   6   7
ENDBRANCH   5   6
ENDBRANCH   4   5
ENDBRANCH   3   4
ENDBRANCH   2   3
ENDBRANCH   1   2
BRANCH   1  11
ATOM     11  C   UNL     1      51.424  25.258  35.866  1.00  0.00     0.000 C 
BRANCH  11  12
ATOM     12  C   UNL     1      50.760  26.623  35.624  1.00  0.00    -0.000 C 
BRANCH  12  13
ATOM     13  C   UNL     1      49.329  26.494  35.077  1.00  0.00    -0.000 C 
BRANCH  13  14
ATOM     14  C   UNL     1      49.286  26.466  33.539  1.00  0.00    -0.000 C 
BRANCH  14  15
ATOM     15  C   UNL     1      48.771  25.128  32.980  1.00  0.00    -0.000 C 
BRANCH  15  16
ATOM     16  C   UNL     1      48.258  24.129  34.037  1.00  0.00    -0.000 C 
BRANCH  16  17
ATOM     17  C   UNL     1      49.066  22.823  34.143  1.00  0.00    -0.003 C 
ATOM     18  C   UNL     1      50.169  22.719  33.091  1.00  0.00     0.004 C 
ENDBRANCH  16  17
ENDBRANCH  15  16
ENDBRANCH  14  15
ENDBRANCH  13  14
ENDBRANCH  12  13
ENDBRANCH  11  12
ENDBRANCH   1  11
TORSDOF 14
ENDMDL
MODEL 7
REMARK VINA RESULT:    -3.853      3.401      4.518
REMARK INTER + INTRA:          -9.355
REMARK INTER:                  -7.462
REMARK INTRA:                  -1.894
REMARK UNBOUND:                -2.348
REMARK SMILES CCCCCCCCCCCCCCCC(=O)[O-]
REMARK SMILES IDX 9 1 10 2 11 3 12 4 13 5 14 6 15 7 16 8 17 9 18 10 8 11 7 12
REMARK SMILES IDX 6 13 5 14 4 15 3 16 2 17 1 18
REMARK H PARENT
REMARK Flexibility Score: inf
ROOT
ATOM      1  C   UNL     1      53.078  26.079  33.765  1.00  0.00     0.000 C 
ENDROOT
BRANCH   1   2
ATOM      2  C   UNL     1      53.123  27.419  34.526  1.00  0.00     0.000 C 
BRANCH   2   3
ATOM      3  C   UNL     1      54.135  28.449  33.984  1.00  0.00     0.000 C 
BRANCH   3   4
ATOM      4  C   UNL     1      55.524  27.880  33.640  1.00  0.00     0.000 C 
BRANCH   4   5
ATOM      5  C   UNL     1      56.275  27.351  34.874  1.00  0.00     0.000 C 
BRANCH   5   6
ATOM      6  C   UNL     1      57.470  26.461  34.500  1.00  0.00     0.006 C 
BRANCH   6   7
ATOM      7  C   UNL     1      57.511  26.124  33.003  1.00  0.00     0.053 C 
BRANCH   7   8
ATOM      8  C   UNL     1      58.905  26.259  32.476  1.00  0.00     0.041 C 
ATOM      9  O   UNL     1      59.887  25.923  33.189  1.00  0.00    -0.550 OA
ATOM     10  O   UNL     1      59.119  26.709  31.179  1.00  0.00    -0.550 OA
ENDBRANCH   7   8
ENDBRANCH   6   7
ENDBRANCH   5   6
ENDBRANCH   4   5
ENDBRANCH   3   4
ENDBRANCH   2   3
ENDBRANCH   1   2
BRANCH   1  11
ATOM     11  C   UNL     1      53.204  24.824  34.649  1.00  0.00     0.000 C 
BRANCH  11  12
ATOM     12  C   UNL     1      52.948  25.115  36.137  1.00  0.00    -0.000 C 
BRANCH  12  13
ATOM     13  C   UNL     1      51.684  24.416  36.665  1.00  0.00    -0.000 C 
BRANCH  13  14
ATOM     14  C   UNL     1      50.900  23.697  35.552  1.00  0.00    -0.000 C 
BRANCH  14  15
ATOM     15  C   UNL     1      49.514  24.317  35.302  1.00  0.00    -0.000 C 
BRANCH  15  16
ATOM     16  C   UNL     1      49.419  25.836  35.549  1.00  0.00    -0.000 C 
BRANCH  16  17
ATOM     17  C   UNL     1      49.488  26.706  34.281  1.00  0.00    -0.003 C 
ATOM     18  C   UNL     1      49.244  25.910  33.000  1.00  0.00     0.004 C 
ENDBRANCH  16  17
ENDBRANCH  15  16
ENDBRANCH  14  15
ENDBRANCH  13  14
ENDBRANCH  12  13
ENDBRANCH  11  12
ENDBRANCH   1  11
TORSDOF 14
ENDMDL
MODEL 8
REMARK VINA RESULT:    -3.851      2.640      4.010
REMARK INTER + INTRA:          -9.351
REMARK INTER:                  -7.839
REMARK INTRA:                  -1.512
REMARK UNBOUND:                -2.348
REMARK SMILES CCCCCCCCCCCCCCCC(=O)[O-]
REMARK SMILES IDX 9 1 10 2 11 3 12 4 13 5 14 6 15 7 16 8 17 9 18 10 8 11 7 12
REMARK SMILES IDX 6 13 5 14 4 15 3 16 2 17 1 18
REMARK H PARENT
REMARK Flexibility Score: inf
ROOT
ATOM      1  C   UNL     1      51.764  27.382  34.799  1.00  0.00     0.000 C 
ENDROOT
BRANCH   1   2
ATOM      2  C   UNL     1      52.869  28.431  35.036  1.00  0.00     0.000 C 
BRANCH   2   3
ATOM      3  C   UNL     1      53.975  28.473  33.964  1.00  0.00     0.000 C 
BRANCH   3   4
ATOM      4  C   UNL     1      55.381  28.088  34.459  1.00  0.00     0.000 C 
BRANCH   4   5
ATOM      5  C   UNL     1      55.970  26.884  33.706  1.00  0.00     0.000 C 
BRANCH   5   6
ATOM      6  C   UNL     1      56.983  26.097  34.553  1.00  0.00     0.006 C 
BRANCH   6   7
ATOM      7  C   UNL     1      57.368  26.828  35.847  1.00  0.00     0.053 C 
BRANCH   7   8
ATOM      8  C   UNL     1      58.823  27.176  35.837  1.00  0.00     0.041 C 
ATOM      9  O   UNL     1      59.638  26.471  35.185  1.00  0.00    -0.550 OA
ATOM     10  O   UNL     1      59.273  28.307  36.505  1.00  0.00    -0.550 OA
ENDBRANCH   7   8
ENDBRANCH   6   7
ENDBRANCH   5   6
ENDBRANCH   4   5
ENDBRANCH   3   4
ENDBRANCH   2   3
ENDBRANCH   1   2
BRANCH   1  11
ATOM     11  C   UNL     1      52.035  26.400  33.645  1.00  0.00     0.000 C 
BRANCH  11  12
ATOM     12  C   UNL     1      50.750  25.954  32.927  1.00  0.00    -0.000 C 
BRANCH  12  13
ATOM     13  C   UNL     1      49.491  26.621  33.504  1.00  0.00    -0.000 C 
BRANCH  13  14
ATOM     14  C   UNL     1      48.680  25.671  34.403  1.00  0.00    -0.000 C 
BRANCH  14  15
ATOM     15  C   UNL     1      48.990  24.187  34.137  1.00  0.00    -0.000 C 
BRANCH  15  16
ATOM     16  C   UNL     1      49.723  23.454  35.279  1.00  0.00    -0.000 C 
BRANCH  16  17
ATOM     17  C   UNL     1      50.358  24.373  36.338  1.00  0.00    -0.003 C 
ATOM     18  C   UNL     1      51.832  24.061  36.589  1.00  0.00     0.004 C 
ENDBRANCH  16  17
ENDBRANCH  15  16
ENDBRANCH  14  15
ENDBRANCH  13  14
ENDBRANCH  12  13
ENDBRANCH  11  12
ENDBRANCH   1  11
TORSDOF 14
ENDMDL
MODEL 9
REMARK VINA RESULT:    -3.831      3.229      6.113
REMARK INTER + INTRA:          -9.314
REMARK INTER:                  -6.924
REMARK INTRA:                  -2.390
REMARK UNBOUND:                -2.348
REMARK SMILES CCCCCCCCCCCCCCCC(=O)[O-]
REMARK SMILES IDX 9 1 10 2 11 3 12 4 13 5 14 6 15 7 16 8 17 9 18 10 8 11 7 12
REMARK SMILES IDX 6 13 5 14 4 15 3 16 2 17 1 18
REMARK H PARENT
REMARK Flexibility Score: inf
ROOT
ATOM      1  C   UNL     1      52.154  28.104  34.870  1.00  0.00     0.000 C 
ENDROOT
BRANCH   1   2
ATOM      2  C   UNL     1      52.996  27.100  34.059  1.00  0.00     0.000 C 
BRANCH   2   3
ATOM      3  C   UNL     1      53.141  25.701  34.692  1.00  0.00     0.000 C 
BRANCH   3   4
ATOM      4  C   UNL     1      52.492  25.542  36.079  1.00  0.00     0.000 C 
BRANCH   4   5
ATOM      5  C   UNL     1      51.267  24.612  36.061  1.00  0.00     0.000 C 
BRANCH   5   6
ATOM      6  C   UNL     1      49.949  25.377  35.859  1.00  0.00     0.006 C 
BRANCH   6   7
ATOM      7  C   UNL     1      49.156  24.878  34.643  1.00  0.00     0.053 C 
BRANCH   7   8
ATOM      8  C   UNL     1      49.685  25.495  33.387  1.00  0.00     0.041 C 
ATOM      9  O   UNL     1      49.405  26.688  33.101  1.00  0.00    -0.550 OA
ATOM     10  O   UNL     1      50.528  24.768  32.555  1.00  0.00    -0.550 OA
ENDBRANCH   7   8
ENDBRANCH   6   7
ENDBRANCH   5   6
ENDBRANCH   4   5
ENDBRANCH   3   4
ENDBRANCH   2   3
ENDBRANCH   1   2
BRANCH   1  11
ATOM     11  C   UNL     1      52.823  29.470  35.112  1.00  0.00     0.000 C 
BRANCH  11  12
ATOM     12  C   UNL     1      53.130  29.729  36.596  1.00  0.00    -0.000 C 
BRANCH  12  13
ATOM     13  C   UNL     1      54.612  29.511  36.939  1.00  0.00    -0.000 C 
BRANCH  13  14
ATOM     14  C   UNL     1      54.888  28.102  37.495  1.00  0.00    -0.000 C 
BRANCH  14  15
ATOM     15  C   UNL     1      56.097  27.422  36.828  1.00  0.00    -0.000 C 
BRANCH  15  16
ATOM     16  C   UNL     1      56.300  27.760  35.337  1.00  0.00    -0.000 C 
BRANCH  16  17
ATOM     17  C   UNL     1      57.206  26.780  34.567  1.00  0.00    -0.003 C 
ATOM     18  C   UNL     1      56.588  26.307  33.253  1.00  0.00     0.004 C 
ENDBRANCH  16  17
ENDBRANCH  15  16
ENDBRANCH  14  15
ENDBRANCH  13  14
ENDBRANCH  12  13
ENDBRANCH  11  12
ENDBRANCH   1  11
TORSDOF 14
ENDMDL
