MODEL 1
REMARK VINA RESULT:     1.097      0.000      0.000
REMARK INTER + INTRA:           1.440
REMARK INTER:                   1.193
REMARK INTRA:                   0.246
REMARK UNBOUND:                 0.246
REMARK SMILES C[C@H]1[C@H](C)CC[C@]2(C(=O)[O-])CC[C@]3(C)C(=CC[C@H]4[C@]5(C)CC[C@@H](O)C(C)(C)[C@H]5CC[C@@]43C)[C@H]12
REMARK SMILES IDX 7 1 6 2 11 3 33 4 5 5 12 6 15 7 2 8 3 9 13 10 16 11 1 12
REMARK SMILES IDX 4 13 14 14 31 15 17 16 18 17 30 18 32 19 19 20 29 21 28 22
REMARK SMILES IDX 21 23 20 24 25 25 22 26 23 27 26 28 27 29 8 30 9 31 10 32
REMARK SMILES IDX 24 33
REMARK H PARENT 24 34
REMARK Flexibility Score: inf
ROOT
ATOM      1  C   UNL     1      38.912  21.264  -3.712  1.00  0.00     0.017 C 
ATOM      2  C   UNL     1      38.555  22.297  -2.588  1.00  0.00     0.014 C 
ATOM      3  C   UNL     1      38.958  19.852  -3.048  1.00  0.00     0.014 C 
ATOM      4  C   UNL     1      40.272  21.644  -4.398  1.00  0.00     0.030 C 
ATOM      5  C   UNL     1      39.076  23.704  -2.894  1.00  0.00     0.004 C 
ATOM      6  C   UNL     1      39.611  18.726  -3.884  1.00  0.00     0.013 C 
ATOM      7  C   UNL     1      40.875  20.446  -5.155  1.00  0.00    -0.063 C 
ATOM      8  C   UNL     1      41.259  22.410  -3.463  1.00  0.00    -0.003 C 
ATOM      9  C   UNL     1      40.625  23.744  -2.941  1.00  0.00    -0.011 C 
ATOM     10  C   UNL     1      41.025  19.063  -4.465  1.00  0.00    -0.006 C 
ATOM     11  C   UNL     1      40.993  20.601  -6.498  1.00  0.00    -0.027 C 
ATOM     12  C   UNL     1      42.590  22.713  -4.184  1.00  0.00     0.008 C 
ATOM     13  C   UNL     1      41.194  24.125  -1.564  1.00  0.00     0.008 C 
ATOM     14  C   UNL     1      42.001  19.163  -3.251  1.00  0.00     0.017 C 
ATOM     15  C   UNL     1      41.568  17.920  -5.492  1.00  0.00    -0.020 C 
ATOM     16  C   UNL     1      41.273  19.504  -7.472  1.00  0.00     0.032 C 
ATOM     17  C   UNL     1      40.889  18.120  -6.906  1.00  0.00     0.006 C 
ATOM     18  C   UNL     1      41.249  16.480  -4.957  1.00  0.00     0.008 C 
ATOM     19  C   UNL     1      43.125  18.032  -5.623  1.00  0.00     0.012 C 
ATOM     20  C   UNL     1      40.992  16.922  -7.966  1.00  0.00    -0.025 C 
ATOM     21  C   UNL     1      41.475  15.363  -5.977  1.00  0.00     0.005 C 
ATOM     22  C   UNL     1      40.579  15.598  -7.220  1.00  0.00     0.003 C 
ATOM     23  C   UNL     1      39.942  17.176  -9.101  1.00  0.00     0.010 C 
ATOM     24  C   UNL     1      42.409  16.828  -8.630  1.00  0.00     0.012 C 
ATOM     25  C   UNL     1      40.328  14.323  -8.124  1.00  0.00    -0.006 C 
ATOM     26  C   UNL     1      39.706  15.973 -10.027  1.00  0.00     0.033 C 
ATOM     27  C   UNL     1      39.308  14.711  -9.245  1.00  0.00     0.120 C 
ATOM     28  C   UNL     1      39.664  13.202  -7.274  1.00  0.00     0.014 C 
ATOM     29  C   UNL     1      41.633  13.732  -8.715  1.00  0.00     0.014 C 
ENDROOT
BRANCH   1  30
ATOM     30  C   UNL     1      37.813  21.290  -4.777  1.00  0.00     0.048 C 
ATOM     31  O   UNL     1      36.602  21.131  -4.462  1.00  0.00    -0.550 OA
ATOM     32  O   UNL     1      38.133  21.402  -6.127  1.00  0.00    -0.550 OA
ENDBRANCH   1  30
BRANCH  27  33
ATOM     33  O   UNL     1      39.058  13.639 -10.125  1.00  0.00    -0.393 OA
ATOM     34  H   UNL     1      38.672  12.890  -9.602  1.00  0.00     0.210 HD
ENDBRANCH  27  33
TORSDOF 2
ENDMDL
