MODEL 1
REMARK VINA RESULT:    -7.354      0.000      0.000
REMARK INTER + INTRA:          -8.941
REMARK INTER:                  -8.644
REMARK INTRA:                  -0.297
REMARK UNBOUND:                -0.297
REMARK SMILES O=c1cc(-c2ccc(O)c(O)c2)oc2cc(O)cc(O)c12
REMARK SMILES IDX 4 1 3 2 2 3 1 4 21 5 19 6 18 7 16 8 15 9 14 10 13 11 5 12
REMARK SMILES IDX 6 13 7 14 8 15 12 16 10 17 9 18 11 20 20 22 17 24
REMARK H PARENT 9 19 11 21 20 23 17 25
REMARK Flexibility Score: inf
ROOT
ATOM      1  C   UNL     1      11.123  14.680   8.422  1.00  0.00     0.138 A 
ATOM      2  C   UNL     1      10.707  14.484   9.745  1.00  0.00     0.100 A 
ATOM      3  C   UNL     1      10.888  15.500  10.684  1.00  0.00     0.197 A 
ATOM      4  O   UNL     1      10.554  15.273  11.875  1.00  0.00    -0.289 OA
ATOM      5  C   UNL     1      11.460  16.733  10.286  1.00  0.00     0.107 A 
ATOM      6  C   UNL     1      11.663  17.853  11.148  1.00  0.00     0.134 A 
ATOM      7  C   UNL     1      12.329  18.985  10.662  1.00  0.00     0.093 A 
ATOM      8  C   UNL     1      12.746  19.062   9.331  1.00  0.00     0.123 A 
ATOM      9  C   UNL     1      12.508  17.994   8.469  1.00  0.00     0.094 A 
ATOM     10  C   UNL     1      11.878  16.837   8.932  1.00  0.00     0.146 A 
ATOM     11  O   UNL     1      11.686  15.835   8.080  1.00  0.00    -0.456 OA
ENDROOT
BRANCH   1  12
ATOM     12  C   UNL     1      10.952  13.635   7.381  1.00  0.00     0.021 A 
ATOM     13  C   UNL     1      11.338  13.909   6.058  1.00  0.00     0.016 A 
ATOM     14  C   UNL     1      11.193  12.942   5.060  1.00  0.00     0.051 A 
ATOM     15  C   UNL     1      10.672  11.682   5.367  1.00  0.00     0.157 A 
ATOM     16  C   UNL     1      10.439  12.360   7.688  1.00  0.00     0.062 A 
ATOM     17  C   UNL     1      10.295  11.387   6.687  1.00  0.00     0.158 A 
BRANCH  15  18
ATOM     18  O   UNL     1      10.537  10.737   4.350  1.00  0.00    -0.504 OA
ATOM     19  H   UNL     1      11.217  10.649   3.605  1.00  0.00     0.293 HD
ENDBRANCH  15  18
BRANCH  17  20
ATOM     20  O   UNL     1       9.784  10.129   7.002  1.00  0.00    -0.504 OA
ATOM     21  H   UNL     1       9.868   9.346   6.364  1.00  0.00     0.293 HD
ENDBRANCH  17  20
ENDBRANCH   1  12
BRANCH   6  22
ATOM     22  O   UNL     1      11.216  17.915  12.471  1.00  0.00    -0.507 OA
ATOM     23  H   UNL     1      10.339  18.314  12.768  1.00  0.00     0.293 HD
ENDBRANCH   6  22
BRANCH   8  24
ATOM     24  O   UNL     1      13.393  20.199   8.853  1.00  0.00    -0.508 OA
ATOM     25  H   UNL     1      13.577  20.328   7.865  1.00  0.00     0.293 HD
ENDBRANCH   8  24
TORSDOF 5
ENDMDL
MODEL 2
REMARK VINA RESULT:    -7.291      1.405      7.290
REMARK INTER + INTRA:          -8.866
REMARK INTER:                  -8.548
REMARK INTRA:                  -0.318
REMARK UNBOUND:                -0.297
REMARK SMILES O=c1cc(-c2ccc(O)c(O)c2)oc2cc(O)cc(O)c12
REMARK SMILES IDX 4 1 3 2 2 3 1 4 21 5 19 6 18 7 16 8 15 9 14 10 13 11 5 12
REMARK SMILES IDX 6 13 7 14 8 15 12 16 10 17 9 18 11 20 20 22 17 24
REMARK H PARENT 9 19 11 21 20 23 17 25
REMARK Flexibility Score: inf
ROOT
ATOM      1  C   UNL     1      11.492  14.992   7.992  1.00  0.00     0.138 A 
ATOM      2  C   UNL     1      12.012  15.355   6.742  1.00  0.00     0.100 A 
ATOM      3  C   UNL     1      11.961  14.447   5.684  1.00  0.00     0.197 A 
ATOM      4  O   UNL     1      12.484  14.781   4.590  1.00  0.00    -0.289 OA
ATOM      5  C   UNL     1      11.355  13.181   5.870  1.00  0.00     0.107 A 
ATOM      6  C   UNL     1      11.216  12.187   4.855  1.00  0.00     0.134 A 
ATOM      7  C   UNL     1      10.686  10.933   5.186  1.00  0.00     0.093 A 
ATOM      8  C   UNL     1      10.237  10.657   6.479  1.00  0.00     0.123 A 
ATOM      9  C   UNL     1      10.323  11.638   7.465  1.00  0.00     0.094 A 
ATOM     10  C   UNL     1      10.878  12.886   7.176  1.00  0.00     0.146 A 
ATOM     11  O   UNL     1      10.957  13.786   8.150  1.00  0.00    -0.456 OA
ENDROOT
BRANCH   1  12
ATOM     12  C   UNL     1      11.517  15.919   9.152  1.00  0.00     0.021 A 
ATOM     13  C   UNL     1      12.044  17.212   8.990  1.00  0.00     0.016 A 
ATOM     14  C   UNL     1      12.074  18.106  10.064  1.00  0.00     0.051 A 
ATOM     15  C   UNL     1      11.571  17.731  11.312  1.00  0.00     0.157 A 
ATOM     16  C   UNL     1      11.000  15.549  10.408  1.00  0.00     0.062 A 
ATOM     17  C   UNL     1      11.028  16.447  11.486  1.00  0.00     0.158 A 
BRANCH  15  18
ATOM     18  O   UNL     1      11.616  18.644  12.365  1.00  0.00    -0.504 OA
ATOM     19  H   UNL     1      11.375  19.619  12.241  1.00  0.00     0.293 HD
ENDBRANCH  15  18
BRANCH  17  20
ATOM     20  O   UNL     1      10.515  16.069  12.726  1.00  0.00    -0.504 OA
ATOM     21  H   UNL     1       9.519  16.079  12.914  1.00  0.00     0.293 HD
ENDBRANCH  17  20
ENDBRANCH   1  12
BRANCH   6  22
ATOM     22  O   UNL     1      11.557  12.383   3.514  1.00  0.00    -0.507 OA
ATOM     23  H   UNL     1      11.405  11.716   2.773  1.00  0.00     0.293 HD
ENDBRANCH   6  22
BRANCH   8  24
ATOM     24  O   UNL     1       9.698   9.412   6.794  1.00  0.00    -0.508 OA
ATOM     25  H   UNL     1      10.038   8.562   6.360  1.00  0.00     0.293 HD
ENDBRANCH   8  24
TORSDOF 5
ENDMDL
MODEL 3
REMARK VINA RESULT:    -7.283      1.500      6.893
REMARK INTER + INTRA:          -8.857
REMARK INTER:                  -8.573
REMARK INTRA:                  -0.284
REMARK UNBOUND:                -0.297
REMARK SMILES O=c1cc(-c2ccc(O)c(O)c2)oc2cc(O)cc(O)c12
REMARK SMILES IDX 4 1 3 2 2 3 1 4 21 5 19 6 18 7 16 8 15 9 14 10 13 11 5 12
REMARK SMILES IDX 6 13 7 14 8 15 12 16 10 17 9 18 11 20 20 22 17 24
REMARK H PARENT 9 19 11 21 20 23 17 25
REMARK Flexibility Score: inf
ROOT
ATOM      1  C   UNL     1      11.418  14.269   8.593  1.00  0.00     0.138 A 
ATOM      2  C   UNL     1      11.588  12.956   9.050  1.00  0.00     0.100 A 
ATOM      3  C   UNL     1      11.537  11.897   8.143  1.00  0.00     0.197 A 
ATOM      4  O   UNL     1      11.637  10.726   8.592  1.00  0.00    -0.289 OA
ATOM      5  C   UNL     1      11.349  12.159   6.764  1.00  0.00     0.107 A 
ATOM      6  C   UNL     1      11.314  11.161   5.743  1.00  0.00     0.134 A 
ATOM      7  C   UNL     1      11.023  11.534   4.425  1.00  0.00     0.093 A 
ATOM      8  C   UNL     1      10.825  12.874   4.081  1.00  0.00     0.123 A 
ATOM      9  C   UNL     1      10.906  13.859   5.061  1.00  0.00     0.094 A 
ATOM     10  C   UNL     1      11.160  13.517   6.391  1.00  0.00     0.146 A 
ATOM     11  O   UNL     1      11.212  14.487   7.298  1.00  0.00    -0.456 OA
ENDROOT
BRANCH   1  12
ATOM     12  C   UNL     1      11.466  15.434   9.513  1.00  0.00     0.021 A 
ATOM     13  C   UNL     1      12.028  16.642   9.067  1.00  0.00     0.016 A 
ATOM     14  C   UNL     1      12.080  17.755   9.911  1.00  0.00     0.051 A 
ATOM     15  C   UNL     1      11.564  17.685  11.207  1.00  0.00     0.157 A 
ATOM     16  C   UNL     1      10.935  15.371  10.816  1.00  0.00     0.062 A 
ATOM     17  C   UNL     1      10.985  16.490  11.663  1.00  0.00     0.158 A 
BRANCH  15  18
ATOM     18  O   UNL     1      11.631  18.812  12.026  1.00  0.00    -0.504 OA
ATOM     19  H   UNL     1      12.359  19.508  11.923  1.00  0.00     0.293 HD
ENDBRANCH  15  18
BRANCH  17  20
ATOM     20  O   UNL     1      10.458  16.416  12.951  1.00  0.00    -0.504 OA
ATOM     21  H   UNL     1       9.494  16.663  13.146  1.00  0.00     0.293 HD
ENDBRANCH  17  20
ENDBRANCH   1  12
BRANCH   6  22
ATOM     22  O   UNL     1      11.576   9.806   5.962  1.00  0.00    -0.507 OA
ATOM     23  H   UNL     1      11.953   9.419   6.813  1.00  0.00     0.293 HD
ENDBRANCH   6  22
BRANCH   8  24
ATOM     24  O   UNL     1      10.551  13.236   2.764  1.00  0.00    -0.508 OA
ATOM     25  H   UNL     1      10.301  12.546   2.065  1.00  0.00     0.293 HD
ENDBRANCH   8  24
TORSDOF 5
ENDMDL
MODEL 4
REMARK VINA RESULT:    -7.119      7.314      8.954
REMARK INTER + INTRA:          -8.664
REMARK INTER:                  -8.390
REMARK INTRA:                  -0.274
REMARK UNBOUND:                -0.297
REMARK SMILES O=c1cc(-c2ccc(O)c(O)c2)oc2cc(O)cc(O)c12
REMARK SMILES IDX 4 1 3 2 2 3 1 4 21 5 19 6 18 7 16 8 15 9 14 10 13 11 5 12
REMARK SMILES IDX 6 13 7 14 8 15 12 16 10 17 9 18 11 20 20 22 17 24
REMARK H PARENT 9 19 11 21 20 23 17 25
REMARK Flexibility Score: inf
ROOT
ATOM      1  C   UNL     1      11.664  17.689   0.356  1.00  0.00     0.138 A 
ATOM      2  C   UNL     1      11.836  16.407   0.893  1.00  0.00     0.100 A 
ATOM      3  C   UNL     1      11.949  16.246   2.275  1.00  0.00     0.197 A 
ATOM      4  O   UNL     1      12.157  15.089   2.722  1.00  0.00    -0.289 OA
ATOM      5  C   UNL     1      11.855  17.374   3.125  1.00  0.00     0.107 A 
ATOM      6  C   UNL     1      11.922  17.328   4.551  1.00  0.00     0.134 A 
ATOM      7  C   UNL     1      11.915  18.523   5.280  1.00  0.00     0.093 A 
ATOM      8  C   UNL     1      11.785  19.759   4.641  1.00  0.00     0.123 A 
ATOM      9  C   UNL     1      11.669  19.811   3.254  1.00  0.00     0.094 A 
ATOM     10  C   UNL     1      11.707  18.639   2.495  1.00  0.00     0.146 A 
ATOM     11  O   UNL     1      11.611  18.736   1.173  1.00  0.00    -0.456 OA
ENDROOT
BRANCH   1  12
ATOM     12  C   UNL     1      11.535  17.918  -1.105  1.00  0.00     0.021 A 
ATOM     13  C   UNL     1      10.478  18.707  -1.590  1.00  0.00     0.016 A 
ATOM     14  C   UNL     1      10.337  18.943  -2.960  1.00  0.00     0.051 A 
ATOM     15  C   UNL     1      11.253  18.405  -3.868  1.00  0.00     0.157 A 
ATOM     16  C   UNL     1      12.463  17.388  -2.023  1.00  0.00     0.062 A 
ATOM     17  C   UNL     1      12.323  17.626  -3.399  1.00  0.00     0.158 A 
BRANCH  15  18
ATOM     18  O   UNL     1      11.085  18.657  -5.230  1.00  0.00    -0.504 OA
ATOM     19  H   UNL     1      10.829  17.927  -5.883  1.00  0.00     0.293 HD
ENDBRANCH  15  18
BRANCH  17  20
ATOM     20  O   UNL     1      13.247  17.096  -4.299  1.00  0.00    -0.504 OA
ATOM     21  H   UNL     1      12.996  16.354  -4.943  1.00  0.00     0.293 HD
ENDBRANCH  17  20
ENDBRANCH   1  12
BRANCH   6  22
ATOM     22  O   UNL     1      11.973  16.146   5.295  1.00  0.00    -0.507 OA
ATOM     23  H   UNL     1      11.170  15.646   5.645  1.00  0.00     0.293 HD
ENDBRANCH   6  22
BRANCH   8  24
ATOM     24  O   UNL     1      11.764  20.941   5.377  1.00  0.00    -0.508 OA
ATOM     25  H   UNL     1      10.929  21.512   5.439  1.00  0.00     0.293 HD
ENDBRANCH   8  24
TORSDOF 5
ENDMDL
MODEL 5
REMARK VINA RESULT:    -7.084      3.306      4.868
REMARK INTER + INTRA:          -8.623
REMARK INTER:                  -8.341
REMARK INTRA:                  -0.282
REMARK UNBOUND:                -0.297
REMARK SMILES O=c1cc(-c2ccc(O)c(O)c2)oc2cc(O)cc(O)c12
REMARK SMILES IDX 4 1 3 2 2 3 1 4 21 5 19 6 18 7 16 8 15 9 14 10 13 11 5 12
REMARK SMILES IDX 6 13 7 14 8 15 12 16 10 17 9 18 11 20 20 22 17 24
REMARK H PARENT 9 19 11 21 20 23 17 25
REMARK Flexibility Score: inf
ROOT
ATOM      1  C   UNL     1      11.722  17.485   7.828  1.00  0.00     0.138 A 
ATOM      2  C   UNL     1      10.826  16.491   8.243  1.00  0.00     0.100 A 
ATOM      3  C   UNL     1      10.694  16.204   9.602  1.00  0.00     0.197 A 
ATOM      4  O   UNL     1       9.922  15.269   9.939  1.00  0.00    -0.289 OA
ATOM      5  C   UNL     1      11.440  16.942  10.553  1.00  0.00     0.107 A 
ATOM      6  C   UNL     1      11.362  16.760  11.968  1.00  0.00     0.134 A 
ATOM      7  C   UNL     1      12.223  17.483  12.804  1.00  0.00     0.093 A 
ATOM      8  C   UNL     1      13.116  18.422  12.282  1.00  0.00     0.123 A 
ATOM      9  C   UNL     1      13.163  18.642  10.908  1.00  0.00     0.094 A 
ATOM     10  C   UNL     1      12.343  17.913  10.044  1.00  0.00     0.146 A 
ATOM     11  O   UNL     1      12.434  18.142   8.739  1.00  0.00    -0.456 OA
ENDROOT
BRANCH   1  12
ATOM     12  C   UNL     1      11.900  17.834   6.396  1.00  0.00     0.021 A 
ATOM     13  C   UNL     1      12.233  16.825   5.476  1.00  0.00     0.016 A 
ATOM     14  C   UNL     1      12.401  17.124   4.122  1.00  0.00     0.051 A 
ATOM     15  C   UNL     1      12.230  18.432   3.660  1.00  0.00     0.157 A 
ATOM     16  C   UNL     1      11.717  19.148   5.925  1.00  0.00     0.062 A 
ATOM     17  C   UNL     1      11.884  19.450   4.564  1.00  0.00     0.158 A 
BRANCH  15  18
ATOM     18  O   UNL     1      12.407  18.701   2.303  1.00  0.00    -0.504 OA
ATOM     19  H   UNL     1      11.820  19.359   1.805  1.00  0.00     0.293 HD
ENDBRANCH  15  18
BRANCH  17  20
ATOM     20  O   UNL     1      11.702  20.755   4.108  1.00  0.00    -0.504 OA
ATOM     21  H   UNL     1      10.960  21.344   4.467  1.00  0.00     0.293 HD
ENDBRANCH  17  20
ENDBRANCH   1  12
BRANCH   6  22
ATOM     22  O   UNL     1      10.452  15.908  12.600  1.00  0.00    -0.507 OA
ATOM     23  H   UNL     1      10.585  15.489  13.507  1.00  0.00     0.293 HD
ENDBRANCH   6  22
BRANCH   8  24
ATOM     24  O   UNL     1      13.957  19.147  13.124  1.00  0.00    -0.508 OA
ATOM     25  H   UNL     1      13.932  19.026  14.129  1.00  0.00     0.293 HD
ENDBRANCH   8  24
TORSDOF 5
ENDMDL
MODEL 6
REMARK VINA RESULT:    -7.056      6.692      9.619
REMARK INTER + INTRA:          -8.590
REMARK INTER:                  -8.327
REMARK INTRA:                  -0.263
REMARK UNBOUND:                -0.297
REMARK SMILES O=c1cc(-c2ccc(O)c(O)c2)oc2cc(O)cc(O)c12
REMARK SMILES IDX 4 1 3 2 2 3 1 4 21 5 19 6 18 7 16 8 15 9 14 10 13 11 5 12
REMARK SMILES IDX 6 13 7 14 8 15 12 16 10 17 9 18 11 20 20 22 17 24
REMARK H PARENT 9 19 11 21 20 23 17 25
REMARK Flexibility Score: inf
ROOT
ATOM      1  C   UNL     1      11.580  16.196   0.214  1.00  0.00     0.138 A 
ATOM      2  C   UNL     1      11.776  16.997   1.346  1.00  0.00     0.100 A 
ATOM      3  C   UNL     1      11.766  16.414   2.615  1.00  0.00     0.197 A 
ATOM      4  O   UNL     1      11.890  17.167   3.615  1.00  0.00    -0.289 OA
ATOM      5  C   UNL     1      11.591  15.015   2.745  1.00  0.00     0.107 A 
ATOM      6  C   UNL     1      11.596  14.305   3.984  1.00  0.00     0.134 A 
ATOM      7  C   UNL     1      11.314  12.934   3.994  1.00  0.00     0.093 A 
ATOM      8  C   UNL     1      11.086  12.235   2.807  1.00  0.00     0.123 A 
ATOM      9  C   UNL     1      11.129  12.909   1.589  1.00  0.00     0.094 A 
ATOM     10  C   UNL     1      11.372  14.283   1.547  1.00  0.00     0.146 A 
ATOM     11  O   UNL     1      11.386  14.890   0.365  1.00  0.00    -0.456 OA
ENDROOT
BRANCH   1  12
ATOM     12  C   UNL     1      11.584  16.762  -1.159  1.00  0.00     0.021 A 
ATOM     13  C   UNL     1      10.363  16.991  -1.815  1.00  0.00     0.016 A 
ATOM     14  C   UNL     1      10.339  17.528  -3.104  1.00  0.00     0.051 A 
ATOM     15  C   UNL     1      11.530  17.856  -3.757  1.00  0.00     0.157 A 
ATOM     16  C   UNL     1      12.782  17.105  -1.815  1.00  0.00     0.062 A 
ATOM     17  C   UNL     1      12.759  17.647  -3.110  1.00  0.00     0.158 A 
BRANCH  15  18
ATOM     18  O   UNL     1      11.474  18.389  -5.045  1.00  0.00    -0.504 OA
ATOM     19  H   UNL     1      11.104  17.864  -5.828  1.00  0.00     0.293 HD
ENDBRANCH  15  18
BRANCH  17  20
ATOM     20  O   UNL     1      13.950  17.981  -3.751  1.00  0.00    -0.504 OA
ATOM     21  H   UNL     1      14.135  17.705  -4.709  1.00  0.00     0.293 HD
ENDBRANCH  17  20
ENDBRANCH   1  12
BRANCH   6  22
ATOM     22  O   UNL     1      11.890  14.889   5.220  1.00  0.00    -0.507 OA
ATOM     23  H   UNL     1      11.557  15.788   5.530  1.00  0.00     0.293 HD
ENDBRANCH   6  22
BRANCH   8  24
ATOM     24  O   UNL     1      10.822  10.867   2.826  1.00  0.00    -0.508 OA
ATOM     25  H   UNL     1      11.562  10.183   2.715  1.00  0.00     0.293 HD
ENDBRANCH   8  24
TORSDOF 5
ENDMDL
MODEL 7
REMARK VINA RESULT:    -7.032      8.358     12.130
REMARK INTER + INTRA:          -8.562
REMARK INTER:                  -8.297
REMARK INTRA:                  -0.265
REMARK UNBOUND:                -0.297
REMARK SMILES O=c1cc(-c2ccc(O)c(O)c2)oc2cc(O)cc(O)c12
REMARK SMILES IDX 4 1 3 2 2 3 1 4 21 5 19 6 18 7 16 8 15 9 14 10 13 11 5 12
REMARK SMILES IDX 6 13 7 14 8 15 12 16 10 17 9 18 11 20 20 22 17 24
REMARK H PARENT 9 19 11 21 20 23 17 25
REMARK Flexibility Score: inf
ROOT
ATOM      1  C   UNL     1      12.144  17.367  -0.726  1.00  0.00     0.138 A 
ATOM      2  C   UNL     1      13.351  17.616  -1.393  1.00  0.00     0.100 A 
ATOM      3  C   UNL     1      13.497  17.227  -2.725  1.00  0.00     0.197 A 
ATOM      4  O   UNL     1      14.610  17.415  -3.279  1.00  0.00    -0.289 OA
ATOM      5  C   UNL     1      12.414  16.616  -3.403  1.00  0.00     0.107 A 
ATOM      6  C   UNL     1      12.436  16.208  -4.771  1.00  0.00     0.134 A 
ATOM      7  C   UNL     1      11.336  15.524  -5.304  1.00  0.00     0.093 A 
ATOM      8  C   UNL     1      10.193  15.285  -4.537  1.00  0.00     0.123 A 
ATOM      9  C   UNL     1      10.143  15.724  -3.216  1.00  0.00     0.094 A 
ATOM     10  C   UNL     1      11.237  16.378  -2.644  1.00  0.00     0.146 A 
ATOM     11  O   UNL     1      11.153  16.763  -1.375  1.00  0.00    -0.456 OA
ENDROOT
BRANCH   1  12
ATOM     12  C   UNL     1      11.933  17.761   0.690  1.00  0.00     0.021 A 
ATOM     13  C   UNL     1      11.846  16.765   1.677  1.00  0.00     0.016 A 
ATOM     14  C   UNL     1      11.653  17.109   3.018  1.00  0.00     0.051 A 
ATOM     15  C   UNL     1      11.554  18.450   3.397  1.00  0.00     0.157 A 
ATOM     16  C   UNL     1      11.845  19.112   1.078  1.00  0.00     0.062 A 
ATOM     17  C   UNL     1      11.653  19.458   2.425  1.00  0.00     0.158 A 
BRANCH  15  18
ATOM     18  O   UNL     1      11.360  18.762   4.743  1.00  0.00    -0.504 OA
ATOM     19  H   UNL     1      11.449  19.708   5.093  1.00  0.00     0.293 HD
ENDBRANCH  15  18
BRANCH  17  20
ATOM     20  O   UNL     1      11.567  20.799   2.797  1.00  0.00    -0.504 OA
ATOM     21  H   UNL     1      11.043  21.471   2.248  1.00  0.00     0.293 HD
ENDBRANCH  17  20
ENDBRANCH   1  12
BRANCH   6  22
ATOM     22  O   UNL     1      13.492  16.467  -5.650  1.00  0.00    -0.507 OA
ATOM     23  H   UNL     1      13.419  16.998  -6.504  1.00  0.00     0.293 HD
ENDBRANCH   6  22
BRANCH   8  24
ATOM     24  O   UNL     1       9.098  14.618  -5.081  1.00  0.00    -0.508 OA
ATOM     25  H   UNL     1       8.933  13.635  -4.898  1.00  0.00     0.293 HD
ENDBRANCH   8  24
TORSDOF 5
ENDMDL
MODEL 8
REMARK VINA RESULT:    -6.905      6.814     10.445
REMARK INTER + INTRA:          -8.413
REMARK INTER:                  -8.147
REMARK INTRA:                  -0.266
REMARK UNBOUND:                -0.297
REMARK SMILES O=c1cc(-c2ccc(O)c(O)c2)oc2cc(O)cc(O)c12
REMARK SMILES IDX 4 1 3 2 2 3 1 4 21 5 19 6 18 7 16 8 15 9 14 10 13 11 5 12
REMARK SMILES IDX 6 13 7 14 8 15 12 16 10 17 9 18 11 20 20 22 17 24
REMARK H PARENT 9 19 11 21 20 23 17 25
REMARK Flexibility Score: inf
ROOT
ATOM      1  C   UNL     1      11.778  14.539  -0.809  1.00  0.00     0.138 A 
ATOM      2  C   UNL     1      12.459  13.346  -1.083  1.00  0.00     0.100 A 
ATOM      3  C   UNL     1      12.536  12.355  -0.103  1.00  0.00     0.197 A 
ATOM      4  O   UNL     1      13.201  11.318  -0.360  1.00  0.00    -0.289 OA
ATOM      5  C   UNL     1      11.897  12.548   1.145  1.00  0.00     0.107 A 
ATOM      6  C   UNL     1      11.879  11.593   2.207  1.00  0.00     0.134 A 
ATOM      7  C   UNL     1      11.297  11.937   3.434  1.00  0.00     0.093 A 
ATOM      8  C   UNL     1      10.681  13.177   3.618  1.00  0.00     0.123 A 
ATOM      9  C   UNL     1      10.650  14.096   2.572  1.00  0.00     0.094 A 
ATOM     10  C   UNL     1      11.252  13.797   1.348  1.00  0.00     0.146 A 
ATOM     11  O   UNL     1      11.214  14.709   0.382  1.00  0.00    -0.456 OA
ENDROOT
BRANCH   1  12
ATOM     12  C   UNL     1      11.663  15.626  -1.814  1.00  0.00     0.021 A 
ATOM     13  C   UNL     1      10.391  16.011  -2.271  1.00  0.00     0.016 A 
ATOM     14  C   UNL     1      10.254  17.035  -3.213  1.00  0.00     0.051 A 
ATOM     15  C   UNL     1      11.381  17.698  -3.706  1.00  0.00     0.157 A 
ATOM     16  C   UNL     1      12.795  16.306  -2.304  1.00  0.00     0.062 A 
ATOM     17  C   UNL     1      12.658  17.335  -3.249  1.00  0.00     0.158 A 
BRANCH  15  18
ATOM     18  O   UNL     1      11.213  18.715  -4.646  1.00  0.00    -0.504 OA
ATOM     19  H   UNL     1      10.356  19.250  -4.711  1.00  0.00     0.293 HD
ENDBRANCH  15  18
BRANCH  17  20
ATOM     20  O   UNL     1      13.786  18.000  -3.728  1.00  0.00    -0.504 OA
ATOM     21  H   UNL     1      13.781  18.999  -3.900  1.00  0.00     0.293 HD
ENDBRANCH  17  20
ENDBRANCH   1  12
BRANCH   6  22
ATOM     22  O   UNL     1      12.394  10.298   2.105  1.00  0.00    -0.507 OA
ATOM     23  H   UNL     1      12.898   9.935   1.311  1.00  0.00     0.293 HD
ENDBRANCH   6  22
BRANCH   8  24
ATOM     24  O   UNL     1      10.091  13.504   4.837  1.00  0.00    -0.508 OA
ATOM     25  H   UNL     1      10.648  13.668   5.668  1.00  0.00     0.293 HD
ENDBRANCH   8  24
TORSDOF 5
ENDMDL
MODEL 9
REMARK VINA RESULT:    -6.835      1.864      2.090
REMARK INTER + INTRA:          -8.331
REMARK INTER:                  -8.017
REMARK INTRA:                  -0.313
REMARK UNBOUND:                -0.297
REMARK SMILES O=c1cc(-c2ccc(O)c(O)c2)oc2cc(O)cc(O)c12
REMARK SMILES IDX 4 1 3 2 2 3 1 4 21 5 19 6 18 7 16 8 15 9 14 10 13 11 5 12
REMARK SMILES IDX 6 13 7 14 8 15 12 16 10 17 9 18 11 20 20 22 17 24
REMARK H PARENT 9 19 11 21 20 23 17 25
REMARK Flexibility Score: inf
ROOT
ATOM      1  C   UNL     1      11.807  14.304   8.896  1.00  0.00     0.138 A 
ATOM      2  C   UNL     1      10.785  14.604   9.806  1.00  0.00     0.100 A 
ATOM      3  C   UNL     1      11.008  15.552  10.807  1.00  0.00     0.197 A 
ATOM      4  O   UNL     1      10.090  15.759  11.642  1.00  0.00    -0.289 OA
ATOM      5  C   UNL     1      12.251  16.226  10.874  1.00  0.00     0.107 A 
ATOM      6  C   UNL     1      12.581  17.235  11.829  1.00  0.00     0.134 A 
ATOM      7  C   UNL     1      13.878  17.760  11.858  1.00  0.00     0.093 A 
ATOM      8  C   UNL     1      14.841  17.357  10.929  1.00  0.00     0.123 A 
ATOM      9  C   UNL     1      14.514  16.410   9.962  1.00  0.00     0.094 A 
ATOM     10  C   UNL     1      13.240  15.841   9.928  1.00  0.00     0.146 A 
ATOM     11  O   UNL     1      12.976  14.928   9.000  1.00  0.00    -0.456 OA
ENDROOT
BRANCH   1  12
ATOM     12  C   UNL     1      11.624  13.307   7.811  1.00  0.00     0.021 A 
ATOM     13  C   UNL     1      10.325  12.937   7.426  1.00  0.00     0.016 A 
ATOM     14  C   UNL     1      10.124  12.006   6.403  1.00  0.00     0.051 A 
ATOM     15  C   UNL     1      11.215  11.437   5.741  1.00  0.00     0.157 A 
ATOM     16  C   UNL     1      12.721  12.740   7.133  1.00  0.00     0.062 A 
ATOM     17  C   UNL     1      12.520  11.806   6.104  1.00  0.00     0.158 A 
BRANCH  15  18
ATOM     18  O   UNL     1      10.983  10.509   4.726  1.00  0.00    -0.504 OA
ATOM     19  H   UNL     1      11.169   9.521   4.848  1.00  0.00     0.293 HD
ENDBRANCH  15  18
BRANCH  17  20
ATOM     20  O   UNL     1      13.613  11.250   5.441  1.00  0.00    -0.504 OA
ATOM     21  H   UNL     1      14.554  11.325   5.810  1.00  0.00     0.293 HD
ENDBRANCH  17  20
ENDBRANCH   1  12
BRANCH   6  22
ATOM     22  O   UNL     1      11.674  17.768  12.750  1.00  0.00    -0.507 OA
ATOM     23  H   UNL     1      10.952  17.245  13.221  1.00  0.00     0.293 HD
ENDBRANCH   6  22
BRANCH   8  24
ATOM     24  O   UNL     1      16.125  17.897  10.956  1.00  0.00    -0.508 OA
ATOM     25  H   UNL     1      16.319  18.779  11.415  1.00  0.00     0.293 HD
ENDBRANCH   8  24
TORSDOF 5
ENDMDL
