MODEL 1
REMARK VINA RESULT:    -8.422      0.000      0.000
REMARK INTER + INTRA:          -8.669
REMARK INTER:                  -8.669
REMARK INTRA:                   0.000
REMARK UNBOUND:                 0.000
REMARK SMILES CC1(C)CC[C@@]2(C)CC[C@@]3(C)C(=CC[C@H]4[C@@]5(C)CC[C@@H](O)C(C)(C)[C@H]5CC[C@]43C)[C@@H]2C1
REMARK SMILES IDX 1 1 2 2 4 3 5 4 6 5 8 6 9 7 10 8 12 9 13 10 14 11 15 12
REMARK SMILES IDX 28 13 27 14 26 15 25 16 16 17 18 18 19 19 20 20 22 21 23 22
REMARK SMILES IDX 24 23 17 24 29 25 30 26 31 27 11 28 7 29 3 30 21 31
REMARK H PARENT 21 32
REMARK Flexibility Score: inf
ROOT
ATOM      1  C   UNL     1       0.082  26.958  54.076  1.00  0.00     0.011 C 
ATOM      2  C   UNL     1      -0.756  27.284  52.820  1.00  0.00    -0.035 C 
ATOM      3  C   UNL     1      -2.146  27.806  53.273  1.00  0.00     0.007 C 
ATOM      4  C   UNL     1      -3.172  27.890  52.127  1.00  0.00     0.008 C 
ATOM      5  C   UNL     1      -3.313  26.568  51.321  1.00  0.00    -0.026 C 
ATOM      6  C   UNL     1      -4.194  26.857  50.083  1.00  0.00     0.008 C 
ATOM      7  C   UNL     1      -4.367  25.639  49.156  1.00  0.00     0.012 C 
ATOM      8  C   UNL     1      -3.036  24.923  48.711  1.00  0.00    -0.006 C 
ATOM      9  C   UNL     1      -2.047  24.866  49.892  1.00  0.00    -0.064 C 
ATOM     10  C   UNL     1      -1.122  23.878  49.940  1.00  0.00    -0.027 C 
ATOM     11  C   UNL     1      -1.064  22.689  49.032  1.00  0.00     0.032 C 
ATOM     12  C   UNL     1      -2.009  22.683  47.796  1.00  0.00     0.006 C 
ATOM     13  C   UNL     1      -3.353  23.446  48.122  1.00  0.00    -0.020 C 
ATOM     14  C   UNL     1      -4.167  22.587  49.153  1.00  0.00     0.008 C 
ATOM     15  C   UNL     1      -3.878  21.071  49.182  1.00  0.00     0.005 C 
ATOM     16  C   UNL     1      -3.443  20.455  47.829  1.00  0.00     0.003 C 
ATOM     17  C   UNL     1      -2.205  21.211  47.168  1.00  0.00    -0.025 C 
ATOM     18  C   UNL     1      -0.911  20.346  47.348  1.00  0.00     0.010 C 
ATOM     19  C   UNL     1      -1.001  18.917  46.781  1.00  0.00     0.033 C 
ATOM     20  C   UNL     1      -2.431  18.342  46.734  1.00  0.00     0.120 C 
ATOM     21  C   UNL     1      -3.332  18.865  47.892  1.00  0.00    -0.006 C 
ATOM     22  C   UNL     1      -2.793  18.338  49.259  1.00  0.00     0.014 C 
ATOM     23  C   UNL     1      -4.744  18.254  47.702  1.00  0.00     0.014 C 
ATOM     24  C   UNL     1      -2.413  21.349  45.610  1.00  0.00     0.012 C 
ATOM     25  C   UNL     1      -4.236  23.602  46.841  1.00  0.00     0.012 C 
ATOM     26  C   UNL     1      -1.917  26.108  50.813  1.00  0.00     0.022 C 
ATOM     27  C   UNL     1      -0.907  25.981  51.986  1.00  0.00     0.015 C 
ATOM     28  C   UNL     1      -2.363  25.835  47.637  1.00  0.00     0.017 C 
ATOM     29  C   UNL     1      -3.996  25.503  52.222  1.00  0.00     0.012 C 
ATOM     30  C   UNL     1      -0.001  28.374  52.006  1.00  0.00     0.011 C 
ENDROOT
BRANCH  20  31
ATOM     31  O   UNL     1      -2.368  16.936  46.749  1.00  0.00    -0.393 OA
ATOM     32  H   UNL     1      -2.273  16.644  45.802  1.00  0.00     0.210 HD
ENDBRANCH  20  31
TORSDOF 1
ENDMDL
MODEL 2
REMARK VINA RESULT:    -8.345      2.395      4.595
REMARK INTER + INTRA:          -8.589
REMARK INTER:                  -8.589
REMARK INTRA:                   0.000
REMARK UNBOUND:                 0.000
REMARK SMILES CC1(C)CC[C@@]2(C)CC[C@@]3(C)C(=CC[C@H]4[C@@]5(C)CC[C@@H](O)C(C)(C)[C@H]5CC[C@]43C)[C@@H]2C1
REMARK SMILES IDX 1 1 2 2 4 3 5 4 6 5 8 6 9 7 10 8 12 9 13 10 14 11 15 12
REMARK SMILES IDX 28 13 27 14 26 15 25 16 16 17 18 18 19 19 20 20 22 21 23 22
REMARK SMILES IDX 24 23 17 24 29 25 30 26 31 27 11 28 7 29 3 30 21 31
REMARK H PARENT 21 32
REMARK Flexibility Score: inf
ROOT
ATOM      1  C   UNL     1      -7.422  27.547  46.067  1.00  0.00     0.011 C 
ATOM      2  C   UNL     1      -6.313  27.389  47.131  1.00  0.00    -0.035 C 
ATOM      3  C   UNL     1      -5.119  28.303  46.744  1.00  0.00     0.007 C 
ATOM      4  C   UNL     1      -3.843  28.020  47.558  1.00  0.00     0.008 C 
ATOM      5  C   UNL     1      -3.419  26.524  47.550  1.00  0.00    -0.026 C 
ATOM      6  C   UNL     1      -2.272  26.350  48.573  1.00  0.00     0.008 C 
ATOM      7  C   UNL     1      -1.792  24.892  48.714  1.00  0.00     0.012 C 
ATOM      8  C   UNL     1      -2.918  23.825  48.985  1.00  0.00    -0.006 C 
ATOM      9  C   UNL     1      -4.170  24.154  48.147  1.00  0.00    -0.064 C 
ATOM     10  C   UNL     1      -5.014  23.157  47.789  1.00  0.00    -0.027 C 
ATOM     11  C   UNL     1      -4.765  21.692  47.973  1.00  0.00     0.032 C 
ATOM     12  C   UNL     1      -3.537  21.274  48.834  1.00  0.00     0.006 C 
ATOM     13  C   UNL     1      -2.371  22.329  48.683  1.00  0.00    -0.020 C 
ATOM     14  C   UNL     1      -1.794  22.219  47.227  1.00  0.00     0.008 C 
ATOM     15  C   UNL     1      -1.987  20.872  46.500  1.00  0.00     0.005 C 
ATOM     16  C   UNL     1      -2.023  19.624  47.417  1.00  0.00     0.003 C 
ATOM     17  C   UNL     1      -3.097  19.743  48.589  1.00  0.00    -0.025 C 
ATOM     18  C   UNL     1      -4.337  18.848  48.252  1.00  0.00     0.010 C 
ATOM     19  C   UNL     1      -4.017  17.362  47.998  1.00  0.00     0.033 C 
ATOM     20  C   UNL     1      -2.589  17.101  47.478  1.00  0.00     0.120 C 
ATOM     21  C   UNL     1      -2.048  18.260  46.589  1.00  0.00    -0.006 C 
ATOM     22  C   UNL     1      -2.883  18.352  45.275  1.00  0.00     0.014 C 
ATOM     23  C   UNL     1      -0.599  17.898  46.175  1.00  0.00     0.014 C 
ATOM     24  C   UNL     1      -2.508  19.166  49.935  1.00  0.00     0.012 C 
ATOM     25  C   UNL     1      -1.202  22.020  49.675  1.00  0.00     0.012 C 
ATOM     26  C   UNL     1      -4.608  25.636  48.016  1.00  0.00     0.022 C 
ATOM     27  C   UNL     1      -5.874  25.897  47.154  1.00  0.00     0.015 C 
ATOM     28  C   UNL     1      -3.351  23.986  50.476  1.00  0.00     0.017 C 
ATOM     29  C   UNL     1      -2.924  26.152  46.126  1.00  0.00     0.012 C 
ATOM     30  C   UNL     1      -6.902  27.811  48.507  1.00  0.00     0.011 C 
ENDROOT
BRANCH  20  31
ATOM     31  O   UNL     1      -2.566  15.884  46.774  1.00  0.00    -0.393 OA
ATOM     32  H   UNL     1      -1.750  15.898  46.204  1.00  0.00     0.210 HD
ENDBRANCH  20  31
TORSDOF 1
ENDMDL
MODEL 3
REMARK VINA RESULT:    -8.213      2.736      7.965
REMARK INTER + INTRA:          -8.453
REMARK INTER:                  -8.453
REMARK INTRA:                   0.000
REMARK UNBOUND:                 0.000
REMARK SMILES CC1(C)CC[C@@]2(C)CC[C@@]3(C)C(=CC[C@H]4[C@@]5(C)CC[C@@H](O)C(C)(C)[C@H]5CC[C@]43C)[C@@H]2C1
REMARK SMILES IDX 1 1 2 2 4 3 5 4 6 5 8 6 9 7 10 8 12 9 13 10 14 11 15 12
REMARK SMILES IDX 28 13 27 14 26 15 25 16 16 17 18 18 19 19 20 20 22 21 23 22
REMARK SMILES IDX 24 23 17 24 29 25 30 26 31 27 11 28 7 29 3 30 21 31
REMARK H PARENT 21 32
REMARK Flexibility Score: inf
ROOT
ATOM      1  C   UNL     1      -2.428  17.173  49.591  1.00  0.00     0.011 C 
ATOM      2  C   UNL     1      -2.902  18.140  48.485  1.00  0.00    -0.035 C 
ATOM      3  C   UNL     1      -1.936  18.024  47.275  1.00  0.00     0.007 C 
ATOM      4  C   UNL     1      -2.128  19.138  46.229  1.00  0.00     0.008 C 
ATOM      5  C   UNL     1      -2.088  20.570  46.833  1.00  0.00    -0.026 C 
ATOM      6  C   UNL     1      -2.511  21.564  45.726  1.00  0.00     0.008 C 
ATOM      7  C   UNL     1      -2.575  23.027  46.207  1.00  0.00     0.012 C 
ATOM      8  C   UNL     1      -3.424  23.282  47.509  1.00  0.00    -0.006 C 
ATOM      9  C   UNL     1      -3.196  22.141  48.520  1.00  0.00    -0.064 C 
ATOM     10  C   UNL     1      -3.353  22.381  49.843  1.00  0.00    -0.027 C 
ATOM     11  C   UNL     1      -3.557  23.725  50.471  1.00  0.00     0.032 C 
ATOM     12  C   UNL     1      -3.826  24.927  49.520  1.00  0.00     0.006 C 
ATOM     13  C   UNL     1      -3.068  24.729  48.148  1.00  0.00    -0.020 C 
ATOM     14  C   UNL     1      -1.527  24.867  48.414  1.00  0.00     0.008 C 
ATOM     15  C   UNL     1      -1.103  25.689  49.649  1.00  0.00     0.005 C 
ATOM     16  C   UNL     1      -2.065  26.838  50.042  1.00  0.00     0.003 C 
ATOM     17  C   UNL     1      -3.571  26.352  50.230  1.00  0.00    -0.025 C 
ATOM     18  C   UNL     1      -3.911  26.287  51.758  1.00  0.00     0.010 C 
ATOM     19  C   UNL     1      -3.697  27.605  52.527  1.00  0.00     0.033 C 
ATOM     20  C   UNL     1      -2.629  28.532  51.913  1.00  0.00     0.120 C 
ATOM     21  C   UNL     1      -1.479  27.750  51.213  1.00  0.00    -0.006 C 
ATOM     22  C   UNL     1      -0.666  26.944  52.274  1.00  0.00     0.014 C 
ATOM     23  C   UNL     1      -0.507  28.791  50.600  1.00  0.00     0.014 C 
ATOM     24  C   UNL     1      -4.570  27.409  49.616  1.00  0.00     0.012 C 
ATOM     25  C   UNL     1      -3.468  25.837  47.119  1.00  0.00     0.012 C 
ATOM     26  C   UNL     1      -3.119  20.684  47.991  1.00  0.00     0.022 C 
ATOM     27  C   UNL     1      -2.884  19.584  49.062  1.00  0.00     0.015 C 
ATOM     28  C   UNL     1      -4.928  23.193  47.099  1.00  0.00     0.017 C 
ATOM     29  C   UNL     1      -0.639  20.878  47.298  1.00  0.00     0.012 C 
ATOM     30  C   UNL     1      -4.346  17.731  48.074  1.00  0.00     0.011 C 
ENDROOT
BRANCH  20  31
ATOM     31  O   UNL     1      -2.117  29.379  52.913  1.00  0.00    -0.393 OA
ATOM     32  H   UNL     1      -2.841  30.025  53.139  1.00  0.00     0.210 HD
ENDBRANCH  20  31
TORSDOF 1
ENDMDL
MODEL 4
REMARK VINA RESULT:    -8.074      2.627      4.941
REMARK INTER + INTRA:          -8.310
REMARK INTER:                  -8.310
REMARK INTRA:                   0.000
REMARK UNBOUND:                 0.000
REMARK SMILES CC1(C)CC[C@@]2(C)CC[C@@]3(C)C(=CC[C@H]4[C@@]5(C)CC[C@@H](O)C(C)(C)[C@H]5CC[C@]43C)[C@@H]2C1
REMARK SMILES IDX 1 1 2 2 4 3 5 4 6 5 8 6 9 7 10 8 12 9 13 10 14 11 15 12
REMARK SMILES IDX 28 13 27 14 26 15 25 16 16 17 18 18 19 19 20 20 22 21 23 22
REMARK SMILES IDX 24 23 17 24 29 25 30 26 31 27 11 28 7 29 3 30 21 31
REMARK H PARENT 21 32
REMARK Flexibility Score: inf
ROOT
ATOM      1  C   UNL     1      -6.395  30.239  45.066  1.00  0.00     0.011 C 
ATOM      2  C   UNL     1      -6.512  29.619  46.475  1.00  0.00    -0.035 C 
ATOM      3  C   UNL     1      -5.797  30.553  47.489  1.00  0.00     0.007 C 
ATOM      4  C   UNL     1      -5.590  29.910  48.873  1.00  0.00     0.008 C 
ATOM      5  C   UNL     1      -4.896  28.519  48.815  1.00  0.00    -0.026 C 
ATOM      6  C   UNL     1      -4.955  27.900  50.231  1.00  0.00     0.008 C 
ATOM      7  C   UNL     1      -4.352  26.483  50.306  1.00  0.00     0.012 C 
ATOM      8  C   UNL     1      -4.895  25.452  49.247  1.00  0.00    -0.006 C 
ATOM      9  C   UNL     1      -5.083  26.145  47.883  1.00  0.00    -0.064 C 
ATOM     10  C   UNL     1      -5.006  25.414  46.746  1.00  0.00    -0.027 C 
ATOM     11  C   UNL     1      -4.567  23.985  46.654  1.00  0.00     0.032 C 
ATOM     12  C   UNL     1      -4.385  23.202  47.986  1.00  0.00     0.006 C 
ATOM     13  C   UNL     1      -3.906  24.172  49.138  1.00  0.00    -0.020 C 
ATOM     14  C   UNL     1      -2.434  24.619  48.823  1.00  0.00     0.008 C 
ATOM     15  C   UNL     1      -1.595  23.679  47.931  1.00  0.00     0.005 C 
ATOM     16  C   UNL     1      -1.943  22.174  48.045  1.00  0.00     0.003 C 
ATOM     17  C   UNL     1      -3.491  21.872  47.810  1.00  0.00    -0.025 C 
ATOM     18  C   UNL     1      -3.689  21.245  46.389  1.00  0.00     0.010 C 
ATOM     19  C   UNL     1      -2.871  19.967  46.123  1.00  0.00     0.033 C 
ATOM     20  C   UNL     1      -1.571  19.863  46.944  1.00  0.00     0.120 C 
ATOM     21  C   UNL     1      -0.926  21.251  47.233  1.00  0.00    -0.006 C 
ATOM     22  C   UNL     1      -0.440  21.895  45.898  1.00  0.00     0.014 C 
ATOM     23  C   UNL     1       0.337  21.011  48.100  1.00  0.00     0.014 C 
ATOM     24  C   UNL     1      -3.999  20.782  48.832  1.00  0.00     0.012 C 
ATOM     25  C   UNL     1      -3.889  23.439  50.519  1.00  0.00     0.012 C 
ATOM     26  C   UNL     1      -5.676  27.579  47.853  1.00  0.00     0.022 C 
ATOM     27  C   UNL     1      -5.834  28.220  46.447  1.00  0.00     0.015 C 
ATOM     28  C   UNL     1      -6.326  25.031  49.710  1.00  0.00     0.017 C 
ATOM     29  C   UNL     1      -3.418  28.716  48.382  1.00  0.00     0.012 C 
ATOM     30  C   UNL     1      -8.024  29.491  46.821  1.00  0.00     0.011 C 
ENDROOT
BRANCH  20  31
ATOM     31  O   UNL     1      -0.663  19.023  46.274  1.00  0.00    -0.393 OA
ATOM     32  H   UNL     1       0.215  19.128  46.732  1.00  0.00     0.210 HD
ENDBRANCH  20  31
TORSDOF 1
ENDMDL
MODEL 5
REMARK VINA RESULT:    -7.670      1.330      2.344
REMARK INTER + INTRA:          -7.894
REMARK INTER:                  -7.894
REMARK INTRA:                   0.000
REMARK UNBOUND:                 0.000
REMARK SMILES CC1(C)CC[C@@]2(C)CC[C@@]3(C)C(=CC[C@H]4[C@@]5(C)CC[C@@H](O)C(C)(C)[C@H]5CC[C@]43C)[C@@H]2C1
REMARK SMILES IDX 1 1 2 2 4 3 5 4 6 5 8 6 9 7 10 8 12 9 13 10 14 11 15 12
REMARK SMILES IDX 28 13 27 14 26 15 25 16 16 17 18 18 19 19 20 20 22 21 23 22
REMARK SMILES IDX 24 23 17 24 29 25 30 26 31 27 11 28 7 29 3 30 21 31
REMARK H PARENT 21 32
REMARK Flexibility Score: inf
ROOT
ATOM      1  C   UNL     1       2.339  27.989  52.729  1.00  0.00     0.011 C 
ATOM      2  C   UNL     1       0.802  28.114  52.653  1.00  0.00    -0.035 C 
ATOM      3  C   UNL     1       0.213  27.880  54.070  1.00  0.00     0.007 C 
ATOM      4  C   UNL     1      -1.315  27.690  54.075  1.00  0.00     0.008 C 
ATOM      5  C   UNL     1      -1.809  26.599  53.083  1.00  0.00    -0.026 C 
ATOM      6  C   UNL     1      -3.353  26.670  53.029  1.00  0.00     0.008 C 
ATOM      7  C   UNL     1      -3.978  25.677  52.031  1.00  0.00     0.012 C 
ATOM      8  C   UNL     1      -3.389  25.712  50.570  1.00  0.00    -0.006 C 
ATOM      9  C   UNL     1      -1.860  25.903  50.623  1.00  0.00    -0.064 C 
ATOM     10  C   UNL     1      -1.094  25.437  49.608  1.00  0.00    -0.027 C 
ATOM     11  C   UNL     1      -1.567  24.569  48.483  1.00  0.00     0.032 C 
ATOM     12  C   UNL     1      -3.101  24.351  48.340  1.00  0.00     0.006 C 
ATOM     13  C   UNL     1      -3.798  24.371  49.758  1.00  0.00    -0.020 C 
ATOM     14  C   UNL     1      -3.362  23.080  50.537  1.00  0.00     0.008 C 
ATOM     15  C   UNL     1      -2.915  21.870  49.689  1.00  0.00     0.005 C 
ATOM     16  C   UNL     1      -3.594  21.748  48.302  1.00  0.00     0.003 C 
ATOM     17  C   UNL     1      -3.466  23.073  47.427  1.00  0.00    -0.025 C 
ATOM     18  C   UNL     1      -2.393  22.857  46.307  1.00  0.00     0.010 C 
ATOM     19  C   UNL     1      -2.654  21.654  45.381  1.00  0.00     0.033 C 
ATOM     20  C   UNL     1      -3.474  20.521  46.028  1.00  0.00     0.120 C 
ATOM     21  C   UNL     1      -3.218  20.387  47.559  1.00  0.00    -0.006 C 
ATOM     22  C   UNL     1      -1.746  19.933  47.809  1.00  0.00     0.014 C 
ATOM     23  C   UNL     1      -4.132  19.254  48.092  1.00  0.00     0.014 C 
ATOM     24  C   UNL     1      -4.820  23.364  46.669  1.00  0.00     0.012 C 
ATOM     25  C   UNL     1      -5.355  24.331  49.619  1.00  0.00     0.012 C 
ATOM     26  C   UNL     1      -1.270  26.899  51.656  1.00  0.00     0.022 C 
ATOM     27  C   UNL     1       0.277  27.040  51.658  1.00  0.00     0.015 C 
ATOM     28  C   UNL     1      -3.953  26.994  49.880  1.00  0.00     0.017 C 
ATOM     29  C   UNL     1      -1.359  25.207  53.605  1.00  0.00     0.012 C 
ATOM     30  C   UNL     1       0.460  29.545  52.147  1.00  0.00     0.011 C 
ENDROOT
BRANCH  20  31
ATOM     31  O   UNL     1      -3.196  19.309  45.370  1.00  0.00    -0.393 OA
ATOM     32  H   UNL     1      -3.955  19.140  44.749  1.00  0.00     0.210 HD
ENDBRANCH  20  31
TORSDOF 1
ENDMDL
MODEL 6
REMARK VINA RESULT:    -7.632      3.508      7.646
REMARK INTER + INTRA:          -7.855
REMARK INTER:                  -7.855
REMARK INTRA:                   0.000
REMARK UNBOUND:                 0.000
REMARK SMILES CC1(C)CC[C@@]2(C)CC[C@@]3(C)C(=CC[C@H]4[C@@]5(C)CC[C@@H](O)C(C)(C)[C@H]5CC[C@]43C)[C@@H]2C1
REMARK SMILES IDX 1 1 2 2 4 3 5 4 6 5 8 6 9 7 10 8 12 9 13 10 14 11 15 12
REMARK SMILES IDX 28 13 27 14 26 15 25 16 16 17 18 18 19 19 20 20 22 21 23 22
REMARK SMILES IDX 24 23 17 24 29 25 30 26 31 27 11 28 7 29 3 30 21 31
REMARK H PARENT 21 32
REMARK Flexibility Score: inf
ROOT
ATOM      1  C   UNL     1       1.935  21.642  45.529  1.00  0.00     0.011 C 
ATOM      2  C   UNL     1       1.037  21.353  46.752  1.00  0.00    -0.035 C 
ATOM      3  C   UNL     1       0.241  20.047  46.487  1.00  0.00     0.007 C 
ATOM      4  C   UNL     1      -0.897  19.807  47.496  1.00  0.00     0.008 C 
ATOM      5  C   UNL     1      -1.859  21.019  47.647  1.00  0.00    -0.026 C 
ATOM      6  C   UNL     1      -2.805  20.730  48.836  1.00  0.00     0.008 C 
ATOM      7  C   UNL     1      -3.779  21.885  49.140  1.00  0.00     0.012 C 
ATOM      8  C   UNL     1      -3.123  23.307  49.311  1.00  0.00    -0.006 C 
ATOM      9  C   UNL     1      -1.993  23.494  48.279  1.00  0.00    -0.064 C 
ATOM     10  C   UNL     1      -1.667  24.742  47.866  1.00  0.00    -0.027 C 
ATOM     11  C   UNL     1      -2.428  25.993  48.178  1.00  0.00     0.032 C 
ATOM     12  C   UNL     1      -3.565  25.897  49.235  1.00  0.00     0.006 C 
ATOM     13  C   UNL     1      -4.244  24.471  49.190  1.00  0.00    -0.020 C 
ATOM     14  C   UNL     1      -5.044  24.350  47.845  1.00  0.00     0.008 C 
ATOM     15  C   UNL     1      -5.504  25.668  47.185  1.00  0.00     0.005 C 
ATOM     16  C   UNL     1      -5.804  26.828  48.166  1.00  0.00     0.003 C 
ATOM     17  C   UNL     1      -4.595  27.136  49.157  1.00  0.00    -0.025 C 
ATOM     18  C   UNL     1      -3.866  28.444  48.700  1.00  0.00     0.010 C 
ATOM     19  C   UNL     1      -4.769  29.688  48.592  1.00  0.00     0.033 C 
ATOM     20  C   UNL     1      -6.250  29.372  48.305  1.00  0.00     0.120 C 
ATOM     21  C   UNL     1      -6.439  28.096  47.433  1.00  0.00    -0.006 C 
ATOM     22  C   UNL     1      -5.856  28.340  46.006  1.00  0.00     0.014 C 
ATOM     23  C   UNL     1      -7.963  27.865  47.260  1.00  0.00     0.014 C 
ATOM     24  C   UNL     1      -5.136  27.435  50.609  1.00  0.00     0.012 C 
ATOM     25  C   UNL     1      -5.267  24.298  50.361  1.00  0.00     0.012 C 
ATOM     26  C   UNL     1      -1.046  22.300  47.989  1.00  0.00     0.022 C 
ATOM     27  C   UNL     1       0.068  22.556  46.936  1.00  0.00     0.015 C 
ATOM     28  C   UNL     1      -2.428  23.324  50.709  1.00  0.00     0.017 C 
ATOM     29  C   UNL     1      -2.681  21.172  46.339  1.00  0.00     0.012 C 
ATOM     30  C   UNL     1       1.956  21.192  47.997  1.00  0.00     0.011 C 
ENDROOT
BRANCH  20  31
ATOM     31  O   UNL     1      -6.853  30.486  47.692  1.00  0.00    -0.393 OA
ATOM     32  H   UNL     1      -6.237  31.256  47.828  1.00  0.00     0.210 HD
ENDBRANCH  20  31
TORSDOF 1
ENDMDL
MODEL 7
REMARK VINA RESULT:    -7.440      1.562      3.027
REMARK INTER + INTRA:          -7.658
REMARK INTER:                  -7.658
REMARK INTRA:                   0.000
REMARK UNBOUND:                 0.000
REMARK SMILES CC1(C)CC[C@@]2(C)CC[C@@]3(C)C(=CC[C@H]4[C@@]5(C)CC[C@@H](O)C(C)(C)[C@H]5CC[C@]43C)[C@@H]2C1
REMARK SMILES IDX 1 1 2 2 4 3 5 4 6 5 8 6 9 7 10 8 12 9 13 10 14 11 15 12
REMARK SMILES IDX 28 13 27 14 26 15 25 16 16 17 18 18 19 19 20 20 22 21 23 22
REMARK SMILES IDX 24 23 17 24 29 25 30 26 31 27 11 28 7 29 3 30 21 31
REMARK H PARENT 21 32
REMARK Flexibility Score: inf
ROOT
ATOM      1  C   UNL     1       0.869  30.549  50.242  1.00  0.00     0.011 C 
ATOM      2  C   UNL     1      -0.488  30.086  50.815  1.00  0.00    -0.035 C 
ATOM      3  C   UNL     1      -0.354  29.943  52.355  1.00  0.00     0.007 C 
ATOM      4  C   UNL     1      -1.542  29.213  53.009  1.00  0.00     0.008 C 
ATOM      5  C   UNL     1      -1.866  27.841  52.353  1.00  0.00    -0.026 C 
ATOM      6  C   UNL     1      -3.197  27.331  52.951  1.00  0.00     0.008 C 
ATOM      7  C   UNL     1      -3.673  25.998  52.341  1.00  0.00     0.012 C 
ATOM      8  C   UNL     1      -3.740  25.952  50.767  1.00  0.00    -0.006 C 
ATOM      9  C   UNL     1      -2.530  26.695  50.165  1.00  0.00    -0.064 C 
ATOM     10  C   UNL     1      -2.077  26.346  48.938  1.00  0.00    -0.027 C 
ATOM     11  C   UNL     1      -2.525  25.158  48.145  1.00  0.00     0.032 C 
ATOM     12  C   UNL     1      -3.761  24.371  48.667  1.00  0.00     0.006 C 
ATOM     13  C   UNL     1      -3.823  24.420  50.245  1.00  0.00    -0.020 C 
ATOM     14  C   UNL     1      -2.634  23.563  50.809  1.00  0.00     0.008 C 
ATOM     15  C   UNL     1      -2.074  22.456  49.892  1.00  0.00     0.005 C 
ATOM     16  C   UNL     1      -3.101  21.817  48.924  1.00  0.00     0.003 C 
ATOM     17  C   UNL     1      -3.872  22.892  48.034  1.00  0.00    -0.025 C 
ATOM     18  C   UNL     1      -3.306  22.862  46.574  1.00  0.00     0.010 C 
ATOM     19  C   UNL     1      -3.365  21.487  45.882  1.00  0.00     0.033 C 
ATOM     20  C   UNL     1      -3.335  20.288  46.851  1.00  0.00     0.120 C 
ATOM     21  C   UNL     1      -2.498  20.568  48.134  1.00  0.00    -0.006 C 
ATOM     22  C   UNL     1      -0.994  20.744  47.756  1.00  0.00     0.014 C 
ATOM     23  C   UNL     1      -2.588  19.312  49.038  1.00  0.00     0.014 C 
ATOM     24  C   UNL     1      -5.397  22.509  47.908  1.00  0.00     0.012 C 
ATOM     25  C   UNL     1      -5.151  23.786  50.776  1.00  0.00     0.012 C 
ATOM     26  C   UNL     1      -2.072  28.024  50.823  1.00  0.00     0.022 C 
ATOM     27  C   UNL     1      -0.846  28.717  50.169  1.00  0.00     0.015 C 
ATOM     28  C   UNL     1      -4.998  26.771  50.339  1.00  0.00     0.017 C 
ATOM     29  C   UNL     1      -0.719  26.846  52.681  1.00  0.00     0.012 C 
ATOM     30  C   UNL     1      -1.555  31.159  50.456  1.00  0.00     0.011 C 
ENDROOT
BRANCH  20  31
ATOM     31  O   UNL     1      -2.843  19.156  46.175  1.00  0.00    -0.393 OA
ATOM     32  H   UNL     1      -3.442  18.397  46.414  1.00  0.00     0.210 HD
ENDBRANCH  20  31
TORSDOF 1
ENDMDL
MODEL 8
REMARK VINA RESULT:    -7.360      3.775      6.798
REMARK INTER + INTRA:          -7.575
REMARK INTER:                  -7.575
REMARK INTRA:                   0.000
REMARK UNBOUND:                 0.000
REMARK SMILES CC1(C)CC[C@@]2(C)CC[C@@]3(C)C(=CC[C@H]4[C@@]5(C)CC[C@@H](O)C(C)(C)[C@H]5CC[C@]43C)[C@@H]2C1
REMARK SMILES IDX 1 1 2 2 4 3 5 4 6 5 8 6 9 7 10 8 12 9 13 10 14 11 15 12
REMARK SMILES IDX 28 13 27 14 26 15 25 16 16 17 18 18 19 19 20 20 22 21 23 22
REMARK SMILES IDX 24 23 17 24 29 25 30 26 31 27 11 28 7 29 3 30 21 31
REMARK H PARENT 21 32
REMARK Flexibility Score: inf
ROOT
ATOM      1  C   UNL     1       5.617  23.328  49.637  1.00  0.00     0.011 C 
ATOM      2  C   UNL     1       4.754  22.575  48.601  1.00  0.00    -0.035 C 
ATOM      3  C   UNL     1       5.178  23.027  47.178  1.00  0.00     0.007 C 
ATOM      4  C   UNL     1       4.204  22.572  46.075  1.00  0.00     0.008 C 
ATOM      5  C   UNL     1       2.723  22.952  46.358  1.00  0.00    -0.026 C 
ATOM      6  C   UNL     1       1.842  22.250  45.299  1.00  0.00     0.008 C 
ATOM      7  C   UNL     1       0.333  22.492  45.498  1.00  0.00     0.012 C 
ATOM      8  C   UNL     1      -0.223  22.193  46.942  1.00  0.00    -0.006 C 
ATOM      9  C   UNL     1       0.788  22.667  48.005  1.00  0.00    -0.064 C 
ATOM     10  C   UNL     1       0.346  23.019  49.236  1.00  0.00    -0.027 C 
ATOM     11  C   UNL     1      -1.088  23.173  49.639  1.00  0.00     0.032 C 
ATOM     12  C   UNL     1      -2.172  22.688  48.635  1.00  0.00     0.006 C 
ATOM     13  C   UNL     1      -1.676  22.882  47.147  1.00  0.00    -0.020 C 
ATOM     14  C   UNL     1      -1.622  24.421  46.844  1.00  0.00     0.008 C 
ATOM     15  C   UNL     1      -2.537  25.332  47.691  1.00  0.00     0.005 C 
ATOM     16  C   UNL     1      -3.857  24.680  48.170  1.00  0.00     0.003 C 
ATOM     17  C   UNL     1      -3.629  23.305  48.945  1.00  0.00    -0.025 C 
ATOM     18  C   UNL     1      -3.828  23.533  50.481  1.00  0.00     0.010 C 
ATOM     19  C   UNL     1      -5.194  24.125  50.879  1.00  0.00     0.033 C 
ATOM     20  C   UNL     1      -5.860  24.977  49.781  1.00  0.00     0.120 C 
ATOM     21  C   UNL     1      -4.827  25.726  48.886  1.00  0.00    -0.006 C 
ATOM     22  C   UNL     1      -4.067  26.791  49.736  1.00  0.00     0.014 C 
ATOM     23  C   UNL     1      -5.619  26.500  47.801  1.00  0.00     0.014 C 
ATOM     24  C   UNL     1      -4.725  22.250  48.525  1.00  0.00     0.012 C 
ATOM     25  C   UNL     1      -2.677  22.238  46.132  1.00  0.00     0.012 C 
ATOM     26  C   UNL     1       2.300  22.421  47.756  1.00  0.00     0.022 C 
ATOM     27  C   UNL     1       3.263  22.927  48.865  1.00  0.00     0.015 C 
ATOM     28  C   UNL     1      -0.299  20.641  47.091  1.00  0.00     0.017 C 
ATOM     29  C   UNL     1       2.570  24.493  46.239  1.00  0.00     0.012 C 
ATOM     30  C   UNL     1       5.000  21.050  48.787  1.00  0.00     0.011 C 
ENDROOT
BRANCH  20  31
ATOM     31  O   UNL     1      -6.753  25.887  50.375  1.00  0.00    -0.393 OA
ATOM     32  H   UNL     1      -6.668  25.770  51.360  1.00  0.00     0.210 HD
ENDBRANCH  20  31
TORSDOF 1
ENDMDL
