MODEL 1
REMARK VINA RESULT:    -3.375      0.000      0.000
REMARK INTER + INTRA:         -13.318
REMARK INTER:                  -8.900
REMARK INTRA:                  -4.418
REMARK UNBOUND:                -4.418
REMARK SMILES CCCCCCCCCCCCCCCCCCCCCCCCCCCCCC(=O)[O-]
REMARK SMILES IDX 16 1 17 2 18 3 19 4 20 5 21 6 22 7 23 8 24 9 25 10 26 11
REMARK SMILES IDX 27 12 28 13 29 14 30 15 31 16 32 17 15 18 14 19 13 20 12 21
REMARK SMILES IDX 11 22 10 23 9 24 8 25 7 26 6 27 5 28 4 29 3 30 2 31 1 32
REMARK H PARENT
REMARK Flexibility Score: inf
ROOT
ATOM      1  C   UNL     1       9.999  21.261  20.401  1.00  0.00     0.000 C 
ENDROOT
BRANCH   1   2
ATOM      2  C   UNL     1       9.281  22.521  19.883  1.00  0.00     0.000 C 
BRANCH   2   3
ATOM      3  C   UNL     1       7.759  22.472  20.110  1.00  0.00     0.000 C 
BRANCH   3   4
ATOM      4  C   UNL     1       7.279  21.076  20.561  1.00  0.00     0.000 C 
BRANCH   4   5
ATOM      5  C   UNL     1       5.922  21.088  21.284  1.00  0.00     0.000 C 
BRANCH   5   6
ATOM      6  C   UNL     1       5.999  20.511  22.707  1.00  0.00     0.000 C 
BRANCH   6   7
ATOM      7  C   UNL     1       6.079  21.604  23.786  1.00  0.00     0.000 C 
BRANCH   7   8
ATOM      8  C   UNL     1       4.761  21.765  24.566  1.00  0.00     0.000 C 
BRANCH   8   9
ATOM      9  C   UNL     1       3.777  20.616  24.300  1.00  0.00     0.000 C 
BRANCH   9  10
ATOM     10  C   UNL     1       2.442  21.105  23.712  1.00  0.00     0.000 C 
BRANCH  10  11
ATOM     11  C   UNL     1       2.041  20.343  22.439  1.00  0.00     0.000 C 
BRANCH  11  12
ATOM     12  C   UNL     1       2.732  18.975  22.325  1.00  0.00     0.000 C 
BRANCH  12  13
ATOM     13  C   UNL     1       1.934  17.894  23.067  1.00  0.00     0.006 C 
BRANCH  13  14
ATOM     14  C   UNL     1       2.526  16.492  22.860  1.00  0.00     0.053 C 
BRANCH  14  15
ATOM     15  C   UNL     1       3.325  16.044  24.047  1.00  0.00     0.041 C 
ATOM     16  O   UNL     1       4.365  16.670  24.383  1.00  0.00    -0.550 OA
ATOM     17  O   UNL     1       2.933  14.921  24.767  1.00  0.00    -0.550 OA
ENDBRANCH  14  15
ENDBRANCH  13  14
ENDBRANCH  12  13
ENDBRANCH  11  12
ENDBRANCH  10  11
ENDBRANCH   9  10
ENDBRANCH   8   9
ENDBRANCH   7   8
ENDBRANCH   6   7
ENDBRANCH   5   6
ENDBRANCH   4   5
ENDBRANCH   3   4
ENDBRANCH   2   3
ENDBRANCH   1   2
BRANCH   1  18
ATOM     18  C   UNL     1      11.504  21.189  20.070  1.00  0.00     0.000 C 
BRANCH  18  19
ATOM     19  C   UNL     1      12.228  22.548  19.979  1.00  0.00     0.000 C 
BRANCH  19  20
ATOM     20  C   UNL     1      12.972  22.806  18.654  1.00  0.00     0.000 C 
BRANCH  20  21
ATOM     21  C   UNL     1      12.069  22.648  17.420  1.00  0.00     0.000 C 
BRANCH  21  22
ATOM     22  C   UNL     1      12.708  21.783  16.317  1.00  0.00     0.000 C 
BRANCH  22  23
ATOM     23  C   UNL     1      11.995  20.449  16.030  1.00  0.00     0.000 C 
BRANCH  23  24
ATOM     24  C   UNL     1      10.464  20.551  16.147  1.00  0.00    -0.000 C 
BRANCH  24  25
ATOM     25  C   UNL     1       9.885  19.592  17.201  1.00  0.00    -0.000 C 
BRANCH  25  26
ATOM     26  C   UNL     1       8.348  19.608  17.330  1.00  0.00    -0.000 C 
BRANCH  26  27
ATOM     27  C   UNL     1       7.677  20.825  16.659  1.00  0.00    -0.000 C 
BRANCH  27  28
ATOM     28  C   UNL     1       6.181  20.591  16.384  1.00  0.00    -0.000 C 
BRANCH  28  29
ATOM     29  C   UNL     1       5.289  21.000  17.566  1.00  0.00    -0.000 C 
BRANCH  29  30
ATOM     30  C   UNL     1       3.998  20.165  17.649  1.00  0.00    -0.000 C 
BRANCH  30  31
ATOM     31  C   UNL     1       4.013  19.172  18.820  1.00  0.00    -0.003 C 
ATOM     32  C   UNL     1       2.944  18.088  18.688  1.00  0.00     0.004 C 
ENDBRANCH  30  31
ENDBRANCH  29  30
ENDBRANCH  28  29
ENDBRANCH  27  28
ENDBRANCH  26  27
ENDBRANCH  25  26
ENDBRANCH  24  25
ENDBRANCH  23  24
ENDBRANCH  22  23
ENDBRANCH  21  22
ENDBRANCH  20  21
ENDBRANCH  19  20
ENDBRANCH  18  19
ENDBRANCH   1  18
TORSDOF 28
ENDMDL
MODEL 2
REMARK VINA RESULT:    -3.279      1.577      4.409
REMARK INTER + INTRA:         -13.065
REMARK INTER:                  -7.908
REMARK INTRA:                  -5.157
REMARK UNBOUND:                -4.418
REMARK SMILES CCCCCCCCCCCCCCCCCCCCCCCCCCCCCC(=O)[O-]
REMARK SMILES IDX 16 1 17 2 18 3 19 4 20 5 21 6 22 7 23 8 24 9 25 10 26 11
REMARK SMILES IDX 27 12 28 13 29 14 30 15 31 16 32 17 15 18 14 19 13 20 12 21
REMARK SMILES IDX 11 22 10 23 9 24 8 25 7 26 6 27 5 28 4 29 3 30 2 31 1 32
REMARK H PARENT
REMARK Flexibility Score: inf
ROOT
ATOM      1  C   UNL     1      10.294  19.202  17.734  1.00  0.00     0.000 C 
ENDROOT
BRANCH   1   2
ATOM      2  C   UNL     1       8.887  18.579  17.682  1.00  0.00     0.000 C 
BRANCH   2   3
ATOM      3  C   UNL     1       8.446  18.229  16.249  1.00  0.00     0.000 C 
BRANCH   3   4
ATOM      4  C   UNL     1       7.087  18.864  15.884  1.00  0.00     0.000 C 
BRANCH   4   5
ATOM      5  C   UNL     1       6.765  20.142  16.676  1.00  0.00     0.000 C 
BRANCH   5   6
ATOM      6  C   UNL     1       5.353  20.126  17.284  1.00  0.00     0.000 C 
BRANCH   6   7
ATOM      7  C   UNL     1       4.467  19.014  16.698  1.00  0.00     0.000 C 
BRANCH   7   8
ATOM      8  C   UNL     1       3.427  18.491  17.705  1.00  0.00     0.000 C 
BRANCH   8   9
ATOM      9  C   UNL     1       3.669  19.019  19.127  1.00  0.00     0.000 C 
BRANCH   9  10
ATOM     10  C   UNL     1       2.529  19.924  19.624  1.00  0.00     0.000 C 
BRANCH  10  11
ATOM     11  C   UNL     1       1.627  19.229  20.656  1.00  0.00     0.000 C 
BRANCH  11  12
ATOM     12  C   UNL     1       2.195  17.881  21.128  1.00  0.00     0.000 C 
BRANCH  12  13
ATOM     13  C   UNL     1       2.372  17.865  22.653  1.00  0.00     0.006 C 
BRANCH  13  14
ATOM     14  C   UNL     1       3.285  18.998  23.143  1.00  0.00     0.053 C 
BRANCH  14  15
ATOM     15  C   UNL     1       2.674  19.751  24.285  1.00  0.00     0.041 C 
ATOM     16  O   UNL     1       3.202  20.820  24.694  1.00  0.00    -0.550 OA
ATOM     17  O   UNL     1       1.535  19.261  24.913  1.00  0.00    -0.550 OA
ENDBRANCH  14  15
ENDBRANCH  13  14
ENDBRANCH  12  13
ENDBRANCH  11  12
ENDBRANCH  10  11
ENDBRANCH   9  10
ENDBRANCH   8   9
ENDBRANCH   7   8
ENDBRANCH   6   7
ENDBRANCH   5   6
ENDBRANCH   4   5
ENDBRANCH   3   4
ENDBRANCH   2   3
ENDBRANCH   1   2
BRANCH   1  18
ATOM     18  C   UNL     1      10.641  20.124  16.545  1.00  0.00     0.000 C 
BRANCH  18  19
ATOM     19  C   UNL     1      10.174  21.587  16.683  1.00  0.00     0.000 C 
BRANCH  19  20
ATOM     20  C   UNL     1      11.302  22.637  16.685  1.00  0.00     0.000 C 
BRANCH  20  21
ATOM     21  C   UNL     1      12.557  22.164  17.436  1.00  0.00     0.000 C 
BRANCH  21  22
ATOM     22  C   UNL     1      12.588  22.632  18.904  1.00  0.00     0.000 C 
BRANCH  22  23
ATOM     23  C   UNL     1      11.902  21.690  19.910  1.00  0.00     0.000 C 
BRANCH  23  24
ATOM     24  C   UNL     1      10.710  22.346  20.627  1.00  0.00    -0.000 C 
BRANCH  24  25
ATOM     25  C   UNL     1       9.569  21.353  20.909  1.00  0.00    -0.000 C 
BRANCH  25  26
ATOM     26  C   UNL     1       8.388  21.410  19.919  1.00  0.00    -0.000 C 
BRANCH  26  27
ATOM     27  C   UNL     1       7.868  22.837  19.648  1.00  0.00    -0.000 C 
BRANCH  27  28
ATOM     28  C   UNL     1       6.337  22.883  19.493  1.00  0.00    -0.000 C 
BRANCH  28  29
ATOM     29  C   UNL     1       5.615  21.929  20.456  1.00  0.00    -0.000 C 
BRANCH  29  30
ATOM     30  C   UNL     1       5.105  22.641  21.722  1.00  0.00    -0.000 C 
BRANCH  30  31
ATOM     31  C   UNL     1       5.946  22.308  22.964  1.00  0.00    -0.003 C 
ATOM     32  C   UNL     1       6.420  20.855  22.983  1.00  0.00     0.004 C 
ENDBRANCH  30  31
ENDBRANCH  29  30
ENDBRANCH  28  29
ENDBRANCH  27  28
ENDBRANCH  26  27
ENDBRANCH  25  26
ENDBRANCH  24  25
ENDBRANCH  23  24
ENDBRANCH  22  23
ENDBRANCH  21  22
ENDBRANCH  20  21
ENDBRANCH  19  20
ENDBRANCH  18  19
ENDBRANCH   1  18
TORSDOF 28
ENDMDL
MODEL 3
REMARK VINA RESULT:    -3.262      2.608      6.328
REMARK INTER + INTRA:         -13.019
REMARK INTER:                 -10.082
REMARK INTRA:                  -2.937
REMARK UNBOUND:                -4.418
REMARK SMILES CCCCCCCCCCCCCCCCCCCCCCCCCCCCCC(=O)[O-]
REMARK SMILES IDX 16 1 17 2 18 3 19 4 20 5 21 6 22 7 23 8 24 9 25 10 26 11
REMARK SMILES IDX 27 12 28 13 29 14 30 15 31 16 32 17 15 18 14 19 13 20 12 21
REMARK SMILES IDX 11 22 10 23 9 24 8 25 7 26 6 27 5 28 4 29 3 30 2 31 1 32
REMARK H PARENT
REMARK Flexibility Score: inf
ROOT
ATOM      1  C   UNL     1       4.977  19.158  24.117  1.00  0.00     0.000 C 
ENDROOT
BRANCH   1   2
ATOM      2  C   UNL     1       3.448  19.046  23.985  1.00  0.00     0.000 C 
BRANCH   2   3
ATOM      3  C   UNL     1       3.002  17.709  23.366  1.00  0.00     0.000 C 
BRANCH   3   4
ATOM      4  C   UNL     1       1.818  17.882  22.391  1.00  0.00     0.000 C 
BRANCH   4   5
ATOM      5  C   UNL     1       2.030  17.200  21.029  1.00  0.00     0.000 C 
BRANCH   5   6
ATOM      6  C   UNL     1       2.465  18.183  19.931  1.00  0.00     0.000 C 
BRANCH   6   7
ATOM      7  C   UNL     1       2.894  17.473  18.635  1.00  0.00     0.000 C 
BRANCH   7   8
ATOM      8  C   UNL     1       2.144  16.148  18.411  1.00  0.00     0.000 C 
BRANCH   8   9
ATOM      9  C   UNL     1       2.986  15.119  17.642  1.00  0.00     0.000 C 
BRANCH   9  10
ATOM     10  C   UNL     1       2.270  13.766  17.488  1.00  0.00     0.000 C 
BRANCH  10  11
ATOM     11  C   UNL     1       0.838  13.786  18.046  1.00  0.00     0.000 C 
BRANCH  11  12
ATOM     12  C   UNL     1       0.319  12.383  18.397  1.00  0.00     0.000 C 
BRANCH  12  13
ATOM     13  C   UNL     1       0.211  12.203  19.918  1.00  0.00     0.006 C 
BRANCH  13  14
ATOM     14  C   UNL     1       0.498  13.507  20.678  1.00  0.00     0.053 C 
BRANCH  14  15
ATOM     15  C   UNL     1       0.943  13.245  22.085  1.00  0.00     0.041 C 
ATOM     16  O   UNL     1       0.969  12.067  22.533  1.00  0.00    -0.550 OA
ATOM     17  O   UNL     1       1.306  14.304  22.910  1.00  0.00    -0.550 OA
ENDBRANCH  14  15
ENDBRANCH  13  14
ENDBRANCH  12  13
ENDBRANCH  11  12
ENDBRANCH  10  11
ENDBRANCH   9  10
ENDBRANCH   8   9
ENDBRANCH   7   8
ENDBRANCH   6   7
ENDBRANCH   5   6
ENDBRANCH   4   5
ENDBRANCH   3   4
ENDBRANCH   2   3
ENDBRANCH   1   2
BRANCH   1  18
ATOM     18  C   UNL     1       5.577  20.488  23.614  1.00  0.00     0.000 C 
BRANCH  18  19
ATOM     19  C   UNL     1       5.706  20.619  22.083  1.00  0.00     0.000 C 
BRANCH  19  20
ATOM     20  C   UNL     1       6.653  21.734  21.598  1.00  0.00     0.000 C 
BRANCH  20  21
ATOM     21  C   UNL     1       8.099  21.544  22.084  1.00  0.00     0.000 C 
BRANCH  21  22
ATOM     22  C   UNL     1       9.129  21.611  20.940  1.00  0.00     0.000 C 
BRANCH  22  23
ATOM     23  C   UNL     1      10.556  21.169  21.313  1.00  0.00     0.000 C 
BRANCH  23  24
ATOM     24  C   UNL     1      11.483  21.049  20.091  1.00  0.00    -0.000 C 
BRANCH  24  25
ATOM     25  C   UNL     1      11.560  22.352  19.276  1.00  0.00    -0.000 C 
BRANCH  25  26
ATOM     26  C   UNL     1      12.451  22.288  18.019  1.00  0.00    -0.000 C 
BRANCH  26  27
ATOM     27  C   UNL     1      11.966  21.277  16.959  1.00  0.00    -0.000 C 
BRANCH  27  28
ATOM     28  C   UNL     1      10.557  21.608  16.435  1.00  0.00    -0.000 C 
BRANCH  28  29
ATOM     29  C   UNL     1       9.660  20.365  16.322  1.00  0.00    -0.000 C 
BRANCH  29  30
ATOM     30  C   UNL     1       8.780  20.156  17.568  1.00  0.00    -0.000 C 
BRANCH  30  31
ATOM     31  C   UNL     1       8.903  18.738  18.144  1.00  0.00    -0.003 C 
ATOM     32  C   UNL     1      10.354  18.273  18.264  1.00  0.00     0.004 C 
ENDBRANCH  30  31
ENDBRANCH  29  30
ENDBRANCH  28  29
ENDBRANCH  27  28
ENDBRANCH  26  27
ENDBRANCH  25  26
ENDBRANCH  24  25
ENDBRANCH  23  24
ENDBRANCH  22  23
ENDBRANCH  21  22
ENDBRANCH  20  21
ENDBRANCH  19  20
ENDBRANCH  18  19
ENDBRANCH   1  18
TORSDOF 28
ENDMDL
MODEL 4
REMARK VINA RESULT:    -3.253      2.576      5.297
REMARK INTER + INTRA:         -12.996
REMARK INTER:                  -9.096
REMARK INTRA:                  -3.901
REMARK UNBOUND:                -4.418
REMARK SMILES CCCCCCCCCCCCCCCCCCCCCCCCCCCCCC(=O)[O-]
REMARK SMILES IDX 16 1 17 2 18 3 19 4 20 5 21 6 22 7 23 8 24 9 25 10 26 11
REMARK SMILES IDX 27 12 28 13 29 14 30 15 31 16 32 17 15 18 14 19 13 20 12 21
REMARK SMILES IDX 11 22 10 23 9 24 8 25 7 26 6 27 5 28 4 29 3 30 2 31 1 32
REMARK H PARENT
REMARK Flexibility Score: inf
ROOT
ATOM      1  C   UNL     1      10.130  19.560  17.364  1.00  0.00     0.000 C 
ENDROOT
BRANCH   1   2
ATOM      2  C   UNL     1       8.865  18.683  17.373  1.00  0.00     0.000 C 
BRANCH   2   3
ATOM      3  C   UNL     1       8.219  18.559  15.981  1.00  0.00     0.000 C 
BRANCH   3   4
ATOM      4  C   UNL     1       6.741  19.002  15.979  1.00  0.00     0.000 C 
BRANCH   4   5
ATOM      5  C   UNL     1       6.548  20.523  16.105  1.00  0.00     0.000 C 
BRANCH   5   6
ATOM      6  C   UNL     1       5.752  20.922  17.358  1.00  0.00     0.000 C 
BRANCH   6   7
ATOM      7  C   UNL     1       5.448  19.723  18.273  1.00  0.00     0.000 C 
BRANCH   7   8
ATOM      8  C   UNL     1       3.983  19.695  18.745  1.00  0.00     0.000 C 
BRANCH   8   9
ATOM      9  C   UNL     1       3.005  19.356  17.610  1.00  0.00     0.000 C 
BRANCH   9  10
ATOM     10  C   UNL     1       1.822  18.496  18.085  1.00  0.00     0.000 C 
BRANCH  10  11
ATOM     11  C   UNL     1       2.229  17.461  19.146  1.00  0.00     0.000 C 
BRANCH  11  12
ATOM     12  C   UNL     1       2.372  16.045  18.568  1.00  0.00     0.000 C 
BRANCH  12  13
ATOM     13  C   UNL     1       1.394  15.826  17.405  1.00  0.00     0.006 C 
BRANCH  13  14
ATOM     14  C   UNL     1       1.983  14.918  16.316  1.00  0.00     0.053 C 
BRANCH  14  15
ATOM     15  C   UNL     1       2.320  13.558  16.847  1.00  0.00     0.041 C 
ATOM     16  O   UNL     1       3.447  13.343  17.369  1.00  0.00    -0.550 OA
ATOM     17  O   UNL     1       1.399  12.521  16.745  1.00  0.00    -0.550 OA
ENDBRANCH  14  15
ENDBRANCH  13  14
ENDBRANCH  12  13
ENDBRANCH  11  12
ENDBRANCH  10  11
ENDBRANCH   9  10
ENDBRANCH   8   9
ENDBRANCH   7   8
ENDBRANCH   6   7
ENDBRANCH   5   6
ENDBRANCH   4   5
ENDBRANCH   3   4
ENDBRANCH   2   3
ENDBRANCH   1   2
BRANCH   1  18
ATOM     18  C   UNL     1      10.290  20.457  16.119  1.00  0.00     0.000 C 
BRANCH  18  19
ATOM     19  C   UNL     1      10.619  21.936  16.407  1.00  0.00     0.000 C 
BRANCH  19  20
ATOM     20  C   UNL     1      12.101  22.323  16.234  1.00  0.00     0.000 C 
BRANCH  20  21
ATOM     21  C   UNL     1      12.844  22.455  17.574  1.00  0.00     0.000 C 
BRANCH  21  22
ATOM     22  C   UNL     1      11.899  22.734  18.758  1.00  0.00     0.000 C 
BRANCH  22  23
ATOM     23  C   UNL     1      11.922  21.682  19.882  1.00  0.00     0.000 C 
BRANCH  23  24
ATOM     24  C   UNL     1      10.654  21.709  20.752  1.00  0.00    -0.000 C 
BRANCH  24  25
ATOM     25  C   UNL     1       9.407  22.152  19.967  1.00  0.00    -0.000 C 
BRANCH  25  26
ATOM     26  C   UNL     1       8.183  21.223  20.098  1.00  0.00    -0.000 C 
BRANCH  26  27
ATOM     27  C   UNL     1       7.017  21.834  20.904  1.00  0.00    -0.000 C 
BRANCH  27  28
ATOM     28  C   UNL     1       6.925  21.260  22.329  1.00  0.00    -0.000 C 
BRANCH  28  29
ATOM     29  C   UNL     1       5.484  21.215  22.858  1.00  0.00    -0.000 C 
BRANCH  29  30
ATOM     30  C   UNL     1       5.178  19.917  23.629  1.00  0.00    -0.000 C 
BRANCH  30  31
ATOM     31  C   UNL     1       3.671  19.673  23.798  1.00  0.00    -0.003 C 
ATOM     32  C   UNL     1       2.993  19.250  22.495  1.00  0.00     0.004 C 
ENDBRANCH  30  31
ENDBRANCH  29  30
ENDBRANCH  28  29
ENDBRANCH  27  28
ENDBRANCH  26  27
ENDBRANCH  25  26
ENDBRANCH  24  25
ENDBRANCH  23  24
ENDBRANCH  22  23
ENDBRANCH  21  22
ENDBRANCH  20  21
ENDBRANCH  19  20
ENDBRANCH  18  19
ENDBRANCH   1  18
TORSDOF 28
ENDMDL
MODEL 5
REMARK VINA RESULT:    -3.231      1.863      4.640
REMARK INTER + INTRA:         -12.937
REMARK INTER:                  -8.862
REMARK INTRA:                  -4.075
REMARK UNBOUND:                -4.418
REMARK SMILES CCCCCCCCCCCCCCCCCCCCCCCCCCCCCC(=O)[O-]
REMARK SMILES IDX 16 1 17 2 18 3 19 4 20 5 21 6 22 7 23 8 24 9 25 10 26 11
REMARK SMILES IDX 27 12 28 13 29 14 30 15 31 16 32 17 15 18 14 19 13 20 12 21
REMARK SMILES IDX 11 22 10 23 9 24 8 25 7 26 6 27 5 28 4 29 3 30 2 31 1 32
REMARK H PARENT
REMARK Flexibility Score: inf
ROOT
ATOM      1  C   UNL     1       8.706  18.787  17.393  1.00  0.00     0.000 C 
ENDROOT
BRANCH   1   2
ATOM      2  C   UNL     1       7.973  18.547  16.061  1.00  0.00     0.000 C 
BRANCH   2   3
ATOM      3  C   UNL     1       6.761  19.477  15.875  1.00  0.00     0.000 C 
BRANCH   3   4
ATOM      4  C   UNL     1       5.420  18.717  15.965  1.00  0.00     0.000 C 
BRANCH   4   5
ATOM      5  C   UNL     1       4.354  19.433  16.810  1.00  0.00     0.000 C 
BRANCH   5   6
ATOM      6  C   UNL     1       3.580  18.476  17.731  1.00  0.00     0.000 C 
BRANCH   6   7
ATOM      7  C   UNL     1       3.093  17.214  16.998  1.00  0.00     0.000 C 
BRANCH   7   8
ATOM      8  C   UNL     1       2.850  16.031  17.952  1.00  0.00     0.000 C 
BRANCH   8   9
ATOM      9  C   UNL     1       1.384  15.572  17.959  1.00  0.00     0.000 C 
BRANCH   9  10
ATOM     10  C   UNL     1       0.735  15.690  19.349  1.00  0.00     0.000 C 
BRANCH  10  11
ATOM     11  C   UNL     1       1.234  16.912  20.135  1.00  0.00     0.000 C 
BRANCH  11  12
ATOM     12  C   UNL     1       2.131  16.528  21.322  1.00  0.00     0.000 C 
BRANCH  12  13
ATOM     13  C   UNL     1       1.399  15.572  22.275  1.00  0.00     0.006 C 
BRANCH  13  14
ATOM     14  C   UNL     1       1.533  16.001  23.743  1.00  0.00     0.053 C 
BRANCH  14  15
ATOM     15  C   UNL     1       2.941  15.862  24.238  1.00  0.00     0.041 C 
ATOM     16  O   UNL     1       3.313  14.798  24.801  1.00  0.00    -0.550 OA
ATOM     17  O   UNL     1       3.835  16.917  24.098  1.00  0.00    -0.550 OA
ENDBRANCH  14  15
ENDBRANCH  13  14
ENDBRANCH  12  13
ENDBRANCH  11  12
ENDBRANCH  10  11
ENDBRANCH   9  10
ENDBRANCH   8   9
ENDBRANCH   7   8
ENDBRANCH   6   7
ENDBRANCH   5   6
ENDBRANCH   4   5
ENDBRANCH   3   4
ENDBRANCH   2   3
ENDBRANCH   1   2
BRANCH   1  18
ATOM     18  C   UNL     1      10.101  19.435  17.259  1.00  0.00     0.000 C 
BRANCH  18  19
ATOM     19  C   UNL     1      10.296  20.336  16.023  1.00  0.00     0.000 C 
BRANCH  19  20
ATOM     20  C   UNL     1       9.636  21.726  16.115  1.00  0.00     0.000 C 
BRANCH  20  21
ATOM     21  C   UNL     1      10.627  22.832  16.512  1.00  0.00     0.000 C 
BRANCH  21  22
ATOM     22  C   UNL     1      12.098  22.407  16.343  1.00  0.00     0.000 C 
BRANCH  22  23
ATOM     23  C   UNL     1      12.946  22.445  17.628  1.00  0.00     0.000 C 
BRANCH  23  24
ATOM     24  C   UNL     1      12.127  22.816  18.875  1.00  0.00    -0.000 C 
BRANCH  24  25
ATOM     25  C   UNL     1      11.765  21.591  19.733  1.00  0.00    -0.000 C 
BRANCH  25  26
ATOM     26  C   UNL     1      10.620  21.811  20.742  1.00  0.00    -0.000 C 
BRANCH  26  27
ATOM     27  C   UNL     1       9.259  21.255  20.274  1.00  0.00    -0.000 C 
BRANCH  27  28
ATOM     28  C   UNL     1       8.388  22.330  19.598  1.00  0.00    -0.000 C 
BRANCH  28  29
ATOM     29  C   UNL     1       7.169  21.737  18.875  1.00  0.00    -0.000 C 
BRANCH  29  30
ATOM     30  C   UNL     1       6.542  20.560  19.644  1.00  0.00    -0.000 C 
BRANCH  30  31
ATOM     31  C   UNL     1       5.137  20.884  20.174  1.00  0.00    -0.003 C 
ATOM     32  C   UNL     1       5.124  22.092  21.110  1.00  0.00     0.004 C 
ENDBRANCH  30  31
ENDBRANCH  29  30
ENDBRANCH  28  29
ENDBRANCH  27  28
ENDBRANCH  26  27
ENDBRANCH  25  26
ENDBRANCH  24  25
ENDBRANCH  23  24
ENDBRANCH  22  23
ENDBRANCH  21  22
ENDBRANCH  20  21
ENDBRANCH  19  20
ENDBRANCH  18  19
ENDBRANCH   1  18
TORSDOF 28
ENDMDL
MODEL 6
REMARK VINA RESULT:    -3.223     13.081     18.855
REMARK INTER + INTRA:         -12.916
REMARK INTER:                  -9.005
REMARK INTRA:                  -3.911
REMARK UNBOUND:                -4.418
REMARK SMILES CCCCCCCCCCCCCCCCCCCCCCCCCCCCCC(=O)[O-]
REMARK SMILES IDX 16 1 17 2 18 3 19 4 20 5 21 6 22 7 23 8 24 9 25 10 26 11
REMARK SMILES IDX 27 12 28 13 29 14 30 15 31 16 32 17 15 18 14 19 13 20 12 21
REMARK SMILES IDX 11 22 10 23 9 24 8 25 7 26 6 27 5 28 4 29 3 30 2 31 1 32
REMARK H PARENT
REMARK Flexibility Score: inf
ROOT
ATOM      1  C   UNL     1      10.938   4.379  32.315  1.00  0.00     0.000 C 
ENDROOT
BRANCH   1   2
ATOM      2  C   UNL     1       9.766   3.558  31.747  1.00  0.00     0.000 C 
BRANCH   2   3
ATOM      3  C   UNL     1       8.996   4.306  30.644  1.00  0.00     0.000 C 
BRANCH   3   4
ATOM      4  C   UNL     1       7.506   3.907  30.597  1.00  0.00     0.000 C 
BRANCH   4   5
ATOM      5  C   UNL     1       6.765   4.417  29.350  1.00  0.00     0.000 C 
BRANCH   5   6
ATOM      6  C   UNL     1       5.300   4.787  29.636  1.00  0.00     0.000 C 
BRANCH   6   7
ATOM      7  C   UNL     1       5.066   5.189  31.102  1.00  0.00     0.000 C 
BRANCH   7   8
ATOM      8  C   UNL     1       3.723   4.674  31.651  1.00  0.00     0.000 C 
BRANCH   8   9
ATOM      9  C   UNL     1       2.517   5.364  30.997  1.00  0.00     0.000 C 
BRANCH   9  10
ATOM     10  C   UNL     1       2.549   6.893  31.164  1.00  0.00     0.000 C 
BRANCH  10  11
ATOM     11  C   UNL     1       2.296   7.639  29.844  1.00  0.00     0.000 C 
BRANCH  11  12
ATOM     12  C   UNL     1       1.898   9.107  30.060  1.00  0.00     0.000 C 
BRANCH  12  13
ATOM     13  C   UNL     1       1.633   9.806  28.718  1.00  0.00     0.006 C 
BRANCH  13  14
ATOM     14  C   UNL     1       2.814   9.664  27.747  1.00  0.00     0.053 C 
BRANCH  14  15
ATOM     15  C   UNL     1       2.742  10.664  26.633  1.00  0.00     0.041 C 
ATOM     16  O   UNL     1       3.179  10.370  25.488  1.00  0.00    -0.550 OA
ATOM     17  O   UNL     1       2.214  11.929  26.865  1.00  0.00    -0.550 OA
ENDBRANCH  14  15
ENDBRANCH  13  14
ENDBRANCH  12  13
ENDBRANCH  11  12
ENDBRANCH  10  11
ENDBRANCH   9  10
ENDBRANCH   8   9
ENDBRANCH   7   8
ENDBRANCH   6   7
ENDBRANCH   5   6
ENDBRANCH   4   5
ENDBRANCH   3   4
ENDBRANCH   2   3
ENDBRANCH   1   2
BRANCH   1  18
ATOM     18  C   UNL     1      11.130   4.268  33.842  1.00  0.00     0.000 C 
BRANCH  18  19
ATOM     19  C   UNL     1      10.722   5.515  34.653  1.00  0.00     0.000 C 
BRANCH  19  20
ATOM     20  C   UNL     1      10.114   6.664  33.826  1.00  0.00     0.000 C 
BRANCH  20  21
ATOM     21  C   UNL     1       8.681   7.017  34.257  1.00  0.00     0.000 C 
BRANCH  21  22
ATOM     22  C   UNL     1       7.618   6.124  33.590  1.00  0.00     0.000 C 
BRANCH  22  23
ATOM     23  C   UNL     1       7.173   4.902  34.415  1.00  0.00     0.000 C 
BRANCH  23  24
ATOM     24  C   UNL     1       5.687   4.955  34.809  1.00  0.00    -0.000 C 
BRANCH  24  25
ATOM     25  C   UNL     1       5.211   6.382  35.133  1.00  0.00    -0.000 C 
BRANCH  25  26
ATOM     26  C   UNL     1       3.746   6.687  34.761  1.00  0.00    -0.000 C 
BRANCH  26  27
ATOM     27  C   UNL     1       3.276   8.097  35.176  1.00  0.00    -0.000 C 
BRANCH  27  28
ATOM     28  C   UNL     1       1.932   8.480  34.531  1.00  0.00    -0.000 C 
BRANCH  28  29
ATOM     29  C   UNL     1       2.023   9.761  33.687  1.00  0.00    -0.000 C 
BRANCH  29  30
ATOM     30  C   UNL     1       2.474  10.981  34.512  1.00  0.00    -0.000 C 
BRANCH  30  31
ATOM     31  C   UNL     1       1.716  12.261  34.134  1.00  0.00    -0.003 C 
ATOM     32  C   UNL     1       0.915  12.112  32.840  1.00  0.00     0.004 C 
ENDBRANCH  30  31
ENDBRANCH  29  30
ENDBRANCH  28  29
ENDBRANCH  27  28
ENDBRANCH  26  27
ENDBRANCH  25  26
ENDBRANCH  24  25
ENDBRANCH  23  24
ENDBRANCH  22  23
ENDBRANCH  21  22
ENDBRANCH  20  21
ENDBRANCH  19  20
ENDBRANCH  18  19
ENDBRANCH   1  18
TORSDOF 28
ENDMDL
MODEL 7
REMARK VINA RESULT:    -3.218      1.329      4.914
REMARK INTER + INTRA:         -12.905
REMARK INTER:                  -8.103
REMARK INTRA:                  -4.802
REMARK UNBOUND:                -4.418
REMARK SMILES CCCCCCCCCCCCCCCCCCCCCCCCCCCCCC(=O)[O-]
REMARK SMILES IDX 16 1 17 2 18 3 19 4 20 5 21 6 22 7 23 8 24 9 25 10 26 11
REMARK SMILES IDX 27 12 28 13 29 14 30 15 31 16 32 17 15 18 14 19 13 20 12 21
REMARK SMILES IDX 11 22 10 23 9 24 8 25 7 26 6 27 5 28 4 29 3 30 2 31 1 32
REMARK H PARENT
REMARK Flexibility Score: inf
ROOT
ATOM      1  C   UNL     1       8.929  21.567  22.062  1.00  0.00     0.000 C 
ENDROOT
BRANCH   1   2
ATOM      2  C   UNL     1       7.608  21.967  22.743  1.00  0.00     0.000 C 
BRANCH   2   3
ATOM      3  C   UNL     1       6.497  20.921  22.541  1.00  0.00     0.000 C 
BRANCH   3   4
ATOM      4  C   UNL     1       5.110  21.570  22.347  1.00  0.00     0.000 C 
BRANCH   4   5
ATOM      5  C   UNL     1       3.934  20.605  22.571  1.00  0.00     0.000 C 
BRANCH   5   6
ATOM      6  C   UNL     1       2.894  20.659  21.440  1.00  0.00     0.000 C 
BRANCH   6   7
ATOM      7  C   UNL     1       3.322  19.851  20.202  1.00  0.00     0.000 C 
BRANCH   7   8
ATOM      8  C   UNL     1       2.407  20.095  18.989  1.00  0.00     0.000 C 
BRANCH   8   9
ATOM      9  C   UNL     1       1.827  18.793  18.418  1.00  0.00     0.000 C 
BRANCH   9  10
ATOM     10  C   UNL     1       2.844  17.638  18.429  1.00  0.00     0.000 C 
BRANCH  10  11
ATOM     11  C   UNL     1       2.343  16.415  19.213  1.00  0.00     0.000 C 
BRANCH  11  12
ATOM     12  C   UNL     1       1.363  16.791  20.335  1.00  0.00     0.000 C 
BRANCH  12  13
ATOM     13  C   UNL     1       1.792  16.164  21.670  1.00  0.00     0.006 C 
BRANCH  13  14
ATOM     14  C   UNL     1       2.409  17.198  22.623  1.00  0.00     0.053 C 
BRANCH  14  15
ATOM     15  C   UNL     1       3.189  16.544  23.724  1.00  0.00     0.041 C 
ATOM     16  O   UNL     1       4.198  17.118  24.213  1.00  0.00    -0.550 OA
ATOM     17  O   UNL     1       2.814  15.290  24.193  1.00  0.00    -0.550 OA
ENDBRANCH  14  15
ENDBRANCH  13  14
ENDBRANCH  12  13
ENDBRANCH  11  12
ENDBRANCH  10  11
ENDBRANCH   9  10
ENDBRANCH   8   9
ENDBRANCH   7   8
ENDBRANCH   6   7
ENDBRANCH   5   6
ENDBRANCH   4   5
ENDBRANCH   3   4
ENDBRANCH   2   3
ENDBRANCH   1   2
BRANCH   1  18
ATOM     18  C   UNL     1       8.840  21.374  20.533  1.00  0.00     0.000 C 
BRANCH  18  19
ATOM     19  C   UNL     1       8.448  22.630  19.729  1.00  0.00     0.000 C 
BRANCH  19  20
ATOM     20  C   UNL     1       7.579  22.366  18.484  1.00  0.00     0.000 C 
BRANCH  20  21
ATOM     21  C   UNL     1       6.335  21.517  18.792  1.00  0.00     0.000 C 
BRANCH  21  22
ATOM     22  C   UNL     1       5.626  21.011  17.521  1.00  0.00     0.000 C 
BRANCH  22  23
ATOM     23  C   UNL     1       5.978  19.573  17.099  1.00  0.00     0.000 C 
BRANCH  23  24
ATOM     24  C   UNL     1       7.021  19.519  15.970  1.00  0.00    -0.000 C 
BRANCH  24  25
ATOM     25  C   UNL     1       8.245  18.662  16.335  1.00  0.00    -0.000 C 
BRANCH  25  26
ATOM     26  C   UNL     1       8.896  18.989  17.694  1.00  0.00    -0.000 C 
BRANCH  26  27
ATOM     27  C   UNL     1      10.365  19.449  17.590  1.00  0.00    -0.000 C 
BRANCH  27  28
ATOM     28  C   UNL     1      10.571  20.506  16.490  1.00  0.00    -0.000 C 
BRANCH  28  29
ATOM     29  C   UNL     1      11.302  21.758  17.001  1.00  0.00    -0.000 C 
BRANCH  29  30
ATOM     30  C   UNL     1      11.704  21.643  18.483  1.00  0.00    -0.000 C 
BRANCH  30  31
ATOM     31  C   UNL     1      12.638  22.778  18.929  1.00  0.00    -0.003 C 
ATOM     32  C   UNL     1      12.805  22.841  20.448  1.00  0.00     0.004 C 
ENDBRANCH  30  31
ENDBRANCH  29  30
ENDBRANCH  28  29
ENDBRANCH  27  28
ENDBRANCH  26  27
ENDBRANCH  25  26
ENDBRANCH  24  25
ENDBRANCH  23  24
ENDBRANCH  22  23
ENDBRANCH  21  22
ENDBRANCH  20  21
ENDBRANCH  19  20
ENDBRANCH  18  19
ENDBRANCH   1  18
TORSDOF 28
ENDMDL
MODEL 8
REMARK VINA RESULT:    -3.206      2.714      5.889
REMARK INTER + INTRA:         -12.872
REMARK INTER:                  -8.696
REMARK INTRA:                  -4.176
REMARK UNBOUND:                -4.418
REMARK SMILES CCCCCCCCCCCCCCCCCCCCCCCCCCCCCC(=O)[O-]
REMARK SMILES IDX 16 1 17 2 18 3 19 4 20 5 21 6 22 7 23 8 24 9 25 10 26 11
REMARK SMILES IDX 27 12 28 13 29 14 30 15 31 16 32 17 15 18 14 19 13 20 12 21
REMARK SMILES IDX 11 22 10 23 9 24 8 25 7 26 6 27 5 28 4 29 3 30 2 31 1 32
REMARK H PARENT
REMARK Flexibility Score: inf
ROOT
ATOM      1  C   UNL     1      10.336  18.795  17.839  1.00  0.00     0.000 C 
ENDROOT
BRANCH   1   2
ATOM      2  C   UNL     1       9.008  18.129  17.436  1.00  0.00     0.000 C 
BRANCH   2   3
ATOM      3  C   UNL     1       8.410  18.727  16.151  1.00  0.00     0.000 C 
BRANCH   3   4
ATOM      4  C   UNL     1       6.959  19.215  16.352  1.00  0.00     0.000 C 
BRANCH   4   5
ATOM      5  C   UNL     1       6.829  20.742  16.483  1.00  0.00     0.000 C 
BRANCH   5   6
ATOM      6  C   UNL     1       6.724  21.208  17.944  1.00  0.00     0.000 C 
BRANCH   6   7
ATOM      7  C   UNL     1       6.230  20.098  18.887  1.00  0.00     0.000 C 
BRANCH   7   8
ATOM      8  C   UNL     1       4.965  20.502  19.666  1.00  0.00     0.000 C 
BRANCH   8   9
ATOM      9  C   UNL     1       3.673  20.163  18.907  1.00  0.00     0.000 C 
BRANCH   9  10
ATOM     10  C   UNL     1       3.628  18.698  18.440  1.00  0.00     0.000 C 
BRANCH  10  11
ATOM     11  C   UNL     1       3.153  18.554  16.985  1.00  0.00     0.000 C 
BRANCH  11  12
ATOM     12  C   UNL     1       3.854  17.405  16.244  1.00  0.00     0.000 C 
BRANCH  12  13
ATOM     13  C   UNL     1       2.880  16.247  15.982  1.00  0.00     0.006 C 
BRANCH  13  14
ATOM     14  C   UNL     1       2.888  15.215  17.118  1.00  0.00     0.053 C 
BRANCH  14  15
ATOM     15  C   UNL     1       1.872  14.135  16.897  1.00  0.00     0.041 C 
ATOM     16  O   UNL     1       1.885  13.097  17.611  1.00  0.00    -0.550 OA
ATOM     17  O   UNL     1       0.926  14.265  15.886  1.00  0.00    -0.550 OA
ENDBRANCH  14  15
ENDBRANCH  13  14
ENDBRANCH  12  13
ENDBRANCH  11  12
ENDBRANCH  10  11
ENDBRANCH   9  10
ENDBRANCH   8   9
ENDBRANCH   7   8
ENDBRANCH   6   7
ENDBRANCH   5   6
ENDBRANCH   4   5
ENDBRANCH   3   4
ENDBRANCH   2   3
ENDBRANCH   1   2
BRANCH   1  18
ATOM     18  C   UNL     1      10.580  20.186  17.216  1.00  0.00     0.000 C 
BRANCH  18  19
ATOM     19  C   UNL     1      10.493  21.374  18.195  1.00  0.00     0.000 C 
BRANCH  19  20
ATOM     20  C   UNL     1      11.358  21.243  19.464  1.00  0.00     0.000 C 
BRANCH  20  21
ATOM     21  C   UNL     1      10.530  20.933  20.722  1.00  0.00     0.000 C 
BRANCH  21  22
ATOM     22  C   UNL     1       9.137  21.589  20.698  1.00  0.00     0.000 C 
BRANCH  22  23
ATOM     23  C   UNL     1       8.905  22.683  21.757  1.00  0.00     0.000 C 
BRANCH  23  24
ATOM     24  C   UNL     1       8.174  22.162  23.005  1.00  0.00    -0.000 C 
BRANCH  24  25
ATOM     25  C   UNL     1       6.967  21.273  22.657  1.00  0.00    -0.000 C 
BRANCH  25  26
ATOM     26  C   UNL     1       5.900  21.149  23.763  1.00  0.00    -0.000 C 
BRANCH  26  27
ATOM     27  C   UNL     1       5.138  19.807  23.750  1.00  0.00    -0.000 C 
BRANCH  27  28
ATOM     28  C   UNL     1       3.647  19.983  23.410  1.00  0.00    -0.000 C 
BRANCH  28  29
ATOM     29  C   UNL     1       2.897  18.645  23.324  1.00  0.00    -0.000 C 
BRANCH  29  30
ATOM     30  C   UNL     1       2.450  18.310  21.889  1.00  0.00    -0.000 C 
BRANCH  30  31
ATOM     31  C   UNL     1       2.072  16.831  21.721  1.00  0.00    -0.003 C 
ATOM     32  C   UNL     1       2.203  16.036  23.020  1.00  0.00     0.004 C 
ENDBRANCH  30  31
ENDBRANCH  29  30
ENDBRANCH  28  29
ENDBRANCH  27  28
ENDBRANCH  26  27
ENDBRANCH  25  26
ENDBRANCH  24  25
ENDBRANCH  23  24
ENDBRANCH  22  23
ENDBRANCH  21  22
ENDBRANCH  20  21
ENDBRANCH  19  20
ENDBRANCH  18  19
ENDBRANCH   1  18
TORSDOF 28
ENDMDL
MODEL 9
REMARK VINA RESULT:    -3.191     12.724     18.700
REMARK INTER + INTRA:         -12.832
REMARK INTER:                  -8.669
REMARK INTRA:                  -4.163
REMARK UNBOUND:                -4.418
REMARK SMILES CCCCCCCCCCCCCCCCCCCCCCCCCCCCCC(=O)[O-]
REMARK SMILES IDX 16 1 17 2 18 3 19 4 20 5 21 6 22 7 23 8 24 9 25 10 26 11
REMARK SMILES IDX 27 12 28 13 29 14 30 15 31 16 32 17 15 18 14 19 13 20 12 21
REMARK SMILES IDX 11 22 10 23 9 24 8 25 7 26 6 27 5 28 4 29 3 30 2 31 1 32
REMARK H PARENT
REMARK Flexibility Score: inf
ROOT
ATOM      1  C   UNL     1      11.564   4.363  32.488  1.00  0.00     0.000 C 
ENDROOT
BRANCH   1   2
ATOM      2  C   UNL     1      10.834   3.555  31.399  1.00  0.00     0.000 C 
BRANCH   2   3
ATOM      3  C   UNL     1       9.832   4.406  30.600  1.00  0.00     0.000 C 
BRANCH   3   4
ATOM      4  C   UNL     1       8.367   4.036  30.916  1.00  0.00     0.000 C 
BRANCH   4   5
ATOM      5  C   UNL     1       7.391   4.321  29.762  1.00  0.00     0.000 C 
BRANCH   5   6
ATOM      6  C   UNL     1       6.016   4.808  30.251  1.00  0.00     0.000 C 
BRANCH   6   7
ATOM      7  C   UNL     1       4.946   4.767  29.146  1.00  0.00     0.000 C 
BRANCH   7   8
ATOM      8  C   UNL     1       5.350   5.576  27.901  1.00  0.00     0.000 C 
BRANCH   8   9
ATOM      9  C   UNL     1       4.331   6.673  27.556  1.00  0.00     0.000 C 
BRANCH   9  10
ATOM     10  C   UNL     1       2.882   6.157  27.560  1.00  0.00     0.000 C 
BRANCH  10  11
ATOM     11  C   UNL     1       1.951   7.010  28.436  1.00  0.00     0.000 C 
BRANCH  11  12
ATOM     12  C   UNL     1       2.496   8.427  28.676  1.00  0.00     0.000 C 
BRANCH  12  13
ATOM     13  C   UNL     1       1.558   9.483  28.073  1.00  0.00     0.006 C 
BRANCH  13  14
ATOM     14  C   UNL     1       2.094  10.047  26.749  1.00  0.00     0.053 C 
BRANCH  14  15
ATOM     15  C   UNL     1       2.162  11.544  26.769  1.00  0.00     0.041 C 
ATOM     16  O   UNL     1       2.801  12.161  25.874  1.00  0.00    -0.550 OA
ATOM     17  O   UNL     1       1.540  12.256  27.787  1.00  0.00    -0.550 OA
ENDBRANCH  14  15
ENDBRANCH  13  14
ENDBRANCH  12  13
ENDBRANCH  11  12
ENDBRANCH  10  11
ENDBRANCH   9  10
ENDBRANCH   8   9
ENDBRANCH   7   8
ENDBRANCH   6   7
ENDBRANCH   5   6
ENDBRANCH   4   5
ENDBRANCH   3   4
ENDBRANCH   2   3
ENDBRANCH   1   2
BRANCH   1  18
ATOM     18  C   UNL     1      11.063   4.117  33.926  1.00  0.00     0.000 C 
BRANCH  18  19
ATOM     19  C   UNL     1      10.416   5.333  34.619  1.00  0.00     0.000 C 
BRANCH  19  20
ATOM     20  C   UNL     1      10.193   6.560  33.715  1.00  0.00     0.000 C 
BRANCH  20  21
ATOM     21  C   UNL     1       8.723   7.009  33.668  1.00  0.00     0.000 C 
BRANCH  21  22
ATOM     22  C   UNL     1       7.746   5.902  34.108  1.00  0.00     0.000 C 
BRANCH  22  23
ATOM     23  C   UNL     1       6.879   6.238  35.335  1.00  0.00     0.000 C 
BRANCH  23  24
ATOM     24  C   UNL     1       5.372   6.199  35.032  1.00  0.00    -0.000 C 
BRANCH  24  25
ATOM     25  C   UNL     1       5.071   5.830  33.569  1.00  0.00    -0.000 C 
BRANCH  25  26
ATOM     26  C   UNL     1       3.942   4.799  33.370  1.00  0.00    -0.000 C 
BRANCH  26  27
ATOM     27  C   UNL     1       2.881   5.226  32.334  1.00  0.00    -0.000 C 
BRANCH  27  28
ATOM     28  C   UNL     1       3.000   6.712  31.951  1.00  0.00    -0.000 C 
BRANCH  28  29
ATOM     29  C   UNL     1       1.941   7.588  32.638  1.00  0.00    -0.000 C 
BRANCH  29  30
ATOM     30  C   UNL     1       2.142   9.088  32.356  1.00  0.00    -0.000 C 
BRANCH  30  31
ATOM     31  C   UNL     1       2.458   9.890  33.627  1.00  0.00    -0.003 C 
ATOM     32  C   UNL     1       2.916   9.004  34.785  1.00  0.00     0.004 C 
ENDBRANCH  30  31
ENDBRANCH  29  30
ENDBRANCH  28  29
ENDBRANCH  27  28
ENDBRANCH  26  27
ENDBRANCH  25  26
ENDBRANCH  24  25
ENDBRANCH  23  24
ENDBRANCH  22  23
ENDBRANCH  21  22
ENDBRANCH  20  21
ENDBRANCH  19  20
ENDBRANCH  18  19
ENDBRANCH   1  18
TORSDOF 28
ENDMDL
