MODEL 1
REMARK VINA RESULT:    -6.495      0.000      0.000
REMARK INTER + INTRA:          -8.133
REMARK INTER:                  -7.824
REMARK INTRA:                  -0.309
REMARK UNBOUND:                -0.309
REMARK SMILES O=c1c(O)c(-c2ccc(O)c(O)c2)oc2cc(O)cc(O)c12
REMARK SMILES IDX 5 1 3 2 2 3 1 4 22 5 20 6 19 7 17 8 16 9 15 10 14 11 6 12
REMARK SMILES IDX 7 13 8 14 9 15 13 16 11 17 10 18 12 20 4 22 21 24 18 26
REMARK H PARENT 10 19 12 21 4 23 21 25 18 27
REMARK Flexibility Score: inf
ROOT
ATOM      1  C   UNL     1     134.810 136.353 142.631  1.00  0.00     0.180 A 
ATOM      2  C   UNL     1     134.900 137.666 143.126  1.00  0.00     0.208 A 
ATOM      3  C   UNL     1     136.170 138.229 143.334  1.00  0.00     0.238 A 
ATOM      4  O   UNL     1     136.243 139.429 143.706  1.00  0.00    -0.285 OA
ATOM      5  C   UNL     1     137.332 137.456 143.098  1.00  0.00     0.111 A 
ATOM      6  C   UNL     1     138.668 137.909 143.316  1.00  0.00     0.134 A 
ATOM      7  C   UNL     1     139.744 137.093 142.946  1.00  0.00     0.093 A 
ATOM      8  C   UNL     1     139.533 135.815 142.426  1.00  0.00     0.123 A 
ATOM      9  C   UNL     1     138.233 135.342 142.259  1.00  0.00     0.094 A 
ATOM     10  C   UNL     1     137.139 136.147 142.582  1.00  0.00     0.146 A 
ATOM     11  O   UNL     1     135.918 135.664 142.388  1.00  0.00    -0.452 OA
ENDROOT
BRANCH   1  12
ATOM     12  C   UNL     1     133.509 135.697 142.373  1.00  0.00     0.025 A 
ATOM     13  C   UNL     1     132.829 135.073 143.432  1.00  0.00     0.016 A 
ATOM     14  C   UNL     1     131.610 134.428 143.209  1.00  0.00     0.051 A 
ATOM     15  C   UNL     1     131.060 134.383 141.924  1.00  0.00     0.157 A 
ATOM     16  C   UNL     1     132.964 135.630 141.078  1.00  0.00     0.062 A 
ATOM     17  C   UNL     1     131.742 134.981 140.852  1.00  0.00     0.158 A 
BRANCH  15  18
ATOM     18  O   UNL     1     129.840 133.733 141.732  1.00  0.00    -0.504 OA
ATOM     19  H   UNL     1     129.424 133.148 142.445  1.00  0.00     0.293 HD
ENDBRANCH  15  18
BRANCH  17  20
ATOM     20  O   UNL     1     131.205 134.927 139.565  1.00  0.00    -0.504 OA
ATOM     21  H   UNL     1     131.089 135.761 139.003  1.00  0.00     0.293 HD
ENDBRANCH  17  20
ENDBRANCH   1  12
BRANCH   2  22
ATOM     22  O   UNL     1     133.741 138.386 143.425  1.00  0.00    -0.502 OA
ATOM     23  H   UNL     1     133.744 139.390 143.560  1.00  0.00     0.293 HD
ENDBRANCH   2  22
BRANCH   6  24
ATOM     24  O   UNL     1     138.993 139.133 143.912  1.00  0.00    -0.507 OA
ATOM     25  H   UNL     1     138.886 140.035 143.474  1.00  0.00     0.293 HD
ENDBRANCH   6  24
BRANCH   8  26
ATOM     26  O   UNL     1     140.610 135.002 142.076  1.00  0.00    -0.508 OA
ATOM     27  H   UNL     1     140.567 134.379 141.279  1.00  0.00     0.293 HD
ENDBRANCH   8  26
TORSDOF 6
ENDMDL
MODEL 2
REMARK VINA RESULT:    -6.223      1.761      6.745
REMARK INTER + INTRA:          -7.806
REMARK INTER:                  -7.518
REMARK INTRA:                  -0.288
REMARK UNBOUND:                -0.309
REMARK SMILES O=c1c(O)c(-c2ccc(O)c(O)c2)oc2cc(O)cc(O)c12
REMARK SMILES IDX 5 1 3 2 2 3 1 4 22 5 20 6 19 7 17 8 16 9 15 10 14 11 6 12
REMARK SMILES IDX 7 13 8 14 9 15 13 16 11 17 10 18 12 20 4 22 21 24 18 26
REMARK H PARENT 10 19 12 21 4 23 21 25 18 27
REMARK Flexibility Score: inf
ROOT
ATOM      1  C   UNL     1     136.182 135.979 141.868  1.00  0.00     0.180 A 
ATOM      2  C   UNL     1     135.523 136.602 142.943  1.00  0.00     0.208 A 
ATOM      3  C   UNL     1     134.120 136.571 142.990  1.00  0.00     0.238 A 
ATOM      4  O   UNL     1     133.541 137.066 143.993  1.00  0.00    -0.285 OA
ATOM      5  C   UNL     1     133.391 135.970 141.937  1.00  0.00     0.111 A 
ATOM      6  C   UNL     1     131.966 135.920 141.859  1.00  0.00     0.134 A 
ATOM      7  C   UNL     1     131.355 135.204 140.822  1.00  0.00     0.093 A 
ATOM      8  C   UNL     1     132.115 134.591 139.825  1.00  0.00     0.123 A 
ATOM      9  C   UNL     1     133.505 134.679 139.862  1.00  0.00     0.094 A 
ATOM     10  C   UNL     1     134.145 135.353 140.904  1.00  0.00     0.146 A 
ATOM     11  O   UNL     1     135.472 135.395 140.911  1.00  0.00    -0.452 OA
ENDROOT
BRANCH   1  12
ATOM     12  C   UNL     1     137.658 135.957 141.755  1.00  0.00     0.025 A 
ATOM     13  C   UNL     1     138.395 135.041 142.522  1.00  0.00     0.016 A 
ATOM     14  C   UNL     1     139.789 135.016 142.449  1.00  0.00     0.051 A 
ATOM     15  C   UNL     1     140.469 135.915 141.622  1.00  0.00     0.157 A 
ATOM     16  C   UNL     1     138.345 136.876 140.941  1.00  0.00     0.062 A 
ATOM     17  C   UNL     1     139.745 136.854 140.868  1.00  0.00     0.158 A 
BRANCH  15  18
ATOM     18  O   UNL     1     141.862 135.866 141.568  1.00  0.00    -0.504 OA
ATOM     19  H   UNL     1     142.441 136.616 141.926  1.00  0.00     0.293 HD
ENDBRANCH  15  18
BRANCH  17  20
ATOM     20  O   UNL     1     140.419 137.763 140.052  1.00  0.00    -0.504 OA
ATOM     21  H   UNL     1     141.419 137.705 139.907  1.00  0.00     0.293 HD
ENDBRANCH  17  20
ENDBRANCH   1  12
BRANCH   2  22
ATOM     22  O   UNL     1     136.259 137.257 143.933  1.00  0.00    -0.502 OA
ATOM     23  H   UNL     1     136.858 136.762 144.582  1.00  0.00     0.293 HD
ENDBRANCH   2  22
BRANCH   6  24
ATOM     24  O   UNL     1     131.110 136.573 142.752  1.00  0.00    -0.507 OA
ATOM     25  H   UNL     1     130.940 137.567 142.768  1.00  0.00     0.293 HD
ENDBRANCH   6  24
BRANCH   8  26
ATOM     26  O   UNL     1     131.499 133.895 138.787  1.00  0.00    -0.508 OA
ATOM     27  H   UNL     1     130.982 133.040 138.955  1.00  0.00     0.293 HD
ENDBRANCH   8  26
TORSDOF 6
ENDMDL
MODEL 3
REMARK VINA RESULT:    -6.083      2.188      7.106
REMARK INTER + INTRA:          -7.637
REMARK INTER:                  -7.307
REMARK INTRA:                  -0.331
REMARK UNBOUND:                -0.309
REMARK SMILES O=c1c(O)c(-c2ccc(O)c(O)c2)oc2cc(O)cc(O)c12
REMARK SMILES IDX 5 1 3 2 2 3 1 4 22 5 20 6 19 7 17 8 16 9 15 10 14 11 6 12
REMARK SMILES IDX 7 13 8 14 9 15 13 16 11 17 10 18 12 20 4 22 21 24 18 26
REMARK H PARENT 10 19 12 21 4 23 21 25 18 27
REMARK Flexibility Score: inf
ROOT
ATOM      1  C   UNL     1     134.770 136.072 141.345  1.00  0.00     0.180 A 
ATOM      2  C   UNL     1     134.018 135.131 140.620  1.00  0.00     0.208 A 
ATOM      3  C   UNL     1     132.617 135.210 140.651  1.00  0.00     0.238 A 
ATOM      4  O   UNL     1     131.953 134.411 139.940  1.00  0.00    -0.285 OA
ATOM      5  C   UNL     1     131.982 136.191 141.450  1.00  0.00     0.111 A 
ATOM      6  C   UNL     1     130.569 136.335 141.592  1.00  0.00     0.134 A 
ATOM      7  C   UNL     1     130.054 137.410 142.326  1.00  0.00     0.093 A 
ATOM      8  C   UNL     1     130.900 138.310 142.976  1.00  0.00     0.123 A 
ATOM      9  C   UNL     1     132.281 138.147 142.889  1.00  0.00     0.094 A 
ATOM     10  C   UNL     1     132.826 137.107 142.132  1.00  0.00     0.146 A 
ATOM     11  O   UNL     1     134.147 137.001 142.060  1.00  0.00    -0.452 OA
ENDROOT
BRANCH   1  12
ATOM     12  C   UNL     1     136.250 136.063 141.351  1.00  0.00     0.025 A 
ATOM     13  C   UNL     1     136.932 135.352 142.351  1.00  0.00     0.016 A 
ATOM     14  C   UNL     1     138.328 135.346 142.389  1.00  0.00     0.051 A 
ATOM     15  C   UNL     1     139.064 136.062 141.440  1.00  0.00     0.157 A 
ATOM     16  C   UNL     1     136.991 136.800 140.410  1.00  0.00     0.062 A 
ATOM     17  C   UNL     1     138.393 136.798 140.449  1.00  0.00     0.158 A 
BRANCH  15  18
ATOM     18  O   UNL     1     140.457 136.037 141.502  1.00  0.00    -0.504 OA
ATOM     19  H   UNL     1     140.998 136.850 141.769  1.00  0.00     0.293 HD
ENDBRANCH  15  18
BRANCH  17  20
ATOM     20  O   UNL     1     139.121 137.526 139.507  1.00  0.00    -0.504 OA
ATOM     21  H   UNL     1     138.779 137.664 138.564  1.00  0.00     0.293 HD
ENDBRANCH  17  20
ENDBRANCH   1  12
BRANCH   2  22
ATOM     22  O   UNL     1     134.663 134.123 139.898  1.00  0.00    -0.502 OA
ATOM     23  H   UNL     1     134.157 133.375 139.439  1.00  0.00     0.293 HD
ENDBRANCH   2  22
BRANCH   6  24
ATOM     24  O   UNL     1     129.633 135.442 141.058  1.00  0.00    -0.507 OA
ATOM     25  H   UNL     1     128.985 134.892 141.600  1.00  0.00     0.293 HD
ENDBRANCH   6  24
BRANCH   8  26
ATOM     26  O   UNL     1     130.379 139.367 143.719  1.00  0.00    -0.508 OA
ATOM     27  H   UNL     1     130.726 139.586 144.645  1.00  0.00     0.293 HD
ENDBRANCH   8  26
TORSDOF 6
ENDMDL
MODEL 4
REMARK VINA RESULT:    -6.040      1.757      3.007
REMARK INTER + INTRA:          -7.584
REMARK INTER:                  -7.266
REMARK INTRA:                  -0.318
REMARK UNBOUND:                -0.309
REMARK SMILES O=c1c(O)c(-c2ccc(O)c(O)c2)oc2cc(O)cc(O)c12
REMARK SMILES IDX 5 1 3 2 2 3 1 4 22 5 20 6 19 7 17 8 16 9 15 10 14 11 6 12
REMARK SMILES IDX 7 13 8 14 9 15 13 16 11 17 10 18 12 20 4 22 21 24 18 26
REMARK H PARENT 10 19 12 21 4 23 21 25 18 27
REMARK Flexibility Score: inf
ROOT
ATOM      1  C   UNL     1     135.340 136.578 142.457  1.00  0.00     0.180 A 
ATOM      2  C   UNL     1     136.364 136.292 141.537  1.00  0.00     0.208 A 
ATOM      3  C   UNL     1     137.696 136.553 141.898  1.00  0.00     0.238 A 
ATOM      4  O   UNL     1     138.611 136.226 141.098  1.00  0.00    -0.285 OA
ATOM      5  C   UNL     1     137.984 137.147 143.150  1.00  0.00     0.111 A 
ATOM      6  C   UNL     1     139.293 137.495 143.602  1.00  0.00     0.134 A 
ATOM      7  C   UNL     1     139.468 137.980 144.904  1.00  0.00     0.093 A 
ATOM      8  C   UNL     1     138.376 138.189 145.748  1.00  0.00     0.123 A 
ATOM      9  C   UNL     1     137.089 137.903 145.297  1.00  0.00     0.094 A 
ATOM     10  C   UNL     1     136.886 137.382 144.018  1.00  0.00     0.146 A 
ATOM     11  O   UNL     1     135.645 137.104 143.637  1.00  0.00    -0.452 OA
ENDROOT
BRANCH   1  12
ATOM     12  C   UNL     1     133.915 136.318 142.155  1.00  0.00     0.025 A 
ATOM     13  C   UNL     1     133.162 137.296 141.487  1.00  0.00     0.016 A 
ATOM     14  C   UNL     1     131.809 137.083 141.209  1.00  0.00     0.051 A 
ATOM     15  C   UNL     1     131.185 135.898 141.610  1.00  0.00     0.157 A 
ATOM     16  C   UNL     1     133.279 135.136 142.577  1.00  0.00     0.062 A 
ATOM     17  C   UNL     1     131.921 134.921 142.302  1.00  0.00     0.158 A 
BRANCH  15  18
ATOM     18  O   UNL     1     129.834 135.711 141.319  1.00  0.00    -0.504 OA
ATOM     19  H   UNL     1     129.475 135.766 140.374  1.00  0.00     0.293 HD
ENDBRANCH  15  18
BRANCH  17  20
ATOM     20  O   UNL     1     131.300 133.743 142.717  1.00  0.00    -0.504 OA
ATOM     21  H   UNL     1     131.753 133.102 143.357  1.00  0.00     0.293 HD
ENDBRANCH  17  20
ENDBRANCH   1  12
BRANCH   2  22
ATOM     22  O   UNL     1     136.052 135.778 140.276  1.00  0.00    -0.502 OA
ATOM     23  H   UNL     1     136.163 136.318 139.426  1.00  0.00     0.293 HD
ENDBRANCH   2  22
BRANCH   6  24
ATOM     24  O   UNL     1     140.444 137.410 142.811  1.00  0.00    -0.507 OA
ATOM     25  H   UNL     1     140.540 136.829 141.992  1.00  0.00     0.293 HD
ENDBRANCH   6  24
BRANCH   8  26
ATOM     26  O   UNL     1     138.558 138.688 147.036  1.00  0.00    -0.508 OA
ATOM     27  H   UNL     1     138.923 138.109 147.782  1.00  0.00     0.293 HD
ENDBRANCH   8  26
TORSDOF 6
ENDMDL
MODEL 5
REMARK VINA RESULT:    -6.023      6.754      8.353
REMARK INTER + INTRA:          -7.564
REMARK INTER:                  -7.278
REMARK INTRA:                  -0.286
REMARK UNBOUND:                -0.309
REMARK SMILES O=c1c(O)c(-c2ccc(O)c(O)c2)oc2cc(O)cc(O)c12
REMARK SMILES IDX 5 1 3 2 2 3 1 4 22 5 20 6 19 7 17 8 16 9 15 10 14 11 6 12
REMARK SMILES IDX 7 13 8 14 9 15 13 16 11 17 10 18 12 20 4 22 21 24 18 26
REMARK H PARENT 10 19 12 21 4 23 21 25 18 27
REMARK Flexibility Score: inf
ROOT
ATOM      1  C   UNL     1     139.756 141.524 141.100  1.00  0.00     0.180 A 
ATOM      2  C   UNL     1     140.117 140.264 141.610  1.00  0.00     0.208 A 
ATOM      3  C   UNL     1     141.364 139.721 141.263  1.00  0.00     0.238 A 
ATOM      4  O   UNL     1     141.711 138.628 141.782  1.00  0.00    -0.285 OA
ATOM      5  C   UNL     1     142.211 140.416 140.366  1.00  0.00     0.111 A 
ATOM      6  C   UNL     1     143.477 139.939 139.910  1.00  0.00     0.134 A 
ATOM      7  C   UNL     1     144.277 140.761 139.106  1.00  0.00     0.093 A 
ATOM      8  C   UNL     1     143.829 142.016 138.690  1.00  0.00     0.123 A 
ATOM      9  C   UNL     1     142.572 142.468 139.085  1.00  0.00     0.094 A 
ATOM     10  C   UNL     1     141.768 141.688 139.918  1.00  0.00     0.146 A 
ATOM     11  O   UNL     1     140.586 142.166 140.287  1.00  0.00    -0.452 OA
ENDROOT
BRANCH   1  12
ATOM     12  C   UNL     1     138.465 142.168 141.432  1.00  0.00     0.025 A 
ATOM     13  C   UNL     1     137.454 142.227 140.461  1.00  0.00     0.016 A 
ATOM     14  C   UNL     1     136.235 142.849 140.744  1.00  0.00     0.051 A 
ATOM     15  C   UNL     1     136.015 143.434 141.994  1.00  0.00     0.157 A 
ATOM     16  C   UNL     1     138.250 142.777 142.681  1.00  0.00     0.062 A 
ATOM     17  C   UNL     1     137.028 143.404 142.966  1.00  0.00     0.158 A 
BRANCH  15  18
ATOM     18  O   UNL     1     134.788 144.047 142.249  1.00  0.00    -0.504 OA
ATOM     19  H   UNL     1     134.714 144.903 142.785  1.00  0.00     0.293 HD
ENDBRANCH  15  18
BRANCH  17  20
ATOM     20  O   UNL     1     136.820 144.000 144.210  1.00  0.00    -0.504 OA
ATOM     21  H   UNL     1     137.588 144.194 144.841  1.00  0.00     0.293 HD
ENDBRANCH  17  20
ENDBRANCH   1  12
BRANCH   2  22
ATOM     22  O   UNL     1     139.233 139.560 142.433  1.00  0.00    -0.502 OA
ATOM     23  H   UNL     1     138.436 140.001 142.877  1.00  0.00     0.293 HD
ENDBRANCH   2  22
BRANCH   6  24
ATOM     24  O   UNL     1     143.983 138.666 140.193  1.00  0.00    -0.507 OA
ATOM     25  H   UNL     1     143.441 137.815 140.189  1.00  0.00     0.293 HD
ENDBRANCH   6  24
BRANCH   8  26
ATOM     26  O   UNL     1     144.624 142.821 137.875  1.00  0.00    -0.508 OA
ATOM     27  H   UNL     1     145.625 142.684 137.811  1.00  0.00     0.293 HD
ENDBRANCH   8  26
TORSDOF 6
ENDMDL
MODEL 6
REMARK VINA RESULT:    -5.978      3.524      5.465
REMARK INTER + INTRA:          -7.510
REMARK INTER:                  -7.184
REMARK INTRA:                  -0.326
REMARK UNBOUND:                -0.309
REMARK SMILES O=c1c(O)c(-c2ccc(O)c(O)c2)oc2cc(O)cc(O)c12
REMARK SMILES IDX 5 1 3 2 2 3 1 4 22 5 20 6 19 7 17 8 16 9 15 10 14 11 6 12
REMARK SMILES IDX 7 13 8 14 9 15 13 16 11 17 10 18 12 20 4 22 21 24 18 26
REMARK H PARENT 10 19 12 21 4 23 21 25 18 27
REMARK Flexibility Score: inf
ROOT
ATOM      1  C   UNL     1     136.041 139.008 141.558  1.00  0.00     0.180 A 
ATOM      2  C   UNL     1     137.249 139.230 142.242  1.00  0.00     0.208 A 
ATOM      3  C   UNL     1     137.578 140.537 142.634  1.00  0.00     0.238 A 
ATOM      4  O   UNL     1     138.624 140.718 143.311  1.00  0.00    -0.285 OA
ATOM      5  C   UNL     1     136.726 141.613 142.289  1.00  0.00     0.111 A 
ATOM      6  C   UNL     1     136.982 142.984 142.596  1.00  0.00     0.134 A 
ATOM      7  C   UNL     1     136.015 143.951 142.298  1.00  0.00     0.093 A 
ATOM      8  C   UNL     1     134.828 143.608 141.647  1.00  0.00     0.123 A 
ATOM      9  C   UNL     1     134.592 142.281 141.295  1.00  0.00     0.094 A 
ATOM     10  C   UNL     1     135.521 141.287 141.613  1.00  0.00     0.146 A 
ATOM     11  O   UNL     1     135.246 140.033 141.277  1.00  0.00    -0.452 OA
ENDROOT
BRANCH   1  12
ATOM     12  C   UNL     1     135.618 137.657 141.124  1.00  0.00     0.025 A 
ATOM     13  C   UNL     1     135.847 137.254 139.799  1.00  0.00     0.016 A 
ATOM     14  C   UNL     1     135.437 135.992 139.361  1.00  0.00     0.051 A 
ATOM     15  C   UNL     1     134.780 135.121 140.235  1.00  0.00     0.157 A 
ATOM     16  C   UNL     1     134.937 136.787 141.995  1.00  0.00     0.062 A 
ATOM     17  C   UNL     1     134.523 135.521 141.556  1.00  0.00     0.158 A 
BRANCH  15  18
ATOM     18  O   UNL     1     134.384 133.867 139.770  1.00  0.00    -0.504 OA
ATOM     19  H   UNL     1     135.032 133.092 139.694  1.00  0.00     0.293 HD
ENDBRANCH  15  18
BRANCH  17  20
ATOM     20  O   UNL     1     133.854 134.661 142.428  1.00  0.00    -0.504 OA
ATOM     21  H   UNL     1     133.586 134.955 143.360  1.00  0.00     0.293 HD
ENDBRANCH  17  20
ENDBRANCH   1  12
BRANCH   2  22
ATOM     22  O   UNL     1     138.113 138.164 142.505  1.00  0.00    -0.502 OA
ATOM     23  H   UNL     1     138.203 137.370 141.882  1.00  0.00     0.293 HD
ENDBRANCH   2  22
BRANCH   6  24
ATOM     24  O   UNL     1     138.172 143.450 143.165  1.00  0.00    -0.507 OA
ATOM     25  H   UNL     1     138.312 144.380 143.531  1.00  0.00     0.293 HD
ENDBRANCH   6  24
BRANCH   8  26
ATOM     26  O   UNL     1     133.878 144.580 141.339  1.00  0.00    -0.508 OA
ATOM     27  H   UNL     1     134.096 145.360 140.731  1.00  0.00     0.293 HD
ENDBRANCH   8  26
TORSDOF 6
ENDMDL
MODEL 7
REMARK VINA RESULT:    -5.846      5.471      7.279
REMARK INTER + INTRA:          -7.351
REMARK INTER:                  -7.049
REMARK INTRA:                  -0.302
REMARK UNBOUND:                -0.309
REMARK SMILES O=c1c(O)c(-c2ccc(O)c(O)c2)oc2cc(O)cc(O)c12
REMARK SMILES IDX 5 1 3 2 2 3 1 4 22 5 20 6 19 7 17 8 16 9 15 10 14 11 6 12
REMARK SMILES IDX 7 13 8 14 9 15 13 16 11 17 10 18 12 20 4 22 21 24 18 26
REMARK H PARENT 10 19 12 21 4 23 21 25 18 27
REMARK Flexibility Score: inf
ROOT
ATOM      1  C   UNL     1     139.264 140.583 141.385  1.00  0.00     0.180 A 
ATOM      2  C   UNL     1     140.570 140.885 140.959  1.00  0.00     0.208 A 
ATOM      3  C   UNL     1     141.516 139.851 140.880  1.00  0.00     0.238 A 
ATOM      4  O   UNL     1     142.661 140.115 140.427  1.00  0.00    -0.285 OA
ATOM      5  C   UNL     1     141.164 138.540 141.281  1.00  0.00     0.111 A 
ATOM      6  C   UNL     1     142.055 137.424 141.285  1.00  0.00     0.134 A 
ATOM      7  C   UNL     1     141.566 136.151 141.601  1.00  0.00     0.093 A 
ATOM      8  C   UNL     1     140.233 135.962 141.975  1.00  0.00     0.123 A 
ATOM      9  C   UNL     1     139.369 137.054 142.027  1.00  0.00     0.094 A 
ATOM     10  C   UNL     1     139.817 138.330 141.680  1.00  0.00     0.146 A 
ATOM     11  O   UNL     1     138.955 139.338 141.723  1.00  0.00    -0.452 OA
ENDROOT
BRANCH   1  12
ATOM     12  C   UNL     1     138.208 141.616 141.480  1.00  0.00     0.025 A 
ATOM     13  C   UNL     1     137.520 142.008 140.321  1.00  0.00     0.016 A 
ATOM     14  C   UNL     1     136.535 142.996 140.382  1.00  0.00     0.051 A 
ATOM     15  C   UNL     1     136.234 143.619 141.597  1.00  0.00     0.157 A 
ATOM     16  C   UNL     1     137.920 142.260 142.697  1.00  0.00     0.062 A 
ATOM     17  C   UNL     1     136.933 143.254 142.760  1.00  0.00     0.158 A 
BRANCH  15  18
ATOM     18  O   UNL     1     135.244 144.601 141.629  1.00  0.00    -0.504 OA
ATOM     19  H   UNL     1     134.563 144.703 140.887  1.00  0.00     0.293 HD
ENDBRANCH  15  18
BRANCH  17  20
ATOM     20  O   UNL     1     136.647 143.882 143.972  1.00  0.00    -0.504 OA
ATOM     21  H   UNL     1     137.097 143.599 144.835  1.00  0.00     0.293 HD
ENDBRANCH  17  20
ENDBRANCH   1  12
BRANCH   2  22
ATOM     22  O   UNL     1     140.919 142.200 140.641  1.00  0.00    -0.502 OA
ATOM     23  H   UNL     1     141.204 142.476 139.709  1.00  0.00     0.293 HD
ENDBRANCH   2  22
BRANCH   6  24
ATOM     24  O   UNL     1     143.424 137.513 141.014  1.00  0.00    -0.507 OA
ATOM     25  H   UNL     1     144.002 136.748 140.699  1.00  0.00     0.293 HD
ENDBRANCH   6  24
BRANCH   8  26
ATOM     26  O   UNL     1     139.759 134.694 142.305  1.00  0.00    -0.508 OA
ATOM     27  H   UNL     1     139.343 134.503 143.208  1.00  0.00     0.293 HD
ENDBRANCH   8  26
TORSDOF 6
ENDMDL
MODEL 8
REMARK VINA RESULT:    -5.809      3.979      5.498
REMARK INTER + INTRA:          -7.307
REMARK INTER:                  -6.990
REMARK INTRA:                  -0.318
REMARK UNBOUND:                -0.309
REMARK SMILES O=c1c(O)c(-c2ccc(O)c(O)c2)oc2cc(O)cc(O)c12
REMARK SMILES IDX 5 1 3 2 2 3 1 4 22 5 20 6 19 7 17 8 16 9 15 10 14 11 6 12
REMARK SMILES IDX 7 13 8 14 9 15 13 16 11 17 10 18 12 20 4 22 21 24 18 26
REMARK H PARENT 10 19 12 21 4 23 21 25 18 27
REMARK Flexibility Score: inf
ROOT
ATOM      1  C   UNL     1     134.594 139.493 140.815  1.00  0.00     0.180 A 
ATOM      2  C   UNL     1     133.459 140.303 140.635  1.00  0.00     0.208 A 
ATOM      3  C   UNL     1     133.565 141.684 140.864  1.00  0.00     0.238 A 
ATOM      4  O   UNL     1     132.566 142.413 140.629  1.00  0.00    -0.285 OA
ATOM      5  C   UNL     1     134.787 142.232 141.324  1.00  0.00     0.111 A 
ATOM      6  C   UNL     1     134.996 143.610 141.630  1.00  0.00     0.134 A 
ATOM      7  C   UNL     1     136.278 144.055 141.975  1.00  0.00     0.093 A 
ATOM      8  C   UNL     1     137.345 143.161 142.087  1.00  0.00     0.123 A 
ATOM      9  C   UNL     1     137.140 141.805 141.843  1.00  0.00     0.094 A 
ATOM     10  C   UNL     1     135.881 141.337 141.459  1.00  0.00     0.146 A 
ATOM     11  O   UNL     1     135.735 140.040 141.216  1.00  0.00    -0.452 OA
ENDROOT
BRANCH   1  12
ATOM     12  C   UNL     1     134.564 138.032 140.581  1.00  0.00     0.025 A 
ATOM     13  C   UNL     1     134.904 137.529 139.315  1.00  0.00     0.016 A 
ATOM     14  C   UNL     1     134.863 136.156 139.063  1.00  0.00     0.051 A 
ATOM     15  C   UNL     1     134.465 135.266 140.066  1.00  0.00     0.157 A 
ATOM     16  C   UNL     1     134.143 137.137 141.581  1.00  0.00     0.062 A 
ATOM     17  C   UNL     1     134.098 135.758 141.329  1.00  0.00     0.158 A 
BRANCH  15  18
ATOM     18  O   UNL     1     134.434 133.900 139.786  1.00  0.00    -0.504 OA
ATOM     19  H   UNL     1     135.115 133.459 139.180  1.00  0.00     0.293 HD
ENDBRANCH  15  18
BRANCH  17  20
ATOM     20  O   UNL     1     133.686 134.877 142.329  1.00  0.00    -0.504 OA
ATOM     21  H   UNL     1     133.248 135.208 143.180  1.00  0.00     0.293 HD
ENDBRANCH  17  20
ENDBRANCH   1  12
BRANCH   2  22
ATOM     22  O   UNL     1     132.241 139.732 140.255  1.00  0.00    -0.502 OA
ATOM     23  H   UNL     1     132.167 138.774 139.933  1.00  0.00     0.293 HD
ENDBRANCH   2  22
BRANCH   6  24
ATOM     24  O   UNL     1     133.982 144.574 141.636  1.00  0.00    -0.507 OA
ATOM     25  H   UNL     1     134.080 145.513 141.991  1.00  0.00     0.293 HD
ENDBRANCH   6  24
BRANCH   8  26
ATOM     26  O   UNL     1     138.614 143.609 142.448  1.00  0.00    -0.508 OA
ATOM     27  H   UNL     1     139.395 143.566 141.804  1.00  0.00     0.293 HD
ENDBRANCH   8  26
TORSDOF 6
ENDMDL
MODEL 9
REMARK VINA RESULT:    -5.769      2.596      7.343
REMARK INTER + INTRA:          -7.259
REMARK INTER:                  -6.992
REMARK INTRA:                  -0.267
REMARK UNBOUND:                -0.309
REMARK SMILES O=c1c(O)c(-c2ccc(O)c(O)c2)oc2cc(O)cc(O)c12
REMARK SMILES IDX 5 1 3 2 2 3 1 4 22 5 20 6 19 7 17 8 16 9 15 10 14 11 6 12
REMARK SMILES IDX 7 13 8 14 9 15 13 16 11 17 10 18 12 20 4 22 21 24 18 26
REMARK H PARENT 10 19 12 21 4 23 21 25 18 27
REMARK Flexibility Score: inf
ROOT
ATOM      1  C   UNL     1     133.873 136.721 141.756  1.00  0.00     0.180 A 
ATOM      2  C   UNL     1     133.047 135.587 141.853  1.00  0.00     0.208 A 
ATOM      3  C   UNL     1     131.729 135.662 141.376  1.00  0.00     0.238 A 
ATOM      4  O   UNL     1     131.020 134.622 141.399  1.00  0.00    -0.285 OA
ATOM      5  C   UNL     1     131.234 136.883 140.859  1.00  0.00     0.111 A 
ATOM      6  C   UNL     1     129.901 137.086 140.388  1.00  0.00     0.134 A 
ATOM      7  C   UNL     1     129.555 138.308 139.799  1.00  0.00     0.093 A 
ATOM      8  C   UNL     1     130.474 139.357 139.721  1.00  0.00     0.123 A 
ATOM      9  C   UNL     1     131.761 139.187 140.227  1.00  0.00     0.094 A 
ATOM     10  C   UNL     1     132.148 137.967 140.785  1.00  0.00     0.146 A 
ATOM     11  O   UNL     1     133.391 137.842 141.236  1.00  0.00    -0.452 OA
ENDROOT
BRANCH   1  12
ATOM     12  C   UNL     1     135.277 136.715 142.224  1.00  0.00     0.025 A 
ATOM     13  C   UNL     1     136.258 136.068 141.456  1.00  0.00     0.016 A 
ATOM     14  C   UNL     1     137.586 136.031 141.888  1.00  0.00     0.051 A 
ATOM     15  C   UNL     1     137.951 136.624 143.100  1.00  0.00     0.157 A 
ATOM     16  C   UNL     1     135.642 137.291 143.454  1.00  0.00     0.062 A 
ATOM     17  C   UNL     1     136.974 137.252 143.891  1.00  0.00     0.158 A 
BRANCH  15  18
ATOM     18  O   UNL     1     139.284 136.572 143.506  1.00  0.00    -0.504 OA
ATOM     19  H   UNL     1     139.570 136.104 144.357  1.00  0.00     0.293 HD
ENDBRANCH  15  18
BRANCH  17  20
ATOM     20  O   UNL     1     137.329 137.833 145.109  1.00  0.00    -0.504 OA
ATOM     21  H   UNL     1     136.824 137.626 145.962  1.00  0.00     0.293 HD
ENDBRANCH  17  20
ENDBRANCH   1  12
BRANCH   2  22
ATOM     22  O   UNL     1     133.531 134.413 142.437  1.00  0.00    -0.502 OA
ATOM     23  H   UNL     1     132.941 133.607 142.607  1.00  0.00     0.293 HD
ENDBRANCH   2  22
BRANCH   6  24
ATOM     24  O   UNL     1     128.879 136.137 140.496  1.00  0.00    -0.507 OA
ATOM     25  H   UNL     1     128.600 135.503 139.763  1.00  0.00     0.293 HD
ENDBRANCH   6  24
BRANCH   8  26
ATOM     26  O   UNL     1     130.116 140.576 139.149  1.00  0.00    -0.508 OA
ATOM     27  H   UNL     1     130.678 141.007 138.425  1.00  0.00     0.293 HD
ENDBRANCH   8  26
TORSDOF 6
ENDMDL
