MODEL 1
REMARK VINA RESULT:     4.062      0.000      0.000
REMARK INTER + INTRA:           6.406
REMARK INTER:                   6.912
REMARK INTRA:                  -0.506
REMARK UNBOUND:                -0.506
REMARK SMILES CCCCCCCCCCCCCC(=O)[O-]
REMARK SMILES IDX 8 1 9 2 10 3 11 4 12 5 13 6 14 7 15 8 16 9 7 10 6 11 5 12
REMARK SMILES IDX 4 13 3 14 2 15 1 16
REMARK H PARENT
REMARK Flexibility Score: inf
ROOT
ATOM      1  C   UNL     1     -15.614   6.476 -19.417  1.00  0.00     0.000 C 
ENDROOT
BRANCH   1   2
ATOM      2  C   UNL     1     -14.148   6.944 -19.418  1.00  0.00     0.000 C 
BRANCH   2   3
ATOM      3  C   UNL     1     -13.581   7.121 -18.000  1.00  0.00     0.000 C 
BRANCH   3   4
ATOM      4  C   UNL     1     -12.042   7.124 -17.976  1.00  0.00     0.000 C 
BRANCH   4   5
ATOM      5  C   UNL     1     -11.472   6.574 -16.659  1.00  0.00     0.006 C 
BRANCH   5   6
ATOM      6  C   UNL     1      -9.949   6.386 -16.707  1.00  0.00     0.053 C 
BRANCH   6   7
ATOM      7  C   UNL     1      -9.353   6.616 -15.353  1.00  0.00     0.041 C 
ATOM      8  O   UNL     1      -8.103   6.654 -15.209  1.00  0.00    -0.550 OA
ATOM      9  O   UNL     1     -10.179   6.837 -14.259  1.00  0.00    -0.550 OA
ENDBRANCH   6   7
ENDBRANCH   5   6
ENDBRANCH   4   5
ENDBRANCH   3   4
ENDBRANCH   2   3
ENDBRANCH   1   2
BRANCH   1  10
ATOM     10  C   UNL     1     -16.402   7.001 -18.208  1.00  0.00     0.000 C 
BRANCH  10  11
ATOM     11  C   UNL     1     -17.846   6.478 -18.171  1.00  0.00    -0.000 C 
BRANCH  11  12
ATOM     12  C   UNL     1     -18.527   6.840 -16.842  1.00  0.00    -0.000 C 
BRANCH  12  13
ATOM     13  C   UNL     1     -17.874   6.149 -15.634  1.00  0.00    -0.000 C 
BRANCH  13  14
ATOM     14  C   UNL     1     -18.550   6.514 -14.304  1.00  0.00    -0.000 C 
BRANCH  14  15
ATOM     15  C   UNL     1     -19.735   5.584 -14.019  1.00  0.00    -0.003 C 
ATOM     16  C   UNL     1     -19.338   4.120 -14.181  1.00  0.00     0.004 C 
ENDBRANCH  14  15
ENDBRANCH  13  14
ENDBRANCH  12  13
ENDBRANCH  11  12
ENDBRANCH  10  11
ENDBRANCH   1  10
TORSDOF 12
ENDMDL
MODEL 2
REMARK VINA RESULT:     4.610      1.348      1.854
REMARK INTER + INTRA:           7.338
REMARK INTER:                   7.462
REMARK INTRA:                  -0.123
REMARK UNBOUND:                -0.506
REMARK SMILES CCCCCCCCCCCCCC(=O)[O-]
REMARK SMILES IDX 8 1 9 2 10 3 11 4 12 5 13 6 14 7 15 8 16 9 7 10 6 11 5 12
REMARK SMILES IDX 4 13 3 14 2 15 1 16
REMARK H PARENT
REMARK Flexibility Score: inf
ROOT
ATOM      1  C   UNL     1     -16.049   6.224 -19.078  1.00  0.00     0.000 C 
ENDROOT
BRANCH   1   2
ATOM      2  C   UNL     1     -14.856   7.122 -18.703  1.00  0.00     0.000 C 
BRANCH   2   3
ATOM      3  C   UNL     1     -14.153   6.668 -17.415  1.00  0.00     0.000 C 
BRANCH   3   4
ATOM      4  C   UNL     1     -12.685   7.122 -17.351  1.00  0.00     0.000 C 
BRANCH   4   5
ATOM      5  C   UNL     1     -12.067   6.929 -15.957  1.00  0.00     0.006 C 
BRANCH   5   6
ATOM      6  C   UNL     1     -10.819   6.035 -15.981  1.00  0.00     0.053 C 
BRANCH   6   7
ATOM      7  C   UNL     1      -9.771   6.628 -16.869  1.00  0.00     0.041 C 
ATOM      8  O   UNL     1      -9.986   6.762 -18.102  1.00  0.00    -0.550 OA
ATOM      9  O   UNL     1      -8.575   7.077 -16.327  1.00  0.00    -0.550 OA
ENDBRANCH   6   7
ENDBRANCH   5   6
ENDBRANCH   4   5
ENDBRANCH   3   4
ENDBRANCH   2   3
ENDBRANCH   1   2
BRANCH   1  10
ATOM     10  C   UNL     1     -17.304   6.533 -18.246  1.00  0.00     0.000 C 
BRANCH  10  11
ATOM     11  C   UNL     1     -18.427   5.508 -18.470  1.00  0.00    -0.000 C 
BRANCH  11  12
ATOM     12  C   UNL     1     -19.588   5.744 -17.491  1.00  0.00    -0.000 C 
BRANCH  12  13
ATOM     13  C   UNL     1     -19.454   7.068 -16.721  1.00  0.00    -0.000 C 
BRANCH  13  14
ATOM     14  C   UNL     1     -19.232   6.859 -15.216  1.00  0.00    -0.000 C 
BRANCH  14  15
ATOM     15  C   UNL     1     -18.010   5.971 -14.961  1.00  0.00    -0.003 C 
ATOM     16  C   UNL     1     -16.874   6.766 -14.324  1.00  0.00     0.004 C 
ENDBRANCH  14  15
ENDBRANCH  13  14
ENDBRANCH  12  13
ENDBRANCH  11  12
ENDBRANCH  10  11
ENDBRANCH   1  10
TORSDOF 12
ENDMDL
MODEL 3
REMARK VINA RESULT:     5.525      4.106      9.610
REMARK INTER + INTRA:           8.895
REMARK INTER:                   9.302
REMARK INTRA:                  -0.406
REMARK UNBOUND:                -0.506
REMARK SMILES CCCCCCCCCCCCCC(=O)[O-]
REMARK SMILES IDX 8 1 9 2 10 3 11 4 12 5 13 6 14 7 15 8 16 9 7 10 6 11 5 12
REMARK SMILES IDX 4 13 3 14 2 15 1 16
REMARK H PARENT
REMARK Flexibility Score: inf
ROOT
ATOM      1  C   UNL     1     -10.786   5.571 -16.200  1.00  0.00     0.000 C 
ENDROOT
BRANCH   1   2
ATOM      2  C   UNL     1     -12.202   5.885 -15.687  1.00  0.00     0.000 C 
BRANCH   2   3
ATOM      3  C   UNL     1     -12.204   6.437 -14.253  1.00  0.00     0.000 C 
BRANCH   3   4
ATOM      4  C   UNL     1     -13.542   7.098 -13.876  1.00  0.00     0.000 C 
BRANCH   4   5
ATOM      5  C   UNL     1     -14.755   6.254 -14.298  1.00  0.00     0.006 C 
BRANCH   5   6
ATOM      6  C   UNL     1     -16.092   6.919 -13.939  1.00  0.00     0.053 C 
BRANCH   6   7
ATOM      7  C   UNL     1     -17.201   6.332 -14.754  1.00  0.00     0.041 C 
ATOM      8  O   UNL     1     -18.195   5.807 -14.188  1.00  0.00    -0.550 OA
ATOM      9  O   UNL     1     -17.160   6.408 -16.140  1.00  0.00    -0.550 OA
ENDBRANCH   6   7
ENDBRANCH   5   6
ENDBRANCH   4   5
ENDBRANCH   3   4
ENDBRANCH   2   3
ENDBRANCH   1   2
BRANCH   1  10
ATOM     10  C   UNL     1     -10.031   6.828 -16.660  1.00  0.00     0.000 C 
BRANCH  10  11
ATOM     11  C   UNL     1      -8.795   7.125 -15.797  1.00  0.00    -0.000 C 
BRANCH  11  12
ATOM     12  C   UNL     1      -7.503   6.939 -16.607  1.00  0.00    -0.000 C 
BRANCH  12  13
ATOM     13  C   UNL     1      -6.249   6.890 -15.719  1.00  0.00    -0.000 C 
BRANCH  13  14
ATOM     14  C   UNL     1      -4.983   6.510 -16.501  1.00  0.00    -0.000 C 
BRANCH  14  15
ATOM     15  C   UNL     1      -3.737   6.627 -15.616  1.00  0.00    -0.003 C 
ATOM     16  C   UNL     1      -2.953   5.318 -15.592  1.00  0.00     0.004 C 
ENDBRANCH  14  15
ENDBRANCH  13  14
ENDBRANCH  12  13
ENDBRANCH  11  12
ENDBRANCH  10  11
ENDBRANCH   1  10
TORSDOF 12
ENDMDL
