MODEL 1
REMARK VINA RESULT:     0.930      0.000      0.000
REMARK INTER + INTRA:           0.796
REMARK INTER:                   1.093
REMARK INTRA:                  -0.297
REMARK UNBOUND:                -0.297
REMARK SMILES O=c1cc(-c2ccc(O)c(O)c2)oc2cc(O)cc(O)c12
REMARK SMILES IDX 4 1 3 2 2 3 1 4 21 5 19 6 18 7 16 8 15 9 14 10 13 11 5 12
REMARK SMILES IDX 6 13 7 14 8 15 12 16 10 17 9 18 11 20 20 22 17 24
REMARK H PARENT 9 19 11 21 20 23 17 25
REMARK Flexibility Score: inf
ROOT
ATOM      1  C   UNL     1      -0.038  26.296  30.696  1.00  0.00     0.138 A 
ATOM      2  C   UNL     1      -0.048  26.870  29.418  1.00  0.00     0.100 A 
ATOM      3  C   UNL     1      -0.055  26.047  28.292  1.00  0.00     0.197 A 
ATOM      4  O   UNL     1      -0.120  26.592  27.160  1.00  0.00    -0.289 OA
ATOM      5  C   UNL     1      -0.014  24.641  28.447  1.00  0.00     0.107 A 
ATOM      6  C   UNL     1       0.017  23.702  27.372  1.00  0.00     0.134 A 
ATOM      7  C   UNL     1      -0.045  22.331  27.650  1.00  0.00     0.093 A 
ATOM      8  C   UNL     1      -0.076  21.862  28.962  1.00  0.00     0.123 A 
ATOM      9  C   UNL     1      -0.057  22.768  30.023  1.00  0.00     0.094 A 
ATOM     10  C   UNL     1      -0.031  24.144  29.778  1.00  0.00     0.146 A 
ATOM     11  O   UNL     1      -0.032  24.973  30.816  1.00  0.00    -0.456 OA
ENDROOT
BRANCH   1  12
ATOM     12  C   UNL     1      -0.026  27.125  31.928  1.00  0.00     0.021 A 
ATOM     13  C   UNL     1      -0.088  26.497  33.183  1.00  0.00     0.016 A 
ATOM     14  C   UNL     1      -0.086  27.253  34.356  1.00  0.00     0.051 A 
ATOM     15  C   UNL     1      -0.032  28.650  34.306  1.00  0.00     0.157 A 
ATOM     16  C   UNL     1       0.012  28.531  31.876  1.00  0.00     0.062 A 
ATOM     17  C   UNL     1       0.011  29.297  33.049  1.00  0.00     0.158 A 
BRANCH  15  18
ATOM     18  O   UNL     1      -0.028  29.346  35.516  1.00  0.00    -0.504 OA
ATOM     19  H   UNL     1      -0.279  28.937  36.404  1.00  0.00     0.293 HD
ENDBRANCH  15  18
BRANCH  17  20
ATOM     20  O   UNL     1       0.050  30.688  32.919  1.00  0.00    -0.504 OA
ATOM     21  H   UNL     1      -0.764  31.282  32.974  1.00  0.00     0.293 HD
ENDBRANCH  17  20
ENDBRANCH   1  12
BRANCH   6  22
ATOM     22  O   UNL     1       0.129  24.058  26.023  1.00  0.00    -0.507 OA
ATOM     23  H   UNL     1       0.269  24.997  25.682  1.00  0.00     0.293 HD
ENDBRANCH   6  22
BRANCH   8  24
ATOM     24  O   UNL     1      -0.121  20.491  29.201  1.00  0.00    -0.508 OA
ATOM     25  H   UNL     1       0.675  19.992  29.581  1.00  0.00     0.293 HD
ENDBRANCH   8  24
TORSDOF 5
ENDMDL
MODEL 2
REMARK VINA RESULT:     2.808      1.436      2.267
REMARK INTER + INTRA:           3.003
REMARK INTER:                   3.321
REMARK INTRA:                  -0.318
REMARK UNBOUND:                -0.297
REMARK SMILES O=c1cc(-c2ccc(O)c(O)c2)oc2cc(O)cc(O)c12
REMARK SMILES IDX 4 1 3 2 2 3 1 4 21 5 19 6 18 7 16 8 15 9 14 10 13 11 5 12
REMARK SMILES IDX 6 13 7 14 8 15 12 16 10 17 9 18 11 20 20 22 17 24
REMARK H PARENT 9 19 11 21 20 23 17 25
REMARK Flexibility Score: inf
ROOT
ATOM      1  C   UNL     1      -0.070  27.866  31.346  1.00  0.00     0.138 A 
ATOM      2  C   UNL     1      -0.071  28.608  30.158  1.00  0.00     0.100 A 
ATOM      3  C   UNL     1      -0.063  27.945  28.931  1.00  0.00     0.197 A 
ATOM      4  O   UNL     1      -0.120  28.639  27.883  1.00  0.00    -0.289 OA
ATOM      5  C   UNL     1      -0.019  26.531  28.894  1.00  0.00     0.107 A 
ATOM      6  C   UNL     1       0.026  25.748  27.701  1.00  0.00     0.134 A 
ATOM      7  C   UNL     1      -0.033  24.351  27.789  1.00  0.00     0.093 A 
ATOM      8  C   UNL     1      -0.075  23.708  29.026  1.00  0.00     0.123 A 
ATOM      9  C   UNL     1      -0.069  24.462  30.199  1.00  0.00     0.094 A 
ATOM     10  C   UNL     1      -0.047  25.858  30.144  1.00  0.00     0.146 A 
ATOM     11  O   UNL     1      -0.060  26.538  31.286  1.00  0.00    -0.456 OA
ENDROOT
BRANCH   1  12
ATOM     12  C   UNL     1      -0.074  28.519  32.680  1.00  0.00     0.021 A 
ATOM     13  C   UNL     1      -0.112  29.920  32.762  1.00  0.00     0.016 A 
ATOM     14  C   UNL     1      -0.109  30.559  34.003  1.00  0.00     0.051 A 
ATOM     15  C   UNL     1      -0.059  29.818  35.188  1.00  0.00     0.157 A 
ATOM     16  C   UNL     1      -0.008  27.772  33.871  1.00  0.00     0.062 A 
ATOM     17  C   UNL     1      -0.002  28.406  35.121  1.00  0.00     0.158 A 
BRANCH  15  18
ATOM     18  O   UNL     1      -0.065  30.517  36.397  1.00  0.00    -0.504 OA
ATOM     19  H   UNL     1      -0.222  30.087  37.297  1.00  0.00     0.293 HD
ENDBRANCH  15  18
BRANCH  17  20
ATOM     20  O   UNL     1       0.066  27.600  36.260  1.00  0.00    -0.504 OA
ATOM     21  H   UNL     1      -0.625  26.904  36.501  1.00  0.00     0.293 HD
ENDBRANCH  17  20
ENDBRANCH   1  12
BRANCH   6  22
ATOM     22  O   UNL     1       0.150  26.284  26.415  1.00  0.00    -0.507 OA
ATOM     23  H   UNL     1       0.256  27.265  26.204  1.00  0.00     0.293 HD
ENDBRANCH   6  22
BRANCH   8  24
ATOM     24  O   UNL     1      -0.117  22.317  29.075  1.00  0.00    -0.508 OA
ATOM     25  H   UNL     1      -0.928  21.799  28.758  1.00  0.00     0.293 HD
ENDBRANCH   8  24
TORSDOF 5
ENDMDL
