MODEL 1
REMARK VINA RESULT:    -6.890      0.000      0.000
REMARK INTER + INTRA:          -7.400
REMARK INTER:                  -7.494
REMARK INTRA:                   0.094
REMARK UNBOUND:                 0.094
REMARK SMILES C[C@@H]1[C@H](C)CC[C@@]2(C(=O)[O-])CC[C@@]3(C)C(=CC[C@@H]4[C@]5(C)CC[C@H](O)C(C)(C)[C@@H]5CC[C@@]43C)[C@@H]12
REMARK SMILES IDX 7 1 6 2 11 3 33 4 5 5 12 6 15 7 2 8 3 9 13 10 16 11 1 12
REMARK SMILES IDX 4 13 14 14 31 15 17 16 18 17 30 18 32 19 19 20 29 21 28 22
REMARK SMILES IDX 21 23 20 24 25 25 22 26 23 27 26 28 27 29 8 30 9 31 10 32
REMARK SMILES IDX 24 33
REMARK H PARENT 24 34
REMARK Flexibility Score: inf
ROOT
ATOM      1  C   UNL     1      58.945  -0.441  -1.926  1.00  0.00     0.017 C 
ATOM      2  C   UNL     1      59.950  -0.538  -0.738  1.00  0.00     0.014 C 
ATOM      3  C   UNL     1      59.720  -0.585  -3.268  1.00  0.00     0.014 C 
ATOM      4  C   UNL     1      57.791  -1.519  -1.888  1.00  0.00     0.030 C 
ATOM      5  C   UNL     1      59.281  -0.790   0.618  1.00  0.00     0.004 C 
ATOM      6  C   UNL     1      60.285  -1.997  -3.572  1.00  0.00     0.013 C 
ATOM      7  C   UNL     1      57.964  -2.678  -2.902  1.00  0.00    -0.063 C 
ATOM      8  C   UNL     1      57.289  -1.976  -0.472  1.00  0.00    -0.003 C 
ATOM      9  C   UNL     1      58.421  -2.058   0.594  1.00  0.00    -0.011 C 
ATOM     10  C   UNL     1      59.356  -3.239  -3.246  1.00  0.00    -0.006 C 
ATOM     11  C   UNL     1      56.895  -2.949  -3.674  1.00  0.00    -0.027 C 
ATOM     12  C   UNL     1      56.107  -1.095  -0.002  1.00  0.00     0.008 C 
ATOM     13  C   UNL     1      57.906  -2.382   2.006  1.00  0.00     0.008 C 
ATOM     14  C   UNL     1      59.906  -3.968  -1.979  1.00  0.00     0.017 C 
ATOM     15  C   UNL     1      59.338  -4.325  -4.459  1.00  0.00    -0.020 C 
ATOM     16  C   UNL     1      56.940  -3.659  -4.983  1.00  0.00     0.032 C 
ATOM     17  C   UNL     1      58.359  -3.861  -5.595  1.00  0.00     0.006 C 
ATOM     18  C   UNL     1      58.827  -5.737  -3.987  1.00  0.00     0.008 C 
ATOM     19  C   UNL     1      60.816  -4.483  -4.978  1.00  0.00     0.012 C 
ATOM     20  C   UNL     1      58.350  -4.812  -6.908  1.00  0.00    -0.025 C 
ATOM     21  C   UNL     1      58.215  -6.660  -5.080  1.00  0.00     0.005 C 
ATOM     22  C   UNL     1      58.655  -6.339  -6.537  1.00  0.00     0.003 C 
ATOM     23  C   UNL     1      56.973  -4.687  -7.663  1.00  0.00     0.010 C 
ATOM     24  C   UNL     1      59.447  -4.277  -7.891  1.00  0.00     0.012 C 
ATOM     25  C   UNL     1      58.217  -7.434  -7.616  1.00  0.00    -0.006 C 
ATOM     26  C   UNL     1      56.745  -5.704  -8.781  1.00  0.00     0.033 C 
ATOM     27  C   UNL     1      56.823  -7.131  -8.235  1.00  0.00     0.120 C 
ATOM     28  C   UNL     1      59.278  -7.521  -8.753  1.00  0.00     0.014 C 
ATOM     29  C   UNL     1      58.172  -8.870  -7.017  1.00  0.00     0.014 C 
ENDROOT
BRANCH   1  30
ATOM     30  C   UNL     1      58.326   0.966  -1.923  1.00  0.00     0.048 C 
ATOM     31  O   UNL     1      58.169   1.587  -0.837  1.00  0.00    -0.550 OA
ATOM     32  O   UNL     1      57.944   1.600  -3.102  1.00  0.00    -0.550 OA
ENDBRANCH   1  30
BRANCH  27  33
ATOM     33  O   UNL     1      55.810  -7.331  -7.279  1.00  0.00    -0.393 OA
ATOM     34  H   UNL     1      55.456  -8.249  -7.417  1.00  0.00     0.210 HD
ENDBRANCH  27  33
TORSDOF 2
ENDMDL
MODEL 2
REMARK VINA RESULT:    -6.448      2.280      3.044
REMARK INTER + INTRA:          -6.919
REMARK INTER:                  -6.710
REMARK INTRA:                  -0.209
REMARK UNBOUND:                 0.094
REMARK SMILES C[C@@H]1[C@H](C)CC[C@@]2(C(=O)[O-])CC[C@@]3(C)C(=CC[C@@H]4[C@]5(C)CC[C@H](O)C(C)(C)[C@@H]5CC[C@@]43C)[C@@H]12
REMARK SMILES IDX 7 1 6 2 11 3 33 4 5 5 12 6 15 7 2 8 3 9 13 10 16 11 1 12
REMARK SMILES IDX 4 13 14 14 31 15 17 16 18 17 30 18 32 19 19 20 29 21 28 22
REMARK SMILES IDX 21 23 20 24 25 25 22 26 23 27 26 28 27 29 8 30 9 31 10 32
REMARK SMILES IDX 24 33
REMARK H PARENT 24 34
REMARK Flexibility Score: inf
ROOT
ATOM      1  C   UNL     1      59.409  -2.103  -2.835  1.00  0.00     0.017 C 
ATOM      2  C   UNL     1      60.278  -2.865  -1.788  1.00  0.00     0.014 C 
ATOM      3  C   UNL     1      59.700  -2.669  -4.255  1.00  0.00     0.014 C 
ATOM      4  C   UNL     1      57.854  -2.182  -2.565  1.00  0.00     0.030 C 
ATOM      5  C   UNL     1      59.815  -2.670  -0.341  1.00  0.00     0.004 C 
ATOM      6  C   UNL     1      59.172  -4.101  -4.531  1.00  0.00     0.013 C 
ATOM      7  C   UNL     1      57.090  -3.145  -3.509  1.00  0.00    -0.063 C 
ATOM      8  C   UNL     1      57.393  -2.254  -1.066  1.00  0.00    -0.003 C 
ATOM      9  C   UNL     1      58.349  -3.082  -0.159  1.00  0.00    -0.011 C 
ATOM     10  C   UNL     1      57.724  -4.460  -3.996  1.00  0.00    -0.006 C 
ATOM     11  C   UNL     1      55.997  -2.636  -4.109  1.00  0.00    -0.027 C 
ATOM     12  C   UNL     1      57.140  -0.833  -0.506  1.00  0.00     0.008 C 
ATOM     13  C   UNL     1      57.964  -3.043   1.330  1.00  0.00     0.008 C 
ATOM     14  C   UNL     1      57.858  -5.413  -2.765  1.00  0.00     0.017 C 
ATOM     15  C   UNL     1      56.834  -5.237  -5.116  1.00  0.00    -0.020 C 
ATOM     16  C   UNL     1      55.381  -3.163  -5.359  1.00  0.00     0.032 C 
ATOM     17  C   UNL     1      56.228  -4.214  -6.139  1.00  0.00     0.006 C 
ATOM     18  C   UNL     1      55.612  -6.000  -4.480  1.00  0.00     0.008 C 
ATOM     19  C   UNL     1      57.766  -6.295  -5.815  1.00  0.00     0.012 C 
ATOM     20  C   UNL     1      55.415  -4.890  -7.369  1.00  0.00    -0.025 C 
ATOM     21  C   UNL     1      54.397  -6.273  -5.413  1.00  0.00     0.005 C 
ATOM     22  C   UNL     1      54.718  -6.264  -6.934  1.00  0.00     0.003 C 
ATOM     23  C   UNL     1      54.348  -3.881  -7.939  1.00  0.00     0.010 C 
ATOM     24  C   UNL     1      56.438  -5.158  -8.526  1.00  0.00     0.012 C 
ATOM     25  C   UNL     1      53.525  -6.782  -7.865  1.00  0.00    -0.006 C 
ATOM     26  C   UNL     1      53.357  -4.472  -8.942  1.00  0.00     0.033 C 
ATOM     27  C   UNL     1      52.580  -5.631  -8.311  1.00  0.00     0.120 C 
ATOM     28  C   UNL     1      54.098  -7.495  -9.125  1.00  0.00     0.014 C 
ATOM     29  C   UNL     1      52.658  -7.868  -7.165  1.00  0.00     0.014 C 
ENDROOT
BRANCH   1  30
ATOM     30  C   UNL     1      59.848  -0.630  -2.849  1.00  0.00     0.048 C 
ATOM     31  O   UNL     1      59.077   0.257  -3.305  1.00  0.00    -0.550 OA
ATOM     32  O   UNL     1      61.084  -0.231  -2.349  1.00  0.00    -0.550 OA
ENDBRANCH   1  30
BRANCH  27  33
ATOM     33  O   UNL     1      51.832  -5.160  -7.216  1.00  0.00    -0.393 OA
ATOM     34  H   UNL     1      51.931  -4.171  -7.199  1.00  0.00     0.210 HD
ENDBRANCH  27  33
TORSDOF 2
ENDMDL
MODEL 3
REMARK VINA RESULT:    -6.135      4.648      8.391
REMARK INTER + INTRA:          -6.579
REMARK INTER:                  -6.364
REMARK INTRA:                  -0.214
REMARK UNBOUND:                 0.094
REMARK SMILES C[C@@H]1[C@H](C)CC[C@@]2(C(=O)[O-])CC[C@@]3(C)C(=CC[C@@H]4[C@]5(C)CC[C@H](O)C(C)(C)[C@@H]5CC[C@@]43C)[C@@H]12
REMARK SMILES IDX 7 1 6 2 11 3 33 4 5 5 12 6 15 7 2 8 3 9 13 10 16 11 1 12
REMARK SMILES IDX 4 13 14 14 31 15 17 16 18 17 30 18 32 19 19 20 29 21 28 22
REMARK SMILES IDX 21 23 20 24 25 25 22 26 23 27 26 28 27 29 8 30 9 31 10 32
REMARK SMILES IDX 24 33
REMARK H PARENT 24 34
REMARK Flexibility Score: inf
ROOT
ATOM      1  C   UNL     1      50.718  -6.754  -7.593  1.00  0.00     0.017 C 
ATOM      2  C   UNL     1      49.601  -5.739  -7.201  1.00  0.00     0.014 C 
ATOM      3  C   UNL     1      51.631  -6.118  -8.682  1.00  0.00     0.014 C 
ATOM      4  C   UNL     1      51.621  -7.222  -6.384  1.00  0.00     0.030 C 
ATOM      5  C   UNL     1      48.882  -6.087  -5.893  1.00  0.00     0.004 C 
ATOM      6  C   UNL     1      52.544  -4.959  -8.203  1.00  0.00     0.013 C 
ATOM      7  C   UNL     1      53.033  -6.584  -6.355  1.00  0.00    -0.063 C 
ATOM      8  C   UNL     1      50.932  -7.320  -4.976  1.00  0.00    -0.003 C 
ATOM      9  C   UNL     1      49.867  -6.213  -4.725  1.00  0.00    -0.011 C 
ATOM     10  C   UNL     1      53.262  -5.129  -6.801  1.00  0.00    -0.006 C 
ATOM     11  C   UNL     1      54.063  -7.441  -6.218  1.00  0.00    -0.027 C 
ATOM     12  C   UNL     1      50.364  -8.741  -4.745  1.00  0.00     0.008 C 
ATOM     13  C   UNL     1      49.107  -6.387  -3.400  1.00  0.00     0.008 C 
ATOM     14  C   UNL     1      52.573  -4.193  -5.759  1.00  0.00     0.017 C 
ATOM     15  C   UNL     1      54.834  -4.708  -6.865  1.00  0.00    -0.020 C 
ATOM     16  C   UNL     1      55.471  -7.158  -6.611  1.00  0.00     0.032 C 
ATOM     17  C   UNL     1      55.689  -5.876  -7.472  1.00  0.00     0.006 C 
ATOM     18  C   UNL     1      55.431  -4.421  -5.437  1.00  0.00     0.008 C 
ATOM     19  C   UNL     1      54.940  -3.390  -7.719  1.00  0.00     0.012 C 
ATOM     20  C   UNL     1      57.257  -5.522  -7.689  1.00  0.00    -0.025 C 
ATOM     21  C   UNL     1      56.971  -4.586  -5.278  1.00  0.00     0.005 C 
ATOM     22  C   UNL     1      57.786  -4.479  -6.598  1.00  0.00     0.003 C 
ATOM     23  C   UNL     1      58.122  -6.839  -7.666  1.00  0.00     0.010 C 
ATOM     24  C   UNL     1      57.412  -4.912  -9.125  1.00  0.00     0.012 C 
ATOM     25  C   UNL     1      59.370  -4.407  -6.392  1.00  0.00    -0.006 C 
ATOM     26  C   UNL     1      59.635  -6.627  -7.625  1.00  0.00     0.033 C 
ATOM     27  C   UNL     1      60.031  -5.814  -6.390  1.00  0.00     0.120 C 
ATOM     28  C   UNL     1      60.018  -3.535  -7.508  1.00  0.00     0.014 C 
ATOM     29  C   UNL     1      59.762  -3.693  -5.066  1.00  0.00     0.014 C 
ENDROOT
BRANCH   1  30
ATOM     30  C   UNL     1      50.053  -7.981  -8.237  1.00  0.00     0.048 C 
ATOM     31  O   UNL     1      50.638  -9.099  -8.225  1.00  0.00    -0.550 OA
ATOM     32  O   UNL     1      48.795  -7.906  -8.828  1.00  0.00    -0.550 OA
ENDBRANCH   1  30
BRANCH  27  33
ATOM     33  O   UNL     1      59.678  -6.519  -5.224  1.00  0.00    -0.393 OA
ATOM     34  H   UNL     1      60.167  -7.383  -5.248  1.00  0.00     0.210 HD
ENDBRANCH  27  33
TORSDOF 2
ENDMDL
MODEL 4
REMARK VINA RESULT:    -6.009      4.167      6.101
REMARK INTER + INTRA:          -6.441
REMARK INTER:                  -6.226
REMARK INTRA:                  -0.215
REMARK UNBOUND:                 0.094
REMARK SMILES C[C@@H]1[C@H](C)CC[C@@]2(C(=O)[O-])CC[C@@]3(C)C(=CC[C@@H]4[C@]5(C)CC[C@H](O)C(C)(C)[C@@H]5CC[C@@]43C)[C@@H]12
REMARK SMILES IDX 7 1 6 2 11 3 33 4 5 5 12 6 15 7 2 8 3 9 13 10 16 11 1 12
REMARK SMILES IDX 4 13 14 14 31 15 17 16 18 17 30 18 32 19 19 20 29 21 28 22
REMARK SMILES IDX 21 23 20 24 25 25 22 26 23 27 26 28 27 29 8 30 9 31 10 32
REMARK SMILES IDX 24 33
REMARK H PARENT 24 34
REMARK Flexibility Score: inf
ROOT
ATOM      1  C   UNL     1      58.074  -3.612  -3.276  1.00  0.00     0.017 C 
ATOM      2  C   UNL     1      59.170  -3.076  -4.248  1.00  0.00     0.014 C 
ATOM      3  C   UNL     1      56.748  -2.834  -3.515  1.00  0.00     0.014 C 
ATOM      4  C   UNL     1      57.788  -5.159  -3.413  1.00  0.00     0.030 C 
ATOM      5  C   UNL     1      60.387  -3.997  -4.376  1.00  0.00     0.004 C 
ATOM      6  C   UNL     1      56.022  -3.136  -4.852  1.00  0.00     0.013 C 
ATOM      7  C   UNL     1      56.467  -5.503  -4.146  1.00  0.00    -0.063 C 
ATOM      8  C   UNL     1      58.999  -6.076  -3.813  1.00  0.00    -0.003 C 
ATOM      9  C   UNL     1      59.981  -5.407  -4.819  1.00  0.00    -0.011 C 
ATOM     10  C   UNL     1      55.958  -4.648  -5.321  1.00  0.00    -0.006 C 
ATOM     11  C   UNL     1      55.655  -6.376  -3.519  1.00  0.00    -0.027 C 
ATOM     12  C   UNL     1      59.724  -6.602  -2.551  1.00  0.00     0.008 C 
ATOM     13  C   UNL     1      61.229  -6.257  -5.109  1.00  0.00     0.008 C 
ATOM     14  C   UNL     1      56.937  -4.851  -6.521  1.00  0.00     0.017 C 
ATOM     15  C   UNL     1      54.470  -5.067  -5.834  1.00  0.00    -0.020 C 
ATOM     16  C   UNL     1      54.192  -6.512  -3.759  1.00  0.00     0.032 C 
ATOM     17  C   UNL     1      53.538  -5.382  -4.612  1.00  0.00     0.006 C 
ATOM     18  C   UNL     1      54.490  -6.368  -6.720  1.00  0.00     0.008 C 
ATOM     19  C   UNL     1      53.919  -3.882  -6.711  1.00  0.00     0.012 C 
ATOM     20  C   UNL     1      51.997  -5.698  -5.003  1.00  0.00    -0.025 C 
ATOM     21  C   UNL     1      53.171  -7.190  -6.783  1.00  0.00     0.005 C 
ATOM     22  C   UNL     1      51.880  -6.394  -6.439  1.00  0.00     0.003 C 
ATOM     23  C   UNL     1      51.325  -6.594  -3.894  1.00  0.00     0.010 C 
ATOM     24  C   UNL     1      51.217  -4.338  -5.009  1.00  0.00     0.012 C 
ATOM     25  C   UNL     1      50.519  -7.179  -6.741  1.00  0.00    -0.006 C 
ATOM     26  C   UNL     1      49.951  -7.159  -4.252  1.00  0.00     0.033 C 
ATOM     27  C   UNL     1      50.033  -8.010  -5.521  1.00  0.00     0.120 C 
ATOM     28  C   UNL     1      49.404  -6.176  -7.160  1.00  0.00     0.014 C 
ATOM     29  C   UNL     1      50.650  -8.143  -7.955  1.00  0.00     0.014 C 
ENDROOT
BRANCH   1  30
ATOM     30  C   UNL     1      58.513  -3.303  -1.835  1.00  0.00     0.048 C 
ATOM     31  O   UNL     1      58.105  -4.019  -0.880  1.00  0.00    -0.550 OA
ATOM     32  O   UNL     1      59.376  -2.250  -1.542  1.00  0.00    -0.550 OA
ENDBRANCH   1  30
BRANCH  27  33
ATOM     33  O   UNL     1      50.888  -9.107  -5.304  1.00  0.00    -0.393 OA
ATOM     34  H   UNL     1      50.311  -9.889  -5.099  1.00  0.00     0.210 HD
ENDBRANCH  27  33
TORSDOF 2
ENDMDL
MODEL 5
REMARK VINA RESULT:    -5.813      2.369      3.741
REMARK INTER + INTRA:          -6.228
REMARK INTER:                  -6.014
REMARK INTRA:                  -0.214
REMARK UNBOUND:                 0.094
REMARK SMILES C[C@@H]1[C@H](C)CC[C@@]2(C(=O)[O-])CC[C@@]3(C)C(=CC[C@@H]4[C@]5(C)CC[C@H](O)C(C)(C)[C@@H]5CC[C@@]43C)[C@@H]12
REMARK SMILES IDX 7 1 6 2 11 3 33 4 5 5 12 6 15 7 2 8 3 9 13 10 16 11 1 12
REMARK SMILES IDX 4 13 14 14 31 15 17 16 18 17 30 18 32 19 19 20 29 21 28 22
REMARK SMILES IDX 21 23 20 24 25 25 22 26 23 27 26 28 27 29 8 30 9 31 10 32
REMARK SMILES IDX 24 33
REMARK H PARENT 24 34
REMARK Flexibility Score: inf
ROOT
ATOM      1  C   UNL     1      59.830  -3.495   0.472  1.00  0.00     0.017 C 
ATOM      2  C   UNL     1      58.644  -3.966   1.368  1.00  0.00     0.014 C 
ATOM      3  C   UNL     1      60.514  -4.736  -0.172  1.00  0.00     0.014 C 
ATOM      4  C   UNL     1      59.416  -2.491  -0.675  1.00  0.00     0.030 C 
ATOM      5  C   UNL     1      57.672  -2.845   1.747  1.00  0.00     0.004 C 
ATOM      6  C   UNL     1      59.690  -5.468  -1.264  1.00  0.00     0.013 C 
ATOM      7  C   UNL     1      59.371  -3.120  -2.091  1.00  0.00    -0.063 C 
ATOM      8  C   UNL     1      58.226  -1.513  -0.371  1.00  0.00    -0.003 C 
ATOM      9  C   UNL     1      57.106  -2.147   0.504  1.00  0.00    -0.011 C 
ATOM     10  C   UNL     1      58.904  -4.571  -2.307  1.00  0.00    -0.006 C 
ATOM     11  C   UNL     1      60.037  -2.453  -3.052  1.00  0.00    -0.027 C 
ATOM     12  C   UNL     1      58.751  -0.184   0.225  1.00  0.00     0.008 C 
ATOM     13  C   UNL     1      56.006  -1.150   0.905  1.00  0.00     0.008 C 
ATOM     14  C   UNL     1      57.377  -4.636  -1.986  1.00  0.00     0.017 C 
ATOM     15  C   UNL     1      59.101  -5.096  -3.836  1.00  0.00    -0.020 C 
ATOM     16  C   UNL     1      60.526  -3.048  -4.327  1.00  0.00     0.032 C 
ATOM     17  C   UNL     1      60.474  -4.604  -4.412  1.00  0.00     0.006 C 
ATOM     18  C   UNL     1      57.992  -4.538  -4.804  1.00  0.00     0.008 C 
ATOM     19  C   UNL     1      58.994  -6.667  -3.816  1.00  0.00     0.012 C 
ATOM     20  C   UNL     1      60.827  -5.167  -5.891  1.00  0.00    -0.025 C 
ATOM     21  C   UNL     1      58.358  -4.461  -6.314  1.00  0.00     0.005 C 
ATOM     22  C   UNL     1      59.507  -5.406  -6.764  1.00  0.00     0.003 C 
ATOM     23  C   UNL     1      61.812  -4.183  -6.629  1.00  0.00     0.010 C 
ATOM     24  C   UNL     1      61.598  -6.520  -5.715  1.00  0.00     0.012 C 
ATOM     25  C   UNL     1      59.709  -5.494  -8.348  1.00  0.00    -0.006 C 
ATOM     26  C   UNL     1      62.037  -4.474  -8.113  1.00  0.00     0.033 C 
ATOM     27  C   UNL     1      60.712  -4.431  -8.877  1.00  0.00     0.120 C 
ATOM     28  C   UNL     1      60.205  -6.915  -8.748  1.00  0.00     0.014 C 
ATOM     29  C   UNL     1      58.372  -5.318  -9.125  1.00  0.00     0.014 C 
ENDROOT
BRANCH   1  30
ATOM     30  C   UNL     1      60.883  -2.830   1.373  1.00  0.00     0.048 C 
ATOM     31  O   UNL     1      61.699  -1.998   0.889  1.00  0.00    -0.550 OA
ATOM     32  O   UNL     1      60.959  -3.105   2.736  1.00  0.00    -0.550 OA
ENDBRANCH   1  30
BRANCH  27  33
ATOM     33  O   UNL     1      60.153  -3.143  -8.787  1.00  0.00    -0.393 OA
ATOM     34  H   UNL     1      59.596  -3.009  -9.599  1.00  0.00     0.210 HD
ENDBRANCH  27  33
TORSDOF 2
ENDMDL
MODEL 6
REMARK VINA RESULT:    -5.790      2.761      7.796
REMARK INTER + INTRA:          -6.203
REMARK INTER:                  -5.995
REMARK INTRA:                  -0.208
REMARK UNBOUND:                 0.094
REMARK SMILES C[C@@H]1[C@H](C)CC[C@@]2(C(=O)[O-])CC[C@@]3(C)C(=CC[C@@H]4[C@]5(C)CC[C@H](O)C(C)(C)[C@@H]5CC[C@@]43C)[C@@H]12
REMARK SMILES IDX 7 1 6 2 11 3 33 4 5 5 12 6 15 7 2 8 3 9 13 10 16 11 1 12
REMARK SMILES IDX 4 13 14 14 31 15 17 16 18 17 30 18 32 19 19 20 29 21 28 22
REMARK SMILES IDX 21 23 20 24 25 25 22 26 23 27 26 28 27 29 8 30 9 31 10 32
REMARK SMILES IDX 24 33
REMARK H PARENT 24 34
REMARK Flexibility Score: inf
ROOT
ATOM      1  C   UNL     1      53.493  -5.689  -5.034  1.00  0.00     0.017 C 
ATOM      2  C   UNL     1      53.529  -7.133  -5.621  1.00  0.00     0.014 C 
ATOM      3  C   UNL     1      53.746  -5.751  -3.499  1.00  0.00     0.014 C 
ATOM      4  C   UNL     1      54.541  -4.700  -5.681  1.00  0.00     0.030 C 
ATOM      5  C   UNL     1      53.672  -7.176  -7.146  1.00  0.00     0.004 C 
ATOM      6  C   UNL     1      55.188  -6.128  -3.069  1.00  0.00     0.013 C 
ATOM      7  C   UNL     1      55.770  -4.396  -4.789  1.00  0.00    -0.063 C 
ATOM      8  C   UNL     1      54.888  -4.921  -7.197  1.00  0.00    -0.003 C 
ATOM      9  C   UNL     1      54.920  -6.420  -7.616  1.00  0.00    -0.011 C 
ATOM     10  C   UNL     1      56.384  -5.474  -3.878  1.00  0.00    -0.006 C 
ATOM     11  C   UNL     1      56.071  -3.093  -4.625  1.00  0.00    -0.027 C 
ATOM     12  C   UNL     1      53.951  -4.082  -8.099  1.00  0.00     0.008 C 
ATOM     13  C   UNL     1      55.135  -6.627  -9.125  1.00  0.00     0.008 C 
ATOM     14  C   UNL     1      57.035  -6.561  -4.791  1.00  0.00     0.017 C 
ATOM     15  C   UNL     1      57.550  -4.907  -2.893  1.00  0.00    -0.020 C 
ATOM     16  C   UNL     1      56.870  -2.532  -3.500  1.00  0.00     0.032 C 
ATOM     17  C   UNL     1      57.145  -3.506  -2.314  1.00  0.00     0.006 C 
ATOM     18  C   UNL     1      58.915  -4.693  -3.648  1.00  0.00     0.008 C 
ATOM     19  C   UNL     1      57.776  -5.975  -1.759  1.00  0.00     0.012 C 
ATOM     20  C   UNL     1      58.184  -2.899  -1.227  1.00  0.00    -0.025 C 
ATOM     21  C   UNL     1      59.897  -3.655  -3.034  1.00  0.00     0.005 C 
ATOM     22  C   UNL     1      59.687  -3.361  -1.522  1.00  0.00     0.003 C 
ATOM     23  C   UNL     1      58.082  -1.327  -1.193  1.00  0.00     0.010 C 
ATOM     24  C   UNL     1      57.742  -3.404   0.189  1.00  0.00     0.012 C 
ATOM     25  C   UNL     1      60.845  -2.485  -0.851  1.00  0.00    -0.006 C 
ATOM     26  C   UNL     1      59.168  -0.617  -0.386  1.00  0.00     0.033 C 
ATOM     27  C   UNL     1      60.556  -0.960  -0.933  1.00  0.00     0.120 C 
ATOM     28  C   UNL     1      61.034  -2.895   0.639  1.00  0.00     0.014 C 
ATOM     29  C   UNL     1      62.234  -2.743  -1.503  1.00  0.00     0.014 C 
ENDROOT
BRANCH   1  30
ATOM     30  C   UNL     1      52.076  -5.124  -5.224  1.00  0.00     0.048 C 
ATOM     31  O   UNL     1      51.901  -3.883  -5.364  1.00  0.00    -0.550 OA
ATOM     32  O   UNL     1      50.958  -5.952  -5.266  1.00  0.00    -0.550 OA
ENDBRANCH   1  30
BRANCH  27  33
ATOM     33  O   UNL     1      60.667  -0.511  -2.262  1.00  0.00    -0.393 OA
ATOM     34  H   UNL     1      60.237  -1.198  -2.838  1.00  0.00     0.210 HD
ENDBRANCH  27  33
TORSDOF 2
ENDMDL
MODEL 7
REMARK VINA RESULT:    -5.519      2.812      7.769
REMARK INTER + INTRA:          -5.908
REMARK INTER:                  -5.692
REMARK INTRA:                  -0.216
REMARK UNBOUND:                 0.094
REMARK SMILES C[C@@H]1[C@H](C)CC[C@@]2(C(=O)[O-])CC[C@@]3(C)C(=CC[C@@H]4[C@]5(C)CC[C@H](O)C(C)(C)[C@@H]5CC[C@@]43C)[C@@H]12
REMARK SMILES IDX 7 1 6 2 11 3 33 4 5 5 12 6 15 7 2 8 3 9 13 10 16 11 1 12
REMARK SMILES IDX 4 13 14 14 31 15 17 16 18 17 30 18 32 19 19 20 29 21 28 22
REMARK SMILES IDX 21 23 20 24 25 25 22 26 23 27 26 28 27 29 8 30 9 31 10 32
REMARK SMILES IDX 24 33
REMARK H PARENT 24 34
REMARK Flexibility Score: inf
ROOT
ATOM      1  C   UNL     1      55.460  -6.212  -5.983  1.00  0.00     0.017 C 
ATOM      2  C   UNL     1      54.757  -5.264  -7.002  1.00  0.00     0.014 C 
ATOM      3  C   UNL     1      57.001  -6.011  -6.073  1.00  0.00     0.014 C 
ATOM      4  C   UNL     1      55.007  -6.001  -4.484  1.00  0.00     0.030 C 
ATOM      5  C   UNL     1      53.256  -5.090  -6.750  1.00  0.00     0.004 C 
ATOM      6  C   UNL     1      57.538  -4.663  -5.527  1.00  0.00     0.013 C 
ATOM      7  C   UNL     1      56.041  -5.255  -3.602  1.00  0.00    -0.063 C 
ATOM      8  C   UNL     1      53.521  -5.556  -4.244  1.00  0.00    -0.003 C 
ATOM      9  C   UNL     1      52.979  -4.581  -5.330  1.00  0.00    -0.011 C 
ATOM     10  C   UNL     1      56.912  -4.123  -4.175  1.00  0.00    -0.006 C 
ATOM     11  C   UNL     1      56.345  -5.842  -2.429  1.00  0.00    -0.027 C 
ATOM     12  C   UNL     1      52.606  -6.791  -4.059  1.00  0.00     0.008 C 
ATOM     13  C   UNL     1      51.487  -4.249  -5.162  1.00  0.00     0.008 C 
ATOM     14  C   UNL     1      55.977  -2.913  -4.494  1.00  0.00     0.017 C 
ATOM     15  C   UNL     1      58.053  -3.593  -3.141  1.00  0.00    -0.020 C 
ATOM     16  C   UNL     1      57.588  -5.598  -1.646  1.00  0.00     0.032 C 
ATOM     17  C   UNL     1      58.708  -4.801  -2.383  1.00  0.00     0.006 C 
ATOM     18  C   UNL     1      57.458  -2.647  -2.032  1.00  0.00     0.008 C 
ATOM     19  C   UNL     1      59.108  -2.774  -3.975  1.00  0.00     0.012 C 
ATOM     20  C   UNL     1      59.940  -4.398  -1.409  1.00  0.00    -0.025 C 
ATOM     21  C   UNL     1      58.254  -2.548  -0.699  1.00  0.00     0.005 C 
ATOM     22  C   UNL     1      59.758  -2.931  -0.798  1.00  0.00     0.003 C 
ATOM     23  C   UNL     1      60.100  -5.465  -0.260  1.00  0.00     0.010 C 
ATOM     24  C   UNL     1      61.257  -4.458  -2.258  1.00  0.00     0.012 C 
ATOM     25  C   UNL     1      60.613  -2.595   0.511  1.00  0.00    -0.006 C 
ATOM     26  C   UNL     1      61.069  -5.083   0.858  1.00  0.00     0.033 C 
ATOM     27  C   UNL     1      60.635  -3.775   1.523  1.00  0.00     0.120 C 
ATOM     28  C   UNL     1      62.074  -2.226   0.118  1.00  0.00     0.014 C 
ATOM     29  C   UNL     1      60.083  -1.336   1.257  1.00  0.00     0.014 C 
ENDROOT
BRANCH   1  30
ATOM     30  C   UNL     1      55.180  -7.665  -6.399  1.00  0.00     0.048 C 
ATOM     31  O   UNL     1      55.257  -8.594  -5.550  1.00  0.00    -0.550 OA
ATOM     32  O   UNL     1      54.818  -7.995  -7.702  1.00  0.00    -0.550 OA
ENDBRANCH   1  30
BRANCH  27  33
ATOM     33  O   UNL     1      59.367  -3.939   2.111  1.00  0.00    -0.393 OA
ATOM     34  H   UNL     1      58.774  -4.331   1.418  1.00  0.00     0.210 HD
ENDBRANCH  27  33
TORSDOF 2
ENDMDL
MODEL 8
REMARK VINA RESULT:    -5.517      2.158      7.720
REMARK INTER + INTRA:          -5.906
REMARK INTER:                  -5.708
REMARK INTRA:                  -0.199
REMARK UNBOUND:                 0.094
REMARK SMILES C[C@@H]1[C@H](C)CC[C@@]2(C(=O)[O-])CC[C@@]3(C)C(=CC[C@@H]4[C@]5(C)CC[C@H](O)C(C)(C)[C@@H]5CC[C@@]43C)[C@@H]12
REMARK SMILES IDX 7 1 6 2 11 3 33 4 5 5 12 6 15 7 2 8 3 9 13 10 16 11 1 12
REMARK SMILES IDX 4 13 14 14 31 15 17 16 18 17 30 18 32 19 19 20 29 21 28 22
REMARK SMILES IDX 21 23 20 24 25 25 22 26 23 27 26 28 27 29 8 30 9 31 10 32
REMARK SMILES IDX 24 33
REMARK H PARENT 24 34
REMARK Flexibility Score: inf
ROOT
ATOM      1  C   UNL     1      55.958  -6.226  -5.875  1.00  0.00     0.017 C 
ATOM      2  C   UNL     1      56.275  -6.306  -7.400  1.00  0.00     0.014 C 
ATOM      3  C   UNL     1      57.075  -6.962  -5.078  1.00  0.00     0.014 C 
ATOM      4  C   UNL     1      55.824  -4.754  -5.318  1.00  0.00     0.030 C 
ATOM      5  C   UNL     1      55.474  -5.314  -8.249  1.00  0.00     0.004 C 
ATOM      6  C   UNL     1      58.458  -6.262  -5.053  1.00  0.00     0.013 C 
ATOM      7  C   UNL     1      57.040  -4.270  -4.488  1.00  0.00    -0.063 C 
ATOM      8  C   UNL     1      55.244  -3.672  -6.296  1.00  0.00    -0.003 C 
ATOM      9  C   UNL     1      55.683  -3.871  -7.776  1.00  0.00    -0.011 C 
ATOM     10  C   UNL     1      58.475  -4.690  -4.853  1.00  0.00    -0.006 C 
ATOM     11  C   UNL     1      56.756  -3.734  -3.286  1.00  0.00    -0.027 C 
ATOM     12  C   UNL     1      53.706  -3.573  -6.151  1.00  0.00     0.008 C 
ATOM     13  C   UNL     1      55.013  -2.886  -8.749  1.00  0.00     0.008 C 
ATOM     14  C   UNL     1      58.845  -4.008  -6.209  1.00  0.00     0.017 C 
ATOM     15  C   UNL     1      59.588  -4.225  -3.758  1.00  0.00    -0.020 C 
ATOM     16  C   UNL     1      57.711  -3.628  -2.148  1.00  0.00     0.032 C 
ATOM     17  C   UNL     1      59.040  -4.428  -2.302  1.00  0.00     0.006 C 
ATOM     18  C   UNL     1      59.945  -2.697  -3.885  1.00  0.00     0.008 C 
ATOM     19  C   UNL     1      60.895  -5.061  -4.023  1.00  0.00     0.012 C 
ATOM     20  C   UNL     1      60.111  -4.105  -1.128  1.00  0.00    -0.025 C 
ATOM     21  C   UNL     1      60.503  -2.002  -2.609  1.00  0.00     0.005 C 
ATOM     22  C   UNL     1      61.139  -2.958  -1.562  1.00  0.00     0.003 C 
ATOM     23  C   UNL     1      59.362  -3.708   0.200  1.00  0.00     0.010 C 
ATOM     24  C   UNL     1      60.893  -5.428  -0.819  1.00  0.00     0.012 C 
ATOM     25  C   UNL     1      61.919  -2.217  -0.378  1.00  0.00    -0.006 C 
ATOM     26  C   UNL     1      60.251  -3.153   1.313  1.00  0.00     0.033 C 
ATOM     27  C   UNL     1      60.997  -1.906   0.834  1.00  0.00     0.120 C 
ATOM     28  C   UNL     1      63.121  -3.085   0.098  1.00  0.00     0.014 C 
ATOM     29  C   UNL     1      62.566  -0.880  -0.843  1.00  0.00     0.014 C 
ENDROOT
BRANCH   1  30
ATOM     30  C   UNL     1      54.651  -6.991  -5.611  1.00  0.00     0.048 C 
ATOM     31  O   UNL     1      54.333  -7.972  -6.337  1.00  0.00    -0.550 OA
ATOM     32  O   UNL     1      53.798  -6.644  -4.567  1.00  0.00    -0.550 OA
ENDBRANCH   1  30
BRANCH  27  33
ATOM     33  O   UNL     1      60.073  -0.898   0.500  1.00  0.00    -0.393 OA
ATOM     34  H   UNL     1      59.169  -1.251   0.713  1.00  0.00     0.210 HD
ENDBRANCH  27  33
TORSDOF 2
ENDMDL
MODEL 9
REMARK VINA RESULT:    -5.450      1.990      7.913
REMARK INTER + INTRA:          -5.833
REMARK INTER:                  -5.618
REMARK INTRA:                  -0.215
REMARK UNBOUND:                 0.094
REMARK SMILES C[C@@H]1[C@H](C)CC[C@@]2(C(=O)[O-])CC[C@@]3(C)C(=CC[C@@H]4[C@]5(C)CC[C@H](O)C(C)(C)[C@@H]5CC[C@@]43C)[C@@H]12
REMARK SMILES IDX 7 1 6 2 11 3 33 4 5 5 12 6 15 7 2 8 3 9 13 10 16 11 1 12
REMARK SMILES IDX 4 13 14 14 31 15 17 16 18 17 30 18 32 19 19 20 29 21 28 22
REMARK SMILES IDX 21 23 20 24 25 25 22 26 23 27 26 28 27 29 8 30 9 31 10 32
REMARK SMILES IDX 24 33
REMARK H PARENT 24 34
REMARK Flexibility Score: inf
ROOT
ATOM      1  C   UNL     1      55.607  -5.115  -6.304  1.00  0.00     0.017 C 
ATOM      2  C   UNL     1      55.456  -6.630  -6.640  1.00  0.00     0.014 C 
ATOM      3  C   UNL     1      54.916  -4.819  -4.941  1.00  0.00     0.014 C 
ATOM      4  C   UNL     1      57.103  -4.613  -6.234  1.00  0.00     0.030 C 
ATOM      5  C   UNL     1      56.401  -7.115  -7.743  1.00  0.00     0.004 C 
ATOM      6  C   UNL     1      55.625  -5.394  -3.687  1.00  0.00     0.013 C 
ATOM      7  C   UNL     1      57.633  -4.378  -4.797  1.00  0.00    -0.063 C 
ATOM      8  C   UNL     1      58.134  -5.310  -7.192  1.00  0.00    -0.003 C 
ATOM      9  C   UNL     1      57.867  -6.830  -7.394  1.00  0.00    -0.011 C 
ATOM     10  C   UNL     1      57.205  -5.283  -3.629  1.00  0.00    -0.006 C 
ATOM     11  C   UNL     1      58.224  -3.188  -4.575  1.00  0.00    -0.027 C 
ATOM     12  C   UNL     1      58.230  -4.549  -8.536  1.00  0.00     0.008 C 
ATOM     13  C   UNL     1      58.800  -7.480  -8.430  1.00  0.00     0.008 C 
ATOM     14  C   UNL     1      57.823  -6.698  -3.866  1.00  0.00     0.017 C 
ATOM     15  C   UNL     1      57.728  -4.763  -2.177  1.00  0.00    -0.020 C 
ATOM     16  C   UNL     1      58.390  -2.549  -3.240  1.00  0.00     0.032 C 
ATOM     17  C   UNL     1      57.591  -3.204  -2.072  1.00  0.00     0.006 C 
ATOM     18  C   UNL     1      59.250  -5.088  -1.942  1.00  0.00     0.008 C 
ATOM     19  C   UNL     1      56.887  -5.508  -1.074  1.00  0.00     0.012 C 
ATOM     20  C   UNL     1      57.976  -2.588  -0.622  1.00  0.00    -0.025 C 
ATOM     21  C   UNL     1      60.008  -4.185  -0.927  1.00  0.00     0.005 C 
ATOM     22  C   UNL     1      59.107  -3.453   0.107  1.00  0.00     0.003 C 
ATOM     23  C   UNL     1      58.432  -1.087  -0.770  1.00  0.00     0.010 C 
ATOM     24  C   UNL     1      56.674  -2.574   0.250  1.00  0.00     0.012 C 
ATOM     25  C   UNL     1      59.908  -2.727   1.286  1.00  0.00    -0.006 C 
ATOM     26  C   UNL     1      59.044  -0.462   0.483  1.00  0.00     0.033 C 
ATOM     27  C   UNL     1      60.272  -1.257   0.936  1.00  0.00     0.120 C 
ATOM     28  C   UNL     1      59.071  -2.752   2.599  1.00  0.00     0.014 C 
ATOM     29  C   UNL     1      61.225  -3.471   1.651  1.00  0.00     0.014 C 
ENDROOT
BRANCH   1  30
ATOM     30  C   UNL     1      54.847  -4.305  -7.368  1.00  0.00     0.048 C 
ATOM     31  O   UNL     1      55.194  -3.121  -7.630  1.00  0.00    -0.550 OA
ATOM     32  O   UNL     1      53.781  -4.849  -8.078  1.00  0.00    -0.550 OA
ENDBRANCH   1  30
BRANCH  27  33
ATOM     33  O   UNL     1      61.257  -1.222  -0.069  1.00  0.00    -0.393 OA
ATOM     34  H   UNL     1      61.512  -0.270  -0.193  1.00  0.00     0.210 HD
ENDBRANCH  27  33
TORSDOF 2
ENDMDL
