MODEL 1
REMARK VINA RESULT:    -4.474      0.000      0.000
REMARK INTER + INTRA:          -8.370
REMARK INTER:                  -7.089
REMARK INTRA:                  -1.281
REMARK UNBOUND:                -1.281
REMARK SMILES CCCCCCCCCCCC(=O)[O-]
REMARK SMILES IDX 7 1 8 2 9 3 10 4 11 5 12 6 13 7 14 8 6 9 5 10 4 11 3 12 2 13
REMARK SMILES IDX 1 14
REMARK H PARENT
REMARK Flexibility Score: inf
ROOT
ATOM      1  C   UNL     1     123.167 177.967 126.104  1.00  0.00     0.000 C 
ENDROOT
BRANCH   1   2
ATOM      2  C   UNL     1     121.824 178.313 125.445  1.00  0.00     0.000 C 
BRANCH   2   3
ATOM      3  C   UNL     1     121.293 179.658 125.957  1.00  0.00     0.000 C 
BRANCH   3   4
ATOM      4  C   UNL     1     120.060 180.104 125.156  1.00  0.00     0.006 C 
BRANCH   4   5
ATOM      5  C   UNL     1     118.749 179.800 125.892  1.00  0.00     0.053 C 
BRANCH   5   6
ATOM      6  C   UNL     1     117.878 178.865 125.111  1.00  0.00     0.041 C 
ATOM      7  O   UNL     1     117.746 177.667 125.476  1.00  0.00    -0.550 OA
ATOM      8  O   UNL     1     117.238 179.308 123.960  1.00  0.00    -0.550 OA
ENDBRANCH   5   6
ENDBRANCH   4   5
ENDBRANCH   3   4
ENDBRANCH   2   3
ENDBRANCH   1   2
BRANCH   1   9
ATOM      9  C   UNL     1     123.625 179.032 127.112  1.00  0.00     0.000 C 
BRANCH   9  10
ATOM     10  C   UNL     1     124.122 178.425 128.433  1.00  0.00    -0.000 C 
BRANCH  10  11
ATOM     11  C   UNL     1     123.377 179.028 129.630  1.00  0.00    -0.000 C 
BRANCH  11  12
ATOM     12  C   UNL     1     121.857 178.915 129.447  1.00  0.00    -0.000 C 
BRANCH  12  13
ATOM     13  C   UNL     1     121.351 177.472 129.590  1.00  0.00    -0.003 C 
ATOM     14  C   UNL     1     120.189 177.156 128.648  1.00  0.00     0.004 C 
ENDBRANCH  12  13
ENDBRANCH  11  12
ENDBRANCH  10  11
ENDBRANCH   9  10
ENDBRANCH   1   9
TORSDOF 10
ENDMDL
MODEL 2
REMARK VINA RESULT:    -4.470      1.511      2.789
REMARK INTER + INTRA:          -8.364
REMARK INTER:                  -7.499
REMARK INTRA:                  -0.865
REMARK UNBOUND:                -1.281
REMARK SMILES CCCCCCCCCCCC(=O)[O-]
REMARK SMILES IDX 7 1 8 2 9 3 10 4 11 5 12 6 13 7 14 8 6 9 5 10 4 11 3 12 2 13
REMARK SMILES IDX 1 14
REMARK H PARENT
REMARK Flexibility Score: inf
ROOT
ATOM      1  C   UNL     1     122.037 178.744 129.036  1.00  0.00     0.000 C 
ENDROOT
BRANCH   1   2
ATOM      2  C   UNL     1     123.251 178.997 128.130  1.00  0.00     0.000 C 
BRANCH   2   3
ATOM      3  C   UNL     1     122.840 179.004 126.652  1.00  0.00     0.000 C 
BRANCH   3   4
ATOM      4  C   UNL     1     121.352 179.354 126.497  1.00  0.00     0.006 C 
BRANCH   4   5
ATOM      5  C   UNL     1     120.821 179.019 125.097  1.00  0.00     0.053 C 
BRANCH   5   6
ATOM      6  C   UNL     1     119.397 179.451 124.925  1.00  0.00     0.041 C 
ATOM      7  O   UNL     1     118.816 180.099 125.835  1.00  0.00    -0.550 OA
ATOM      8  O   UNL     1     118.701 179.108 123.772  1.00  0.00    -0.550 OA
ENDBRANCH   5   6
ENDBRANCH   4   5
ENDBRANCH   3   4
ENDBRANCH   2   3
ENDBRANCH   1   2
BRANCH   1   9
ATOM      9  C   UNL     1     122.422 178.606 130.518  1.00  0.00     0.000 C 
BRANCH   9  10
ATOM     10  C   UNL     1     121.972 177.268 131.125  1.00  0.00    -0.000 C 
BRANCH  10  11
ATOM     11  C   UNL     1     121.112 176.476 130.132  1.00  0.00    -0.000 C 
BRANCH  11  12
ATOM     12  C   UNL     1     119.789 176.039 130.778  1.00  0.00    -0.000 C 
BRANCH  12  13
ATOM     13  C   UNL     1     118.605 176.105 129.801  1.00  0.00    -0.003 C 
ATOM     14  C   UNL     1     118.947 176.846 128.508  1.00  0.00     0.004 C 
ENDBRANCH  12  13
ENDBRANCH  11  12
ENDBRANCH  10  11
ENDBRANCH   9  10
ENDBRANCH   1   9
TORSDOF 10
ENDMDL
MODEL 3
REMARK VINA RESULT:    -4.450      1.792      3.881
REMARK INTER + INTRA:          -8.333
REMARK INTER:                  -7.436
REMARK INTRA:                  -0.897
REMARK UNBOUND:                -1.281
REMARK SMILES CCCCCCCCCCCC(=O)[O-]
REMARK SMILES IDX 7 1 8 2 9 3 10 4 11 5 12 6 13 7 14 8 6 9 5 10 4 11 3 12 2 13
REMARK SMILES IDX 1 14
REMARK H PARENT
REMARK Flexibility Score: inf
ROOT
ATOM      1  C   UNL     1     123.348 179.352 126.856  1.00  0.00     0.000 C 
ENDROOT
BRANCH   1   2
ATOM      2  C   UNL     1     121.939 179.655 126.327  1.00  0.00     0.000 C 
BRANCH   2   3
ATOM      3  C   UNL     1     120.872 179.274 127.361  1.00  0.00     0.000 C 
BRANCH   3   4
ATOM      4  C   UNL     1     119.459 179.546 126.820  1.00  0.00     0.006 C 
BRANCH   4   5
ATOM      5  C   UNL     1     119.248 178.946 125.423  1.00  0.00     0.053 C 
BRANCH   5   6
ATOM      6  C   UNL     1     117.879 179.243 124.893  1.00  0.00     0.041 C 
ATOM      7  O   UNL     1     117.001 179.743 125.645  1.00  0.00    -0.550 OA
ATOM      8  O   UNL     1     117.562 178.934 123.576  1.00  0.00    -0.550 OA
ENDBRANCH   5   6
ENDBRANCH   4   5
ENDBRANCH   3   4
ENDBRANCH   2   3
ENDBRANCH   1   2
BRANCH   1   9
ATOM      9  C   UNL     1     124.026 178.195 126.106  1.00  0.00     0.000 C 
BRANCH   9  10
ATOM     10  C   UNL     1     123.076 177.483 125.131  1.00  0.00    -0.000 C 
BRANCH  10  11
ATOM     11  C   UNL     1     123.759 177.234 123.780  1.00  0.00    -0.000 C 
BRANCH  11  12
ATOM     12  C   UNL     1     122.795 177.513 122.617  1.00  0.00    -0.000 C 
BRANCH  12  13
ATOM     13  C   UNL     1     121.520 178.242 123.069  1.00  0.00    -0.003 C 
ATOM     14  C   UNL     1     121.123 179.377 122.125  1.00  0.00     0.004 C 
ENDBRANCH  12  13
ENDBRANCH  11  12
ENDBRANCH  10  11
ENDBRANCH   9  10
ENDBRANCH   1   9
TORSDOF 10
ENDMDL
MODEL 4
REMARK VINA RESULT:    -4.425      1.547      2.777
REMARK INTER + INTRA:          -8.293
REMARK INTER:                  -6.981
REMARK INTRA:                  -1.312
REMARK UNBOUND:                -1.281
REMARK SMILES CCCCCCCCCCCC(=O)[O-]
REMARK SMILES IDX 7 1 8 2 9 3 10 4 11 5 12 6 13 7 14 8 6 9 5 10 4 11 3 12 2 13
REMARK SMILES IDX 1 14
REMARK H PARENT
REMARK Flexibility Score: inf
ROOT
ATOM      1  C   UNL     1     123.622 179.261 129.215  1.00  0.00     0.000 C 
ENDROOT
BRANCH   1   2
ATOM      2  C   UNL     1     123.786 178.555 127.861  1.00  0.00     0.000 C 
BRANCH   2   3
ATOM      3  C   UNL     1     123.321 179.458 126.712  1.00  0.00     0.000 C 
BRANCH   3   4
ATOM      4  C   UNL     1     122.187 178.795 125.915  1.00  0.00     0.006 C 
BRANCH   4   5
ATOM      5  C   UNL     1     120.895 179.622 125.947  1.00  0.00     0.053 C 
BRANCH   5   6
ATOM      6  C   UNL     1     120.112 179.479 124.678  1.00  0.00     0.041 C 
ATOM      7  O   UNL     1     118.858 179.371 124.715  1.00  0.00    -0.550 OA
ATOM      8  O   UNL     1     120.772 179.430 123.456  1.00  0.00    -0.550 OA
ENDBRANCH   5   6
ENDBRANCH   4   5
ENDBRANCH   3   4
ENDBRANCH   2   3
ENDBRANCH   1   2
BRANCH   1   9
ATOM      9  C   UNL     1     122.253 178.994 129.860  1.00  0.00     0.000 C 
BRANCH   9  10
ATOM     10  C   UNL     1     122.301 177.877 130.913  1.00  0.00    -0.000 C 
BRANCH  10  11
ATOM     11  C   UNL     1     121.323 176.749 130.564  1.00  0.00    -0.000 C 
BRANCH  11  12
ATOM     12  C   UNL     1     120.647 177.007 129.209  1.00  0.00    -0.000 C 
BRANCH  12  13
ATOM     13  C   UNL     1     121.042 175.971 128.146  1.00  0.00    -0.003 C 
ATOM     14  C   UNL     1     122.202 175.080 128.590  1.00  0.00     0.004 C 
ENDBRANCH  12  13
ENDBRANCH  11  12
ENDBRANCH  10  11
ENDBRANCH   9  10
ENDBRANCH   1   9
TORSDOF 10
ENDMDL
MODEL 5
REMARK VINA RESULT:    -4.415      1.542      3.046
REMARK INTER + INTRA:          -8.277
REMARK INTER:                  -6.691
REMARK INTRA:                  -1.587
REMARK UNBOUND:                -1.281
REMARK SMILES CCCCCCCCCCCC(=O)[O-]
REMARK SMILES IDX 7 1 8 2 9 3 10 4 11 5 12 6 13 7 14 8 6 9 5 10 4 11 3 12 2 13
REMARK SMILES IDX 1 14
REMARK H PARENT
REMARK Flexibility Score: inf
ROOT
ATOM      1  C   UNL     1     122.044 178.614 128.764  1.00  0.00     0.000 C 
ENDROOT
BRANCH   1   2
ATOM      2  C   UNL     1     120.889 179.044 127.847  1.00  0.00     0.000 C 
BRANCH   2   3
ATOM      3  C   UNL     1     119.887 177.898 127.655  1.00  0.00     0.000 C 
BRANCH   3   4
ATOM      4  C   UNL     1     119.431 177.807 126.190  1.00  0.00     0.006 C 
BRANCH   4   5
ATOM      5  C   UNL     1     119.386 179.181 125.510  1.00  0.00     0.053 C 
BRANCH   5   6
ATOM      6  C   UNL     1     118.751 179.110 124.155  1.00  0.00     0.041 C 
ATOM      7  O   UNL     1     119.467 179.064 123.120  1.00  0.00    -0.550 OA
ATOM      8  O   UNL     1     117.367 179.128 124.034  1.00  0.00    -0.550 OA
ENDBRANCH   5   6
ENDBRANCH   4   5
ENDBRANCH   3   4
ENDBRANCH   2   3
ENDBRANCH   1   2
BRANCH   1   9
ATOM      9  C   UNL     1     123.424 178.866 128.135  1.00  0.00     0.000 C 
BRANCH   9  10
ATOM     10  C   UNL     1     123.334 179.316 126.669  1.00  0.00    -0.000 C 
BRANCH  10  11
ATOM     11  C   UNL     1     123.901 178.245 125.729  1.00  0.00    -0.000 C 
BRANCH  11  12
ATOM     12  C   UNL     1     122.824 177.738 124.759  1.00  0.00    -0.000 C 
BRANCH  12  13
ATOM     13  C   UNL     1     122.680 176.209 124.782  1.00  0.00    -0.003 C 
ATOM     14  C   UNL     1     122.479 175.656 126.194  1.00  0.00     0.004 C 
ENDBRANCH  12  13
ENDBRANCH  11  12
ENDBRANCH  10  11
ENDBRANCH   9  10
ENDBRANCH   1   9
TORSDOF 10
ENDMDL
MODEL 6
REMARK VINA RESULT:    -4.390      1.811      3.551
REMARK INTER + INTRA:          -8.237
REMARK INTER:                  -6.824
REMARK INTRA:                  -1.413
REMARK UNBOUND:                -1.281
REMARK SMILES CCCCCCCCCCCC(=O)[O-]
REMARK SMILES IDX 7 1 8 2 9 3 10 4 11 5 12 6 13 7 14 8 6 9 5 10 4 11 3 12 2 13
REMARK SMILES IDX 1 14
REMARK H PARENT
REMARK Flexibility Score: inf
ROOT
ATOM      1  C   UNL     1     122.250 178.560 130.392  1.00  0.00     0.000 C 
ENDROOT
BRANCH   1   2
ATOM      2  C   UNL     1     121.887 178.999 128.965  1.00  0.00     0.000 C 
BRANCH   2   3
ATOM      3  C   UNL     1     123.040 178.715 127.994  1.00  0.00     0.000 C 
BRANCH   3   4
ATOM      4  C   UNL     1     122.688 179.178 126.571  1.00  0.00     0.006 C 
BRANCH   4   5
ATOM      5  C   UNL     1     121.180 179.383 126.384  1.00  0.00     0.053 C 
BRANCH   5   6
ATOM      6  C   UNL     1     120.730 178.979 125.014  1.00  0.00     0.041 C 
ATOM      7  O   UNL     1     119.568 179.262 124.618  1.00  0.00    -0.550 OA
ATOM      8  O   UNL     1     121.583 178.260 124.186  1.00  0.00    -0.550 OA
ENDBRANCH   5   6
ENDBRANCH   4   5
ENDBRANCH   3   4
ENDBRANCH   2   3
ENDBRANCH   1   2
BRANCH   1   9
ATOM      9  C   UNL     1     122.313 177.032 130.543  1.00  0.00     0.000 C 
BRANCH   9  10
ATOM     10  C   UNL     1     121.020 176.440 131.125  1.00  0.00    -0.000 C 
BRANCH  10  11
ATOM     11  C   UNL     1     120.282 175.596 130.078  1.00  0.00    -0.000 C 
BRANCH  11  12
ATOM     12  C   UNL     1     119.104 176.375 129.474  1.00  0.00    -0.000 C 
BRANCH  12  13
ATOM     13  C   UNL     1     119.246 176.578 127.958  1.00  0.00    -0.003 C 
ATOM     14  C   UNL     1     120.477 175.879 127.381  1.00  0.00     0.004 C 
ENDBRANCH  12  13
ENDBRANCH  11  12
ENDBRANCH  10  11
ENDBRANCH   9  10
ENDBRANCH   1   9
TORSDOF 10
ENDMDL
MODEL 7
REMARK VINA RESULT:    -4.381      1.547      3.303
REMARK INTER + INTRA:          -8.223
REMARK INTER:                  -6.640
REMARK INTRA:                  -1.583
REMARK UNBOUND:                -1.281
REMARK SMILES CCCCCCCCCCCC(=O)[O-]
REMARK SMILES IDX 7 1 8 2 9 3 10 4 11 5 12 6 13 7 14 8 6 9 5 10 4 11 3 12 2 13
REMARK SMILES IDX 1 14
REMARK H PARENT
REMARK Flexibility Score: inf
ROOT
ATOM      1  C   UNL     1     121.371 175.943 129.150  1.00  0.00     0.000 C 
ENDROOT
BRANCH   1   2
ATOM      2  C   UNL     1     120.030 176.450 129.701  1.00  0.00     0.000 C 
BRANCH   2   3
ATOM      3  C   UNL     1     119.132 176.967 128.569  1.00  0.00     0.000 C 
BRANCH   3   4
ATOM      4  C   UNL     1     119.974 177.540 127.418  1.00  0.00     0.006 C 
BRANCH   4   5
ATOM      5  C   UNL     1     119.682 179.025 127.169  1.00  0.00     0.053 C 
BRANCH   5   6
ATOM      6  C   UNL     1     119.625 179.343 125.707  1.00  0.00     0.041 C 
ATOM      7  O   UNL     1     118.658 178.942 125.008  1.00  0.00    -0.550 OA
ATOM      8  O   UNL     1     120.658 180.054 125.109  1.00  0.00    -0.550 OA
ENDBRANCH   5   6
ENDBRANCH   4   5
ENDBRANCH   3   4
ENDBRANCH   2   3
ENDBRANCH   1   2
BRANCH   1   9
ATOM      9  C   UNL     1     122.579 176.557 129.876  1.00  0.00     0.000 C 
BRANCH   9  10
ATOM     10  C   UNL     1     122.220 177.836 130.647  1.00  0.00    -0.000 C 
BRANCH  10  11
ATOM     11  C   UNL     1     122.461 179.083 129.787  1.00  0.00    -0.000 C 
BRANCH  11  12
ATOM     12  C   UNL     1     123.703 178.907 128.900  1.00  0.00    -0.000 C 
BRANCH  12  13
ATOM     13  C   UNL     1     123.447 179.307 127.440  1.00  0.00    -0.003 C 
ATOM     14  C   UNL     1     123.587 178.133 126.471  1.00  0.00     0.004 C 
ENDBRANCH  12  13
ENDBRANCH  11  12
ENDBRANCH  10  11
ENDBRANCH   9  10
ENDBRANCH   1   9
TORSDOF 10
ENDMDL
MODEL 8
REMARK VINA RESULT:    -4.380      1.333      2.292
REMARK INTER + INTRA:          -8.222
REMARK INTER:                  -6.549
REMARK INTRA:                  -1.673
REMARK UNBOUND:                -1.281
REMARK SMILES CCCCCCCCCCCC(=O)[O-]
REMARK SMILES IDX 7 1 8 2 9 3 10 4 11 5 12 6 13 7 14 8 6 9 5 10 4 11 3 12 2 13
REMARK SMILES IDX 1 14
REMARK H PARENT
REMARK Flexibility Score: inf
ROOT
ATOM      1  C   UNL     1     123.601 178.616 127.273  1.00  0.00     0.000 C 
ENDROOT
BRANCH   1   2
ATOM      2  C   UNL     1     122.586 179.195 126.275  1.00  0.00     0.000 C 
BRANCH   2   3
ATOM      3  C   UNL     1     122.426 178.272 125.060  1.00  0.00     0.000 C 
BRANCH   3   4
ATOM      4  C   UNL     1     121.194 178.666 124.229  1.00  0.00     0.006 C 
BRANCH   4   5
ATOM      5  C   UNL     1     120.318 179.701 124.946  1.00  0.00     0.053 C 
BRANCH   5   6
ATOM      6  C   UNL     1     118.859 179.443 124.724  1.00  0.00     0.041 C 
ATOM      7  O   UNL     1     118.453 179.007 123.615  1.00  0.00    -0.550 OA
ATOM      8  O   UNL     1     117.943 179.716 125.733  1.00  0.00    -0.550 OA
ENDBRANCH   5   6
ENDBRANCH   4   5
ENDBRANCH   3   4
ENDBRANCH   2   3
ENDBRANCH   1   2
BRANCH   1   9
ATOM      9  C   UNL     1     123.044 178.534 128.703  1.00  0.00     0.000 C 
BRANCH   9  10
ATOM     10  C   UNL     1     121.530 178.787 128.765  1.00  0.00    -0.000 C 
BRANCH  10  11
ATOM     11  C   UNL     1     120.758 177.469 128.905  1.00  0.00    -0.000 C 
BRANCH  11  12
ATOM     12  C   UNL     1     119.524 177.455 127.992  1.00  0.00    -0.000 C 
BRANCH  12  13
ATOM     13  C   UNL     1     119.659 176.457 126.832  1.00  0.00    -0.003 C 
ATOM     14  C   UNL     1     120.836 175.498 127.012  1.00  0.00     0.004 C 
ENDBRANCH  12  13
ENDBRANCH  11  12
ENDBRANCH  10  11
ENDBRANCH   9  10
ENDBRANCH   1   9
TORSDOF 10
ENDMDL
MODEL 9
REMARK VINA RESULT:    -4.336      1.763      3.622
REMARK INTER + INTRA:          -8.152
REMARK INTER:                  -7.104
REMARK INTRA:                  -1.048
REMARK UNBOUND:                -1.281
REMARK SMILES CCCCCCCCCCCC(=O)[O-]
REMARK SMILES IDX 7 1 8 2 9 3 10 4 11 5 12 6 13 7 14 8 6 9 5 10 4 11 3 12 2 13
REMARK SMILES IDX 1 14
REMARK H PARENT
REMARK Flexibility Score: inf
ROOT
ATOM      1  C   UNL     1     118.681 176.750 129.118  1.00  0.00     0.000 C 
ENDROOT
BRANCH   1   2
ATOM      2  C   UNL     1     119.392 176.151 127.896  1.00  0.00     0.000 C 
BRANCH   2   3
ATOM      3  C   UNL     1     119.308 177.099 126.693  1.00  0.00     0.000 C 
BRANCH   3   4
ATOM      4  C   UNL     1     119.572 178.552 127.118  1.00  0.00     0.006 C 
BRANCH   4   5
ATOM      5  C   UNL     1     118.854 179.561 126.213  1.00  0.00     0.053 C 
BRANCH   5   6
ATOM      6  C   UNL     1     119.211 179.368 124.772  1.00  0.00     0.041 C 
ATOM      7  O   UNL     1     120.394 179.551 124.381  1.00  0.00    -0.550 OA
ATOM      8  O   UNL     1     118.229 179.018 123.853  1.00  0.00    -0.550 OA
ENDBRANCH   5   6
ENDBRANCH   4   5
ENDBRANCH   3   4
ENDBRANCH   2   3
ENDBRANCH   1   2
BRANCH   1   9
ATOM      9  C   UNL     1     118.893 175.919 130.393  1.00  0.00     0.000 C 
BRANCH   9  10
ATOM     10  C   UNL     1     120.366 175.545 130.619  1.00  0.00    -0.000 C 
BRANCH  10  11
ATOM     11  C   UNL     1     121.168 176.751 131.123  1.00  0.00    -0.000 C 
BRANCH  11  12
ATOM     12  C   UNL     1     122.310 177.096 130.155  1.00  0.00    -0.000 C 
BRANCH  12  13
ATOM     13  C   UNL     1     122.229 178.540 129.637  1.00  0.00    -0.003 C 
ATOM     14  C   UNL     1     123.583 179.080 129.176  1.00  0.00     0.004 C 
ENDBRANCH  12  13
ENDBRANCH  11  12
ENDBRANCH  10  11
ENDBRANCH   9  10
ENDBRANCH   1   9
TORSDOF 10
ENDMDL
