MODEL 1
REMARK VINA RESULT:    -1.893      0.000      0.000
REMARK INTER + INTRA:          -2.573
REMARK INTER:                  -2.280
REMARK INTRA:                  -0.293
REMARK UNBOUND:                -0.293
REMARK SMILES O=c1c(O)c(-c2ccc(O)c(O)c2)oc2cc(O)cc(O)c12
REMARK SMILES IDX 5 1 3 2 2 3 1 4 22 5 20 6 19 7 17 8 16 9 15 10 14 11 6 12
REMARK SMILES IDX 7 13 8 14 9 15 13 16 11 17 10 18 12 20 4 22 21 24 18 26
REMARK H PARENT 10 19 12 21 4 23 21 25 18 27
REMARK Flexibility Score: inf
ROOT
ATOM      1  C   UNL     1      49.448  -8.111  17.697  1.00  0.00     0.180 A 
ATOM      2  C   UNL     1      48.693  -8.226  18.878  1.00  0.00     0.208 A 
ATOM      3  C   UNL     1      47.299  -8.361  18.784  1.00  0.00     0.238 A 
ATOM      4  O   UNL     1      46.638  -8.537  19.840  1.00  0.00    -0.285 OA
ATOM      5  C   UNL     1      46.670  -8.323  17.514  1.00  0.00     0.111 A 
ATOM      6  C   UNL     1      45.260  -8.406  17.304  1.00  0.00     0.134 A 
ATOM      7  C   UNL     1      44.760  -8.466  15.997  1.00  0.00     0.093 A 
ATOM      8  C   UNL     1      45.614  -8.381  14.894  1.00  0.00     0.123 A 
ATOM      9  C   UNL     1      46.985  -8.244  15.090  1.00  0.00     0.094 A 
ATOM     10  C   UNL     1      47.518  -8.222  16.381  1.00  0.00     0.146 A 
ATOM     11  O   UNL     1      48.834  -8.112  16.521  1.00  0.00    -0.452 OA
ENDROOT
BRANCH   1  12
ATOM     12  C   UNL     1      50.923  -7.980  17.715  1.00  0.00     0.025 A 
ATOM     13  C   UNL     1      51.719  -9.115  17.495  1.00  0.00     0.016 A 
ATOM     14  C   UNL     1      53.112  -9.020  17.528  1.00  0.00     0.051 A 
ATOM     15  C   UNL     1      53.731  -7.795  17.797  1.00  0.00     0.157 A 
ATOM     16  C   UNL     1      51.546  -6.753  18.005  1.00  0.00     0.062 A 
ATOM     17  C   UNL     1      52.945  -6.656  18.041  1.00  0.00     0.158 A 
BRANCH  15  18
ATOM     18  O   UNL     1      55.123  -7.729  17.821  1.00  0.00    -0.504 OA
ATOM     19  H   UNL     1      55.676  -7.719  16.972  1.00  0.00     0.293 HD
ENDBRANCH  15  18
BRANCH  17  20
ATOM     20  O   UNL     1      53.555  -5.434  18.324  1.00  0.00    -0.504 OA
ATOM     21  H   UNL     1      54.312  -5.362  18.993  1.00  0.00     0.293 HD
ENDBRANCH  17  20
ENDBRANCH   1  12
BRANCH   2  22
ATOM     22  O   UNL     1      49.324  -8.184  20.124  1.00  0.00    -0.502 OA
ATOM     23  H   UNL     1      49.716  -9.008  20.563  1.00  0.00     0.293 HD
ENDBRANCH   2  22
BRANCH   6  24
ATOM     24  O   UNL     1      44.313  -8.407  18.332  1.00  0.00    -0.507 OA
ATOM     25  H   UNL     1      44.439  -7.976  19.235  1.00  0.00     0.293 HD
ENDBRANCH   6  24
BRANCH   8  26
ATOM     26  O   UNL     1      45.105  -8.423  13.598  1.00  0.00    -0.508 OA
ATOM     27  H   UNL     1      45.276  -7.675  12.936  1.00  0.00     0.293 HD
ENDBRANCH   8  26
TORSDOF 6
ENDMDL
MODEL 2
REMARK VINA RESULT:    -1.239      1.623      2.976
REMARK INTER + INTRA:          -1.785
REMARK INTER:                  -1.827
REMARK INTRA:                   0.042
REMARK UNBOUND:                -0.293
REMARK SMILES O=c1c(O)c(-c2ccc(O)c(O)c2)oc2cc(O)cc(O)c12
REMARK SMILES IDX 5 1 3 2 2 3 1 4 22 5 20 6 19 7 17 8 16 9 15 10 14 11 6 12
REMARK SMILES IDX 7 13 8 14 9 15 13 16 11 17 10 18 12 20 4 22 21 24 18 26
REMARK H PARENT 10 19 12 21 4 23 21 25 18 27
REMARK Flexibility Score: inf
ROOT
ATOM      1  C   UNL     1      48.820  -7.681  18.026  1.00  0.00     0.180 A 
ATOM      2  C   UNL     1      48.495  -7.326  16.704  1.00  0.00     0.208 A 
ATOM      3  C   UNL     1      47.156  -7.402  16.290  1.00  0.00     0.238 A 
ATOM      4  O   UNL     1      46.861  -7.013  15.130  1.00  0.00    -0.285 OA
ATOM      5  C   UNL     1      46.166  -7.886  17.181  1.00  0.00     0.111 A 
ATOM      6  C   UNL     1      44.786  -8.047  16.854  1.00  0.00     0.134 A 
ATOM      7  C   UNL     1      43.881  -8.433  17.850  1.00  0.00     0.093 A 
ATOM      8  C   UNL     1      44.316  -8.725  19.146  1.00  0.00     0.123 A 
ATOM      9  C   UNL     1      45.668  -8.624  19.460  1.00  0.00     0.094 A 
ATOM     10  C   UNL     1      46.590  -8.203  18.498  1.00  0.00     0.146 A 
ATOM     11  O   UNL     1      47.866  -8.100  18.848  1.00  0.00    -0.452 OA
ENDROOT
BRANCH   1  12
ATOM     12  C   UNL     1      50.207  -7.614  18.541  1.00  0.00     0.025 A 
ATOM     13  C   UNL     1      50.699  -8.661  19.335  1.00  0.00     0.016 A 
ATOM     14  C   UNL     1      51.997  -8.609  19.849  1.00  0.00     0.051 A 
ATOM     15  C   UNL     1      52.816  -7.505  19.593  1.00  0.00     0.157 A 
ATOM     16  C   UNL     1      51.024  -6.494  18.300  1.00  0.00     0.062 A 
ATOM     17  C   UNL     1      52.327  -6.439  18.818  1.00  0.00     0.158 A 
BRANCH  15  18
ATOM     18  O   UNL     1      54.107  -7.482  20.117  1.00  0.00    -0.504 OA
ATOM     19  H   UNL     1      54.882  -7.053  19.623  1.00  0.00     0.293 HD
ENDBRANCH  15  18
BRANCH  17  20
ATOM     20  O   UNL     1      53.132  -5.329  18.570  1.00  0.00    -0.504 OA
ATOM     21  H   UNL     1      54.086  -5.279  18.907  1.00  0.00     0.293 HD
ENDBRANCH  17  20
ENDBRANCH   1  12
BRANCH   2  22
ATOM     22  O   UNL     1      49.496  -6.925  15.816  1.00  0.00    -0.502 OA
ATOM     23  H   UNL     1      49.353  -6.194  15.129  1.00  0.00     0.293 HD
ENDBRANCH   2  22
BRANCH   6  24
ATOM     24  O   UNL     1      44.259  -7.868  15.571  1.00  0.00    -0.507 OA
ATOM     25  H   UNL     1      44.613  -7.218  14.886  1.00  0.00     0.293 HD
ENDBRANCH   6  24
BRANCH   8  26
ATOM     26  O   UNL     1      43.410  -9.125  20.125  1.00  0.00    -0.508 OA
ATOM     27  H   UNL     1      43.717  -9.578  20.979  1.00  0.00     0.293 HD
ENDBRANCH   8  26
TORSDOF 6
ENDMDL
MODEL 3
REMARK VINA RESULT:     0.513      1.523      6.893
REMARK INTER + INTRA:           0.325
REMARK INTER:                   0.158
REMARK INTRA:                   0.167
REMARK UNBOUND:                -0.293
REMARK SMILES O=c1c(O)c(-c2ccc(O)c(O)c2)oc2cc(O)cc(O)c12
REMARK SMILES IDX 5 1 3 2 2 3 1 4 22 5 20 6 19 7 17 8 16 9 15 10 14 11 6 12
REMARK SMILES IDX 7 13 8 14 9 15 13 16 11 17 10 18 12 20 4 22 21 24 18 26
REMARK H PARENT 10 19 12 21 4 23 21 25 18 27
REMARK Flexibility Score: inf
ROOT
ATOM      1  C   UNL     1      50.091  -8.005  18.027  1.00  0.00     0.180 A 
ATOM      2  C   UNL     1      50.604  -7.276  19.115  1.00  0.00     0.208 A 
ATOM      3  C   UNL     1      51.986  -7.043  19.187  1.00  0.00     0.238 A 
ATOM      4  O   UNL     1      52.429  -6.329  20.122  1.00  0.00    -0.285 OA
ATOM      5  C   UNL     1      52.846  -7.589  18.201  1.00  0.00     0.111 A 
ATOM      6  C   UNL     1      54.268  -7.454  18.199  1.00  0.00     0.134 A 
ATOM      7  C   UNL     1      55.005  -7.945  17.115  1.00  0.00     0.093 A 
ATOM      8  C   UNL     1      54.380  -8.623  16.065  1.00  0.00     0.123 A 
ATOM      9  C   UNL     1      53.001  -8.808  16.086  1.00  0.00     0.094 A 
ATOM     10  C   UNL     1      52.232  -8.295  17.134  1.00  0.00     0.146 A 
ATOM     11  O   UNL     1      50.917  -8.475  17.102  1.00  0.00    -0.452 OA
ENDROOT
BRANCH   1  12
ATOM     12  C   UNL     1      48.643  -8.278  17.875  1.00  0.00     0.025 A 
ATOM     13  C   UNL     1      48.053  -8.180  16.606  1.00  0.00     0.016 A 
ATOM     14  C   UNL     1      46.685  -8.413  16.441  1.00  0.00     0.051 A 
ATOM     15  C   UNL     1      45.884  -8.731  17.543  1.00  0.00     0.157 A 
ATOM     16  C   UNL     1      47.833  -8.578  18.986  1.00  0.00     0.062 A 
ATOM     17  C   UNL     1      46.459  -8.810  18.823  1.00  0.00     0.158 A 
BRANCH  15  18
ATOM     18  O   UNL     1      44.523  -8.961  17.348  1.00  0.00    -0.504 OA
ATOM     19  H   UNL     1      43.842  -8.816  18.084  1.00  0.00     0.293 HD
ENDBRANCH  15  18
BRANCH  17  20
ATOM     20  O   UNL     1      45.665  -9.112  19.928  1.00  0.00    -0.504 OA
ATOM     21  H   UNL     1      44.737  -9.504  19.822  1.00  0.00     0.293 HD
ENDBRANCH  17  20
ENDBRANCH   1  12
BRANCH   2  22
ATOM     22  O   UNL     1      49.748  -6.812  20.118  1.00  0.00    -0.502 OA
ATOM     23  H   UNL     1      48.950  -7.345  20.442  1.00  0.00     0.293 HD
ENDBRANCH   2  22
BRANCH   6  24
ATOM     24  O   UNL     1      55.001  -6.874  19.238  1.00  0.00    -0.507 OA
ATOM     25  H   UNL     1      54.775  -6.000  19.688  1.00  0.00     0.293 HD
ENDBRANCH   6  24
BRANCH   8  26
ATOM     26  O   UNL     1      55.124  -9.124  15.000  1.00  0.00    -0.508 OA
ATOM     27  H   UNL     1      55.243 -10.121  14.857  1.00  0.00     0.293 HD
ENDBRANCH   8  26
TORSDOF 6
ENDMDL
MODEL 4
REMARK VINA RESULT:     1.013      1.488      6.887
REMARK INTER + INTRA:           0.927
REMARK INTER:                   0.768
REMARK INTRA:                   0.159
REMARK UNBOUND:                -0.293
REMARK SMILES O=c1c(O)c(-c2ccc(O)c(O)c2)oc2cc(O)cc(O)c12
REMARK SMILES IDX 5 1 3 2 2 3 1 4 22 5 20 6 19 7 17 8 16 9 15 10 14 11 6 12
REMARK SMILES IDX 7 13 8 14 9 15 13 16 11 17 10 18 12 20 4 22 21 24 18 26
REMARK H PARENT 10 19 12 21 4 23 21 25 18 27
REMARK Flexibility Score: inf
ROOT
ATOM      1  C   UNL     1      50.056  -7.856  18.006  1.00  0.00     0.180 A 
ATOM      2  C   UNL     1      50.563  -7.123  19.094  1.00  0.00     0.208 A 
ATOM      3  C   UNL     1      51.948  -6.917  19.189  1.00  0.00     0.238 A 
ATOM      4  O   UNL     1      52.387  -6.198  20.124  1.00  0.00    -0.285 OA
ATOM      5  C   UNL     1      52.816  -7.495  18.230  1.00  0.00     0.111 A 
ATOM      6  C   UNL     1      54.239  -7.390  18.254  1.00  0.00     0.134 A 
ATOM      7  C   UNL     1      54.988  -7.912  17.192  1.00  0.00     0.093 A 
ATOM      8  C   UNL     1      54.370  -8.592  16.139  1.00  0.00     0.123 A 
ATOM      9  C   UNL     1      52.987  -8.748  16.136  1.00  0.00     0.094 A 
ATOM     10  C   UNL     1      52.209  -8.204  17.160  1.00  0.00     0.146 A 
ATOM     11  O   UNL     1      50.891  -8.358  17.105  1.00  0.00    -0.452 OA
ENDROOT
BRANCH   1  12
ATOM     12  C   UNL     1      48.607  -8.102  17.829  1.00  0.00     0.025 A 
ATOM     13  C   UNL     1      47.826  -8.454  18.941  1.00  0.00     0.016 A 
ATOM     14  C   UNL     1      46.461  -8.711  18.794  1.00  0.00     0.051 A 
ATOM     15  C   UNL     1      45.858  -8.637  17.534  1.00  0.00     0.157 A 
ATOM     16  C   UNL     1      48.004  -8.049  16.558  1.00  0.00     0.062 A 
ATOM     17  C   UNL     1      46.634  -8.309  16.409  1.00  0.00     0.158 A 
BRANCH  15  18
ATOM     18  O   UNL     1      44.493  -8.896  17.418  1.00  0.00    -0.504 OA
ATOM     19  H   UNL     1      43.830  -8.180  17.147  1.00  0.00     0.293 HD
ENDBRANCH  15  18
BRANCH  17  20
ATOM     20  O   UNL     1      46.043  -8.248  15.148  1.00  0.00    -0.504 OA
ATOM     21  H   UNL     1      46.261  -8.925  14.426  1.00  0.00     0.293 HD
ENDBRANCH  17  20
ENDBRANCH   1  12
BRANCH   2  22
ATOM     22  O   UNL     1      49.697  -6.626  20.072  1.00  0.00    -0.502 OA
ATOM     23  H   UNL     1      49.902  -6.689  21.062  1.00  0.00     0.293 HD
ENDBRANCH   2  22
BRANCH   6  24
ATOM     24  O   UNL     1      54.964  -6.810  19.299  1.00  0.00    -0.507 OA
ATOM     25  H   UNL     1      55.822  -7.177  19.681  1.00  0.00     0.293 HD
ENDBRANCH   6  24
BRANCH   8  26
ATOM     26  O   UNL     1      55.124  -9.124  15.097  1.00  0.00    -0.508 OA
ATOM     27  H   UNL     1      56.110  -9.336  15.209  1.00  0.00     0.293 HD
ENDBRANCH   8  26
TORSDOF 6
ENDMDL
