MODEL 1
REMARK VINA RESULT:     8.917      0.000      0.000
REMARK INTER + INTRA:          20.086
REMARK INTER:                  13.087
REMARK INTRA:                   6.999
REMARK UNBOUND:                 6.999
REMARK SMILES O=c1c(O[C@@H]2O[C@H](CO)[C@@H](O)[C@H](O)[C@H]2O)c(-c2ccc(O)c(O)c2)oc2cc(O)cc(O)c12
REMARK SMILES IDX 4 1 3 2 16 3 25 4 2 5 26 6 1 7 33 8 27 9 31 10 28 11 30 12
REMARK SMILES IDX 17 13 18 14 19 15 20 16 24 17 22 18 21 19 23 21 32 23 29 25
REMARK SMILES IDX 5 27 14 28 6 29 12 30 7 31 10 32 15 33 13 35 8 37 9 38 11 40
REMARK H PARENT 21 20 23 22 32 24 29 26 15 34 13 36 9 39 11 41
REMARK Flexibility Score: inf
ROOT
ATOM      1  O   UNL     1      94.874 100.768  97.615  1.00  0.00    -0.454 OA
ENDROOT
BRANCH   1   2
ATOM      2  C   UNL     1      94.410 100.838  98.945  1.00  0.00     0.214 A 
ATOM      3  C   UNL     1      93.813  99.691  99.500  1.00  0.00     0.180 A 
ATOM      4  O   UNL     1      93.450  99.674 100.777  1.00  0.00    -0.452 OA
ATOM      5  C   UNL     1      94.546 101.983  99.762  1.00  0.00     0.239 A 
ATOM      6  C   UNL     1      93.586 100.716 101.586  1.00  0.00     0.146 A 
ATOM      7  O   UNL     1      95.019 103.048  99.287  1.00  0.00    -0.285 OA
ATOM      8  C   UNL     1      94.136 101.929 101.110  1.00  0.00     0.111 A 
ATOM      9  C   UNL     1      93.173 100.603 102.916  1.00  0.00     0.094 A 
ATOM     10  C   UNL     1      94.254 103.026 101.999  1.00  0.00     0.134 A 
ATOM     11  C   UNL     1      93.294 101.684 103.790  1.00  0.00     0.123 A 
ATOM     12  C   UNL     1      93.829 102.892 103.330  1.00  0.00     0.093 A 
BRANCH   3  13
ATOM     13  C   UNL     1      93.617  98.462  98.702  1.00  0.00     0.025 A 
ATOM     14  C   UNL     1      93.034  98.513  97.425  1.00  0.00     0.016 A 
ATOM     15  C   UNL     1      92.877  97.345  96.677  1.00  0.00     0.051 A 
ATOM     16  C   UNL     1      93.298  96.110  97.186  1.00  0.00     0.157 A 
ATOM     17  C   UNL     1      94.031  97.227  99.218  1.00  0.00     0.062 A 
ATOM     18  C   UNL     1      93.904  96.056  98.461  1.00  0.00     0.158 A 
BRANCH  16  19
ATOM     19  O   UNL     1      93.095  94.975  96.400  1.00  0.00    -0.504 OA
ATOM     20  H   UNL     1      92.351  94.309  96.559  1.00  0.00     0.293 HD
ENDBRANCH  16  19
BRANCH  18  21
ATOM     21  O   UNL     1      94.415  94.875  98.997  1.00  0.00    -0.504 OA
ATOM     22  H   UNL     1      94.978  94.221  98.476  1.00  0.00     0.293 HD
ENDBRANCH  18  21
ENDBRANCH   3  13
BRANCH  10  23
ATOM     23  O   UNL     1      94.793 104.242 101.575  1.00  0.00    -0.507 OA
ATOM     24  H   UNL     1      94.275 104.873 100.975  1.00  0.00     0.293 HD
ENDBRANCH  10  23
BRANCH  11  25
ATOM     25  O   UNL     1      92.875 101.551 105.112  1.00  0.00    -0.508 OA
ATOM     26  H   UNL     1      92.944 100.668 105.602  1.00  0.00     0.293 HD
ENDBRANCH  11  25
ENDBRANCH   1   2
BRANCH   1  27
ATOM     27  C   UNL     1      94.962  99.596  96.804  1.00  0.00     0.339 C 
ATOM     28  C   UNL     1      94.651  99.984  95.341  1.00  0.00     0.214 C 
ATOM     29  O   UNL     1      96.270  99.062  96.886  1.00  0.00    -0.332 OA
ATOM     30  C   UNL     1      95.409  99.068  94.342  1.00  0.00     0.180 C 
ATOM     31  C   UNL     1      96.306  97.750  96.338  1.00  0.00     0.179 C 
ATOM     32  C   UNL     1      95.621  97.664  94.932  1.00  0.00     0.177 C 
BRANCH  28  33
ATOM     33  O   UNL     1      93.264  99.892  95.132  1.00  0.00    -0.384 OA
ATOM     34  H   UNL     1      92.828 100.389  95.873  1.00  0.00     0.211 HD
ENDBRANCH  28  33
BRANCH  30  35
ATOM     35  O   UNL     1      96.664  99.626  94.036  1.00  0.00    -0.387 OA
ATOM     36  H   UNL     1      97.133  98.978  93.449  1.00  0.00     0.211 HD
ENDBRANCH  30  35
BRANCH  31  37
ATOM     37  C   UNL     1      97.773  97.295  96.254  1.00  0.00     0.191 C 
BRANCH  37  38
ATOM     38  O   UNL     1      97.956  96.369  95.215  1.00  0.00    -0.394 OA
ATOM     39  H   UNL     1      98.914  96.409  94.954  1.00  0.00     0.210 HD
ENDBRANCH  37  38
ENDBRANCH  31  37
BRANCH  32  40
ATOM     40  O   UNL     1      94.371  97.028  95.042  1.00  0.00    -0.387 OA
ATOM     41  H   UNL     1      94.405  96.466  95.862  1.00  0.00     0.211 HD
ENDBRANCH  32  40
ENDBRANCH   1  27
TORSDOF 12
ENDMDL
MODEL 2
REMARK VINA RESULT:    10.725      1.065      1.939
REMARK INTER + INTRA:          22.740
REMARK INTER:                  11.664
REMARK INTRA:                  11.076
REMARK UNBOUND:                 6.999
REMARK SMILES O=c1c(O[C@@H]2O[C@H](CO)[C@@H](O)[C@H](O)[C@H]2O)c(-c2ccc(O)c(O)c2)oc2cc(O)cc(O)c12
REMARK SMILES IDX 4 1 3 2 16 3 25 4 2 5 26 6 1 7 33 8 27 9 31 10 28 11 30 12
REMARK SMILES IDX 17 13 18 14 19 15 20 16 24 17 22 18 21 19 23 21 32 23 29 25
REMARK SMILES IDX 5 27 14 28 6 29 12 30 7 31 10 32 15 33 13 35 8 37 9 38 11 40
REMARK H PARENT 21 20 23 22 32 24 29 26 15 34 13 36 9 39 11 41
REMARK Flexibility Score: inf
ROOT
ATOM      1  O   UNL     1      94.932 100.848  97.114  1.00  0.00    -0.454 OA
ENDROOT
BRANCH   1   2
ATOM      2  C   UNL     1      94.455 100.859  98.442  1.00  0.00     0.214 A 
ATOM      3  C   UNL     1      93.792  99.712  98.917  1.00  0.00     0.180 A 
ATOM      4  O   UNL     1      93.412  99.634 100.187  1.00  0.00    -0.452 OA
ATOM      5  C   UNL     1      94.640 101.941  99.331  1.00  0.00     0.239 A 
ATOM      6  C   UNL     1      93.592 100.615 101.061  1.00  0.00     0.146 A 
ATOM      7  O   UNL     1      95.175 103.007  98.929  1.00  0.00    -0.285 OA
ATOM      8  C   UNL     1      94.211 101.825 100.669  1.00  0.00     0.111 A 
ATOM      9  C   UNL     1      93.156 100.440 102.378  1.00  0.00     0.094 A 
ATOM     10  C   UNL     1      94.374 102.856 101.627  1.00  0.00     0.134 A 
ATOM     11  C   UNL     1      93.322 101.457 103.319  1.00  0.00     0.123 A 
ATOM     12  C   UNL     1      93.925 102.661 102.942  1.00  0.00     0.093 A 
BRANCH   3  13
ATOM     13  C   UNL     1      93.542  98.548  98.040  1.00  0.00     0.025 A 
ATOM     14  C   UNL     1      93.384  98.706  96.654  1.00  0.00     0.016 A 
ATOM     15  C   UNL     1      93.170  97.593  95.840  1.00  0.00     0.051 A 
ATOM     16  C   UNL     1      93.113  96.307  96.390  1.00  0.00     0.157 A 
ATOM     17  C   UNL     1      93.475  97.263  98.597  1.00  0.00     0.062 A 
ATOM     18  C   UNL     1      93.293  96.140  97.782  1.00  0.00     0.158 A 
BRANCH  16  19
ATOM     19  O   UNL     1      92.876  95.235  95.528  1.00  0.00    -0.504 OA
ATOM     20  H   UNL     1      93.568  94.536  95.300  1.00  0.00     0.293 HD
ENDBRANCH  16  19
BRANCH  18  21
ATOM     21  O   UNL     1      93.323  94.884  98.387  1.00  0.00    -0.504 OA
ATOM     22  H   UNL     1      92.811  94.654  99.224  1.00  0.00     0.293 HD
ENDBRANCH  18  21
ENDBRANCH   3  13
BRANCH  10  23
ATOM     23  O   UNL     1      94.982 104.065 101.286  1.00  0.00    -0.507 OA
ATOM     24  H   UNL     1      95.824 104.386 101.747  1.00  0.00     0.293 HD
ENDBRANCH  10  23
BRANCH  11  25
ATOM     25  O   UNL     1      92.880 101.263 104.626  1.00  0.00    -0.508 OA
ATOM     26  H   UNL     1      92.735 100.336 105.003  1.00  0.00     0.293 HD
ENDBRANCH  11  25
ENDBRANCH   1   2
BRANCH   1  27
ATOM     27  C   UNL     1      95.821  99.891  96.536  1.00  0.00     0.339 C 
ATOM     28  C   UNL     1      96.358  98.975  97.658  1.00  0.00     0.214 C 
ATOM     29  O   UNL     1      95.123  99.115  95.581  1.00  0.00    -0.332 OA
ATOM     30  C   UNL     1      96.672  97.552  97.122  1.00  0.00     0.180 C 
ATOM     31  C   UNL     1      96.036  98.367  94.786  1.00  0.00     0.179 C 
ATOM     32  C   UNL     1      97.098  97.600  95.645  1.00  0.00     0.177 C 
BRANCH  28  33
ATOM     33  O   UNL     1      97.515  99.557  98.205  1.00  0.00    -0.384 OA
ATOM     34  H   UNL     1      97.224 100.091  98.991  1.00  0.00     0.211 HD
ENDBRANCH  28  33
BRANCH  30  35
ATOM     35  O   UNL     1      95.535  96.732  97.240  1.00  0.00    -0.387 OA
ATOM     36  H   UNL     1      94.935  97.166  97.901  1.00  0.00     0.211 HD
ENDBRANCH  30  35
BRANCH  31  37
ATOM     37  C   UNL     1      95.234  97.385  93.913  1.00  0.00     0.191 C 
BRANCH  37  38
ATOM     38  O   UNL     1      95.703  96.072  94.071  1.00  0.00    -0.394 OA
ATOM     39  H   UNL     1      95.256  95.518  93.377  1.00  0.00     0.210 HD
ENDBRANCH  37  38
ENDBRANCH  31  37
BRANCH  32  40
ATOM     40  O   UNL     1      98.345  98.243  95.556  1.00  0.00    -0.387 OA
ATOM     41  H   UNL     1      98.417  98.606  94.633  1.00  0.00     0.211 HD
ENDBRANCH  32  40
ENDBRANCH   1  27
TORSDOF 12
ENDMDL
