MODEL 1
REMARK VINA RESULT:    -5.477      0.000      0.000
REMARK INTER + INTRA:          -6.001
REMARK INTER:                  -5.957
REMARK INTRA:                  -0.044
REMARK UNBOUND:                -0.044
REMARK SMILES COc1cc2ccc(=O)oc2cc1O
REMARK SMILES IDX 3 1 13 2 12 3 11 4 5 5 4 6 6 7 7 8 8 9 9 10 10 11 2 12 1 13
REMARK SMILES IDX 14 14
REMARK H PARENT 14 15
REMARK Flexibility Score: inf
ROOT
ATOM      1  C   UNL     1      17.696 -32.672 -21.260  1.00  0.00     0.161 A 
ATOM      2  C   UNL     1      18.906 -33.037 -21.884  1.00  0.00     0.161 A 
ATOM      3  C   UNL     1      19.698 -32.066 -22.508  1.00  0.00     0.098 A 
ATOM      4  C   UNL     1      19.298 -30.728 -22.520  1.00  0.00     0.142 A 
ATOM      5  C   UNL     1      18.089 -30.353 -21.898  1.00  0.00     0.022 A 
ATOM      6  C   UNL     1      17.293 -31.321 -21.272  1.00  0.00     0.062 A 
ATOM      7  C   UNL     1      17.715 -29.005 -21.927  1.00  0.00     0.019 A 
ATOM      8  C   UNL     1      18.541 -28.078 -22.563  1.00  0.00     0.094 A 
ATOM      9  C   UNL     1      19.726 -28.524 -23.157  1.00  0.00     0.336 A 
ATOM     10  O   UNL     1      20.486 -27.703 -23.737  1.00  0.00    -0.246 OA
ATOM     11  O   UNL     1      20.058 -29.811 -23.116  1.00  0.00    -0.423 OA
ENDROOT
BRANCH   1  12
ATOM     12  O   UNL     1      16.927 -33.672 -20.643  1.00  0.00    -0.493 OA
ATOM     13  C   UNL     1      15.923 -33.428 -19.662  1.00  0.00     0.278 C 
ENDBRANCH   1  12
BRANCH   2  14
ATOM     14  O   UNL     1      19.340 -34.362 -21.893  1.00  0.00    -0.504 OA
ATOM     15  H   UNL     1      19.587 -34.844 -22.750  1.00  0.00     0.293 HD
ENDBRANCH   2  14
TORSDOF 2
ENDMDL
MODEL 2
REMARK VINA RESULT:    -5.224      7.509      9.359
REMARK INTER + INTRA:          -5.727
REMARK INTER:                  -5.666
REMARK INTRA:                  -0.061
REMARK UNBOUND:                -0.044
REMARK SMILES COc1cc2ccc(=O)oc2cc1O
REMARK SMILES IDX 3 1 13 2 12 3 11 4 5 5 4 6 6 7 7 8 8 9 9 10 10 11 2 12 1 13
REMARK SMILES IDX 14 14
REMARK H PARENT 14 15
REMARK Flexibility Score: inf
ROOT
ATOM      1  C   UNL     1      11.082 -34.409 -19.048  1.00  0.00     0.161 A 
ATOM      2  C   UNL     1      11.973 -33.378 -19.406  1.00  0.00     0.161 A 
ATOM      3  C   UNL     1      11.481 -32.142 -19.841  1.00  0.00     0.098 A 
ATOM      4  C   UNL     1      10.105 -31.917 -19.924  1.00  0.00     0.142 A 
ATOM      5  C   UNL     1       9.206 -32.943 -19.568  1.00  0.00     0.022 A 
ATOM      6  C   UNL     1       9.693 -34.183 -19.133  1.00  0.00     0.062 A 
ATOM      7  C   UNL     1       7.833 -32.688 -19.663  1.00  0.00     0.019 A 
ATOM      8  C   UNL     1       7.397 -31.438 -20.103  1.00  0.00     0.094 A 
ATOM      9  C   UNL     1       8.348 -30.469 -20.438  1.00  0.00     0.336 A 
ATOM     10  O   UNL     1       7.976 -29.334 -20.837  1.00  0.00    -0.246 OA
ATOM     11  O   UNL     1       9.647 -30.738 -20.339  1.00  0.00    -0.423 OA
ENDROOT
BRANCH   1  12
ATOM     12  O   UNL     1      11.609 -35.637 -18.616  1.00  0.00    -0.493 OA
ATOM     13  C   UNL     1      11.841 -35.982 -17.254  1.00  0.00     0.278 C 
ENDBRANCH   1  12
BRANCH   2  14
ATOM     14  O   UNL     1      13.353 -33.563 -19.336  1.00  0.00    -0.504 OA
ATOM     15  H   UNL     1      13.932 -33.627 -20.165  1.00  0.00     0.293 HD
ENDBRANCH   2  14
TORSDOF 2
ENDMDL
MODEL 3
REMARK VINA RESULT:    -5.202      9.897     10.659
REMARK INTER + INTRA:          -5.702
REMARK INTER:                  -5.658
REMARK INTRA:                  -0.044
REMARK UNBOUND:                -0.044
REMARK SMILES COc1cc2ccc(=O)oc2cc1O
REMARK SMILES IDX 3 1 13 2 12 3 11 4 5 5 4 6 6 7 7 8 8 9 9 10 10 11 2 12 1 13
REMARK SMILES IDX 14 14
REMARK H PARENT 14 15
REMARK Flexibility Score: inf
ROOT
ATOM      1  C   UNL     1      10.199 -33.775 -17.147  1.00  0.00     0.161 A 
ATOM      2  C   UNL     1       9.652 -32.775 -16.319  1.00  0.00     0.161 A 
ATOM      3  C   UNL     1       8.885 -31.742 -16.872  1.00  0.00     0.098 A 
ATOM      4  C   UNL     1       8.654 -31.693 -18.249  1.00  0.00     0.142 A 
ATOM      5  C   UNL     1       9.196 -32.690 -19.086  1.00  0.00     0.022 A 
ATOM      6  C   UNL     1       9.965 -33.725 -18.537  1.00  0.00     0.062 A 
ATOM      7  C   UNL     1       8.948 -32.613 -20.461  1.00  0.00     0.019 A 
ATOM      8  C   UNL     1       8.177 -31.563 -20.960  1.00  0.00     0.094 A 
ATOM      9  C   UNL     1       7.671 -30.611 -20.068  1.00  0.00     0.336 A 
ATOM     10  O   UNL     1       6.973 -29.655 -20.499  1.00  0.00    -0.246 OA
ATOM     11  O   UNL     1       7.923 -30.708 -18.766  1.00  0.00    -0.423 OA
ENDROOT
BRANCH   1  12
ATOM     12  O   UNL     1      10.963 -34.796 -16.559  1.00  0.00    -0.493 OA
ATOM     13  C   UNL     1      11.838 -35.664 -17.273  1.00  0.00     0.278 C 
ENDBRANCH   1  12
BRANCH   2  14
ATOM     14  O   UNL     1       9.861 -32.789 -14.940  1.00  0.00    -0.504 OA
ATOM     15  H   UNL     1      10.589 -33.347 -14.510  1.00  0.00     0.293 HD
ENDBRANCH   2  14
TORSDOF 2
ENDMDL
MODEL 4
REMARK VINA RESULT:    -5.155      9.516     10.179
REMARK INTER + INTRA:          -5.651
REMARK INTER:                  -5.607
REMARK INTRA:                  -0.043
REMARK UNBOUND:                -0.044
REMARK SMILES COc1cc2ccc(=O)oc2cc1O
REMARK SMILES IDX 3 1 13 2 12 3 11 4 5 5 4 6 6 7 7 8 8 9 9 10 10 11 2 12 1 13
REMARK SMILES IDX 14 14
REMARK H PARENT 14 15
REMARK Flexibility Score: inf
ROOT
ATOM      1  C   UNL     1      10.537 -34.196 -17.403  1.00  0.00     0.161 A 
ATOM      2  C   UNL     1      10.618 -34.587 -18.754  1.00  0.00     0.161 A 
ATOM      3  C   UNL     1       9.961 -33.845 -19.743  1.00  0.00     0.098 A 
ATOM      4  C   UNL     1       9.220 -32.711 -19.401  1.00  0.00     0.142 A 
ATOM      5  C   UNL     1       9.133 -32.312 -18.052  1.00  0.00     0.022 A 
ATOM      6  C   UNL     1       9.788 -33.052 -17.058  1.00  0.00     0.062 A 
ATOM      7  C   UNL     1       8.383 -31.173 -17.740  1.00  0.00     0.019 A 
ATOM      8  C   UNL     1       7.749 -30.470 -18.765  1.00  0.00     0.094 A 
ATOM      9  C   UNL     1       7.880 -30.925 -20.080  1.00  0.00     0.336 A 
ATOM     10  O   UNL     1       7.315 -30.305 -21.020  1.00  0.00    -0.246 OA
ATOM     11  O   UNL     1       8.599 -32.012 -20.348  1.00  0.00    -0.423 OA
ENDROOT
BRANCH   1  12
ATOM     12  O   UNL     1      11.208 -34.964 -16.437  1.00  0.00    -0.493 OA
ATOM     13  C   UNL     1      11.134 -34.739 -15.032  1.00  0.00     0.278 C 
ENDBRANCH   1  12
BRANCH   2  14
ATOM     14  O   UNL     1      11.347 -35.713 -19.135  1.00  0.00    -0.504 OA
ATOM     15  H   UNL     1      11.073 -36.651 -18.866  1.00  0.00     0.293 HD
ENDBRANCH   2  14
TORSDOF 2
ENDMDL
MODEL 5
REMARK VINA RESULT:    -5.116      2.165      3.695
REMARK INTER + INTRA:          -5.609
REMARK INTER:                  -5.551
REMARK INTRA:                  -0.057
REMARK UNBOUND:                -0.044
REMARK SMILES COc1cc2ccc(=O)oc2cc1O
REMARK SMILES IDX 3 1 13 2 12 3 11 4 5 5 4 6 6 7 7 8 8 9 9 10 10 11 2 12 1 13
REMARK SMILES IDX 14 14
REMARK H PARENT 14 15
REMARK Flexibility Score: inf
ROOT
ATOM      1  C   UNL     1      18.174 -29.962 -21.819  1.00  0.00     0.161 A 
ATOM      2  C   UNL     1      17.044 -29.125 -21.898  1.00  0.00     0.161 A 
ATOM      3  C   UNL     1      17.118 -27.902 -22.576  1.00  0.00     0.098 A 
ATOM      4  C   UNL     1      18.312 -27.501 -23.181  1.00  0.00     0.142 A 
ATOM      5  C   UNL     1      19.448 -28.333 -23.108  1.00  0.00     0.022 A 
ATOM      6  C   UNL     1      19.378 -29.557 -22.430  1.00  0.00     0.062 A 
ATOM      7  C   UNL     1      20.629 -27.903 -23.724  1.00  0.00     0.019 A 
ATOM      8  C   UNL     1      20.648 -26.676 -24.387  1.00  0.00     0.094 A 
ATOM      9  C   UNL     1      19.482 -25.905 -24.418  1.00  0.00     0.336 A 
ATOM     10  O   UNL     1      19.478 -24.794 -25.012  1.00  0.00    -0.246 OA
ATOM     11  O   UNL     1      18.373 -26.337 -23.825  1.00  0.00    -0.423 OA
ENDROOT
BRANCH   1  12
ATOM     12  O   UNL     1      18.064 -31.182 -21.131  1.00  0.00    -0.493 OA
ATOM     13  C   UNL     1      18.283 -32.462 -21.716  1.00  0.00     0.278 C 
ENDBRANCH   1  12
BRANCH   2  14
ATOM     14  O   UNL     1      15.835 -29.490 -21.307  1.00  0.00    -0.504 OA
ATOM     15  H   UNL     1      15.195 -28.807 -20.917  1.00  0.00     0.293 HD
ENDBRANCH   2  14
TORSDOF 2
ENDMDL
MODEL 6
REMARK VINA RESULT:    -5.082      8.941     11.477
REMARK INTER + INTRA:          -5.572
REMARK INTER:                  -5.518
REMARK INTRA:                  -0.054
REMARK UNBOUND:                -0.044
REMARK SMILES COc1cc2ccc(=O)oc2cc1O
REMARK SMILES IDX 3 1 13 2 12 3 11 4 5 5 4 6 6 7 7 8 8 9 9 10 10 11 2 12 1 13
REMARK SMILES IDX 14 14
REMARK H PARENT 14 15
REMARK Flexibility Score: inf
ROOT
ATOM      1  C   UNL     1      15.995 -33.665 -12.701  1.00  0.00     0.161 A 
ATOM      2  C   UNL     1      15.535 -33.125 -13.918  1.00  0.00     0.161 A 
ATOM      3  C   UNL     1      14.207 -33.318 -14.317  1.00  0.00     0.098 A 
ATOM      4  C   UNL     1      13.326 -34.047 -13.514  1.00  0.00     0.142 A 
ATOM      5  C   UNL     1      13.777 -34.590 -12.294  1.00  0.00     0.022 A 
ATOM      6  C   UNL     1      15.105 -34.400 -11.891  1.00  0.00     0.062 A 
ATOM      7  C   UNL     1      12.871 -35.315 -11.512  1.00  0.00     0.019 A 
ATOM      8  C   UNL     1      11.559 -35.478 -11.958  1.00  0.00     0.094 A 
ATOM      9  C   UNL     1      11.183 -34.909 -13.179  1.00  0.00     0.336 A 
ATOM     10  O   UNL     1      10.003 -35.044 -13.599  1.00  0.00    -0.246 OA
ATOM     11  O   UNL     1      12.065 -34.224 -13.902  1.00  0.00    -0.423 OA
ENDROOT
BRANCH   1  12
ATOM     12  O   UNL     1      17.333 -33.452 -12.330  1.00  0.00    -0.493 OA
ATOM     13  C   UNL     1      18.245 -34.484 -11.968  1.00  0.00     0.278 C 
ENDBRANCH   1  12
BRANCH   2  14
ATOM     14  O   UNL     1      16.383 -32.392 -14.747  1.00  0.00    -0.504 OA
ATOM     15  H   UNL     1      16.456 -31.383 -14.689  1.00  0.00     0.293 HD
ENDBRANCH   2  14
TORSDOF 2
ENDMDL
MODEL 7
REMARK VINA RESULT:    -5.052      2.552      4.270
REMARK INTER + INTRA:          -5.539
REMARK INTER:                  -5.475
REMARK INTRA:                  -0.064
REMARK UNBOUND:                -0.044
REMARK SMILES COc1cc2ccc(=O)oc2cc1O
REMARK SMILES IDX 3 1 13 2 12 3 11 4 5 5 4 6 6 7 7 8 8 9 9 10 10 11 2 12 1 13
REMARK SMILES IDX 14 14
REMARK H PARENT 14 15
REMARK Flexibility Score: inf
ROOT
ATOM      1  C   UNL     1      13.981 -31.557 -20.235  1.00  0.00     0.161 A 
ATOM      2  C   UNL     1      14.087 -32.908 -20.617  1.00  0.00     0.161 A 
ATOM      3  C   UNL     1      15.302 -33.413 -21.094  1.00  0.00     0.098 A 
ATOM      4  C   UNL     1      16.421 -32.582 -21.196  1.00  0.00     0.142 A 
ATOM      5  C   UNL     1      16.325 -31.228 -20.815  1.00  0.00     0.022 A 
ATOM      6  C   UNL     1      15.110 -30.719 -20.338  1.00  0.00     0.062 A 
ATOM      7  C   UNL     1      17.463 -30.422 -20.929  1.00  0.00     0.019 A 
ATOM      8  C   UNL     1      18.649 -30.975 -21.411  1.00  0.00     0.094 A 
ATOM      9  C   UNL     1      18.669 -32.327 -21.768  1.00  0.00     0.336 A 
ATOM     10  O   UNL     1      19.731 -32.845 -22.205  1.00  0.00    -0.246 OA
ATOM     11  O   UNL     1      17.573 -33.071 -21.651  1.00  0.00    -0.423 OA
ENDROOT
BRANCH   1  12
ATOM     12  O   UNL     1      12.746 -31.084 -19.760  1.00  0.00    -0.493 OA
ATOM     13  C   UNL     1      12.468 -30.779 -18.397  1.00  0.00     0.278 C 
ENDBRANCH   1  12
BRANCH   2  14
ATOM     14  O   UNL     1      12.993 -33.769 -20.531  1.00  0.00    -0.504 OA
ATOM     15  H   UNL     1      13.062 -34.691 -20.116  1.00  0.00     0.293 HD
ENDBRANCH   2  14
TORSDOF 2
ENDMDL
MODEL 8
REMARK VINA RESULT:    -5.034     14.346     15.065
REMARK INTER + INTRA:          -5.519
REMARK INTER:                  -5.472
REMARK INTRA:                  -0.047
REMARK UNBOUND:                -0.044
REMARK SMILES COc1cc2ccc(=O)oc2cc1O
REMARK SMILES IDX 3 1 13 2 12 3 11 4 5 5 4 6 6 7 7 8 8 9 9 10 10 11 2 12 1 13
REMARK SMILES IDX 14 14
REMARK H PARENT 14 15
REMARK Flexibility Score: inf
ROOT
ATOM      1  C   UNL     1      10.373 -26.503 -10.897  1.00  0.00     0.161 A 
ATOM      2  C   UNL     1      10.375 -25.153 -10.493  1.00  0.00     0.161 A 
ATOM      3  C   UNL     1       9.647 -24.200 -11.216  1.00  0.00     0.098 A 
ATOM      4  C   UNL     1       8.913 -24.577 -12.344  1.00  0.00     0.142 A 
ATOM      5  C   UNL     1       8.905 -25.926 -12.755  1.00  0.00     0.022 A 
ATOM      6  C   UNL     1       9.632 -26.883 -12.034  1.00  0.00     0.062 A 
ATOM      7  C   UNL     1       8.160 -26.272 -13.887  1.00  0.00     0.019 A 
ATOM      8  C   UNL     1       7.454 -25.283 -14.572  1.00  0.00     0.094 A 
ATOM      9  C   UNL     1       7.508 -23.966 -14.104  1.00  0.00     0.336 A 
ATOM     10  O   UNL     1       6.877 -23.058 -14.708  1.00  0.00    -0.246 OA
ATOM     11  O   UNL     1       8.224 -23.664 -13.025  1.00  0.00    -0.423 OA
ENDROOT
BRANCH   1  12
ATOM     12  O   UNL     1      11.113 -27.432 -10.148  1.00  0.00    -0.493 OA
ATOM     13  C   UNL     1      10.702 -28.770  -9.886  1.00  0.00     0.278 C 
ENDBRANCH   1  12
BRANCH   2  14
ATOM     14  O   UNL     1      11.095 -24.737  -9.374  1.00  0.00    -0.504 OA
ATOM     15  H   UNL     1      12.076 -24.961  -9.249  1.00  0.00     0.293 HD
ENDBRANCH   2  14
TORSDOF 2
ENDMDL
MODEL 9
REMARK VINA RESULT:    -5.011      1.874      2.828
REMARK INTER + INTRA:          -5.494
REMARK INTER:                  -5.433
REMARK INTRA:                  -0.062
REMARK UNBOUND:                -0.044
REMARK SMILES COc1cc2ccc(=O)oc2cc1O
REMARK SMILES IDX 3 1 13 2 12 3 11 4 5 5 4 6 6 7 7 8 8 9 9 10 10 11 2 12 1 13
REMARK SMILES IDX 14 14
REMARK H PARENT 14 15
REMARK Flexibility Score: inf
ROOT
ATOM      1  C   UNL     1      17.684 -29.999 -21.676  1.00  0.00     0.161 A 
ATOM      2  C   UNL     1      19.021 -30.144 -22.099  1.00  0.00     0.161 A 
ATOM      3  C   UNL     1      19.625 -29.150 -22.879  1.00  0.00     0.098 A 
ATOM      4  C   UNL     1      18.910 -28.007 -23.245  1.00  0.00     0.142 A 
ATOM      5  C   UNL     1      17.573 -27.853 -22.826  1.00  0.00     0.022 A 
ATOM      6  C   UNL     1      16.964 -28.845 -22.046  1.00  0.00     0.062 A 
ATOM      7  C   UNL     1      16.884 -26.697 -23.209  1.00  0.00     0.019 A 
ATOM      8  C   UNL     1      17.533 -25.739 -23.987  1.00  0.00     0.094 A 
ATOM      9  C   UNL     1      18.862 -25.960 -24.364  1.00  0.00     0.336 A 
ATOM     10  O   UNL     1      19.466 -25.107 -25.067  1.00  0.00    -0.246 OA
ATOM     11  O   UNL     1      19.493 -27.068 -23.987  1.00  0.00    -0.423 OA
ENDROOT
BRANCH   1  12
ATOM     12  O   UNL     1      17.110 -31.014 -20.895  1.00  0.00    -0.493 OA
ATOM     13  C   UNL     1      16.063 -31.875 -21.331  1.00  0.00     0.278 C 
ENDBRANCH   1  12
BRANCH   2  14
ATOM     14  O   UNL     1      19.766 -31.270 -21.754  1.00  0.00    -0.504 OA
ATOM     15  H   UNL     1      20.305 -31.792 -22.436  1.00  0.00     0.293 HD
ENDBRANCH   2  14
TORSDOF 2
ENDMDL
