MODEL 1
REMARK VINA RESULT:    -6.065      0.000      0.000
REMARK INTER + INTRA:          -9.666
REMARK INTER:                  -8.015
REMARK INTRA:                  -1.652
REMARK UNBOUND:                -1.652
REMARK SMILES CC[C@H](C=C[C@@H](C)[C@H]1CC[C@H]2[C@H]3CC=C4C[C@H](O)CC[C@@]4(C)[C@@H]3CC[C@@]12C)C(C)C
REMARK SMILES IDX 6 1 7 2 5 3 4 4 3 5 2 6 1 7 28 8 29 9 30 10 8 11 9 12 26 13
REMARK SMILES IDX 10 14 11 15 25 16 27 17 12 18 24 19 23 20 13 21 21 22 14 23
REMARK SMILES IDX 15 24 20 25 22 26 16 27 19 28 17 29 18 30
REMARK H PARENT 18 31
REMARK Flexibility Score: inf
ROOT
ATOM      1  C   UNL     1     135.695 133.449 145.595  1.00  0.00     0.012 C 
ATOM      2  C   UNL     1     135.958 133.851 147.057  1.00  0.00     0.012 C 
ENDROOT
BRANCH   1   3
ATOM      3  C   UNL     1     135.361 134.695 144.794  1.00  0.00    -0.028 C 
ATOM      4  C   UNL     1     136.011 135.028 143.665  1.00  0.00    -0.027 C 
BRANCH   4   5
ATOM      5  C   UNL     1     135.660 136.283 142.893  1.00  0.00     0.014 C 
BRANCH   5   6
ATOM      6  C   UNL     1     136.958 137.109 142.682  1.00  0.00     0.004 C 
ATOM      7  C   UNL     1     137.451 137.838 143.930  1.00  0.00     0.004 C 
ENDBRANCH   5   6
BRANCH   5   8
ATOM      8  C   UNL     1     134.873 135.896 141.597  1.00  0.00    -0.011 C 
ATOM      9  C   UNL     1     135.573 134.829 140.745  1.00  0.00     0.008 C 
ATOM     10  C   UNL     1     134.485 137.113 140.743  1.00  0.00     0.008 C 
ENDBRANCH   5   8
ENDBRANCH   4   5
ENDBRANCH   1   3
BRANCH   1  11
ATOM     11  C   UNL     1     134.578 132.361 145.449  1.00  0.00     0.002 C 
ATOM     12  C   UNL     1     133.380 132.884 144.655  1.00  0.00     0.005 C 
ATOM     13  C   UNL     1     134.947 130.981 144.799  1.00  0.00    -0.026 C 
ATOM     14  C   UNL     1     132.633 131.673 144.130  1.00  0.00     0.005 C 
ATOM     15  C   UNL     1     133.592 130.468 144.205  1.00  0.00    -0.001 C 
ATOM     16  C   UNL     1     136.061 131.047 143.693  1.00  0.00     0.007 C 
ATOM     17  C   UNL     1     135.422 129.986 145.891  1.00  0.00     0.012 C 
ATOM     18  C   UNL     1     133.778 129.713 142.859  1.00  0.00     0.000 C 
ATOM     19  C   UNL     1     135.547 131.512 142.324  1.00  0.00     0.005 C 
ATOM     20  C   UNL     1     134.416 130.599 141.759  1.00  0.00     0.003 C 
ATOM     21  C   UNL     1     132.478 129.088 142.336  1.00  0.00     0.031 C 
ATOM     22  C   UNL     1     134.809 129.733 140.501  1.00  0.00    -0.008 C 
ATOM     23  C   UNL     1     132.676 128.437 140.993  1.00  0.00    -0.027 C 
ATOM     24  C   UNL     1     133.652 128.789 140.120  1.00  0.00    -0.065 C 
ATOM     25  C   UNL     1     135.087 130.690 139.296  1.00  0.00     0.014 C 
ATOM     26  C   UNL     1     136.069 128.868 140.783  1.00  0.00     0.016 C 
ATOM     27  C   UNL     1     133.688 128.111 138.765  1.00  0.00     0.063 C 
ATOM     28  C   UNL     1     135.191 129.974 137.939  1.00  0.00     0.033 C 
ATOM     29  C   UNL     1     133.932 129.144 137.656  1.00  0.00     0.118 C 
BRANCH  29  30
ATOM     30  O   UNL     1     134.025 128.514 136.402  1.00  0.00    -0.393 OA
ATOM     31  H   UNL     1     133.579 129.100 135.736  1.00  0.00     0.210 HD
ENDBRANCH  29  30
ENDBRANCH   1  11
TORSDOF 6
ENDMDL
MODEL 2
REMARK VINA RESULT:    -5.859      2.085      3.102
REMARK INTER + INTRA:          -9.395
REMARK INTER:                  -7.409
REMARK INTRA:                  -1.986
REMARK UNBOUND:                -1.652
REMARK SMILES CC[C@H](C=C[C@@H](C)[C@H]1CC[C@H]2[C@H]3CC=C4C[C@H](O)CC[C@@]4(C)[C@@H]3CC[C@@]12C)C(C)C
REMARK SMILES IDX 6 1 7 2 5 3 4 4 3 5 2 6 1 7 28 8 29 9 30 10 8 11 9 12 26 13
REMARK SMILES IDX 10 14 11 15 25 16 27 17 12 18 24 19 23 20 13 21 21 22 14 23
REMARK SMILES IDX 15 24 20 25 22 26 16 27 19 28 17 29 18 30
REMARK H PARENT 18 31
REMARK Flexibility Score: inf
ROOT
ATOM      1  C   UNL     1     136.589 132.093 144.340  1.00  0.00     0.012 C 
ATOM      2  C   UNL     1     136.529 131.877 145.863  1.00  0.00     0.012 C 
ENDROOT
BRANCH   1   3
ATOM      3  C   UNL     1     136.139 133.508 144.025  1.00  0.00    -0.028 C 
ATOM      4  C   UNL     1     136.891 134.368 143.316  1.00  0.00    -0.027 C 
BRANCH   4   5
ATOM      5  C   UNL     1     136.419 135.778 143.026  1.00  0.00     0.014 C 
BRANCH   5   6
ATOM      6  C   UNL     1     137.380 136.773 143.731  1.00  0.00     0.004 C 
ATOM      7  C   UNL     1     136.937 138.233 143.662  1.00  0.00     0.004 C 
ENDBRANCH   5   6
BRANCH   5   8
ATOM      8  C   UNL     1     136.247 135.964 141.482  1.00  0.00    -0.011 C 
ATOM      9  C   UNL     1     135.027 135.232 140.905  1.00  0.00     0.008 C 
ATOM     10  C   UNL     1     137.518 135.623 140.690  1.00  0.00     0.008 C 
ENDBRANCH   5   8
ENDBRANCH   4   5
ENDBRANCH   1   3
BRANCH   1  11
ATOM     11  C   UNL     1     135.754 131.038 143.537  1.00  0.00     0.002 C 
ATOM     12  C   UNL     1     134.483 131.653 142.948  1.00  0.00     0.005 C 
ATOM     13  C   UNL     1     136.442 130.271 142.354  1.00  0.00    -0.026 C 
ATOM     14  C   UNL     1     134.045 130.755 141.807  1.00  0.00     0.005 C 
ATOM     15  C   UNL     1     135.252 129.882 141.413  1.00  0.00    -0.001 C 
ATOM     16  C   UNL     1     137.532 131.094 141.577  1.00  0.00     0.007 C 
ATOM     17  C   UNL     1     137.111 128.973 142.875  1.00  0.00     0.012 C 
ATOM     18  C   UNL     1     135.633 129.958 139.907  1.00  0.00     0.000 C 
ATOM     19  C   UNL     1     136.952 132.078 140.553  1.00  0.00     0.005 C 
ATOM     20  C   UNL     1     136.072 131.380 139.472  1.00  0.00     0.003 C 
ATOM     21  C   UNL     1     134.521 129.450 138.980  1.00  0.00     0.031 C 
ATOM     22  C   UNL     1     136.678 131.357 138.016  1.00  0.00    -0.008 C 
ATOM     23  C   UNL     1     134.890 129.615 137.529  1.00  0.00    -0.027 C 
ATOM     24  C   UNL     1     135.775 130.535 137.076  1.00  0.00    -0.065 C 
ATOM     25  C   UNL     1     136.751 132.824 137.478  1.00  0.00     0.014 C 
ATOM     26  C   UNL     1     138.096 130.724 138.005  1.00  0.00     0.016 C 
ATOM     27  C   UNL     1     135.992 130.653 135.580  1.00  0.00     0.063 C 
ATOM     28  C   UNL     1     137.043 132.923 135.971  1.00  0.00     0.033 C 
ATOM     29  C   UNL     1     136.014 132.128 135.156  1.00  0.00     0.118 C 
BRANCH  29  30
ATOM     30  O   UNL     1     136.273 132.246 133.780  1.00  0.00    -0.393 OA
ATOM     31  H   UNL     1     135.411 132.433 133.325  1.00  0.00     0.210 HD
ENDBRANCH  29  30
ENDBRANCH   1  11
TORSDOF 6
ENDMDL
MODEL 3
REMARK VINA RESULT:    -5.857      4.381      8.655
REMARK INTER + INTRA:          -9.393
REMARK INTER:                  -7.871
REMARK INTRA:                  -1.522
REMARK UNBOUND:                -1.652
REMARK SMILES CC[C@H](C=C[C@@H](C)[C@H]1CC[C@H]2[C@H]3CC=C4C[C@H](O)CC[C@@]4(C)[C@@H]3CC[C@@]12C)C(C)C
REMARK SMILES IDX 6 1 7 2 5 3 4 4 3 5 2 6 1 7 28 8 29 9 30 10 8 11 9 12 26 13
REMARK SMILES IDX 10 14 11 15 25 16 27 17 12 18 24 19 23 20 13 21 21 22 14 23
REMARK SMILES IDX 15 24 20 25 22 26 16 27 19 28 17 29 18 30
REMARK H PARENT 18 31
REMARK Flexibility Score: inf
ROOT
ATOM      1  C   UNL     1     130.968 125.851 138.657  1.00  0.00     0.012 C 
ATOM      2  C   UNL     1     130.027 124.694 139.038  1.00  0.00     0.012 C 
ENDROOT
BRANCH   1   3
ATOM      3  C   UNL     1     130.818 126.964 139.677  1.00  0.00    -0.028 C 
ATOM      4  C   UNL     1     131.751 127.226 140.609  1.00  0.00    -0.027 C 
BRANCH   4   5
ATOM      5  C   UNL     1     131.568 128.339 141.620  1.00  0.00     0.014 C 
BRANCH   5   6
ATOM      6  C   UNL     1     130.865 127.753 142.874  1.00  0.00     0.004 C 
ATOM      7  C   UNL     1     129.340 127.836 142.839  1.00  0.00     0.004 C 
ENDBRANCH   5   6
BRANCH   5   8
ATOM      8  C   UNL     1     132.940 129.050 141.869  1.00  0.00    -0.011 C 
ATOM      9  C   UNL     1     132.814 130.397 142.593  1.00  0.00     0.008 C 
ATOM     10  C   UNL     1     133.786 129.187 140.594  1.00  0.00     0.008 C 
ENDBRANCH   5   8
ENDBRANCH   4   5
ENDBRANCH   1   3
BRANCH   1  11
ATOM     11  C   UNL     1     130.734 126.377 137.199  1.00  0.00     0.002 C 
ATOM     12  C   UNL     1     130.215 127.815 137.195  1.00  0.00     0.005 C 
ATOM     13  C   UNL     1     131.932 126.355 136.187  1.00  0.00    -0.026 C 
ATOM     14  C   UNL     1     130.517 128.391 135.825  1.00  0.00     0.005 C 
ATOM     15  C   UNL     1     131.591 127.498 135.173  1.00  0.00    -0.001 C 
ATOM     16  C   UNL     1     133.348 126.575 136.831  1.00  0.00     0.007 C 
ATOM     17  C   UNL     1     131.964 125.004 135.424  1.00  0.00     0.012 C 
ATOM     18  C   UNL     1     132.854 128.265 134.691  1.00  0.00     0.000 C 
ATOM     19  C   UNL     1     133.673 128.045 137.126  1.00  0.00     0.005 C 
ATOM     20  C   UNL     1     133.622 128.945 135.854  1.00  0.00     0.003 C 
ATOM     21  C   UNL     1     132.550 129.297 133.596  1.00  0.00     0.031 C 
ATOM     22  C   UNL     1     135.014 129.496 135.359  1.00  0.00    -0.008 C 
ATOM     23  C   UNL     1     133.779 130.078 133.212  1.00  0.00    -0.027 C 
ATOM     24  C   UNL     1     134.843 130.261 134.031  1.00  0.00    -0.065 C 
ATOM     25  C   UNL     1     135.576 130.485 136.432  1.00  0.00     0.014 C 
ATOM     26  C   UNL     1     136.029 128.343 135.127  1.00  0.00     0.016 C 
ATOM     27  C   UNL     1     135.980 131.141 133.552  1.00  0.00     0.063 C 
ATOM     28  C   UNL     1     136.775 131.317 135.950  1.00  0.00     0.033 C 
ATOM     29  C   UNL     1     136.430 132.092 134.670  1.00  0.00     0.118 C 
BRANCH  29  30
ATOM     30  O   UNL     1     137.523 132.870 134.252  1.00  0.00    -0.393 OA
ATOM     31  H   UNL     1     137.166 133.644 133.742  1.00  0.00     0.210 HD
ENDBRANCH  29  30
ENDBRANCH   1  11
TORSDOF 6
ENDMDL
MODEL 4
REMARK VINA RESULT:    -5.678      4.221      7.395
REMARK INTER + INTRA:          -9.156
REMARK INTER:                  -7.528
REMARK INTRA:                  -1.628
REMARK UNBOUND:                -1.652
REMARK SMILES CC[C@H](C=C[C@@H](C)[C@H]1CC[C@H]2[C@H]3CC=C4C[C@H](O)CC[C@@]4(C)[C@@H]3CC[C@@]12C)C(C)C
REMARK SMILES IDX 6 1 7 2 5 3 4 4 3 5 2 6 1 7 28 8 29 9 30 10 8 11 9 12 26 13
REMARK SMILES IDX 10 14 11 15 25 16 27 17 12 18 24 19 23 20 13 21 21 22 14 23
REMARK SMILES IDX 15 24 20 25 22 26 16 27 19 28 17 29 18 30
REMARK H PARENT 18 31
REMARK Flexibility Score: inf
ROOT
ATOM      1  C   UNL     1     129.952 126.608 142.608  1.00  0.00     0.012 C 
ATOM      2  C   UNL     1     129.244 126.266 143.930  1.00  0.00     0.012 C 
ENDROOT
BRANCH   1   3
ATOM      3  C   UNL     1     130.491 128.025 142.690  1.00  0.00    -0.028 C 
ATOM      4  C   UNL     1     131.806 128.305 142.649  1.00  0.00    -0.027 C 
BRANCH   4   5
ATOM      5  C   UNL     1     132.313 129.729 142.743  1.00  0.00     0.014 C 
BRANCH   5   6
ATOM      6  C   UNL     1     132.111 130.228 144.199  1.00  0.00     0.004 C 
ATOM      7  C   UNL     1     131.206 131.451 144.326  1.00  0.00     0.004 C 
ENDBRANCH   5   6
BRANCH   5   8
ATOM      8  C   UNL     1     133.775 129.799 142.188  1.00  0.00    -0.011 C 
ATOM      9  C   UNL     1     133.928 129.216 140.776  1.00  0.00     0.008 C 
ATOM     10  C   UNL     1     134.812 129.195 143.147  1.00  0.00     0.008 C 
ENDBRANCH   5   8
ENDBRANCH   4   5
ENDBRANCH   1   3
BRANCH   1  11
ATOM     11  C   UNL     1     129.032 126.420 141.353  1.00  0.00     0.002 C 
ATOM     12  C   UNL     1     128.543 127.762 140.805  1.00  0.00     0.005 C 
ATOM     13  C   UNL     1     129.593 125.635 140.115  1.00  0.00    -0.026 C 
ATOM     14  C   UNL     1     128.134 127.528 139.363  1.00  0.00     0.005 C 
ATOM     15  C   UNL     1     128.780 126.206 138.905  1.00  0.00    -0.001 C 
ATOM     16  C   UNL     1     131.139 125.788 139.880  1.00  0.00     0.007 C 
ATOM     17  C   UNL     1     129.283 124.122 140.257  1.00  0.00     0.012 C 
ATOM     18  C   UNL     1     129.637 126.326 137.614  1.00  0.00     0.000 C 
ATOM     19  C   UNL     1     131.533 127.096 139.182  1.00  0.00     0.005 C 
ATOM     20  C   UNL     1     130.855 127.269 137.789  1.00  0.00     0.003 C 
ATOM     21  C   UNL     1     128.819 126.754 136.388  1.00  0.00     0.031 C 
ATOM     22  C   UNL     1     131.823 127.168 136.548  1.00  0.00    -0.008 C 
ATOM     23  C   UNL     1     129.693 126.940 135.176  1.00  0.00    -0.027 C 
ATOM     24  C   UNL     1     131.015 127.229 135.236  1.00  0.00    -0.065 C 
ATOM     25  C   UNL     1     132.811 128.380 136.579  1.00  0.00     0.014 C 
ATOM     26  C   UNL     1     132.625 125.838 136.563  1.00  0.00     0.016 C 
ATOM     27  C   UNL     1     131.761 127.476 133.939  1.00  0.00     0.063 C 
ATOM     28  C   UNL     1     133.610 128.570 135.279  1.00  0.00     0.033 C 
ATOM     29  C   UNL     1     132.673 128.703 134.070  1.00  0.00     0.118 C 
BRANCH  29  30
ATOM     30  O   UNL     1     133.411 128.903 132.891  1.00  0.00    -0.393 OA
ATOM     31  H   UNL     1     133.320 129.858 132.636  1.00  0.00     0.210 HD
ENDBRANCH  29  30
ENDBRANCH   1  11
TORSDOF 6
ENDMDL
MODEL 5
REMARK VINA RESULT:    -5.667      5.451      9.001
REMARK INTER + INTRA:          -9.141
REMARK INTER:                  -7.732
REMARK INTRA:                  -1.409
REMARK UNBOUND:                -1.652
REMARK SMILES CC[C@H](C=C[C@@H](C)[C@H]1CC[C@H]2[C@H]3CC=C4C[C@H](O)CC[C@@]4(C)[C@@H]3CC[C@@]12C)C(C)C
REMARK SMILES IDX 6 1 7 2 5 3 4 4 3 5 2 6 1 7 28 8 29 9 30 10 8 11 9 12 26 13
REMARK SMILES IDX 10 14 11 15 25 16 27 17 12 18 24 19 23 20 13 21 21 22 14 23
REMARK SMILES IDX 15 24 20 25 22 26 16 27 19 28 17 29 18 30
REMARK H PARENT 18 31
REMARK Flexibility Score: inf
ROOT
ATOM      1  C   UNL     1     129.625 127.287 138.119  1.00  0.00     0.012 C 
ATOM      2  C   UNL     1     129.165 127.010 136.676  1.00  0.00     0.012 C 
ENDROOT
BRANCH   1   3
ATOM      3  C   UNL     1     131.084 127.705 138.099  1.00  0.00    -0.028 C 
ATOM      4  C   UNL     1     131.612 128.451 137.112  1.00  0.00    -0.027 C 
BRANCH   4   5
ATOM      5  C   UNL     1     133.075 128.844 137.116  1.00  0.00     0.014 C 
BRANCH   5   6
ATOM      6  C   UNL     1     133.752 128.205 138.358  1.00  0.00     0.004 C 
ATOM      7  C   UNL     1     134.399 129.210 139.310  1.00  0.00     0.004 C 
ENDBRANCH   5   6
BRANCH   5   8
ATOM      8  C   UNL     1     133.713 128.495 135.730  1.00  0.00    -0.011 C 
ATOM      9  C   UNL     1     134.690 129.561 135.216  1.00  0.00     0.008 C 
ATOM     10  C   UNL     1     132.668 128.145 134.659  1.00  0.00     0.008 C 
ENDBRANCH   5   8
ENDBRANCH   4   5
ENDBRANCH   1   3
BRANCH   1  11
ATOM     11  C   UNL     1     129.392 126.073 139.081  1.00  0.00     0.002 C 
ATOM     12  C   UNL     1     130.686 125.297 139.334  1.00  0.00     0.005 C 
ATOM     13  C   UNL     1     128.773 126.339 140.498  1.00  0.00    -0.026 C 
ATOM     14  C   UNL     1     130.491 124.519 140.621  1.00  0.00     0.005 C 
ATOM     15  C   UNL     1     129.303 125.152 141.371  1.00  0.00    -0.001 C 
ATOM     16  C   UNL     1     129.152 127.724 141.137  1.00  0.00     0.007 C 
ATOM     17  C   UNL     1     127.226 126.257 140.429  1.00  0.00     0.012 C 
ATOM     18  C   UNL     1     129.621 125.580 142.831  1.00  0.00     0.000 C 
ATOM     19  C   UNL     1     130.544 127.748 141.781  1.00  0.00     0.005 C 
ATOM     20  C   UNL     1     130.710 126.682 142.907  1.00  0.00     0.003 C 
ATOM     21  C   UNL     1     130.011 124.401 143.732  1.00  0.00     0.031 C 
ATOM     22  C   UNL     1     130.824 127.256 144.372  1.00  0.00    -0.008 C 
ATOM     23  C   UNL     1     130.393 124.861 145.114  1.00  0.00    -0.027 C 
ATOM     24  C   UNL     1     130.856 126.103 145.395  1.00  0.00    -0.065 C 
ATOM     25  C   UNL     1     132.155 128.066 144.494  1.00  0.00     0.014 C 
ATOM     26  C   UNL     1     129.618 128.175 144.713  1.00  0.00     0.016 C 
ATOM     27  C   UNL     1     131.286 126.410 146.816  1.00  0.00     0.063 C 
ATOM     28  C   UNL     1     132.536 128.429 145.939  1.00  0.00     0.033 C 
ATOM     29  C   UNL     1     132.616 127.175 146.820  1.00  0.00     0.118 C 
BRANCH  29  30
ATOM     30  O   UNL     1     132.991 127.514 148.132  1.00  0.00    -0.393 OA
ATOM     31  H   UNL     1     132.162 127.705 148.643  1.00  0.00     0.210 HD
ENDBRANCH  29  30
ENDBRANCH   1  11
TORSDOF 6
ENDMDL
MODEL 6
REMARK VINA RESULT:    -5.655      6.963      9.856
REMARK INTER + INTRA:          -9.125
REMARK INTER:                  -7.901
REMARK INTRA:                  -1.224
REMARK UNBOUND:                -1.652
REMARK SMILES CC[C@H](C=C[C@@H](C)[C@H]1CC[C@H]2[C@H]3CC=C4C[C@H](O)CC[C@@]4(C)[C@@H]3CC[C@@]12C)C(C)C
REMARK SMILES IDX 6 1 7 2 5 3 4 4 3 5 2 6 1 7 28 8 29 9 30 10 8 11 9 12 26 13
REMARK SMILES IDX 10 14 11 15 25 16 27 17 12 18 24 19 23 20 13 21 21 22 14 23
REMARK SMILES IDX 15 24 20 25 22 26 16 27 19 28 17 29 18 30
REMARK H PARENT 18 31
REMARK Flexibility Score: inf
ROOT
ATOM      1  C   UNL     1     128.272 126.124 143.497  1.00  0.00     0.012 C 
ATOM      2  C   UNL     1     127.547 126.901 144.610  1.00  0.00     0.012 C 
ENDROOT
BRANCH   1   3
ATOM      3  C   UNL     1     129.213 125.116 144.131  1.00  0.00    -0.028 C 
ATOM      4  C   UNL     1     129.366 125.003 145.462  1.00  0.00    -0.027 C 
BRANCH   4   5
ATOM      5  C   UNL     1     130.321 123.994 146.065  1.00  0.00     0.014 C 
BRANCH   5   6
ATOM      6  C   UNL     1     131.398 124.761 146.877  1.00  0.00     0.004 C 
ATOM      7  C   UNL     1     131.593 126.215 146.451  1.00  0.00     0.004 C 
ENDBRANCH   5   6
BRANCH   5   8
ATOM      8  C   UNL     1     129.509 122.911 146.850  1.00  0.00    -0.011 C 
ATOM      9  C   UNL     1     130.336 122.165 147.906  1.00  0.00     0.008 C 
ATOM     10  C   UNL     1     128.775 121.924 145.929  1.00  0.00     0.008 C 
ENDBRANCH   5   8
ENDBRANCH   4   5
ENDBRANCH   1   3
BRANCH   1  11
ATOM     11  C   UNL     1     129.028 127.056 142.490  1.00  0.00     0.002 C 
ATOM     12  C   UNL     1     130.545 126.952 142.655  1.00  0.00     0.005 C 
ATOM     13  C   UNL     1     128.756 126.889 140.954  1.00  0.00    -0.026 C 
ATOM     14  C   UNL     1     131.166 127.442 141.361  1.00  0.00     0.005 C 
ATOM     15  C   UNL     1     130.069 127.410 140.279  1.00  0.00    -0.001 C 
ATOM     16  C   UNL     1     128.427 125.423 140.495  1.00  0.00     0.007 C 
ATOM     17  C   UNL     1     127.577 127.798 140.518  1.00  0.00     0.012 C 
ATOM     18  C   UNL     1     130.448 126.600 139.007  1.00  0.00     0.000 C 
ATOM     19  C   UNL     1     129.665 124.532 140.335  1.00  0.00     0.005 C 
ATOM     20  C   UNL     1     130.691 125.097 139.305  1.00  0.00     0.003 C 
ATOM     21  C   UNL     1     131.655 127.183 138.260  1.00  0.00     0.031 C 
ATOM     22  C   UNL     1     130.828 124.276 137.966  1.00  0.00    -0.008 C 
ATOM     23  C   UNL     1     132.046 126.328 137.083  1.00  0.00    -0.027 C 
ATOM     24  C   UNL     1     131.772 125.005 136.989  1.00  0.00    -0.065 C 
ATOM     25  C   UNL     1     131.438 122.874 138.294  1.00  0.00     0.014 C 
ATOM     26  C   UNL     1     129.451 124.098 137.269  1.00  0.00     0.016 C 
ATOM     27  C   UNL     1     132.297 124.242 135.788  1.00  0.00     0.063 C 
ATOM     28  C   UNL     1     131.899 122.087 137.056  1.00  0.00     0.033 C 
ATOM     29  C   UNL     1     132.901 122.901 136.226  1.00  0.00     0.118 C 
BRANCH  29  30
ATOM     30  O   UNL     1     133.337 122.164 135.112  1.00  0.00    -0.393 OA
ATOM     31  H   UNL     1     134.219 121.768 135.337  1.00  0.00     0.210 HD
ENDBRANCH  29  30
ENDBRANCH   1  11
TORSDOF 6
ENDMDL
MODEL 7
REMARK VINA RESULT:    -5.636      4.482      8.851
REMARK INTER + INTRA:          -9.100
REMARK INTER:                  -7.756
REMARK INTRA:                  -1.345
REMARK UNBOUND:                -1.652
REMARK SMILES CC[C@H](C=C[C@@H](C)[C@H]1CC[C@H]2[C@H]3CC=C4C[C@H](O)CC[C@@]4(C)[C@@H]3CC[C@@]12C)C(C)C
REMARK SMILES IDX 6 1 7 2 5 3 4 4 3 5 2 6 1 7 28 8 29 9 30 10 8 11 9 12 26 13
REMARK SMILES IDX 10 14 11 15 25 16 27 17 12 18 24 19 23 20 13 21 21 22 14 23
REMARK SMILES IDX 15 24 20 25 22 26 16 27 19 28 17 29 18 30
REMARK H PARENT 18 31
REMARK Flexibility Score: inf
ROOT
ATOM      1  C   UNL     1     133.431 128.874 136.723  1.00  0.00     0.012 C 
ATOM      2  C   UNL     1     134.487 129.521 135.810  1.00  0.00     0.012 C 
ENDROOT
BRANCH   1   3
ATOM      3  C   UNL     1     134.087 128.482 138.034  1.00  0.00    -0.028 C 
ATOM      4  C   UNL     1     134.018 129.247 139.138  1.00  0.00    -0.027 C 
BRANCH   4   5
ATOM      5  C   UNL     1     134.692 128.833 140.430  1.00  0.00     0.014 C 
BRANCH   5   6
ATOM      6  C   UNL     1     136.175 129.289 140.379  1.00  0.00     0.004 C 
ATOM      7  C   UNL     1     136.380 130.710 139.855  1.00  0.00     0.004 C 
ENDBRANCH   5   6
BRANCH   5   8
ATOM      8  C   UNL     1     133.854 129.352 141.645  1.00  0.00    -0.011 C 
ATOM      9  C   UNL     1     134.589 129.251 142.989  1.00  0.00     0.008 C 
ATOM     10  C   UNL     1     132.460 128.711 141.732  1.00  0.00     0.008 C 
ENDBRANCH   5   8
ENDBRANCH   4   5
ENDBRANCH   1   3
BRANCH   1  11
ATOM     11  C   UNL     1     132.710 127.652 136.058  1.00  0.00     0.002 C 
ATOM     12  C   UNL     1     133.510 126.361 136.233  1.00  0.00     0.005 C 
ATOM     13  C   UNL     1     131.245 127.306 136.501  1.00  0.00    -0.026 C 
ATOM     14  C   UNL     1     132.540 125.210 136.048  1.00  0.00     0.005 C 
ATOM     15  C   UNL     1     131.115 125.772 136.213  1.00  0.00    -0.001 C 
ATOM     16  C   UNL     1     130.912 127.630 138.002  1.00  0.00     0.007 C 
ATOM     17  C   UNL     1     130.225 128.068 135.615  1.00  0.00     0.012 C 
ATOM     18  C   UNL     1     130.256 125.036 137.279  1.00  0.00     0.000 C 
ATOM     19  C   UNL     1     131.421 126.574 138.991  1.00  0.00     0.005 C 
ATOM     20  C   UNL     1     130.846 125.152 138.708  1.00  0.00     0.003 C 
ATOM     21  C   UNL     1     130.008 123.561 136.937  1.00  0.00     0.031 C 
ATOM     22  C   UNL     1     129.826 124.608 139.781  1.00  0.00    -0.008 C 
ATOM     23  C   UNL     1     129.245 122.858 138.029  1.00  0.00    -0.027 C 
ATOM     24  C   UNL     1     129.241 123.258 139.323  1.00  0.00    -0.065 C 
ATOM     25  C   UNL     1     130.583 124.389 141.132  1.00  0.00     0.014 C 
ATOM     26  C   UNL     1     128.650 125.601 139.995  1.00  0.00     0.016 C 
ATOM     27  C   UNL     1     128.499 122.411 140.339  1.00  0.00     0.063 C 
ATOM     28  C   UNL     1     129.785 123.589 142.174  1.00  0.00     0.033 C 
ATOM     29  C   UNL     1     129.343 122.232 141.608  1.00  0.00     0.118 C 
BRANCH  29  30
ATOM     30  O   UNL     1     128.638 121.497 142.575  1.00  0.00    -0.393 OA
ATOM     31  H   UNL     1     128.295 122.138 143.252  1.00  0.00     0.210 HD
ENDBRANCH  29  30
ENDBRANCH   1  11
TORSDOF 6
ENDMDL
MODEL 8
REMARK VINA RESULT:    -5.595      5.171      8.712
REMARK INTER + INTRA:          -9.045
REMARK INTER:                  -7.423
REMARK INTRA:                  -1.622
REMARK UNBOUND:                -1.652
REMARK SMILES CC[C@H](C=C[C@@H](C)[C@H]1CC[C@H]2[C@H]3CC=C4C[C@H](O)CC[C@@]4(C)[C@@H]3CC[C@@]12C)C(C)C
REMARK SMILES IDX 6 1 7 2 5 3 4 4 3 5 2 6 1 7 28 8 29 9 30 10 8 11 9 12 26 13
REMARK SMILES IDX 10 14 11 15 25 16 27 17 12 18 24 19 23 20 13 21 21 22 14 23
REMARK SMILES IDX 15 24 20 25 22 26 16 27 19 28 17 29 18 30
REMARK H PARENT 18 31
REMARK Flexibility Score: inf
ROOT
ATOM      1  C   UNL     1     130.443 127.276 138.442  1.00  0.00     0.012 C 
ATOM      2  C   UNL     1     129.949 127.146 136.990  1.00  0.00     0.012 C 
ENDROOT
BRANCH   1   3
ATOM      3  C   UNL     1     131.957 127.382 138.439  1.00  0.00    -0.028 C 
ATOM      4  C   UNL     1     132.612 128.427 138.974  1.00  0.00    -0.027 C 
BRANCH   4   5
ATOM      5  C   UNL     1     134.124 128.509 138.948  1.00  0.00     0.014 C 
BRANCH   5   6
ATOM      6  C   UNL     1     134.539 129.614 137.939  1.00  0.00     0.004 C 
ATOM      7  C   UNL     1     134.366 129.225 136.471  1.00  0.00     0.004 C 
ENDBRANCH   5   6
BRANCH   5   8
ATOM      8  C   UNL     1     134.664 128.673 140.407  1.00  0.00    -0.011 C 
ATOM      9  C   UNL     1     133.753 129.515 141.311  1.00  0.00     0.008 C 
ATOM     10  C   UNL     1     136.112 129.183 140.459  1.00  0.00     0.008 C 
ENDBRANCH   5   8
ENDBRANCH   4   5
ENDBRANCH   1   3
BRANCH   1  11
ATOM     11  C   UNL     1     129.955 126.105 139.363  1.00  0.00     0.002 C 
ATOM     12  C   UNL     1     131.114 125.208 139.798  1.00  0.00     0.005 C 
ATOM     13  C   UNL     1     129.172 126.454 140.677  1.00  0.00    -0.026 C 
ATOM     14  C   UNL     1     130.661 124.473 141.044  1.00  0.00     0.005 C 
ATOM     15  C   UNL     1     129.449 125.233 141.617  1.00  0.00    -0.001 C 
ATOM     16  C   UNL     1     129.595 127.803 141.362  1.00  0.00     0.007 C 
ATOM     17  C   UNL     1     127.649 126.527 140.389  1.00  0.00     0.012 C 
ATOM     18  C   UNL     1     129.600 125.650 143.107  1.00  0.00     0.000 C 
ATOM     19  C   UNL     1     130.877 127.698 142.198  1.00  0.00     0.005 C 
ATOM     20  C   UNL     1     130.773 126.637 143.337  1.00  0.00     0.003 C 
ATOM     21  C   UNL     1     129.737 124.451 144.055  1.00  0.00     0.031 C 
ATOM     22  C   UNL     1     130.737 127.219 144.802  1.00  0.00    -0.008 C 
ATOM     23  C   UNL     1     129.965 124.891 145.478  1.00  0.00    -0.027 C 
ATOM     24  C   UNL     1     130.508 126.084 145.820  1.00  0.00    -0.065 C 
ATOM     25  C   UNL     1     132.113 127.894 145.111  1.00  0.00     0.014 C 
ATOM     26  C   UNL     1     129.595 128.259 144.968  1.00  0.00     0.016 C 
ATOM     27  C   UNL     1     130.761 126.369 147.288  1.00  0.00     0.063 C 
ATOM     28  C   UNL     1     132.321 128.239 146.595  1.00  0.00     0.033 C 
ATOM     29  C   UNL     1     132.148 126.997 147.480  1.00  0.00     0.118 C 
BRANCH  29  30
ATOM     30  O   UNL     1     132.366 127.316 148.831  1.00  0.00    -0.393 OA
ATOM     31  H   UNL     1     131.817 126.698 149.381  1.00  0.00     0.210 HD
ENDBRANCH  29  30
ENDBRANCH   1  11
TORSDOF 6
ENDMDL
MODEL 9
REMARK VINA RESULT:    -5.478      3.037      7.537
REMARK INTER + INTRA:          -8.891
REMARK INTER:                  -7.564
REMARK INTRA:                  -1.327
REMARK UNBOUND:                -1.652
REMARK SMILES CC[C@H](C=C[C@@H](C)[C@H]1CC[C@H]2[C@H]3CC=C4C[C@H](O)CC[C@@]4(C)[C@@H]3CC[C@@]12C)C(C)C
REMARK SMILES IDX 6 1 7 2 5 3 4 4 3 5 2 6 1 7 28 8 29 9 30 10 8 11 9 12 26 13
REMARK SMILES IDX 10 14 11 15 25 16 27 17 12 18 24 19 23 20 13 21 21 22 14 23
REMARK SMILES IDX 15 24 20 25 22 26 16 27 19 28 17 29 18 30
REMARK H PARENT 18 31
REMARK Flexibility Score: inf
ROOT
ATOM      1  C   UNL     1     134.213 129.387 140.041  1.00  0.00     0.012 C 
ATOM      2  C   UNL     1     133.485 128.094 139.633  1.00  0.00     0.012 C 
ENDROOT
BRANCH   1   3
ATOM      3  C   UNL     1     134.873 129.989 138.813  1.00  0.00    -0.028 C 
ATOM      4  C   UNL     1     134.541 129.630 137.561  1.00  0.00    -0.027 C 
BRANCH   4   5
ATOM      5  C   UNL     1     135.225 130.242 136.356  1.00  0.00     0.014 C 
BRANCH   5   6
ATOM      6  C   UNL     1     136.742 130.368 136.663  1.00  0.00     0.004 C 
ATOM      7  C   UNL     1     137.289 131.790 136.563  1.00  0.00     0.004 C 
ENDBRANCH   5   6
BRANCH   5   8
ATOM      8  C   UNL     1     134.849 129.429 135.073  1.00  0.00    -0.011 C 
ATOM      9  C   UNL     1     134.611 130.305 133.835  1.00  0.00     0.008 C 
ATOM     10  C   UNL     1     133.675 128.463 135.296  1.00  0.00     0.008 C 
ENDBRANCH   5   8
ENDBRANCH   4   5
ENDBRANCH   1   3
BRANCH   1  11
ATOM     11  C   UNL     1     135.249 129.171 141.197  1.00  0.00     0.002 C 
ATOM     12  C   UNL     1     136.681 129.435 140.729  1.00  0.00     0.005 C 
ATOM     13  C   UNL     1     135.079 129.987 142.526  1.00  0.00    -0.026 C 
ATOM     14  C   UNL     1     137.507 129.714 141.970  1.00  0.00     0.005 C 
ATOM     15  C   UNL     1     136.530 130.066 143.109  1.00  0.00    -0.001 C 
ATOM     16  C   UNL     1     134.462 131.421 142.349  1.00  0.00     0.007 C 
ATOM     17  C   UNL     1     134.183 129.205 143.522  1.00  0.00     0.012 C 
ATOM     18  C   UNL     1     136.821 131.425 143.805  1.00  0.00     0.000 C 
ATOM     19  C   UNL     1     135.470 132.474 141.874  1.00  0.00     0.005 C 
ATOM     20  C   UNL     1     136.684 132.632 142.841  1.00  0.00     0.003 C 
ATOM     21  C   UNL     1     138.189 131.465 144.498  1.00  0.00     0.031 C 
ATOM     22  C   UNL     1     136.743 133.992 143.637  1.00  0.00    -0.008 C 
ATOM     23  C   UNL     1     138.472 132.821 145.089  1.00  0.00    -0.027 C 
ATOM     24  C   UNL     1     137.911 133.971 144.643  1.00  0.00    -0.065 C 
ATOM     25  C   UNL     1     136.983 135.159 142.623  1.00  0.00     0.014 C 
ATOM     26  C   UNL     1     135.428 134.245 144.424  1.00  0.00     0.016 C 
ATOM     27  C   UNL     1     138.347 135.279 145.271  1.00  0.00     0.063 C 
ATOM     28  C   UNL     1     137.355 136.496 143.285  1.00  0.00     0.033 C 
ATOM     29  C   UNL     1     138.586 136.341 144.189  1.00  0.00     0.118 C 
BRANCH  29  30
ATOM     30  O   UNL     1     138.935 137.573 144.768  1.00  0.00    -0.393 OA
ATOM     31  H   UNL     1     138.155 138.180 144.680  1.00  0.00     0.210 HD
ENDBRANCH  29  30
ENDBRANCH   1  11
TORSDOF 6
ENDMDL
