MODEL 1
REMARK VINA RESULT:    -6.038      0.000      0.000
REMARK INTER + INTRA:         -17.438
REMARK INTER:                 -13.803
REMARK INTRA:                  -3.636
REMARK UNBOUND:                -3.636
REMARK SMILES CCCCCCCCCCCCCCCCCCCCCCCC(=O)[O-]
REMARK SMILES IDX 13 1 14 2 15 3 16 4 17 5 18 6 19 7 20 8 21 9 22 10 23 11
REMARK SMILES IDX 24 12 25 13 26 14 12 15 11 16 10 17 9 18 8 19 7 20 6 21 5 22
REMARK SMILES IDX 4 23 3 24 2 25 1 26
REMARK H PARENT
REMARK Flexibility Score: inf
ROOT
ATOM      1  C   UNL     1     -16.917  -2.236 -17.921  1.00  0.00     0.000 C 
ENDROOT
BRANCH   1   2
ATOM      2  C   UNL     1     -17.163  -1.212 -19.036  1.00  0.00     0.000 C 
BRANCH   2   3
ATOM      3  C   UNL     1     -18.188  -0.159 -18.600  1.00  0.00     0.000 C 
BRANCH   3   4
ATOM      4  C   UNL     1     -17.522   0.950 -17.777  1.00  0.00     0.000 C 
BRANCH   4   5
ATOM      5  C   UNL     1     -17.863   0.809 -16.285  1.00  0.00     0.000 C 
BRANCH   5   6
ATOM      6  C   UNL     1     -16.668   0.324 -15.450  1.00  0.00     0.000 C 
BRANCH   6   7
ATOM      7  C   UNL     1     -17.099  -0.411 -14.171  1.00  0.00     0.000 C 
BRANCH   7   8
ATOM      8  C   UNL     1     -18.622  -0.370 -14.001  1.00  0.00     0.000 C 
BRANCH   8   9
ATOM      9  C   UNL     1     -19.216  -1.786 -14.028  1.00  0.00     0.000 C 
BRANCH   9  10
ATOM     10  C   UNL     1     -19.915  -2.115 -15.360  1.00  0.00     0.006 C 
BRANCH  10  11
ATOM     11  C   UNL     1     -20.911  -1.045 -15.835  1.00  0.00     0.053 C 
BRANCH  11  12
ATOM     12  C   UNL     1     -22.326  -1.537 -15.794  1.00  0.00     0.041 C 
ATOM     13  O   UNL     1     -22.566  -2.764 -15.651  1.00  0.00    -0.550 OA
ATOM     14  O   UNL     1     -23.379  -0.633 -15.875  1.00  0.00    -0.550 OA
ENDBRANCH  11  12
ENDBRANCH  10  11
ENDBRANCH   9  10
ENDBRANCH   8   9
ENDBRANCH   7   8
ENDBRANCH   6   7
ENDBRANCH   5   6
ENDBRANCH   4   5
ENDBRANCH   3   4
ENDBRANCH   2   3
ENDBRANCH   1   2
BRANCH   1  15
ATOM     15  C   UNL     1     -15.486  -2.123 -17.379  1.00  0.00     0.000 C 
BRANCH  15  16
ATOM     16  C   UNL     1     -14.487  -1.612 -18.431  1.00  0.00     0.000 C 
BRANCH  16  17
ATOM     17  C   UNL     1     -14.010  -0.165 -18.179  1.00  0.00     0.000 C 
BRANCH  17  18
ATOM     18  C   UNL     1     -13.923   0.654 -19.480  1.00  0.00    -0.000 C 
BRANCH  18  19
ATOM     19  C   UNL     1     -14.446   2.095 -19.298  1.00  0.00    -0.000 C 
BRANCH  19  20
ATOM     20  C   UNL     1     -13.490   3.004 -18.506  1.00  0.00    -0.000 C 
BRANCH  20  21
ATOM     21  C   UNL     1     -14.222   3.926 -17.521  1.00  0.00    -0.000 C 
BRANCH  21  22
ATOM     22  C   UNL     1     -14.818   3.125 -16.358  1.00  0.00    -0.000 C 
BRANCH  22  23
ATOM     23  C   UNL     1     -13.735   2.760 -15.331  1.00  0.00    -0.000 C 
BRANCH  23  24
ATOM     24  C   UNL     1     -14.309   2.069 -14.084  1.00  0.00    -0.000 C 
BRANCH  24  25
ATOM     25  C   UNL     1     -15.342   2.937 -13.350  1.00  0.00    -0.003 C 
ATOM     26  C   UNL     1     -15.622   2.393 -11.953  1.00  0.00     0.004 C 
ENDBRANCH  24  25
ENDBRANCH  23  24
ENDBRANCH  22  23
ENDBRANCH  21  22
ENDBRANCH  20  21
ENDBRANCH  19  20
ENDBRANCH  18  19
ENDBRANCH  17  18
ENDBRANCH  16  17
ENDBRANCH  15  16
ENDBRANCH   1  15
TORSDOF 22
ENDMDL
MODEL 2
REMARK VINA RESULT:    -5.965      1.836      5.899
REMARK INTER + INTRA:         -17.273
REMARK INTER:                 -14.294
REMARK INTRA:                  -2.979
REMARK UNBOUND:                -3.636
REMARK SMILES CCCCCCCCCCCCCCCCCCCCCCCC(=O)[O-]
REMARK SMILES IDX 13 1 14 2 15 3 16 4 17 5 18 6 19 7 20 8 21 9 22 10 23 11
REMARK SMILES IDX 24 12 25 13 26 14 12 15 11 16 10 17 9 18 8 19 7 20 6 21 5 22
REMARK SMILES IDX 4 23 3 24 2 25 1 26
REMARK H PARENT
REMARK Flexibility Score: inf
ROOT
ATOM      1  C   UNL     1     -14.625   3.398 -16.341  1.00  0.00     0.000 C 
ENDROOT
BRANCH   1   2
ATOM      2  C   UNL     1     -13.938   4.118 -17.507  1.00  0.00     0.000 C 
BRANCH   2   3
ATOM      3  C   UNL     1     -13.348   3.113 -18.504  1.00  0.00     0.000 C 
BRANCH   3   4
ATOM      4  C   UNL     1     -14.392   2.693 -19.546  1.00  0.00     0.000 C 
BRANCH   4   5
ATOM      5  C   UNL     1     -14.468   1.163 -19.664  1.00  0.00     0.000 C 
BRANCH   5   6
ATOM      6  C   UNL     1     -14.054   0.449 -18.367  1.00  0.00     0.000 C 
BRANCH   6   7
ATOM      7  C   UNL     1     -13.991  -1.077 -18.526  1.00  0.00     0.000 C 
BRANCH   7   8
ATOM      8  C   UNL     1     -15.245  -1.743 -17.945  1.00  0.00     0.000 C 
BRANCH   8   9
ATOM      9  C   UNL     1     -16.347  -1.860 -19.007  1.00  0.00     0.000 C 
BRANCH   9  10
ATOM     10  C   UNL     1     -17.720  -1.381 -18.499  1.00  0.00     0.006 C 
BRANCH  10  11
ATOM     11  C   UNL     1     -18.047   0.081 -18.838  1.00  0.00     0.053 C 
BRANCH  11  12
ATOM     12  C   UNL     1     -18.168   0.930 -17.609  1.00  0.00     0.041 C 
ATOM     13  O   UNL     1     -17.163   1.536 -17.156  1.00  0.00    -0.550 OA
ATOM     14  O   UNL     1     -19.402   1.081 -16.987  1.00  0.00    -0.550 OA
ENDBRANCH  11  12
ENDBRANCH  10  11
ENDBRANCH   9  10
ENDBRANCH   8   9
ENDBRANCH   7   8
ENDBRANCH   6   7
ENDBRANCH   5   6
ENDBRANCH   4   5
ENDBRANCH   3   4
ENDBRANCH   2   3
ENDBRANCH   1   2
BRANCH   1  15
ATOM     15  C   UNL     1     -13.608   2.606 -15.509  1.00  0.00     0.000 C 
BRANCH  15  16
ATOM     16  C   UNL     1     -14.227   1.976 -14.249  1.00  0.00     0.000 C 
BRANCH  16  17
ATOM     17  C   UNL     1     -15.492   2.709 -13.751  1.00  0.00     0.000 C 
BRANCH  17  18
ATOM     18  C   UNL     1     -15.444   2.989 -12.237  1.00  0.00    -0.000 C 
BRANCH  18  19
ATOM     19  C   UNL     1     -15.689   1.716 -11.401  1.00  0.00    -0.000 C 
BRANCH  19  20
ATOM     20  C   UNL     1     -17.141   1.567 -10.912  1.00  0.00    -0.000 C 
BRANCH  20  21
ATOM     21  C   UNL     1     -18.075   0.988 -11.984  1.00  0.00    -0.000 C 
BRANCH  21  22
ATOM     22  C   UNL     1     -17.570  -0.373 -12.477  1.00  0.00    -0.000 C 
BRANCH  22  23
ATOM     23  C   UNL     1     -17.139  -0.299 -13.949  1.00  0.00    -0.000 C 
BRANCH  23  24
ATOM     24  C   UNL     1     -17.902  -1.291 -14.841  1.00  0.00    -0.000 C 
BRANCH  24  25
ATOM     25  C   UNL     1     -19.408  -1.316 -14.543  1.00  0.00    -0.003 C 
ATOM     26  C   UNL     1     -20.080  -2.511 -15.212  1.00  0.00     0.004 C 
ENDBRANCH  24  25
ENDBRANCH  23  24
ENDBRANCH  22  23
ENDBRANCH  21  22
ENDBRANCH  20  21
ENDBRANCH  19  20
ENDBRANCH  18  19
ENDBRANCH  17  18
ENDBRANCH  16  17
ENDBRANCH  15  16
ENDBRANCH   1  15
TORSDOF 22
ENDMDL
MODEL 3
REMARK VINA RESULT:    -5.941      1.511      2.398
REMARK INTER + INTRA:         -17.217
REMARK INTER:                 -14.394
REMARK INTRA:                  -2.822
REMARK UNBOUND:                -3.636
REMARK SMILES CCCCCCCCCCCCCCCCCCCCCCCC(=O)[O-]
REMARK SMILES IDX 13 1 14 2 15 3 16 4 17 5 18 6 19 7 20 8 21 9 22 10 23 11
REMARK SMILES IDX 24 12 25 13 26 14 12 15 11 16 10 17 9 18 8 19 7 20 6 21 5 22
REMARK SMILES IDX 4 23 3 24 2 25 1 26
REMARK H PARENT
REMARK Flexibility Score: inf
ROOT
ATOM      1  C   UNL     1     -16.981  -1.666 -19.010  1.00  0.00     0.000 C 
ENDROOT
BRANCH   1   2
ATOM      2  C   UNL     1     -17.435  -2.072 -17.603  1.00  0.00     0.000 C 
BRANCH   2   3
ATOM      3  C   UNL     1     -16.324  -1.831 -16.575  1.00  0.00     0.000 C 
BRANCH   3   4
ATOM      4  C   UNL     1     -16.491  -0.468 -15.891  1.00  0.00     0.000 C 
BRANCH   4   5
ATOM      5  C   UNL     1     -16.892  -0.637 -14.418  1.00  0.00     0.000 C 
BRANCH   5   6
ATOM      6  C   UNL     1     -18.387  -0.372 -14.178  1.00  0.00     0.000 C 
BRANCH   6   7
ATOM      7  C   UNL     1     -19.233  -1.652 -14.238  1.00  0.00     0.000 C 
BRANCH   7   8
ATOM      8  C   UNL     1     -20.205  -1.614 -15.424  1.00  0.00     0.000 C 
BRANCH   8   9
ATOM      9  C   UNL     1     -20.679  -0.180 -15.701  1.00  0.00     0.000 C 
BRANCH   9  10
ATOM     10  C   UNL     1     -22.211  -0.063 -15.792  1.00  0.00     0.006 C 
BRANCH  10  11
ATOM     11  C   UNL     1     -22.720   1.340 -16.160  1.00  0.00     0.053 C 
BRANCH  11  12
ATOM     12  C   UNL     1     -24.086   1.606 -15.605  1.00  0.00     0.041 C 
ATOM     13  O   UNL     1     -24.530   0.910 -14.655  1.00  0.00    -0.550 OA
ATOM     14  O   UNL     1     -24.853   2.647 -16.114  1.00  0.00    -0.550 OA
ENDBRANCH  11  12
ENDBRANCH  10  11
ENDBRANCH   9  10
ENDBRANCH   8   9
ENDBRANCH   7   8
ENDBRANCH   6   7
ENDBRANCH   5   6
ENDBRANCH   4   5
ENDBRANCH   3   4
ENDBRANCH   2   3
ENDBRANCH   1   2
BRANCH   1  15
ATOM     15  C   UNL     1     -17.236  -0.174 -19.259  1.00  0.00     0.000 C 
BRANCH  15  16
ATOM     16  C   UNL     1     -15.996   0.562 -19.796  1.00  0.00     0.000 C 
BRANCH  16  17
ATOM     17  C   UNL     1     -14.660  -0.054 -19.326  1.00  0.00     0.000 C 
BRANCH  17  18
ATOM     18  C   UNL     1     -13.686   1.010 -18.787  1.00  0.00    -0.000 C 
BRANCH  18  19
ATOM     19  C   UNL     1     -14.339   2.404 -18.693  1.00  0.00    -0.000 C 
BRANCH  19  20
ATOM     20  C   UNL     1     -13.456   3.456 -17.999  1.00  0.00    -0.000 C 
BRANCH  20  21
ATOM     21  C   UNL     1     -13.224   3.153 -16.512  1.00  0.00    -0.000 C 
BRANCH  21  22
ATOM     22  C   UNL     1     -14.524   2.706 -15.833  1.00  0.00    -0.000 C 
BRANCH  22  23
ATOM     23  C   UNL     1     -14.304   2.462 -14.332  1.00  0.00    -0.000 C 
BRANCH  23  24
ATOM     24  C   UNL     1     -15.589   2.640 -13.508  1.00  0.00    -0.000 C 
BRANCH  24  25
ATOM     25  C   UNL     1     -15.505   1.966 -12.130  1.00  0.00    -0.003 C 
ATOM     26  C   UNL     1     -16.833   2.072 -11.386  1.00  0.00     0.004 C 
ENDBRANCH  24  25
ENDBRANCH  23  24
ENDBRANCH  22  23
ENDBRANCH  21  22
ENDBRANCH  20  21
ENDBRANCH  19  20
ENDBRANCH  18  19
ENDBRANCH  17  18
ENDBRANCH  16  17
ENDBRANCH  15  16
ENDBRANCH   1  15
TORSDOF 22
ENDMDL
MODEL 4
REMARK VINA RESULT:    -5.832      3.022      7.126
REMARK INTER + INTRA:         -16.969
REMARK INTER:                 -13.954
REMARK INTRA:                  -3.015
REMARK UNBOUND:                -3.636
REMARK SMILES CCCCCCCCCCCCCCCCCCCCCCCC(=O)[O-]
REMARK SMILES IDX 13 1 14 2 15 3 16 4 17 5 18 6 19 7 20 8 21 9 22 10 23 11
REMARK SMILES IDX 24 12 25 13 26 14 12 15 11 16 10 17 9 18 8 19 7 20 6 21 5 22
REMARK SMILES IDX 4 23 3 24 2 25 1 26
REMARK H PARENT
REMARK Flexibility Score: inf
ROOT
ATOM      1  C   UNL     1     -17.782   0.744 -18.097  1.00  0.00     0.000 C 
ENDROOT
BRANCH   1   2
ATOM      2  C   UNL     1     -17.747  -0.742 -18.472  1.00  0.00     0.000 C 
BRANCH   2   3
ATOM      3  C   UNL     1     -16.440  -1.099 -19.190  1.00  0.00     0.000 C 
BRANCH   3   4
ATOM      4  C   UNL     1     -15.914   0.092 -20.000  1.00  0.00     0.000 C 
BRANCH   4   5
ATOM      5  C   UNL     1     -14.384   0.037 -20.129  1.00  0.00     0.000 C 
BRANCH   5   6
ATOM      6  C   UNL     1     -13.670   0.855 -19.041  1.00  0.00     0.000 C 
BRANCH   6   7
ATOM      7  C   UNL     1     -14.385   2.179 -18.731  1.00  0.00     0.000 C 
BRANCH   7   8
ATOM      8  C   UNL     1     -13.374   3.314 -18.525  1.00  0.00     0.000 C 
BRANCH   8   9
ATOM      9  C   UNL     1     -13.105   3.545 -17.031  1.00  0.00     0.000 C 
BRANCH   9  10
ATOM     10  C   UNL     1     -14.156   2.878 -16.124  1.00  0.00     0.006 C 
BRANCH  10  11
ATOM     11  C   UNL     1     -13.589   2.295 -14.820  1.00  0.00     0.053 C 
BRANCH  11  12
ATOM     12  C   UNL     1     -14.647   2.130 -13.771  1.00  0.00     0.041 C 
ATOM     13  O   UNL     1     -14.555   1.210 -12.918  1.00  0.00    -0.550 OA
ATOM     14  O   UNL     1     -15.714   3.019 -13.714  1.00  0.00    -0.550 OA
ENDBRANCH  11  12
ENDBRANCH  10  11
ENDBRANCH   9  10
ENDBRANCH   8   9
ENDBRANCH   7   8
ENDBRANCH   6   7
ENDBRANCH   5   6
ENDBRANCH   4   5
ENDBRANCH   3   4
ENDBRANCH   2   3
ENDBRANCH   1   2
BRANCH   1  15
ATOM     15  C   UNL     1     -17.331   0.954 -16.645  1.00  0.00     0.000 C 
BRANCH  15  16
ATOM     16  C   UNL     1     -16.279  -0.073 -16.191  1.00  0.00     0.000 C 
BRANCH  16  17
ATOM     17  C   UNL     1     -16.614  -0.745 -14.841  1.00  0.00     0.000 C 
BRANCH  17  18
ATOM     18  C   UNL     1     -17.969  -0.277 -14.279  1.00  0.00    -0.000 C 
BRANCH  18  19
ATOM     19  C   UNL     1     -18.994  -1.428 -14.199  1.00  0.00    -0.000 C 
BRANCH  19  20
ATOM     20  C   UNL     1     -19.901  -1.535 -15.438  1.00  0.00    -0.000 C 
BRANCH  20  21
ATOM     21  C   UNL     1     -20.833  -0.326 -15.602  1.00  0.00    -0.000 C 
BRANCH  21  22
ATOM     22  C   UNL     1     -22.252  -0.772 -15.972  1.00  0.00    -0.000 C 
BRANCH  22  23
ATOM     23  C   UNL     1     -23.227   0.415 -15.941  1.00  0.00    -0.000 C 
BRANCH  23  24
ATOM     24  C   UNL     1     -22.533   1.759 -16.212  1.00  0.00    -0.000 C 
BRANCH  24  25
ATOM     25  C   UNL     1     -23.497   2.822 -16.758  1.00  0.00    -0.003 C 
ATOM     26  C   UNL     1     -24.845   2.206 -17.122  1.00  0.00     0.004 C 
ENDBRANCH  24  25
ENDBRANCH  23  24
ENDBRANCH  22  23
ENDBRANCH  21  22
ENDBRANCH  20  21
ENDBRANCH  19  20
ENDBRANCH  18  19
ENDBRANCH  17  18
ENDBRANCH  16  17
ENDBRANCH  15  16
ENDBRANCH   1  15
TORSDOF 22
ENDMDL
MODEL 5
REMARK VINA RESULT:    -5.742      3.369      5.722
REMARK INTER + INTRA:         -16.763
REMARK INTER:                 -14.177
REMARK INTRA:                  -2.586
REMARK UNBOUND:                -3.636
REMARK SMILES CCCCCCCCCCCCCCCCCCCCCCCC(=O)[O-]
REMARK SMILES IDX 13 1 14 2 15 3 16 4 17 5 18 6 19 7 20 8 21 9 22 10 23 11
REMARK SMILES IDX 24 12 25 13 26 14 12 15 11 16 10 17 9 18 8 19 7 20 6 21 5 22
REMARK SMILES IDX 4 23 3 24 2 25 1 26
REMARK H PARENT
REMARK Flexibility Score: inf
ROOT
ATOM      1  C   UNL     1     -12.978   2.971 -18.163  1.00  0.00     0.000 C 
ENDROOT
BRANCH   1   2
ATOM      2  C   UNL     1     -13.280   3.403 -16.723  1.00  0.00     0.000 C 
BRANCH   2   3
ATOM      3  C   UNL     1     -13.995   2.287 -15.952  1.00  0.00     0.000 C 
BRANCH   3   4
ATOM      4  C   UNL     1     -15.462   2.650 -15.691  1.00  0.00     0.000 C 
BRANCH   4   5
ATOM      5  C   UNL     1     -15.911   2.165 -14.304  1.00  0.00     0.000 C 
BRANCH   5   6
ATOM      6  C   UNL     1     -14.734   1.987 -13.331  1.00  0.00     0.000 C 
BRANCH   6   7
ATOM      7  C   UNL     1     -15.190   1.610 -11.914  1.00  0.00     0.000 C 
BRANCH   7   8
ATOM      8  C   UNL     1     -16.718   1.498 -11.839  1.00  0.00     0.000 C 
BRANCH   8   9
ATOM      9  C   UNL     1     -17.141   0.443 -10.807  1.00  0.00     0.000 C 
BRANCH   9  10
ATOM     10  C   UNL     1     -17.938   1.041  -9.633  1.00  0.00     0.006 C 
BRANCH  10  11
ATOM     11  C   UNL     1     -18.111   0.093  -8.436  1.00  0.00     0.053 C 
BRANCH  11  12
ATOM     12  C   UNL     1     -18.995   0.679  -7.378  1.00  0.00     0.041 C 
ATOM     13  O   UNL     1     -18.810   1.858  -6.979  1.00  0.00    -0.550 OA
ATOM     14  O   UNL     1     -20.049  -0.065  -6.861  1.00  0.00    -0.550 OA
ENDBRANCH  11  12
ENDBRANCH  10  11
ENDBRANCH   9  10
ENDBRANCH   8   9
ENDBRANCH   7   8
ENDBRANCH   6   7
ENDBRANCH   5   6
ENDBRANCH   4   5
ENDBRANCH   3   4
ENDBRANCH   2   3
ENDBRANCH   1   2
BRANCH   1  15
ATOM     15  C   UNL     1     -14.260   2.939 -19.007  1.00  0.00     0.000 C 
BRANCH  15  16
ATOM     16  C   UNL     1     -14.798   1.514 -19.221  1.00  0.00     0.000 C 
BRANCH  16  17
ATOM     17  C   UNL     1     -13.688   0.459 -19.426  1.00  0.00     0.000 C 
BRANCH  17  18
ATOM     18  C   UNL     1     -13.933  -0.813 -18.592  1.00  0.00    -0.000 C 
BRANCH  18  19
ATOM     19  C   UNL     1     -15.356  -0.854 -17.997  1.00  0.00    -0.000 C 
BRANCH  19  20
ATOM     20  C   UNL     1     -16.354  -1.669 -18.839  1.00  0.00    -0.000 C 
BRANCH  20  21
ATOM     21  C   UNL     1     -17.818  -1.333 -18.521  1.00  0.00    -0.000 C 
BRANCH  21  22
ATOM     22  C   UNL     1     -18.094   0.163 -18.716  1.00  0.00    -0.000 C 
BRANCH  22  23
ATOM     23  C   UNL     1     -18.222   0.878 -17.362  1.00  0.00    -0.000 C 
BRANCH  23  24
ATOM     24  C   UNL     1     -18.989   0.047 -16.322  1.00  0.00    -0.000 C 
BRANCH  24  25
ATOM     25  C   UNL     1     -18.273  -0.010 -14.965  1.00  0.00    -0.003 C 
ATOM     26  C   UNL     1     -18.843  -1.121 -14.089  1.00  0.00     0.004 C 
ENDBRANCH  24  25
ENDBRANCH  23  24
ENDBRANCH  22  23
ENDBRANCH  21  22
ENDBRANCH  20  21
ENDBRANCH  19  20
ENDBRANCH  18  19
ENDBRANCH  17  18
ENDBRANCH  16  17
ENDBRANCH  15  16
ENDBRANCH   1  15
TORSDOF 22
ENDMDL
MODEL 6
REMARK VINA RESULT:    -5.649      3.052      6.913
REMARK INTER + INTRA:         -16.551
REMARK INTER:                 -13.007
REMARK INTRA:                  -3.544
REMARK UNBOUND:                -3.636
REMARK SMILES CCCCCCCCCCCCCCCCCCCCCCCC(=O)[O-]
REMARK SMILES IDX 13 1 14 2 15 3 16 4 17 5 18 6 19 7 20 8 21 9 22 10 23 11
REMARK SMILES IDX 24 12 25 13 26 14 12 15 11 16 10 17 9 18 8 19 7 20 6 21 5 22
REMARK SMILES IDX 4 23 3 24 2 25 1 26
REMARK H PARENT
REMARK Flexibility Score: inf
ROOT
ATOM      1  C   UNL     1     -17.449  -0.347 -11.897  1.00  0.00     0.000 C 
ENDROOT
BRANCH   1   2
ATOM      2  C   UNL     1     -17.921   1.112 -11.906  1.00  0.00     0.000 C 
BRANCH   2   3
ATOM      3  C   UNL     1     -17.052   1.977 -10.986  1.00  0.00     0.000 C 
BRANCH   3   4
ATOM      4  C   UNL     1     -15.628   2.111 -11.538  1.00  0.00     0.000 C 
BRANCH   4   5
ATOM      5  C   UNL     1     -15.624   2.876 -12.871  1.00  0.00     0.000 C 
BRANCH   5   6
ATOM      6  C   UNL     1     -14.750   2.198 -13.938  1.00  0.00     0.000 C 
BRANCH   6   7
ATOM      7  C   UNL     1     -15.139   2.604 -15.367  1.00  0.00     0.000 C 
BRANCH   7   8
ATOM      8  C   UNL     1     -13.894   2.904 -16.212  1.00  0.00     0.000 C 
BRANCH   8   9
ATOM      9  C   UNL     1     -14.272   3.646 -17.502  1.00  0.00     0.000 C 
BRANCH   9  10
ATOM     10  C   UNL     1     -13.993   2.819 -18.771  1.00  0.00     0.006 C 
BRANCH  10  11
ATOM     11  C   UNL     1     -13.515   1.384 -18.500  1.00  0.00     0.053 C 
BRANCH  11  12
ATOM     12  C   UNL     1     -13.813   0.466 -19.646  1.00  0.00     0.041 C 
ATOM     13  O   UNL     1     -13.600  -0.770 -19.540  1.00  0.00    -0.550 OA
ATOM     14  O   UNL     1     -14.361   0.972 -20.819  1.00  0.00    -0.550 OA
ENDBRANCH  11  12
ENDBRANCH  10  11
ENDBRANCH   9  10
ENDBRANCH   8   9
ENDBRANCH   7   8
ENDBRANCH   6   7
ENDBRANCH   5   6
ENDBRANCH   4   5
ENDBRANCH   3   4
ENDBRANCH   2   3
ENDBRANCH   1   2
BRANCH   1  15
ATOM     15  C   UNL     1     -16.884  -0.749 -13.266  1.00  0.00     0.000 C 
BRANCH  15  16
ATOM     16  C   UNL     1     -17.851  -0.446 -14.424  1.00  0.00     0.000 C 
BRANCH  16  17
ATOM     17  C   UNL     1     -19.181  -1.227 -14.339  1.00  0.00     0.000 C 
BRANCH  17  18
ATOM     18  C   UNL     1     -20.139  -0.871 -15.491  1.00  0.00    -0.000 C 
BRANCH  18  19
ATOM     19  C   UNL     1     -19.954   0.582 -15.975  1.00  0.00    -0.000 C 
BRANCH  19  20
ATOM     20  C   UNL     1     -19.311   0.693 -17.369  1.00  0.00    -0.000 C 
BRANCH  20  21
ATOM     21  C   UNL     1     -17.992   1.478 -17.358  1.00  0.00    -0.000 C 
BRANCH  21  22
ATOM     22  C   UNL     1     -16.878   0.691 -18.060  1.00  0.00    -0.000 C 
BRANCH  22  23
ATOM     23  C   UNL     1     -17.452  -0.201 -19.170  1.00  0.00    -0.000 C 
BRANCH  23  24
ATOM     24  C   UNL     1     -17.031  -1.672 -19.027  1.00  0.00    -0.000 C 
BRANCH  24  25
ATOM     25  C   UNL     1     -16.595  -2.026 -17.597  1.00  0.00    -0.003 C 
ATOM     26  C   UNL     1     -17.601  -2.962 -16.933  1.00  0.00     0.004 C 
ENDBRANCH  24  25
ENDBRANCH  23  24
ENDBRANCH  22  23
ENDBRANCH  21  22
ENDBRANCH  20  21
ENDBRANCH  19  20
ENDBRANCH  18  19
ENDBRANCH  17  18
ENDBRANCH  16  17
ENDBRANCH  15  16
ENDBRANCH   1  15
TORSDOF 22
ENDMDL
MODEL 7
REMARK VINA RESULT:    -5.595      1.830      4.951
REMARK INTER + INTRA:         -16.425
REMARK INTER:                 -13.722
REMARK INTRA:                  -2.703
REMARK UNBOUND:                -3.636
REMARK SMILES CCCCCCCCCCCCCCCCCCCCCCCC(=O)[O-]
REMARK SMILES IDX 13 1 14 2 15 3 16 4 17 5 18 6 19 7 20 8 21 9 22 10 23 11
REMARK SMILES IDX 24 12 25 13 26 14 12 15 11 16 10 17 9 18 8 19 7 20 6 21 5 22
REMARK SMILES IDX 4 23 3 24 2 25 1 26
REMARK H PARENT
REMARK Flexibility Score: inf
ROOT
ATOM      1  C   UNL     1     -17.294   0.665 -11.256  1.00  0.00     0.000 C 
ENDROOT
BRANCH   1   2
ATOM      2  C   UNL     1     -18.138   0.398 -12.507  1.00  0.00     0.000 C 
BRANCH   2   3
ATOM      3  C   UNL     1     -17.735  -0.925 -13.170  1.00  0.00     0.000 C 
BRANCH   3   4
ATOM      4  C   UNL     1     -16.927  -0.676 -14.450  1.00  0.00     0.000 C 
BRANCH   4   5
ATOM      5  C   UNL     1     -17.710   0.210 -15.431  1.00  0.00     0.000 C 
BRANCH   5   6
ATOM      6  C   UNL     1     -18.815  -0.562 -16.171  1.00  0.00     0.000 C 
BRANCH   6   7
ATOM      7  C   UNL     1     -20.215   0.010 -15.905  1.00  0.00     0.000 C 
BRANCH   7   8
ATOM      8  C   UNL     1     -21.224  -1.111 -15.623  1.00  0.00     0.000 C 
BRANCH   8   9
ATOM      9  C   UNL     1     -22.650  -0.671 -15.985  1.00  0.00     0.000 C 
BRANCH   9  10
ATOM     10  C   UNL     1     -22.824   0.859 -15.974  1.00  0.00     0.006 C 
BRANCH  10  11
ATOM     11  C   UNL     1     -24.258   1.335 -16.256  1.00  0.00     0.053 C 
BRANCH  11  12
ATOM     12  C   UNL     1     -25.061   1.476 -15.000  1.00  0.00     0.041 C 
ATOM     13  O   UNL     1     -25.136   2.590 -14.417  1.00  0.00    -0.550 OA
ATOM     14  O   UNL     1     -25.757   0.386 -14.493  1.00  0.00    -0.550 OA
ENDBRANCH  11  12
ENDBRANCH  10  11
ENDBRANCH   9  10
ENDBRANCH   8   9
ENDBRANCH   7   8
ENDBRANCH   6   7
ENDBRANCH   5   6
ENDBRANCH   4   5
ENDBRANCH   3   4
ENDBRANCH   2   3
ENDBRANCH   1   2
BRANCH   1  15
ATOM     15  C   UNL     1     -16.517   1.982 -11.389  1.00  0.00     0.000 C 
BRANCH  15  16
ATOM     16  C   UNL     1     -15.283   1.858 -12.300  1.00  0.00     0.000 C 
BRANCH  16  17
ATOM     17  C   UNL     1     -15.400   2.665 -13.612  1.00  0.00     0.000 C 
BRANCH  17  18
ATOM     18  C   UNL     1     -14.272   2.329 -14.604  1.00  0.00    -0.000 C 
BRANCH  18  19
ATOM     19  C   UNL     1     -14.807   2.064 -16.027  1.00  0.00    -0.000 C 
BRANCH  19  20
ATOM     20  C   UNL     1     -14.986   3.340 -16.868  1.00  0.00    -0.000 C 
BRANCH  20  21
ATOM     21  C   UNL     1     -13.976   3.444 -18.019  1.00  0.00    -0.000 C 
BRANCH  21  22
ATOM     22  C   UNL     1     -13.685   2.065 -18.622  1.00  0.00    -0.000 C 
BRANCH  22  23
ATOM     23  C   UNL     1     -14.756   1.680 -19.654  1.00  0.00    -0.000 C 
BRANCH  23  24
ATOM     24  C   UNL     1     -15.008   0.165 -19.711  1.00  0.00    -0.000 C 
BRANCH  24  25
ATOM     25  C   UNL     1     -16.024  -0.306 -18.660  1.00  0.00    -0.003 C 
ATOM     26  C   UNL     1     -16.790  -1.531 -19.148  1.00  0.00     0.004 C 
ENDBRANCH  24  25
ENDBRANCH  23  24
ENDBRANCH  22  23
ENDBRANCH  21  22
ENDBRANCH  20  21
ENDBRANCH  19  20
ENDBRANCH  18  19
ENDBRANCH  17  18
ENDBRANCH  16  17
ENDBRANCH  15  16
ENDBRANCH   1  15
TORSDOF 22
ENDMDL
MODEL 8
REMARK VINA RESULT:    -5.582      1.676      2.735
REMARK INTER + INTRA:         -16.396
REMARK INTER:                 -13.764
REMARK INTRA:                  -2.633
REMARK UNBOUND:                -3.636
REMARK SMILES CCCCCCCCCCCCCCCCCCCCCCCC(=O)[O-]
REMARK SMILES IDX 13 1 14 2 15 3 16 4 17 5 18 6 19 7 20 8 21 9 22 10 23 11
REMARK SMILES IDX 24 12 25 13 26 14 12 15 11 16 10 17 9 18 8 19 7 20 6 21 5 22
REMARK SMILES IDX 4 23 3 24 2 25 1 26
REMARK H PARENT
REMARK Flexibility Score: inf
ROOT
ATOM      1  C   UNL     1     -17.507  -0.732 -18.971  1.00  0.00     0.000 C 
ENDROOT
BRANCH   1   2
ATOM      2  C   UNL     1     -16.821  -2.009 -18.471  1.00  0.00     0.000 C 
BRANCH   2   3
ATOM      3  C   UNL     1     -17.169  -2.281 -17.003  1.00  0.00     0.000 C 
BRANCH   3   4
ATOM      4  C   UNL     1     -16.635  -1.167 -16.094  1.00  0.00     0.000 C 
BRANCH   4   5
ATOM      5  C   UNL     1     -17.638  -0.841 -14.976  1.00  0.00     0.000 C 
BRANCH   5   6
ATOM      6  C   UNL     1     -19.097  -1.060 -15.409  1.00  0.00     0.000 C 
BRANCH   6   7
ATOM      7  C   UNL     1     -19.759   0.224 -15.928  1.00  0.00     0.000 C 
BRANCH   7   8
ATOM      8  C   UNL     1     -21.287   0.092 -15.934  1.00  0.00     0.000 C 
BRANCH   8   9
ATOM      9  C   UNL     1     -21.959   1.473 -15.939  1.00  0.00     0.000 C 
BRANCH   9  10
ATOM     10  C   UNL     1     -23.379   1.445 -16.532  1.00  0.00     0.006 C 
BRANCH  10  11
ATOM     11  C   UNL     1     -24.125   0.117 -16.329  1.00  0.00     0.053 C 
BRANCH  11  12
ATOM     12  C   UNL     1     -24.980   0.134 -15.098  1.00  0.00     0.041 C 
ATOM     13  O   UNL     1     -25.331   1.229 -14.586  1.00  0.00    -0.550 OA
ATOM     14  O   UNL     1     -25.420  -1.060 -14.539  1.00  0.00    -0.550 OA
ENDBRANCH  11  12
ENDBRANCH  10  11
ENDBRANCH   9  10
ENDBRANCH   8   9
ENDBRANCH   7   8
ENDBRANCH   6   7
ENDBRANCH   5   6
ENDBRANCH   4   5
ENDBRANCH   3   4
ENDBRANCH   2   3
ENDBRANCH   1   2
BRANCH   1  15
ATOM     15  C   UNL     1     -16.472   0.335 -19.350  1.00  0.00     0.000 C 
BRANCH  15  16
ATOM     16  C   UNL     1     -15.044  -0.228 -19.452  1.00  0.00     0.000 C 
BRANCH  16  17
ATOM     17  C   UNL     1     -13.961   0.733 -18.914  1.00  0.00     0.000 C 
BRANCH  17  18
ATOM     18  C   UNL     1     -14.331   2.211 -19.138  1.00  0.00    -0.000 C 
BRANCH  18  19
ATOM     19  C   UNL     1     -13.348   3.171 -18.435  1.00  0.00    -0.000 C 
BRANCH  19  20
ATOM     20  C   UNL     1     -13.608   3.324 -16.925  1.00  0.00    -0.000 C 
BRANCH  20  21
ATOM     21  C   UNL     1     -15.103   3.368 -16.578  1.00  0.00    -0.000 C 
BRANCH  21  22
ATOM     22  C   UNL     1     -15.468   2.263 -15.579  1.00  0.00    -0.000 C 
BRANCH  22  23
ATOM     23  C   UNL     1     -14.656   2.406 -14.283  1.00  0.00    -0.000 C 
BRANCH  23  24
ATOM     24  C   UNL     1     -15.483   2.990 -13.127  1.00  0.00    -0.000 C 
BRANCH  24  25
ATOM     25  C   UNL     1     -15.556   2.047 -11.917  1.00  0.00    -0.003 C 
ATOM     26  C   UNL     1     -16.849   1.236 -11.931  1.00  0.00     0.004 C 
ENDBRANCH  24  25
ENDBRANCH  23  24
ENDBRANCH  22  23
ENDBRANCH  21  22
ENDBRANCH  20  21
ENDBRANCH  19  20
ENDBRANCH  18  19
ENDBRANCH  17  18
ENDBRANCH  16  17
ENDBRANCH  15  16
ENDBRANCH   1  15
TORSDOF 22
ENDMDL
MODEL 9
REMARK VINA RESULT:    -5.547      1.338      4.606
REMARK INTER + INTRA:         -16.317
REMARK INTER:                 -14.039
REMARK INTRA:                  -2.278
REMARK UNBOUND:                -3.636
REMARK SMILES CCCCCCCCCCCCCCCCCCCCCCCC(=O)[O-]
REMARK SMILES IDX 13 1 14 2 15 3 16 4 17 5 18 6 19 7 20 8 21 9 22 10 23 11
REMARK SMILES IDX 24 12 25 13 26 14 12 15 11 16 10 17 9 18 8 19 7 20 6 21 5 22
REMARK SMILES IDX 4 23 3 24 2 25 1 26
REMARK H PARENT
REMARK Flexibility Score: inf
ROOT
ATOM      1  C   UNL     1     -15.490   2.798 -12.683  1.00  0.00     0.000 C 
ENDROOT
BRANCH   1   2
ATOM      2  C   UNL     1     -16.601   1.877 -12.166  1.00  0.00     0.000 C 
BRANCH   2   3
ATOM      3  C   UNL     1     -16.705   0.608 -13.019  1.00  0.00     0.000 C 
BRANCH   3   4
ATOM      4  C   UNL     1     -17.987  -0.170 -12.697  1.00  0.00     0.000 C 
BRANCH   4   5
ATOM      5  C   UNL     1     -18.687  -0.634 -13.983  1.00  0.00     0.000 C 
BRANCH   5   6
ATOM      6  C   UNL     1     -18.138   0.062 -15.239  1.00  0.00     0.000 C 
BRANCH   6   7
ATOM      7  C   UNL     1     -19.230   0.357 -16.277  1.00  0.00     0.000 C 
BRANCH   7   8
ATOM      8  C   UNL     1     -20.609  -0.080 -15.766  1.00  0.00     0.000 C 
BRANCH   8   9
ATOM      9  C   UNL     1     -21.639   1.046 -15.930  1.00  0.00     0.000 C 
BRANCH   9  10
ATOM     10  C   UNL     1     -23.077   0.522 -16.096  1.00  0.00     0.006 C 
BRANCH  10  11
ATOM     11  C   UNL     1     -23.192  -1.010 -16.140  1.00  0.00     0.053 C 
BRANCH  11  12
ATOM     12  C   UNL     1     -24.386  -1.506 -15.382  1.00  0.00     0.041 C 
ATOM     13  O   UNL     1     -24.342  -2.614 -14.787  1.00  0.00    -0.550 OA
ATOM     14  O   UNL     1     -25.533  -0.726 -15.302  1.00  0.00    -0.550 OA
ENDBRANCH  11  12
ENDBRANCH  10  11
ENDBRANCH   9  10
ENDBRANCH   8   9
ENDBRANCH   7   8
ENDBRANCH   6   7
ENDBRANCH   5   6
ENDBRANCH   4   5
ENDBRANCH   3   4
ENDBRANCH   2   3
ENDBRANCH   1   2
BRANCH   1  15
ATOM     15  C   UNL     1     -14.666   2.105 -13.776  1.00  0.00     0.000 C 
BRANCH  15  16
ATOM     16  C   UNL     1     -14.668   2.878 -15.106  1.00  0.00     0.000 C 
BRANCH  16  17
ATOM     17  C   UNL     1     -13.440   2.580 -15.996  1.00  0.00     0.000 C 
BRANCH  17  18
ATOM     18  C   UNL     1     -13.189   3.692 -17.031  1.00  0.00    -0.000 C 
BRANCH  18  19
ATOM     19  C   UNL     1     -13.223   3.158 -18.479  1.00  0.00    -0.000 C 
BRANCH  19  20
ATOM     20  C   UNL     1     -14.468   2.310 -18.796  1.00  0.00    -0.000 C 
BRANCH  20  21
ATOM     21  C   UNL     1     -14.129   1.001 -19.522  1.00  0.00    -0.000 C 
BRANCH  21  22
ATOM     22  C   UNL     1     -15.367   0.420 -20.215  1.00  0.00    -0.000 C 
BRANCH  22  23
ATOM     23  C   UNL     1     -16.558   0.356 -19.247  1.00  0.00    -0.000 C 
BRANCH  23  24
ATOM     24  C   UNL     1     -17.029  -1.082 -18.980  1.00  0.00    -0.000 C 
BRANCH  24  25
ATOM     25  C   UNL     1     -16.219  -1.773 -17.873  1.00  0.00    -0.003 C 
ATOM     26  C   UNL     1     -17.117  -2.642 -16.998  1.00  0.00     0.004 C 
ENDBRANCH  24  25
ENDBRANCH  23  24
ENDBRANCH  22  23
ENDBRANCH  21  22
ENDBRANCH  20  21
ENDBRANCH  19  20
ENDBRANCH  18  19
ENDBRANCH  17  18
ENDBRANCH  16  17
ENDBRANCH  15  16
ENDBRANCH   1  15
TORSDOF 22
ENDMDL
