MODEL 1
REMARK VINA RESULT:    -2.912      0.000      0.000
REMARK INTER + INTRA:         -13.440
REMARK INTER:                  -7.338
REMARK INTRA:                  -6.102
REMARK UNBOUND:                -6.102
REMARK SMILES CCCCCCCCCCCCCCCCCCCCCCCCCCCC(=O)[O-]
REMARK SMILES IDX 15 1 16 2 17 3 18 4 19 5 20 6 21 7 22 8 23 9 24 10 25 11
REMARK SMILES IDX 26 12 27 13 28 14 29 15 30 16 14 17 13 18 12 19 11 20 10 21
REMARK SMILES IDX 9 22 8 23 7 24 6 25 5 26 4 27 3 28 2 29 1 30
REMARK H PARENT
REMARK Flexibility Score: inf
ROOT
ATOM      1  C   UNL     1      64.499  31.450  59.795  1.00  0.00     0.000 C 
ENDROOT
BRANCH   1   2
ATOM      2  C   UNL     1      64.147  32.574  60.783  1.00  0.00     0.000 C 
BRANCH   2   3
ATOM      3  C   UNL     1      63.380  33.725  60.107  1.00  0.00     0.000 C 
BRANCH   3   4
ATOM      4  C   UNL     1      63.624  35.077  60.795  1.00  0.00     0.000 C 
BRANCH   4   5
ATOM      5  C   UNL     1      62.396  36.004  60.726  1.00  0.00     0.000 C 
BRANCH   5   6
ATOM      6  C   UNL     1      61.118  35.251  60.299  1.00  0.00     0.000 C 
BRANCH   6   7
ATOM      7  C   UNL     1      60.239  36.031  59.301  1.00  0.00     0.000 C 
BRANCH   7   8
ATOM      8  C   UNL     1      60.426  35.645  57.824  1.00  0.00     0.000 C 
BRANCH   8   9
ATOM      9  C   UNL     1      61.576  36.414  57.150  1.00  0.00     0.000 C 
BRANCH   9  10
ATOM     10  C   UNL     1      62.803  35.527  56.887  1.00  0.00     0.000 C 
BRANCH  10  11
ATOM     11  C   UNL     1      64.117  36.184  57.341  1.00  0.00     0.000 C 
BRANCH  11  12
ATOM     12  C   UNL     1      65.296  35.211  57.189  1.00  0.00     0.006 C 
BRANCH  12  13
ATOM     13  C   UNL     1      66.337  35.381  58.304  1.00  0.00     0.053 C 
BRANCH  13  14
ATOM     14  C   UNL     1      67.659  35.834  57.765  1.00  0.00     0.041 C 
ATOM     15  O   UNL     1      68.646  35.051  57.764  1.00  0.00    -0.550 OA
ATOM     16  O   UNL     1      67.804  37.125  57.277  1.00  0.00    -0.550 OA
ENDBRANCH  13  14
ENDBRANCH  12  13
ENDBRANCH  11  12
ENDBRANCH  10  11
ENDBRANCH   9  10
ENDBRANCH   8   9
ENDBRANCH   7   8
ENDBRANCH   6   7
ENDBRANCH   5   6
ENDBRANCH   4   5
ENDBRANCH   3   4
ENDBRANCH   2   3
ENDBRANCH   1   2
BRANCH   1  17
ATOM     17  C   UNL     1      64.263  31.860  58.331  1.00  0.00     0.000 C 
BRANCH  17  18
ATOM     18  C   UNL     1      63.705  30.708  57.476  1.00  0.00     0.000 C 
BRANCH  18  19
ATOM     19  C   UNL     1      62.171  30.699  57.327  1.00  0.00     0.000 C 
BRANCH  19  20
ATOM     20  C   UNL     1      61.487  32.071  57.507  1.00  0.00     0.000 C 
BRANCH  20  21
ATOM     21  C   UNL     1      60.358  32.106  58.553  1.00  0.00     0.000 C 
BRANCH  21  22
ATOM     22  C   UNL     1      60.315  30.840  59.425  1.00  0.00    -0.000 C 
BRANCH  22  23
ATOM     23  C   UNL     1      60.790  31.099  60.863  1.00  0.00    -0.000 C 
BRANCH  23  24
ATOM     24  C   UNL     1      61.644  29.949  61.426  1.00  0.00    -0.000 C 
BRANCH  24  25
ATOM     25  C   UNL     1      61.819  28.800  60.413  1.00  0.00    -0.000 C 
BRANCH  25  26
ATOM     26  C   UNL     1      63.095  27.959  60.627  1.00  0.00    -0.000 C 
BRANCH  26  27
ATOM     27  C   UNL     1      63.634  27.289  59.347  1.00  0.00    -0.000 C 
BRANCH  27  28
ATOM     28  C   UNL     1      65.148  27.497  59.168  1.00  0.00    -0.000 C 
BRANCH  28  29
ATOM     29  C   UNL     1      65.810  28.114  60.409  1.00  0.00    -0.003 C 
ATOM     30  C   UNL     1      67.176  28.729  60.103  1.00  0.00     0.004 C 
ENDBRANCH  28  29
ENDBRANCH  27  28
ENDBRANCH  26  27
ENDBRANCH  25  26
ENDBRANCH  24  25
ENDBRANCH  23  24
ENDBRANCH  22  23
ENDBRANCH  21  22
ENDBRANCH  20  21
ENDBRANCH  19  20
ENDBRANCH  18  19
ENDBRANCH  17  18
ENDBRANCH   1  17
TORSDOF 26
ENDMDL
MODEL 2
REMARK VINA RESULT:    -2.612      3.421      7.616
REMARK INTER + INTRA:         -12.685
REMARK INTER:                  -7.287
REMARK INTRA:                  -5.398
REMARK UNBOUND:                -6.102
REMARK SMILES CCCCCCCCCCCCCCCCCCCCCCCCCCCC(=O)[O-]
REMARK SMILES IDX 15 1 16 2 17 3 18 4 19 5 20 6 21 7 22 8 23 9 24 10 25 11
REMARK SMILES IDX 26 12 27 13 28 14 29 15 30 16 14 17 13 18 12 19 11 20 10 21
REMARK SMILES IDX 9 22 8 23 7 24 6 25 5 26 4 27 3 28 2 29 1 30
REMARK H PARENT
REMARK Flexibility Score: inf
ROOT
ATOM      1  C   UNL     1      62.237  31.944  57.561  1.00  0.00     0.000 C 
ENDROOT
BRANCH   1   2
ATOM      2  C   UNL     1      61.487  30.603  57.585  1.00  0.00     0.000 C 
BRANCH   2   3
ATOM      3  C   UNL     1      60.677  30.410  58.880  1.00  0.00     0.000 C 
BRANCH   3   4
ATOM      4  C   UNL     1      61.090  31.396  59.984  1.00  0.00     0.000 C 
BRANCH   4   5
ATOM      5  C   UNL     1      61.347  30.698  61.332  1.00  0.00     0.000 C 
BRANCH   5   6
ATOM      6  C   UNL     1      62.800  30.196  61.464  1.00  0.00     0.000 C 
BRANCH   6   7
ATOM      7  C   UNL     1      63.841  31.118  60.799  1.00  0.00     0.000 C 
BRANCH   7   8
ATOM      8  C   UNL     1      64.838  30.413  59.864  1.00  0.00     0.000 C 
BRANCH   8   9
ATOM      9  C   UNL     1      65.501  29.188  60.518  1.00  0.00     0.000 C 
BRANCH   9  10
ATOM     10  C   UNL     1      65.157  27.876  59.795  1.00  0.00     0.000 C 
BRANCH  10  11
ATOM     11  C   UNL     1      64.070  28.056  58.724  1.00  0.00     0.000 C 
BRANCH  11  12
ATOM     12  C   UNL     1      62.770  27.351  59.140  1.00  0.00     0.006 C 
BRANCH  12  13
ATOM     13  C   UNL     1      62.940  26.527  60.423  1.00  0.00     0.053 C 
BRANCH  13  14
ATOM     14  C   UNL     1      61.735  26.621  61.308  1.00  0.00     0.041 C 
ATOM     15  O   UNL     1      60.720  27.265  60.931  1.00  0.00    -0.550 OA
ATOM     16  O   UNL     1      61.740  26.010  62.554  1.00  0.00    -0.550 OA
ENDBRANCH  13  14
ENDBRANCH  12  13
ENDBRANCH  11  12
ENDBRANCH  10  11
ENDBRANCH   9  10
ENDBRANCH   8   9
ENDBRANCH   7   8
ENDBRANCH   6   7
ENDBRANCH   5   6
ENDBRANCH   4   5
ENDBRANCH   3   4
ENDBRANCH   2   3
ENDBRANCH   1   2
BRANCH   1  17
ATOM     17  C   UNL     1      63.539  31.873  56.745  1.00  0.00     0.000 C 
BRANCH  17  18
ATOM     18  C   UNL     1      64.265  33.228  56.668  1.00  0.00     0.000 C 
BRANCH  18  19
ATOM     19  C   UNL     1      65.101  33.584  57.914  1.00  0.00     0.000 C 
BRANCH  19  20
ATOM     20  C   UNL     1      64.657  34.861  58.658  1.00  0.00     0.000 C 
BRANCH  20  21
ATOM     21  C   UNL     1      65.236  35.025  60.076  1.00  0.00     0.000 C 
BRANCH  21  22
ATOM     22  C   UNL     1      64.170  34.878  61.174  1.00  0.00    -0.000 C 
BRANCH  22  23
ATOM     23  C   UNL     1      62.781  34.551  60.606  1.00  0.00    -0.000 C 
BRANCH  23  24
ATOM     24  C   UNL     1      61.809  35.743  60.682  1.00  0.00    -0.000 C 
BRANCH  24  25
ATOM     25  C   UNL     1      60.671  35.636  59.648  1.00  0.00    -0.000 C 
BRANCH  25  26
ATOM     26  C   UNL     1      61.109  35.920  58.196  1.00  0.00    -0.000 C 
BRANCH  26  27
ATOM     27  C   UNL     1      60.351  35.099  57.133  1.00  0.00    -0.000 C 
BRANCH  27  28
ATOM     28  C   UNL     1      59.441  34.027  57.758  1.00  0.00    -0.000 C 
BRANCH  28  29
ATOM     29  C   UNL     1      58.184  33.757  56.917  1.00  0.00    -0.003 C 
ATOM     30  C   UNL     1      58.190  34.518  55.591  1.00  0.00     0.004 C 
ENDBRANCH  28  29
ENDBRANCH  27  28
ENDBRANCH  26  27
ENDBRANCH  25  26
ENDBRANCH  24  25
ENDBRANCH  23  24
ENDBRANCH  22  23
ENDBRANCH  21  22
ENDBRANCH  20  21
ENDBRANCH  19  20
ENDBRANCH  18  19
ENDBRANCH  17  18
ENDBRANCH   1  17
TORSDOF 26
ENDMDL
MODEL 3
REMARK VINA RESULT:    -2.574      3.232      5.610
REMARK INTER + INTRA:         -12.588
REMARK INTER:                  -7.075
REMARK INTRA:                  -5.513
REMARK UNBOUND:                -6.102
REMARK SMILES CCCCCCCCCCCCCCCCCCCCCCCCCCCC(=O)[O-]
REMARK SMILES IDX 15 1 16 2 17 3 18 4 19 5 20 6 21 7 22 8 23 9 24 10 25 11
REMARK SMILES IDX 26 12 27 13 28 14 29 15 30 16 14 17 13 18 12 19 11 20 10 21
REMARK SMILES IDX 9 22 8 23 7 24 6 25 5 26 4 27 3 28 2 29 1 30
REMARK H PARENT
REMARK Flexibility Score: inf
ROOT
ATOM      1  C   UNL     1      62.742  34.186  60.594  1.00  0.00     0.000 C 
ENDROOT
BRANCH   1   2
ATOM      2  C   UNL     1      62.822  35.720  60.630  1.00  0.00     0.000 C 
BRANCH   2   3
ATOM      3  C   UNL     1      61.431  36.379  60.578  1.00  0.00     0.000 C 
BRANCH   3   4
ATOM      4  C   UNL     1      60.455  35.618  59.669  1.00  0.00     0.000 C 
BRANCH   4   5
ATOM      5  C   UNL     1      59.631  36.559  58.770  1.00  0.00     0.000 C 
BRANCH   5   6
ATOM      6  C   UNL     1      59.098  35.847  57.509  1.00  0.00     0.000 C 
BRANCH   6   7
ATOM      7  C   UNL     1      57.787  35.069  57.739  1.00  0.00     0.000 C 
BRANCH   7   8
ATOM      8  C   UNL     1      57.892  33.545  57.569  1.00  0.00     0.000 C 
BRANCH   8   9
ATOM      9  C   UNL     1      56.941  32.999  56.490  1.00  0.00     0.000 C 
BRANCH   9  10
ATOM     10  C   UNL     1      57.124  33.700  55.134  1.00  0.00     0.000 C 
BRANCH  10  11
ATOM     11  C   UNL     1      58.483  33.393  54.487  1.00  0.00     0.000 C 
BRANCH  11  12
ATOM     12  C   UNL     1      59.148  34.679  53.972  1.00  0.00     0.006 C 
BRANCH  12  13
ATOM     13  C   UNL     1      60.479  34.400  53.262  1.00  0.00     0.053 C 
BRANCH  13  14
ATOM     14  C   UNL     1      60.870  35.526  52.354  1.00  0.00     0.041 C 
ATOM     15  O   UNL     1      61.630  36.441  52.769  1.00  0.00    -0.550 OA
ATOM     16  O   UNL     1      60.383  35.571  51.055  1.00  0.00    -0.550 OA
ENDBRANCH  13  14
ENDBRANCH  12  13
ENDBRANCH  11  12
ENDBRANCH  10  11
ENDBRANCH   9  10
ENDBRANCH   8   9
ENDBRANCH   7   8
ENDBRANCH   6   7
ENDBRANCH   5   6
ENDBRANCH   4   5
ENDBRANCH   3   4
ENDBRANCH   2   3
ENDBRANCH   1   2
BRANCH   1  17
ATOM     17  C   UNL     1      64.118  33.522  60.772  1.00  0.00     0.000 C 
BRANCH  17  18
ATOM     18  C   UNL     1      64.557  32.725  59.531  1.00  0.00     0.000 C 
BRANCH  18  19
ATOM     19  C   UNL     1      64.430  31.195  59.668  1.00  0.00     0.000 C 
BRANCH  19  20
ATOM     20  C   UNL     1      63.927  30.700  61.040  1.00  0.00     0.000 C 
BRANCH  20  21
ATOM     21  C   UNL     1      62.736  29.724  60.988  1.00  0.00     0.000 C 
BRANCH  21  22
ATOM     22  C   UNL     1      61.428  30.355  61.492  1.00  0.00    -0.000 C 
BRANCH  22  23
ATOM     23  C   UNL     1      60.752  31.237  60.432  1.00  0.00    -0.000 C 
BRANCH  23  24
ATOM     24  C   UNL     1      60.216  30.428  59.236  1.00  0.00    -0.000 C 
BRANCH  24  25
ATOM     25  C   UNL     1      60.705  30.988  57.885  1.00  0.00    -0.000 C 
BRANCH  25  26
ATOM     26  C   UNL     1      61.348  32.387  57.977  1.00  0.00    -0.000 C 
BRANCH  26  27
ATOM     27  C   UNL     1      61.459  33.124  56.628  1.00  0.00    -0.000 C 
BRANCH  27  28
ATOM     28  C   UNL     1      62.883  33.639  56.354  1.00  0.00    -0.000 C 
BRANCH  28  29
ATOM     29  C   UNL     1      63.139  35.022  56.972  1.00  0.00    -0.003 C 
ATOM     30  C   UNL     1      62.411  36.142  56.227  1.00  0.00     0.004 C 
ENDBRANCH  28  29
ENDBRANCH  27  28
ENDBRANCH  26  27
ENDBRANCH  25  26
ENDBRANCH  24  25
ENDBRANCH  23  24
ENDBRANCH  22  23
ENDBRANCH  21  22
ENDBRANCH  20  21
ENDBRANCH  19  20
ENDBRANCH  18  19
ENDBRANCH  17  18
ENDBRANCH   1  17
TORSDOF 26
ENDMDL
MODEL 4
REMARK VINA RESULT:    -2.568      2.450      4.693
REMARK INTER + INTRA:         -12.572
REMARK INTER:                  -7.851
REMARK INTRA:                  -4.722
REMARK UNBOUND:                -6.102
REMARK SMILES CCCCCCCCCCCCCCCCCCCCCCCCCCCC(=O)[O-]
REMARK SMILES IDX 15 1 16 2 17 3 18 4 19 5 20 6 21 7 22 8 23 9 24 10 25 11
REMARK SMILES IDX 26 12 27 13 28 14 29 15 30 16 14 17 13 18 12 19 11 20 10 21
REMARK SMILES IDX 9 22 8 23 7 24 6 25 5 26 4 27 3 28 2 29 1 30
REMARK H PARENT
REMARK Flexibility Score: inf
ROOT
ATOM      1  C   UNL     1      63.107  34.243  60.680  1.00  0.00     0.000 C 
ENDROOT
BRANCH   1   2
ATOM      2  C   UNL     1      64.516  34.436  61.263  1.00  0.00     0.000 C 
BRANCH   2   3
ATOM      3  C   UNL     1      65.069  35.848  60.996  1.00  0.00     0.000 C 
BRANCH   3   4
ATOM      4  C   UNL     1      65.801  35.947  59.650  1.00  0.00     0.000 C 
BRANCH   4   5
ATOM      5  C   UNL     1      65.106  36.911  58.670  1.00  0.00     0.000 C 
BRANCH   5   6
ATOM      6  C   UNL     1      64.412  36.167  57.510  1.00  0.00     0.000 C 
BRANCH   6   7
ATOM      7  C   UNL     1      64.758  34.666  57.435  1.00  0.00     0.000 C 
BRANCH   7   8
ATOM      8  C   UNL     1      63.633  33.761  56.906  1.00  0.00     0.000 C 
BRANCH   8   9
ATOM      9  C   UNL     1      64.045  32.280  56.837  1.00  0.00     0.000 C 
BRANCH   9  10
ATOM     10  C   UNL     1      63.773  31.530  58.150  1.00  0.00     0.000 C 
BRANCH  10  11
ATOM     11  C   UNL     1      64.988  31.525  59.092  1.00  0.00     0.000 C 
BRANCH  11  12
ATOM     12  C   UNL     1      65.240  30.117  59.653  1.00  0.00     0.006 C 
BRANCH  12  13
ATOM     13  C   UNL     1      66.525  29.491  59.096  1.00  0.00     0.053 C 
BRANCH  13  14
ATOM     14  C   UNL     1      67.114  28.494  60.046  1.00  0.00     0.041 C 
ATOM     15  O   UNL     1      66.371  27.668  60.640  1.00  0.00    -0.550 OA
ATOM     16  O   UNL     1      68.481  28.485  60.285  1.00  0.00    -0.550 OA
ENDBRANCH  13  14
ENDBRANCH  12  13
ENDBRANCH  11  12
ENDBRANCH  10  11
ENDBRANCH   9  10
ENDBRANCH   8   9
ENDBRANCH   7   8
ENDBRANCH   6   7
ENDBRANCH   5   6
ENDBRANCH   4   5
ENDBRANCH   3   4
ENDBRANCH   2   3
ENDBRANCH   1   2
BRANCH   1  17
ATOM     17  C   UNL     1      62.292  35.547  60.671  1.00  0.00     0.000 C 
BRANCH  17  18
ATOM     18  C   UNL     1      60.922  35.386  59.988  1.00  0.00     0.000 C 
BRANCH  18  19
ATOM     19  C   UNL     1      60.877  35.843  58.517  1.00  0.00     0.000 C 
BRANCH  19  20
ATOM     20  C   UNL     1      60.360  34.787  57.517  1.00  0.00     0.000 C 
BRANCH  20  21
ATOM     21  C   UNL     1      59.593  33.609  58.148  1.00  0.00     0.000 C 
BRANCH  21  22
ATOM     22  C   UNL     1      60.186  32.242  57.769  1.00  0.00    -0.000 C 
BRANCH  22  23
ATOM     23  C   UNL     1      60.104  31.226  58.917  1.00  0.00    -0.000 C 
BRANCH  23  24
ATOM     24  C   UNL     1      60.870  31.680  60.173  1.00  0.00    -0.000 C 
BRANCH  24  25
ATOM     25  C   UNL     1      60.752  30.667  61.329  1.00  0.00    -0.000 C 
BRANCH  25  26
ATOM     26  C   UNL     1      61.990  29.763  61.505  1.00  0.00    -0.000 C 
BRANCH  26  27
ATOM     27  C   UNL     1      62.105  28.636  60.460  1.00  0.00    -0.000 C 
BRANCH  27  28
ATOM     28  C   UNL     1      62.552  27.301  61.081  1.00  0.00    -0.000 C 
BRANCH  28  29
ATOM     29  C   UNL     1      61.375  26.354  61.357  1.00  0.00    -0.003 C 
ATOM     30  C   UNL     1      61.530  25.592  62.674  1.00  0.00     0.004 C 
ENDBRANCH  28  29
ENDBRANCH  27  28
ENDBRANCH  26  27
ENDBRANCH  25  26
ENDBRANCH  24  25
ENDBRANCH  23  24
ENDBRANCH  22  23
ENDBRANCH  21  22
ENDBRANCH  20  21
ENDBRANCH  19  20
ENDBRANCH  18  19
ENDBRANCH  17  18
ENDBRANCH   1  17
TORSDOF 26
ENDMDL
MODEL 5
REMARK VINA RESULT:    -2.546      2.868      7.256
REMARK INTER + INTRA:         -12.518
REMARK INTER:                  -6.980
REMARK INTRA:                  -5.538
REMARK UNBOUND:                -6.102
REMARK SMILES CCCCCCCCCCCCCCCCCCCCCCCCCCCC(=O)[O-]
REMARK SMILES IDX 15 1 16 2 17 3 18 4 19 5 20 6 21 7 22 8 23 9 24 10 25 11
REMARK SMILES IDX 26 12 27 13 28 14 29 15 30 16 14 17 13 18 12 19 11 20 10 21
REMARK SMILES IDX 9 22 8 23 7 24 6 25 5 26 4 27 3 28 2 29 1 30
REMARK H PARENT
REMARK Flexibility Score: inf
ROOT
ATOM      1  C   UNL     1      63.708  32.965  56.287  1.00  0.00     0.000 C 
ENDROOT
BRANCH   1   2
ATOM      2  C   UNL     1      64.507  32.011  57.189  1.00  0.00     0.000 C 
BRANCH   2   3
ATOM      3  C   UNL     1      64.894  32.661  58.529  1.00  0.00     0.000 C 
BRANCH   3   4
ATOM      4  C   UNL     1      64.546  31.775  59.735  1.00  0.00     0.000 C 
BRANCH   4   5
ATOM      5  C   UNL     1      65.083  30.339  59.585  1.00  0.00     0.000 C 
BRANCH   5   6
ATOM      6  C   UNL     1      64.467  29.373  60.619  1.00  0.00     0.000 C 
BRANCH   6   7
ATOM      7  C   UNL     1      63.248  29.952  61.365  1.00  0.00     0.000 C 
BRANCH   7   8
ATOM      8  C   UNL     1      61.960  29.118  61.261  1.00  0.00     0.000 C 
BRANCH   8   9
ATOM      9  C   UNL     1      60.710  29.983  61.024  1.00  0.00     0.000 C 
BRANCH   9  10
ATOM     10  C   UNL     1      61.046  31.473  60.856  1.00  0.00     0.000 C 
BRANCH  10  11
ATOM     11  C   UNL     1      60.985  31.934  59.391  1.00  0.00     0.000 C 
BRANCH  11  12
ATOM     12  C   UNL     1      60.125  30.976  58.552  1.00  0.00     0.006 C 
BRANCH  12  13
ATOM     13  C   UNL     1      60.702  30.758  57.147  1.00  0.00     0.053 C 
BRANCH  13  14
ATOM     14  C   UNL     1      60.025  31.624  56.129  1.00  0.00     0.041 C 
ATOM     15  O   UNL     1      60.588  31.868  55.029  1.00  0.00    -0.550 OA
ATOM     16  O   UNL     1      58.779  32.170  56.401  1.00  0.00    -0.550 OA
ENDBRANCH  13  14
ENDBRANCH  12  13
ENDBRANCH  11  12
ENDBRANCH  10  11
ENDBRANCH   9  10
ENDBRANCH   8   9
ENDBRANCH   7   8
ENDBRANCH   6   7
ENDBRANCH   5   6
ENDBRANCH   4   5
ENDBRANCH   3   4
ENDBRANCH   2   3
ENDBRANCH   1   2
BRANCH   1  17
ATOM     17  C   UNL     1      62.913  34.007  57.094  1.00  0.00     0.000 C 
BRANCH  17  18
ATOM     18  C   UNL     1      62.823  35.367  56.380  1.00  0.00     0.000 C 
BRANCH  18  19
ATOM     19  C   UNL     1      63.452  36.544  57.152  1.00  0.00     0.000 C 
BRANCH  19  20
ATOM     20  C   UNL     1      64.838  36.259  57.767  1.00  0.00     0.000 C 
BRANCH  20  21
ATOM     21  C   UNL     1      65.157  37.044  59.053  1.00  0.00     0.000 C 
BRANCH  21  22
ATOM     22  C   UNL     1      65.121  36.163  60.312  1.00  0.00    -0.000 C 
BRANCH  22  23
ATOM     23  C   UNL     1      63.752  36.186  61.008  1.00  0.00    -0.000 C 
BRANCH  23  24
ATOM     24  C   UNL     1      62.950  34.890  60.793  1.00  0.00    -0.000 C 
BRANCH  24  25
ATOM     25  C   UNL     1      61.474  35.167  60.446  1.00  0.00    -0.000 C 
BRANCH  25  26
ATOM     26  C   UNL     1      61.190  36.618  60.008  1.00  0.00    -0.000 C 
BRANCH  26  27
ATOM     27  C   UNL     1      59.956  36.775  59.096  1.00  0.00    -0.000 C 
BRANCH  27  28
ATOM     28  C   UNL     1      59.715  35.537  58.216  1.00  0.00    -0.000 C 
BRANCH  28  29
ATOM     29  C   UNL     1      58.223  35.283  57.951  1.00  0.00    -0.003 C 
ATOM     30  C   UNL     1      57.705  36.047  56.731  1.00  0.00     0.004 C 
ENDBRANCH  28  29
ENDBRANCH  27  28
ENDBRANCH  26  27
ENDBRANCH  25  26
ENDBRANCH  24  25
ENDBRANCH  23  24
ENDBRANCH  22  23
ENDBRANCH  21  22
ENDBRANCH  20  21
ENDBRANCH  19  20
ENDBRANCH  18  19
ENDBRANCH  17  18
ENDBRANCH   1  17
TORSDOF 26
ENDMDL
MODEL 6
REMARK VINA RESULT:    -2.543      2.913      7.154
REMARK INTER + INTRA:         -12.511
REMARK INTER:                  -6.220
REMARK INTRA:                  -6.292
REMARK UNBOUND:                -6.102
REMARK SMILES CCCCCCCCCCCCCCCCCCCCCCCCCCCC(=O)[O-]
REMARK SMILES IDX 15 1 16 2 17 3 18 4 19 5 20 6 21 7 22 8 23 9 24 10 25 11
REMARK SMILES IDX 26 12 27 13 28 14 29 15 30 16 14 17 13 18 12 19 11 20 10 21
REMARK SMILES IDX 9 22 8 23 7 24 6 25 5 26 4 27 3 28 2 29 1 30
REMARK H PARENT
REMARK Flexibility Score: inf
ROOT
ATOM      1  C   UNL     1      60.324  34.589  57.860  1.00  0.00     0.000 C 
ENDROOT
BRANCH   1   2
ATOM      2  C   UNL     1      60.935  33.250  58.301  1.00  0.00     0.000 C 
BRANCH   2   3
ATOM      3  C   UNL     1      59.953  32.076  58.135  1.00  0.00     0.000 C 
BRANCH   3   4
ATOM      4  C   UNL     1      60.138  30.997  59.213  1.00  0.00     0.000 C 
BRANCH   4   5
ATOM      5  C   UNL     1      60.988  31.489  60.399  1.00  0.00     0.000 C 
BRANCH   5   6
ATOM      6  C   UNL     1      61.239  30.377  61.439  1.00  0.00     0.000 C 
BRANCH   6   7
ATOM      7  C   UNL     1      62.660  29.781  61.385  1.00  0.00     0.000 C 
BRANCH   7   8
ATOM      8  C   UNL     1      63.768  30.766  60.980  1.00  0.00     0.000 C 
BRANCH   8   9
ATOM      9  C   UNL     1      64.935  30.081  60.247  1.00  0.00     0.000 C 
BRANCH   9  10
ATOM     10  C   UNL     1      65.178  30.669  58.847  1.00  0.00     0.000 C 
BRANCH  10  11
ATOM     11  C   UNL     1      63.872  31.023  58.119  1.00  0.00     0.000 C 
BRANCH  11  12
ATOM     12  C   UNL     1      63.542  29.975  57.044  1.00  0.00     0.006 C 
BRANCH  12  13
ATOM     13  C   UNL     1      62.522  28.940  57.537  1.00  0.00     0.053 C 
BRANCH  13  14
ATOM     14  C   UNL     1      63.192  27.702  58.050  1.00  0.00     0.041 C 
ATOM     15  O   UNL     1      62.722  27.094  59.048  1.00  0.00    -0.550 OA
ATOM     16  O   UNL     1      64.342  27.229  57.435  1.00  0.00    -0.550 OA
ENDBRANCH  13  14
ENDBRANCH  12  13
ENDBRANCH  11  12
ENDBRANCH  10  11
ENDBRANCH   9  10
ENDBRANCH   8   9
ENDBRANCH   7   8
ENDBRANCH   6   7
ENDBRANCH   5   6
ENDBRANCH   4   5
ENDBRANCH   3   4
ENDBRANCH   2   3
ENDBRANCH   1   2
BRANCH   1  17
ATOM     17  C   UNL     1      60.688  35.742  58.811  1.00  0.00     0.000 C 
BRANCH  17  18
ATOM     18  C   UNL     1      61.093  35.249  60.212  1.00  0.00     0.000 C 
BRANCH  18  19
ATOM     19  C   UNL     1      62.525  35.628  60.640  1.00  0.00     0.000 C 
BRANCH  19  20
ATOM     20  C   UNL     1      63.476  34.436  60.876  1.00  0.00     0.000 C 
BRANCH  20  21
ATOM     21  C   UNL     1      64.591  34.271  59.827  1.00  0.00     0.000 C 
BRANCH  21  22
ATOM     22  C   UNL     1      64.483  35.289  58.679  1.00  0.00    -0.000 C 
BRANCH  22  23
ATOM     23  C   UNL     1      64.288  34.616  57.312  1.00  0.00    -0.000 C 
BRANCH  23  24
ATOM     24  C   UNL     1      64.337  35.615  56.142  1.00  0.00    -0.000 C 
BRANCH  24  25
ATOM     25  C   UNL     1      63.147  36.595  56.160  1.00  0.00    -0.000 C 
BRANCH  25  26
ATOM     26  C   UNL     1      62.052  36.278  55.120  1.00  0.00    -0.000 C 
BRANCH  26  27
ATOM     27  C   UNL     1      62.527  35.393  53.950  1.00  0.00    -0.000 C 
BRANCH  27  28
ATOM     28  C   UNL     1      61.679  34.119  53.794  1.00  0.00    -0.000 C 
BRANCH  28  29
ATOM     29  C   UNL     1      62.057  33.031  54.810  1.00  0.00    -0.003 C 
ATOM     30  C   UNL     1      61.276  31.733  54.600  1.00  0.00     0.004 C 
ENDBRANCH  28  29
ENDBRANCH  27  28
ENDBRANCH  26  27
ENDBRANCH  25  26
ENDBRANCH  24  25
ENDBRANCH  23  24
ENDBRANCH  22  23
ENDBRANCH  21  22
ENDBRANCH  20  21
ENDBRANCH  19  20
ENDBRANCH  18  19
ENDBRANCH  17  18
ENDBRANCH   1  17
TORSDOF 26
ENDMDL
MODEL 7
REMARK VINA RESULT:    -2.532      3.335      6.606
REMARK INTER + INTRA:         -12.481
REMARK INTER:                  -6.653
REMARK INTRA:                  -5.828
REMARK UNBOUND:                -6.102
REMARK SMILES CCCCCCCCCCCCCCCCCCCCCCCCCCCC(=O)[O-]
REMARK SMILES IDX 15 1 16 2 17 3 18 4 19 5 20 6 21 7 22 8 23 9 24 10 25 11
REMARK SMILES IDX 26 12 27 13 28 14 29 15 30 16 14 17 13 18 12 19 11 20 10 21
REMARK SMILES IDX 9 22 8 23 7 24 6 25 5 26 4 27 3 28 2 29 1 30
REMARK H PARENT
REMARK Flexibility Score: inf
ROOT
ATOM      1  C   UNL     1      63.354  30.200  56.250  1.00  0.00     0.000 C 
ENDROOT
BRANCH   1   2
ATOM      2  C   UNL     1      64.147  30.773  57.435  1.00  0.00     0.000 C 
BRANCH   2   3
ATOM      3  C   UNL     1      64.376  29.730  58.544  1.00  0.00     0.000 C 
BRANCH   3   4
ATOM      4  C   UNL     1      65.075  30.325  59.776  1.00  0.00     0.000 C 
BRANCH   4   5
ATOM      5  C   UNL     1      64.145  30.405  61.001  1.00  0.00     0.000 C 
BRANCH   5   6
ATOM      6  C   UNL     1      62.900  29.507  60.849  1.00  0.00     0.000 C 
BRANCH   6   7
ATOM      7  C   UNL     1      61.682  29.985  61.666  1.00  0.00     0.000 C 
BRANCH   7   8
ATOM      8  C   UNL     1      60.423  30.299  60.841  1.00  0.00     0.000 C 
BRANCH   8   9
ATOM      9  C   UNL     1      60.679  30.253  59.324  1.00  0.00     0.000 C 
BRANCH   9  10
ATOM     10  C   UNL     1      59.424  30.591  58.504  1.00  0.00     0.000 C 
BRANCH  10  11
ATOM     11  C   UNL     1      59.346  32.078  58.124  1.00  0.00     0.000 C 
BRANCH  11  12
ATOM     12  C   UNL     1      58.322  32.303  57.001  1.00  0.00     0.006 C 
BRANCH  12  13
ATOM     13  C   UNL     1      57.501  33.582  57.212  1.00  0.00     0.053 C 
BRANCH  13  14
ATOM     14  C   UNL     1      57.117  34.216  55.910  1.00  0.00     0.041 C 
ATOM     15  O   UNL     1      56.224  33.697  55.190  1.00  0.00    -0.550 OA
ATOM     16  O   UNL     1      57.757  35.373  55.486  1.00  0.00    -0.550 OA
ENDBRANCH  13  14
ENDBRANCH  12  13
ENDBRANCH  11  12
ENDBRANCH  10  11
ENDBRANCH   9  10
ENDBRANCH   8   9
ENDBRANCH   7   8
ENDBRANCH   6   7
ENDBRANCH   5   6
ENDBRANCH   4   5
ENDBRANCH   3   4
ENDBRANCH   2   3
ENDBRANCH   1   2
BRANCH   1  17
ATOM     17  C   UNL     1      62.066  30.992  55.967  1.00  0.00     0.000 C 
BRANCH  17  18
ATOM     18  C   UNL     1      62.281  32.515  56.031  1.00  0.00     0.000 C 
BRANCH  18  19
ATOM     19  C   UNL     1      61.340  33.337  55.128  1.00  0.00     0.000 C 
BRANCH  19  20
ATOM     20  C   UNL     1      61.250  34.839  55.472  1.00  0.00     0.000 C 
BRANCH  20  21
ATOM     21  C   UNL     1      62.278  35.337  56.504  1.00  0.00     0.000 C 
BRANCH  21  22
ATOM     22  C   UNL     1      61.687  36.363  57.485  1.00  0.00    -0.000 C 
BRANCH  22  23
ATOM     23  C   UNL     1      60.253  36.012  57.910  1.00  0.00    -0.000 C 
BRANCH  23  24
ATOM     24  C   UNL     1      60.070  35.997  59.439  1.00  0.00    -0.000 C 
BRANCH  24  25
ATOM     25  C   UNL     1      61.326  35.486  60.173  1.00  0.00    -0.000 C 
BRANCH  25  26
ATOM     26  C   UNL     1      61.385  33.952  60.329  1.00  0.00    -0.000 C 
BRANCH  26  27
ATOM     27  C   UNL     1      62.589  33.290  59.630  1.00  0.00    -0.000 C 
BRANCH  27  28
ATOM     28  C   UNL     1      63.850  34.171  59.670  1.00  0.00    -0.000 C 
BRANCH  28  29
ATOM     29  C   UNL     1      64.557  34.129  61.033  1.00  0.00    -0.003 C 
ATOM     30  C   UNL     1      64.961  35.517  61.528  1.00  0.00     0.004 C 
ENDBRANCH  28  29
ENDBRANCH  27  28
ENDBRANCH  26  27
ENDBRANCH  25  26
ENDBRANCH  24  25
ENDBRANCH  23  24
ENDBRANCH  22  23
ENDBRANCH  21  22
ENDBRANCH  20  21
ENDBRANCH  19  20
ENDBRANCH  18  19
ENDBRANCH  17  18
ENDBRANCH   1  17
TORSDOF 26
ENDMDL
MODEL 8
REMARK VINA RESULT:    -2.531      1.464      3.548
REMARK INTER + INTRA:         -12.479
REMARK INTER:                  -7.176
REMARK INTRA:                  -5.303
REMARK UNBOUND:                -6.102
REMARK SMILES CCCCCCCCCCCCCCCCCCCCCCCCCCCC(=O)[O-]
REMARK SMILES IDX 15 1 16 2 17 3 18 4 19 5 20 6 21 7 22 8 23 9 24 10 25 11
REMARK SMILES IDX 26 12 27 13 28 14 29 15 30 16 14 17 13 18 12 19 11 20 10 21
REMARK SMILES IDX 9 22 8 23 7 24 6 25 5 26 4 27 3 28 2 29 1 30
REMARK H PARENT
REMARK Flexibility Score: inf
ROOT
ATOM      1  C   UNL     1      64.762  35.017  60.952  1.00  0.00     0.000 C 
ENDROOT
BRANCH   1   2
ATOM      2  C   UNL     1      64.192  36.305  61.565  1.00  0.00     0.000 C 
BRANCH   2   3
ATOM      3  C   UNL     1      63.343  37.104  60.560  1.00  0.00     0.000 C 
BRANCH   3   4
ATOM      4  C   UNL     1      61.853  37.125  60.936  1.00  0.00     0.000 C 
BRANCH   4   5
ATOM      5  C   UNL     1      60.979  36.363  59.922  1.00  0.00     0.000 C 
BRANCH   5   6
ATOM      6  C   UNL     1      61.468  36.551  58.470  1.00  0.00     0.000 C 
BRANCH   6   7
ATOM      7  C   UNL     1      61.950  35.248  57.801  1.00  0.00     0.000 C 
BRANCH   7   8
ATOM      8  C   UNL     1      62.976  35.435  56.671  1.00  0.00     0.000 C 
BRANCH   8   9
ATOM      9  C   UNL     1      64.427  35.258  57.149  1.00  0.00     0.000 C 
BRANCH   9  10
ATOM     10  C   UNL     1      65.076  36.587  57.570  1.00  0.00     0.000 C 
BRANCH  10  11
ATOM     11  C   UNL     1      66.586  36.625  57.287  1.00  0.00     0.000 C 
BRANCH  11  12
ATOM     12  C   UNL     1      67.346  35.691  58.241  1.00  0.00     0.006 C 
BRANCH  12  13
ATOM     13  C   UNL     1      68.811  35.503  57.826  1.00  0.00     0.053 C 
BRANCH  13  14
ATOM     14  C   UNL     1      68.978  34.345  56.891  1.00  0.00     0.041 C 
ATOM     15  O   UNL     1      69.348  33.223  57.330  1.00  0.00    -0.550 OA
ATOM     16  O   UNL     1      68.740  34.508  55.534  1.00  0.00    -0.550 OA
ENDBRANCH  13  14
ENDBRANCH  12  13
ENDBRANCH  11  12
ENDBRANCH  10  11
ENDBRANCH   9  10
ENDBRANCH   8   9
ENDBRANCH   7   8
ENDBRANCH   6   7
ENDBRANCH   5   6
ENDBRANCH   4   5
ENDBRANCH   3   4
ENDBRANCH   2   3
ENDBRANCH   1   2
BRANCH   1  17
ATOM     17  C   UNL     1      63.666  33.989  60.623  1.00  0.00     0.000 C 
BRANCH  17  18
ATOM     18  C   UNL     1      64.180  32.538  60.672  1.00  0.00     0.000 C 
BRANCH  18  19
ATOM     19  C   UNL     1      64.480  31.913  59.295  1.00  0.00     0.000 C 
BRANCH  19  20
ATOM     20  C   UNL     1      64.722  30.390  59.306  1.00  0.00     0.000 C 
BRANCH  20  21
ATOM     21  C   UNL     1      64.249  29.661  60.577  1.00  0.00     0.000 C 
BRANCH  21  22
ATOM     22  C   UNL     1      62.795  29.170  60.475  1.00  0.00    -0.000 C 
BRANCH  22  23
ATOM     23  C   UNL     1      61.945  29.592  61.682  1.00  0.00    -0.000 C 
BRANCH  23  24
ATOM     24  C   UNL     1      60.951  30.720  61.349  1.00  0.00    -0.000 C 
BRANCH  24  25
ATOM     25  C   UNL     1      60.511  30.693  59.871  1.00  0.00    -0.000 C 
BRANCH  25  26
ATOM     26  C   UNL     1      60.807  31.997  59.101  1.00  0.00    -0.000 C 
BRANCH  26  27
ATOM     27  C   UNL     1      60.978  31.810  57.580  1.00  0.00    -0.000 C 
BRANCH  27  28
ATOM     28  C   UNL     1      61.438  30.388  57.211  1.00  0.00    -0.000 C 
BRANCH  28  29
ATOM     29  C   UNL     1      62.663  30.387  56.284  1.00  0.00    -0.003 C 
ATOM     30  C   UNL     1      63.059  31.792  55.832  1.00  0.00     0.004 C 
ENDBRANCH  28  29
ENDBRANCH  27  28
ENDBRANCH  26  27
ENDBRANCH  25  26
ENDBRANCH  24  25
ENDBRANCH  23  24
ENDBRANCH  22  23
ENDBRANCH  21  22
ENDBRANCH  20  21
ENDBRANCH  19  20
ENDBRANCH  18  19
ENDBRANCH  17  18
ENDBRANCH   1  17
TORSDOF 26
ENDMDL
MODEL 9
REMARK VINA RESULT:    -2.496      9.266     12.066
REMARK INTER + INTRA:         -12.391
REMARK INTER:                  -6.639
REMARK INTRA:                  -5.752
REMARK UNBOUND:                -6.102
REMARK SMILES CCCCCCCCCCCCCCCCCCCCCCCCCCCC(=O)[O-]
REMARK SMILES IDX 15 1 16 2 17 3 18 4 19 5 20 6 21 7 22 8 23 9 24 10 25 11
REMARK SMILES IDX 26 12 27 13 28 14 29 15 30 16 14 17 13 18 12 19 11 20 10 21
REMARK SMILES IDX 9 22 8 23 7 24 6 25 5 26 4 27 3 28 2 29 1 30
REMARK H PARENT
REMARK Flexibility Score: inf
ROOT
ATOM      1  C   UNL     1      57.776  27.921  52.275  1.00  0.00     0.000 C 
ENDROOT
BRANCH   1   2
ATOM      2  C   UNL     1      57.581  26.536  51.639  1.00  0.00     0.000 C 
BRANCH   2   3
ATOM      3  C   UNL     1      58.773  25.599  51.904  1.00  0.00     0.000 C 
BRANCH   3   4
ATOM      4  C   UNL     1      59.538  25.243  50.621  1.00  0.00     0.000 C 
BRANCH   4   5
ATOM      5  C   UNL     1      59.233  26.213  49.464  1.00  0.00     0.000 C 
BRANCH   5   6
ATOM      6  C   UNL     1      60.366  27.236  49.244  1.00  0.00     0.000 C 
BRANCH   6   7
ATOM      7  C   UNL     1      59.869  28.676  49.005  1.00  0.00     0.000 C 
BRANCH   7   8
ATOM      8  C   UNL     1      60.257  29.691  50.093  1.00  0.00     0.000 C 
BRANCH   8   9
ATOM      9  C   UNL     1      61.589  29.346  50.781  1.00  0.00     0.000 C 
BRANCH   9  10
ATOM     10  C   UNL     1      61.424  29.079  52.286  1.00  0.00     0.000 C 
BRANCH  10  11
ATOM     11  C   UNL     1      61.645  27.604  52.653  1.00  0.00     0.000 C 
BRANCH  11  12
ATOM     12  C   UNL     1      62.943  27.072  52.027  1.00  0.00     0.006 C 
BRANCH  12  13
ATOM     13  C   UNL     1      63.102  25.558  52.219  1.00  0.00     0.053 C 
BRANCH  13  14
ATOM     14  C   UNL     1      63.175  24.837  50.907  1.00  0.00     0.041 C 
ATOM     15  O   UNL     1      62.953  23.599  50.850  1.00  0.00    -0.550 OA
ATOM     16  O   UNL     1      63.502  25.532  49.751  1.00  0.00    -0.550 OA
ENDBRANCH  13  14
ENDBRANCH  12  13
ENDBRANCH  11  12
ENDBRANCH  10  11
ENDBRANCH   9  10
ENDBRANCH   8   9
ENDBRANCH   7   8
ENDBRANCH   6   7
ENDBRANCH   5   6
ENDBRANCH   4   5
ENDBRANCH   3   4
ENDBRANCH   2   3
ENDBRANCH   1   2
BRANCH   1  17
ATOM     17  C   UNL     1      57.002  29.023  51.531  1.00  0.00     0.000 C 
BRANCH  17  18
ATOM     18  C   UNL     1      56.337  28.512  50.241  1.00  0.00     0.000 C 
BRANCH  18  19
ATOM     19  C   UNL     1      54.844  28.871  50.099  1.00  0.00     0.000 C 
BRANCH  19  20
ATOM     20  C   UNL     1      53.928  27.706  49.669  1.00  0.00     0.000 C 
BRANCH  20  21
ATOM     21  C   UNL     1      54.657  26.396  49.315  1.00  0.00     0.000 C 
BRANCH  21  22
ATOM     22  C   UNL     1      54.371  25.267  50.319  1.00  0.00    -0.000 C 
BRANCH  22  23
ATOM     23  C   UNL     1      53.244  25.623  51.300  1.00  0.00    -0.000 C 
BRANCH  23  24
ATOM     24  C   UNL     1      53.673  25.498  52.773  1.00  0.00    -0.000 C 
BRANCH  24  25
ATOM     25  C   UNL     1      54.324  26.791  53.303  1.00  0.00    -0.000 C 
BRANCH  25  26
ATOM     26  C   UNL     1      53.356  27.988  53.409  1.00  0.00    -0.000 C 
BRANCH  26  27
ATOM     27  C   UNL     1      54.040  29.328  53.745  1.00  0.00    -0.000 C 
BRANCH  27  28
ATOM     28  C   UNL     1      55.192  29.165  54.752  1.00  0.00    -0.000 C 
BRANCH  28  29
ATOM     29  C   UNL     1      54.946  29.934  56.059  1.00  0.00    -0.003 C 
ATOM     30  C   UNL     1      53.885  29.273  56.939  1.00  0.00     0.004 C 
ENDBRANCH  28  29
ENDBRANCH  27  28
ENDBRANCH  26  27
ENDBRANCH  25  26
ENDBRANCH  24  25
ENDBRANCH  23  24
ENDBRANCH  22  23
ENDBRANCH  21  22
ENDBRANCH  20  21
ENDBRANCH  19  20
ENDBRANCH  18  19
ENDBRANCH  17  18
ENDBRANCH   1  17
TORSDOF 26
ENDMDL
