MODEL 1
REMARK VINA RESULT:    -4.726      0.000      0.000
REMARK INTER + INTRA:         -10.375
REMARK INTER:                  -8.595
REMARK INTRA:                  -1.780
REMARK UNBOUND:                -1.780
REMARK SMILES CCCCCCCCCCCCCCCC(=O)[O-]
REMARK SMILES IDX 9 1 10 2 11 3 12 4 13 5 14 6 15 7 16 8 17 9 18 10 8 11 7 12
REMARK SMILES IDX 6 13 5 14 4 15 3 16 2 17 1 18
REMARK H PARENT
REMARK Flexibility Score: inf
ROOT
ATOM      1  C   UNL     1      46.552 -39.205  -4.748  1.00  0.00     0.000 C 
ENDROOT
BRANCH   1   2
ATOM      2  C   UNL     1      46.928 -40.469  -3.957  1.00  0.00     0.000 C 
BRANCH   2   3
ATOM      3  C   UNL     1      48.341 -40.974  -4.281  1.00  0.00     0.000 C 
BRANCH   3   4
ATOM      4  C   UNL     1      49.156 -41.182  -2.998  1.00  0.00     0.000 C 
BRANCH   4   5
ATOM      5  C   UNL     1      50.521 -41.810  -3.307  1.00  0.00     0.000 C 
BRANCH   5   6
ATOM      6  C   UNL     1      51.642 -41.098  -2.533  1.00  0.00     0.006 C 
BRANCH   6   7
ATOM      7  C   UNL     1      52.782 -42.053  -2.156  1.00  0.00     0.053 C 
BRANCH   7   8
ATOM      8  C   UNL     1      54.052 -41.314  -1.863  1.00  0.00     0.041 C 
ATOM      9  O   UNL     1      55.134 -41.944  -1.729  1.00  0.00    -0.550 OA
ATOM     10  O   UNL     1      54.046 -39.928  -1.771  1.00  0.00    -0.550 OA
ENDBRANCH   7   8
ENDBRANCH   6   7
ENDBRANCH   5   6
ENDBRANCH   4   5
ENDBRANCH   3   4
ENDBRANCH   2   3
ENDBRANCH   1   2
BRANCH   1  11
ATOM     11  C   UNL     1      47.656 -38.135  -4.711  1.00  0.00     0.000 C 
BRANCH  11  12
ATOM     12  C   UNL     1      47.633 -37.305  -3.417  1.00  0.00    -0.000 C 
BRANCH  12  13
ATOM     13  C   UNL     1      48.875 -36.409  -3.267  1.00  0.00    -0.000 C 
BRANCH  13  14
ATOM     14  C   UNL     1      50.035 -36.841  -4.180  1.00  0.00    -0.000 C 
BRANCH  14  15
ATOM     15  C   UNL     1      51.005 -37.866  -3.563  1.00  0.00    -0.000 C 
BRANCH  15  16
ATOM     16  C   UNL     1      52.124 -38.323  -4.523  1.00  0.00    -0.000 C 
BRANCH  16  17
ATOM     17  C   UNL     1      51.688 -38.267  -5.994  1.00  0.00    -0.003 C 
ATOM     18  C   UNL     1      50.930 -39.530  -6.393  1.00  0.00     0.004 C 
ENDBRANCH  16  17
ENDBRANCH  15  16
ENDBRANCH  14  15
ENDBRANCH  13  14
ENDBRANCH  12  13
ENDBRANCH  11  12
ENDBRANCH   1  11
TORSDOF 14
ENDMDL
MODEL 2
REMARK VINA RESULT:    -4.552      1.221      1.981
REMARK INTER + INTRA:         -10.058
REMARK INTER:                  -8.277
REMARK INTRA:                  -1.781
REMARK UNBOUND:                -1.780
REMARK SMILES CCCCCCCCCCCCCCCC(=O)[O-]
REMARK SMILES IDX 9 1 10 2 11 3 12 4 13 5 14 6 15 7 16 8 17 9 18 10 8 11 7 12
REMARK SMILES IDX 6 13 5 14 4 15 3 16 2 17 1 18
REMARK H PARENT
REMARK Flexibility Score: inf
ROOT
ATOM      1  C   UNL     1      45.823 -39.766  -2.889  1.00  0.00     0.000 C 
ENDROOT
BRANCH   1   2
ATOM      2  C   UNL     1      47.285 -40.212  -3.051  1.00  0.00     0.000 C 
BRANCH   2   3
ATOM      3  C   UNL     1      47.630 -40.602  -4.496  1.00  0.00     0.000 C 
BRANCH   3   4
ATOM      4  C   UNL     1      49.084 -41.078  -4.603  1.00  0.00     0.000 C 
BRANCH   4   5
ATOM      5  C   UNL     1      49.505 -41.850  -3.345  1.00  0.00     0.000 C 
BRANCH   5   6
ATOM      6  C   UNL     1      51.035 -41.933  -3.238  1.00  0.00     0.006 C 
BRANCH   6   7
ATOM      7  C   UNL     1      51.672 -40.567  -2.952  1.00  0.00     0.053 C 
BRANCH   7   8
ATOM      8  C   UNL     1      52.996 -40.703  -2.265  1.00  0.00     0.041 C 
ATOM      9  O   UNL     1      53.742 -39.698  -2.125  1.00  0.00    -0.550 OA
ATOM     10  O   UNL     1      53.390 -41.931  -1.750  1.00  0.00    -0.550 OA
ENDBRANCH   7   8
ENDBRANCH   6   7
ENDBRANCH   5   6
ENDBRANCH   4   5
ENDBRANCH   3   4
ENDBRANCH   2   3
ENDBRANCH   1   2
BRANCH   1  11
ATOM     11  C   UNL     1      45.249 -39.142  -4.172  1.00  0.00     0.000 C 
BRANCH  11  12
ATOM     12  C   UNL     1      45.337 -37.607  -4.175  1.00  0.00    -0.000 C 
BRANCH  12  13
ATOM     13  C   UNL     1      46.440 -37.080  -5.110  1.00  0.00    -0.000 C 
BRANCH  13  14
ATOM     14  C   UNL     1      47.786 -36.882  -4.391  1.00  0.00    -0.000 C 
BRANCH  14  15
ATOM     15  C   UNL     1      48.997 -36.673  -5.320  1.00  0.00    -0.000 C 
BRANCH  15  16
ATOM     16  C   UNL     1      50.174 -37.631  -5.035  1.00  0.00    -0.000 C 
BRANCH  16  17
ATOM     17  C   UNL     1      51.183 -37.674  -6.191  1.00  0.00    -0.003 C 
ATOM     18  C   UNL     1      51.427 -39.106  -6.658  1.00  0.00     0.004 C 
ENDBRANCH  16  17
ENDBRANCH  15  16
ENDBRANCH  14  15
ENDBRANCH  13  14
ENDBRANCH  12  13
ENDBRANCH  11  12
ENDBRANCH   1  11
TORSDOF 14
ENDMDL
MODEL 3
REMARK VINA RESULT:    -4.529      1.185      3.607
REMARK INTER + INTRA:         -10.017
REMARK INTER:                  -8.228
REMARK INTRA:                  -1.789
REMARK UNBOUND:                -1.780
REMARK SMILES CCCCCCCCCCCCCCCC(=O)[O-]
REMARK SMILES IDX 9 1 10 2 11 3 12 4 13 5 14 6 15 7 16 8 17 9 18 10 8 11 7 12
REMARK SMILES IDX 6 13 5 14 4 15 3 16 2 17 1 18
REMARK H PARENT
REMARK Flexibility Score: inf
ROOT
ATOM      1  C   UNL     1      51.371 -38.528  -5.528  1.00  0.00     0.000 C 
ENDROOT
BRANCH   1   2
ATOM      2  C   UNL     1      50.725 -39.847  -5.983  1.00  0.00     0.000 C 
BRANCH   2   3
ATOM      3  C   UNL     1      49.498 -40.229  -5.141  1.00  0.00     0.000 C 
BRANCH   3   4
ATOM      4  C   UNL     1      49.804 -41.435  -4.244  1.00  0.00     0.000 C 
BRANCH   4   5
ATOM      5  C   UNL     1      50.226 -40.984  -2.839  1.00  0.00     0.000 C 
BRANCH   5   6
ATOM      6  C   UNL     1      51.700 -41.322  -2.573  1.00  0.00     0.006 C 
BRANCH   6   7
ATOM      7  C   UNL     1      52.585 -40.069  -2.530  1.00  0.00     0.053 C 
BRANCH   7   8
ATOM      8  C   UNL     1      53.987 -40.391  -2.112  1.00  0.00     0.041 C 
ATOM      9  O   UNL     1      54.837 -39.472  -1.986  1.00  0.00    -0.550 OA
ATOM     10  O   UNL     1      54.345 -41.703  -1.828  1.00  0.00    -0.550 OA
ENDBRANCH   7   8
ENDBRANCH   6   7
ENDBRANCH   5   6
ENDBRANCH   4   5
ENDBRANCH   3   4
ENDBRANCH   2   3
ENDBRANCH   1   2
BRANCH   1  11
ATOM     11  C   UNL     1      50.400 -37.636  -4.736  1.00  0.00     0.000 C 
BRANCH  11  12
ATOM     12  C   UNL     1      49.785 -36.521  -5.598  1.00  0.00    -0.000 C 
BRANCH  12  13
ATOM     13  C   UNL     1      48.345 -36.177  -5.180  1.00  0.00    -0.000 C 
BRANCH  13  14
ATOM     14  C   UNL     1      47.663 -37.317  -4.403  1.00  0.00    -0.000 C 
BRANCH  14  15
ATOM     15  C   UNL     1      46.232 -37.656  -4.864  1.00  0.00    -0.000 C 
BRANCH  15  16
ATOM     16  C   UNL     1      45.962 -39.170  -4.998  1.00  0.00    -0.000 C 
BRANCH  16  17
ATOM     17  C   UNL     1      45.411 -39.780  -3.701  1.00  0.00    -0.003 C 
ATOM     18  C   UNL     1      46.539 -40.304  -2.816  1.00  0.00     0.004 C 
ENDBRANCH  16  17
ENDBRANCH  15  16
ENDBRANCH  14  15
ENDBRANCH  13  14
ENDBRANCH  12  13
ENDBRANCH  11  12
ENDBRANCH   1  11
TORSDOF 14
ENDMDL
MODEL 4
REMARK VINA RESULT:    -4.494      3.074      5.320
REMARK INTER + INTRA:          -9.953
REMARK INTER:                  -8.542
REMARK INTRA:                  -1.411
REMARK UNBOUND:                -1.780
REMARK SMILES CCCCCCCCCCCCCCCC(=O)[O-]
REMARK SMILES IDX 9 1 10 2 11 3 12 4 13 5 14 6 15 7 16 8 17 9 18 10 8 11 7 12
REMARK SMILES IDX 6 13 5 14 4 15 3 16 2 17 1 18
REMARK H PARENT
REMARK Flexibility Score: inf
ROOT
ATOM      1  C   UNL     1      48.790 -41.029  -3.820  1.00  0.00     0.000 C 
ENDROOT
BRANCH   1   2
ATOM      2  C   UNL     1      47.348 -40.570  -3.549  1.00  0.00     0.000 C 
BRANCH   2   3
ATOM      3  C   UNL     1      46.754 -39.762  -4.712  1.00  0.00     0.000 C 
BRANCH   3   4
ATOM      4  C   UNL     1      45.478 -39.031  -4.276  1.00  0.00     0.000 C 
BRANCH   4   5
ATOM      5  C   UNL     1      44.744 -39.811  -3.177  1.00  0.00     0.000 C 
BRANCH   5   6
ATOM      6  C   UNL     1      44.354 -38.887  -2.013  1.00  0.00     0.006 C 
BRANCH   6   7
ATOM      7  C   UNL     1      45.104 -39.235  -0.721  1.00  0.00     0.053 C 
BRANCH   7   8
ATOM      8  C   UNL     1      46.469 -38.616  -0.686  1.00  0.00     0.041 C 
ATOM      9  O   UNL     1      46.652 -37.461  -1.153  1.00  0.00    -0.550 OA
ATOM     10  O   UNL     1      47.529 -39.301  -0.107  1.00  0.00    -0.550 OA
ENDBRANCH   7   8
ENDBRANCH   6   7
ENDBRANCH   5   6
ENDBRANCH   4   5
ENDBRANCH   3   4
ENDBRANCH   2   3
ENDBRANCH   1   2
BRANCH   1  11
ATOM     11  C   UNL     1      49.230 -40.770  -5.271  1.00  0.00     0.000 C 
BRANCH  11  12
ATOM     12  C   UNL     1      50.470 -39.865  -5.361  1.00  0.00    -0.000 C 
BRANCH  12  13
ATOM     13  C   UNL     1      50.251 -38.494  -4.699  1.00  0.00    -0.000 C 
BRANCH  13  14
ATOM     14  C   UNL     1      51.198 -38.248  -3.511  1.00  0.00    -0.000 C 
BRANCH  14  15
ATOM     15  C   UNL     1      52.114 -39.434  -3.151  1.00  0.00    -0.000 C 
BRANCH  15  16
ATOM     16  C   UNL     1      53.488 -39.012  -2.586  1.00  0.00    -0.000 C 
BRANCH  16  17
ATOM     17  C   UNL     1      54.216 -40.175  -1.898  1.00  0.00    -0.003 C 
ATOM     18  C   UNL     1      53.335 -41.419  -1.838  1.00  0.00     0.004 C 
ENDBRANCH  16  17
ENDBRANCH  15  16
ENDBRANCH  14  15
ENDBRANCH  13  14
ENDBRANCH  12  13
ENDBRANCH  11  12
ENDBRANCH   1  11
TORSDOF 14
ENDMDL
MODEL 5
REMARK VINA RESULT:    -4.430      3.234      5.196
REMARK INTER + INTRA:          -9.837
REMARK INTER:                  -7.707
REMARK INTRA:                  -2.129
REMARK UNBOUND:                -1.780
REMARK SMILES CCCCCCCCCCCCCCCC(=O)[O-]
REMARK SMILES IDX 9 1 10 2 11 3 12 4 13 5 14 6 15 7 16 8 17 9 18 10 8 11 7 12
REMARK SMILES IDX 6 13 5 14 4 15 3 16 2 17 1 18
REMARK H PARENT
REMARK Flexibility Score: inf
ROOT
ATOM      1  C   UNL     1      46.375 -40.293  -3.783  1.00  0.00     0.000 C 
ENDROOT
BRANCH   1   2
ATOM      2  C   UNL     1      46.253 -38.923  -4.470  1.00  0.00     0.000 C 
BRANCH   2   3
ATOM      3  C   UNL     1      47.021 -37.818  -3.729  1.00  0.00     0.000 C 
BRANCH   3   4
ATOM      4  C   UNL     1      48.051 -37.154  -4.652  1.00  0.00     0.000 C 
BRANCH   4   5
ATOM      5  C   UNL     1      49.391 -36.957  -3.931  1.00  0.00     0.000 C 
BRANCH   5   6
ATOM      6  C   UNL     1      49.232 -37.145  -2.415  1.00  0.00     0.006 C 
BRANCH   6   7
ATOM      7  C   UNL     1      49.629 -35.888  -1.629  1.00  0.00     0.053 C 
BRANCH   7   8
ATOM      8  C   UNL     1      48.430 -35.138  -1.137  1.00  0.00     0.041 C 
ATOM      9  O   UNL     1      47.780 -35.562  -0.146  1.00  0.00    -0.550 OA
ATOM     10  O   UNL     1      48.051 -33.951  -1.752  1.00  0.00    -0.550 OA
ENDBRANCH   7   8
ENDBRANCH   6   7
ENDBRANCH   5   6
ENDBRANCH   4   5
ENDBRANCH   3   4
ENDBRANCH   2   3
ENDBRANCH   1   2
BRANCH   1  11
ATOM     11  C   UNL     1      47.327 -40.267  -2.575  1.00  0.00     0.000 C 
BRANCH  11  12
ATOM     12  C   UNL     1      48.620 -41.061  -2.823  1.00  0.00    -0.000 C 
BRANCH  12  13
ATOM     13  C   UNL     1      49.037 -41.064  -4.304  1.00  0.00    -0.000 C 
BRANCH  13  14
ATOM     14  C   UNL     1      50.419 -40.427  -4.535  1.00  0.00    -0.000 C 
BRANCH  14  15
ATOM     15  C   UNL     1      51.308 -40.324  -3.281  1.00  0.00    -0.000 C 
BRANCH  15  16
ATOM     16  C   UNL     1      52.242 -39.095  -3.278  1.00  0.00    -0.000 C 
BRANCH  16  17
ATOM     17  C   UNL     1      53.523 -39.340  -2.467  1.00  0.00    -0.003 C 
ATOM     18  C   UNL     1      53.576 -40.770  -1.938  1.00  0.00     0.004 C 
ENDBRANCH  16  17
ENDBRANCH  15  16
ENDBRANCH  14  15
ENDBRANCH  13  14
ENDBRANCH  12  13
ENDBRANCH  11  12
ENDBRANCH   1  11
TORSDOF 14
ENDMDL
MODEL 6
REMARK VINA RESULT:    -4.408      2.070      3.309
REMARK INTER + INTRA:          -9.795
REMARK INTER:                  -8.347
REMARK INTRA:                  -1.449
REMARK UNBOUND:                -1.780
REMARK SMILES CCCCCCCCCCCCCCCC(=O)[O-]
REMARK SMILES IDX 9 1 10 2 11 3 12 4 13 5 14 6 15 7 16 8 17 9 18 10 8 11 7 12
REMARK SMILES IDX 6 13 5 14 4 15 3 16 2 17 1 18
REMARK H PARENT
REMARK Flexibility Score: inf
ROOT
ATOM      1  C   UNL     1      47.208 -39.201  -3.188  1.00  0.00     0.000 C 
ENDROOT
BRANCH   1   2
ATOM      2  C   UNL     1      47.632 -39.781  -4.548  1.00  0.00     0.000 C 
BRANCH   2   3
ATOM      3  C   UNL     1      48.370 -41.121  -4.417  1.00  0.00     0.000 C 
BRANCH   3   4
ATOM      4  C   UNL     1      49.889 -40.912  -4.420  1.00  0.00     0.000 C 
BRANCH   4   5
ATOM      5  C   UNL     1      50.533 -41.531  -3.173  1.00  0.00     0.000 C 
BRANCH   5   6
ATOM      6  C   UNL     1      51.791 -40.752  -2.759  1.00  0.00     0.006 C 
BRANCH   6   7
ATOM      7  C   UNL     1      52.731 -41.591  -1.883  1.00  0.00     0.053 C 
BRANCH   7   8
ATOM      8  C   UNL     1      54.113 -41.014  -1.839  1.00  0.00     0.041 C 
ATOM      9  O   UNL     1      55.116 -41.775  -1.821  1.00  0.00    -0.550 OA
ATOM     10  O   UNL     1      54.293 -39.637  -1.852  1.00  0.00    -0.550 OA
ENDBRANCH   7   8
ENDBRANCH   6   7
ENDBRANCH   5   6
ENDBRANCH   4   5
ENDBRANCH   3   4
ENDBRANCH   2   3
ENDBRANCH   1   2
BRANCH   1  11
ATOM     11  C   UNL     1      46.301 -40.156  -2.394  1.00  0.00     0.000 C 
BRANCH  11  12
ATOM     12  C   UNL     1      46.365 -39.910  -0.878  1.00  0.00    -0.000 C 
BRANCH  12  13
ATOM     13  C   UNL     1      47.674 -39.227  -0.444  1.00  0.00    -0.000 C 
BRANCH  13  14
ATOM     14  C   UNL     1      47.480 -38.267   0.742  1.00  0.00    -0.000 C 
BRANCH  14  15
ATOM     15  C   UNL     1      48.085 -36.862   0.550  1.00  0.00    -0.000 C 
BRANCH  15  16
ATOM     16  C   UNL     1      48.080 -36.375  -0.914  1.00  0.00    -0.000 C 
BRANCH  16  17
ATOM     17  C   UNL     1      49.489 -36.038  -1.421  1.00  0.00    -0.003 C 
ATOM     18  C   UNL     1      49.721 -36.602  -2.821  1.00  0.00     0.004 C 
ENDBRANCH  16  17
ENDBRANCH  15  16
ENDBRANCH  14  15
ENDBRANCH  13  14
ENDBRANCH  12  13
ENDBRANCH  11  12
ENDBRANCH   1  11
TORSDOF 14
ENDMDL
MODEL 7
REMARK VINA RESULT:    -4.384      2.291      3.742
REMARK INTER + INTRA:          -9.752
REMARK INTER:                  -7.538
REMARK INTRA:                  -2.215
REMARK UNBOUND:                -1.780
REMARK SMILES CCCCCCCCCCCCCCCC(=O)[O-]
REMARK SMILES IDX 9 1 10 2 11 3 12 4 13 5 14 6 15 7 16 8 17 9 18 10 8 11 7 12
REMARK SMILES IDX 6 13 5 14 4 15 3 16 2 17 1 18
REMARK H PARENT
REMARK Flexibility Score: inf
ROOT
ATOM      1  C   UNL     1      43.921 -38.602  -4.790  1.00  0.00     0.000 C 
ENDROOT
BRANCH   1   2
ATOM      2  C   UNL     1      44.907 -38.747  -3.618  1.00  0.00     0.000 C 
BRANCH   2   3
ATOM      3  C   UNL     1      45.375 -40.195  -3.411  1.00  0.00     0.000 C 
BRANCH   3   4
ATOM      4  C   UNL     1      46.906 -40.278  -3.383  1.00  0.00     0.000 C 
BRANCH   4   5
ATOM      5  C   UNL     1      47.497 -40.026  -4.777  1.00  0.00     0.000 C 
BRANCH   5   6
ATOM      6  C   UNL     1      48.838 -40.757  -4.946  1.00  0.00     0.006 C 
BRANCH   6   7
ATOM      7  C   UNL     1      49.257 -41.500  -3.671  1.00  0.00     0.053 C 
BRANCH   7   8
ATOM      8  C   UNL     1      50.720 -41.343  -3.390  1.00  0.00     0.041 C 
ATOM      9  O   UNL     1      51.427 -42.351  -3.126  1.00  0.00    -0.550 OA
ATOM     10  O   UNL     1      51.310 -40.087  -3.454  1.00  0.00    -0.550 OA
ENDBRANCH   7   8
ENDBRANCH   6   7
ENDBRANCH   5   6
ENDBRANCH   4   5
ENDBRANCH   3   4
ENDBRANCH   2   3
ENDBRANCH   1   2
BRANCH   1  11
ATOM     11  C   UNL     1      43.922 -37.187  -5.391  1.00  0.00     0.000 C 
BRANCH  11  12
ATOM     12  C   UNL     1      45.030 -36.989  -6.438  1.00  0.00    -0.000 C 
BRANCH  12  13
ATOM     13  C   UNL     1      45.983 -35.835  -6.079  1.00  0.00    -0.000 C 
BRANCH  13  14
ATOM     14  C   UNL     1      47.397 -36.322  -5.717  1.00  0.00    -0.000 C 
BRANCH  14  15
ATOM     15  C   UNL     1      47.699 -36.384  -4.207  1.00  0.00    -0.000 C 
BRANCH  15  16
ATOM     16  C   UNL     1      49.134 -36.846  -3.876  1.00  0.00    -0.000 C 
BRANCH  16  17
ATOM     17  C   UNL     1      49.263 -37.360  -2.435  1.00  0.00    -0.003 C 
ATOM     18  C   UNL     1      47.947 -37.213  -1.678  1.00  0.00     0.004 C 
ENDBRANCH  16  17
ENDBRANCH  15  16
ENDBRANCH  14  15
ENDBRANCH  13  14
ENDBRANCH  12  13
ENDBRANCH  11  12
ENDBRANCH   1  11
TORSDOF 14
ENDMDL
MODEL 8
REMARK VINA RESULT:    -4.304      3.216      5.457
REMARK INTER + INTRA:          -9.607
REMARK INTER:                  -7.408
REMARK INTRA:                  -2.199
REMARK UNBOUND:                -1.780
REMARK SMILES CCCCCCCCCCCCCCCC(=O)[O-]
REMARK SMILES IDX 9 1 10 2 11 3 12 4 13 5 14 6 15 7 16 8 17 9 18 10 8 11 7 12
REMARK SMILES IDX 6 13 5 14 4 15 3 16 2 17 1 18
REMARK H PARENT
REMARK Flexibility Score: inf
ROOT
ATOM      1  C   UNL     1      50.926 -41.751  -3.376  1.00  0.00     0.000 C 
ENDROOT
BRANCH   1   2
ATOM      2  C   UNL     1      49.399 -41.644  -3.522  1.00  0.00     0.000 C 
BRANCH   2   3
ATOM      3  C   UNL     1      48.972 -41.018  -4.858  1.00  0.00     0.000 C 
BRANCH   3   4
ATOM      4  C   UNL     1      47.649 -40.256  -4.708  1.00  0.00     0.000 C 
BRANCH   4   5
ATOM      5  C   UNL     1      46.974 -40.583  -3.370  1.00  0.00     0.000 C 
BRANCH   5   6
ATOM      6  C   UNL     1      45.627 -39.855  -3.242  1.00  0.00     0.006 C 
BRANCH   6   7
ATOM      7  C   UNL     1      45.551 -38.993  -1.975  1.00  0.00     0.053 C 
BRANCH   7   8
ATOM      8  C   UNL     1      45.648 -39.823  -0.731  1.00  0.00     0.041 C 
ATOM      9  O   UNL     1      46.687 -39.778  -0.020  1.00  0.00    -0.550 OA
ATOM     10  O   UNL     1      44.579 -40.618  -0.339  1.00  0.00    -0.550 OA
ENDBRANCH   7   8
ENDBRANCH   6   7
ENDBRANCH   5   6
ENDBRANCH   4   5
ENDBRANCH   3   4
ENDBRANCH   2   3
ENDBRANCH   1   2
BRANCH   1  11
ATOM     11  C   UNL     1      51.521 -40.614  -2.530  1.00  0.00     0.000 C 
BRANCH  11  12
ATOM     12  C   UNL     1      52.071 -39.463  -3.388  1.00  0.00    -0.000 C 
BRANCH  12  13
ATOM     13  C   UNL     1      51.136 -38.241  -3.408  1.00  0.00    -0.000 C 
BRANCH  13  14
ATOM     14  C   UNL     1      50.738 -37.821  -4.834  1.00  0.00    -0.000 C 
BRANCH  14  15
ATOM     15  C   UNL     1      49.531 -36.866  -4.920  1.00  0.00    -0.000 C 
BRANCH  15  16
ATOM     16  C   UNL     1      48.590 -36.939  -3.698  1.00  0.00    -0.000 C 
BRANCH  16  17
ATOM     17  C   UNL     1      47.204 -36.350  -3.995  1.00  0.00    -0.003 C 
ATOM     18  C   UNL     1      46.720 -36.752  -5.385  1.00  0.00     0.004 C 
ENDBRANCH  16  17
ENDBRANCH  15  16
ENDBRANCH  14  15
ENDBRANCH  13  14
ENDBRANCH  12  13
ENDBRANCH  11  12
ENDBRANCH   1  11
TORSDOF 14
ENDMDL
MODEL 9
REMARK VINA RESULT:    -4.290      2.299      3.905
REMARK INTER + INTRA:          -9.581
REMARK INTER:                  -7.345
REMARK INTRA:                  -2.236
REMARK UNBOUND:                -1.780
REMARK SMILES CCCCCCCCCCCCCCCC(=O)[O-]
REMARK SMILES IDX 9 1 10 2 11 3 12 4 13 5 14 6 15 7 16 8 17 9 18 10 8 11 7 12
REMARK SMILES IDX 6 13 5 14 4 15 3 16 2 17 1 18
REMARK H PARENT
REMARK Flexibility Score: inf
ROOT
ATOM      1  C   UNL     1      45.118 -38.831  -4.092  1.00  0.00     0.000 C 
ENDROOT
BRANCH   1   2
ATOM      2  C   UNL     1      46.522 -39.226  -4.577  1.00  0.00     0.000 C 
BRANCH   2   3
ATOM      3  C   UNL     1      46.927 -40.640  -4.133  1.00  0.00     0.000 C 
BRANCH   3   4
ATOM      4  C   UNL     1      48.424 -40.880  -4.368  1.00  0.00     0.000 C 
BRANCH   4   5
ATOM      5  C   UNL     1      49.105 -41.399  -3.095  1.00  0.00     0.000 C 
BRANCH   5   6
ATOM      6  C   UNL     1      50.560 -40.913  -3.013  1.00  0.00     0.006 C 
BRANCH   6   7
ATOM      7  C   UNL     1      50.982 -40.132  -4.264  1.00  0.00     0.053 C 
BRANCH   7   8
ATOM      8  C   UNL     1      51.662 -38.844  -3.912  1.00  0.00     0.041 C 
ATOM      9  O   UNL     1      52.574 -38.826  -3.045  1.00  0.00    -0.550 OA
ATOM     10  O   UNL     1      51.312 -37.670  -4.568  1.00  0.00    -0.550 OA
ENDBRANCH   7   8
ENDBRANCH   6   7
ENDBRANCH   5   6
ENDBRANCH   4   5
ENDBRANCH   3   4
ENDBRANCH   2   3
ENDBRANCH   1   2
BRANCH   1  11
ATOM     11  C   UNL     1      44.650 -39.667  -2.889  1.00  0.00     0.000 C 
BRANCH  11  12
ATOM     12  C   UNL     1      44.926 -38.973  -1.544  1.00  0.00    -0.000 C 
BRANCH  12  13
ATOM     13  C   UNL     1      45.865 -39.790  -0.639  1.00  0.00    -0.000 C 
BRANCH  13  14
ATOM     14  C   UNL     1      47.328 -39.321  -0.722  1.00  0.00    -0.000 C 
BRANCH  14  15
ATOM     15  C   UNL     1      47.516 -37.822  -1.026  1.00  0.00    -0.000 C 
BRANCH  15  16
ATOM     16  C   UNL     1      48.477 -37.540  -2.201  1.00  0.00    -0.000 C 
BRANCH  16  17
ATOM     17  C   UNL     1      49.526 -36.474  -1.852  1.00  0.00    -0.003 C 
ATOM     18  C   UNL     1      49.102 -35.662  -0.631  1.00  0.00     0.004 C 
ENDBRANCH  16  17
ENDBRANCH  15  16
ENDBRANCH  14  15
ENDBRANCH  13  14
ENDBRANCH  12  13
ENDBRANCH  11  12
ENDBRANCH   1  11
TORSDOF 14
ENDMDL
