MODEL 1
REMARK VINA RESULT:    -8.390      0.000      0.000
REMARK INTER + INTRA:          -9.375
REMARK INTER:                  -9.126
REMARK INTRA:                  -0.250
REMARK UNBOUND:                -0.250
REMARK SMILES C[C@@H]1[C@H](C)CC[C@@]2(C(=O)[O-])CC[C@]3(C)C(=CC[C@H]4[C@@]5(C)CC[C@@H](O)C(C)(C)[C@H]5CC[C@]43C)[C@@H]12
REMARK SMILES IDX 7 1 6 2 11 3 33 4 5 5 12 6 15 7 2 8 3 9 13 10 16 11 1 12
REMARK SMILES IDX 4 13 14 14 31 15 17 16 18 17 30 18 32 19 19 20 29 21 28 22
REMARK SMILES IDX 21 23 20 24 25 25 22 26 23 27 26 28 27 29 8 30 9 31 10 32
REMARK SMILES IDX 24 33
REMARK H PARENT 24 34
REMARK Flexibility Score: inf
ROOT
ATOM      1  C   UNL     1       3.892  18.209  22.737  1.00  0.00     0.017 C 
ATOM      2  C   UNL     1       4.356  17.463  21.451  1.00  0.00     0.014 C 
ATOM      3  C   UNL     1       4.913  17.955  23.910  1.00  0.00     0.014 C 
ATOM      4  C   UNL     1       3.682  19.745  22.439  1.00  0.00     0.030 C 
ATOM      5  C   UNL     1       5.524  18.141  20.731  1.00  0.00     0.004 C 
ATOM      6  C   UNL     1       5.354  19.203  24.700  1.00  0.00     0.013 C 
ATOM      7  C   UNL     1       3.428  20.514  23.742  1.00  0.00    -0.063 C 
ATOM      8  C   UNL     1       4.819  20.408  21.590  1.00  0.00    -0.003 C 
ATOM      9  C   UNL     1       5.184  19.583  20.329  1.00  0.00    -0.011 C 
ATOM     10  C   UNL     1       4.194  20.202  25.036  1.00  0.00    -0.006 C 
ATOM     11  C   UNL     1       2.515  21.503  23.747  1.00  0.00    -0.027 C 
ATOM     12  C   UNL     1       4.496  21.869  21.217  1.00  0.00     0.008 C 
ATOM     13  C   UNL     1       4.119  19.632  19.213  1.00  0.00     0.008 C 
ATOM     14  C   UNL     1       3.230  19.424  25.994  1.00  0.00     0.017 C 
ATOM     15  C   UNL     1       4.727  21.587  25.706  1.00  0.00    -0.020 C 
ATOM     16  C   UNL     1       2.332  22.371  24.952  1.00  0.00     0.032 C 
ATOM     17  C   UNL     1       3.714  22.808  25.516  1.00  0.00     0.006 C 
ATOM     18  C   UNL     1       4.989  21.380  27.213  1.00  0.00     0.008 C 
ATOM     19  C   UNL     1       6.087  22.005  25.051  1.00  0.00     0.012 C 
ATOM     20  C   UNL     1       3.596  23.889  26.701  1.00  0.00    -0.025 C 
ATOM     21  C   UNL     1       5.550  22.602  27.930  1.00  0.00     0.005 C 
ATOM     22  C   UNL     1       4.937  23.994  27.549  1.00  0.00     0.003 C 
ATOM     23  C   UNL     1       2.416  23.566  27.675  1.00  0.00     0.010 C 
ATOM     24  C   UNL     1       3.295  25.257  25.988  1.00  0.00     0.012 C 
ATOM     25  C   UNL     1       4.858  24.954  28.824  1.00  0.00    -0.006 C 
ATOM     26  C   UNL     1       2.315  24.502  28.897  1.00  0.00     0.033 C 
ATOM     27  C   UNL     1       3.616  24.602  29.709  1.00  0.00     0.120 C 
ATOM     28  C   UNL     1       4.789  26.456  28.413  1.00  0.00     0.014 C 
ATOM     29  C   UNL     1       6.162  24.863  29.679  1.00  0.00     0.014 C 
ENDROOT
BRANCH   1  30
ATOM     30  C   UNL     1       2.561  17.556  23.115  1.00  0.00     0.048 C 
ATOM     31  O   UNL     1       1.487  17.850  22.521  1.00  0.00    -0.550 OA
ATOM     32  O   UNL     1       2.525  16.590  24.115  1.00  0.00    -0.550 OA
ENDBRANCH   1  30
BRANCH  27  33
ATOM     33  O   UNL     1       3.796  23.392  30.403  1.00  0.00    -0.393 OA
ATOM     34  H   UNL     1       3.358  22.675  29.875  1.00  0.00     0.210 HD
ENDBRANCH  27  33
TORSDOF 2
ENDMDL
MODEL 2
REMARK VINA RESULT:    -8.063      3.255      5.299
REMARK INTER + INTRA:          -9.019
REMARK INTER:                  -8.914
REMARK INTRA:                  -0.105
REMARK UNBOUND:                -0.250
REMARK SMILES C[C@@H]1[C@H](C)CC[C@@]2(C(=O)[O-])CC[C@]3(C)C(=CC[C@H]4[C@@]5(C)CC[C@@H](O)C(C)(C)[C@H]5CC[C@]43C)[C@@H]12
REMARK SMILES IDX 7 1 6 2 11 3 33 4 5 5 12 6 15 7 2 8 3 9 13 10 16 11 1 12
REMARK SMILES IDX 4 13 14 14 31 15 17 16 18 17 30 18 32 19 19 20 29 21 28 22
REMARK SMILES IDX 21 23 20 24 25 25 22 26 23 27 26 28 27 29 8 30 9 31 10 32
REMARK SMILES IDX 24 33
REMARK H PARENT 24 34
REMARK Flexibility Score: inf
ROOT
ATOM      1  C   UNL     1       6.560  19.762  27.277  1.00  0.00     0.017 C 
ATOM      2  C   UNL     1       7.029  18.277  27.267  1.00  0.00     0.014 C 
ATOM      3  C   UNL     1       7.509  20.637  26.373  1.00  0.00     0.014 C 
ATOM      4  C   UNL     1       5.046  19.866  26.845  1.00  0.00     0.030 C 
ATOM      5  C   UNL     1       6.678  17.527  25.980  1.00  0.00     0.004 C 
ATOM      6  C   UNL     1       6.807  21.595  25.390  1.00  0.00     0.013 C 
ATOM      7  C   UNL     1       4.642  21.335  26.653  1.00  0.00    -0.063 C 
ATOM      8  C   UNL     1       4.660  18.995  25.601  1.00  0.00    -0.003 C 
ATOM      9  C   UNL     1       5.166  17.535  25.713  1.00  0.00    -0.011 C 
ATOM     10  C   UNL     1       5.578  22.358  25.995  1.00  0.00    -0.006 C 
ATOM     11  C   UNL     1       3.425  21.734  27.064  1.00  0.00    -0.027 C 
ATOM     12  C   UNL     1       3.146  19.032  25.308  1.00  0.00     0.008 C 
ATOM     13  C   UNL     1       4.398  16.676  26.739  1.00  0.00     0.008 C 
ATOM     14  C   UNL     1       6.163  23.275  27.121  1.00  0.00     0.017 C 
ATOM     15  C   UNL     1       4.757  23.216  24.880  1.00  0.00    -0.020 C 
ATOM     16  C   UNL     1       2.934  23.117  26.774  1.00  0.00     0.032 C 
ATOM     17  C   UNL     1       3.241  23.500  25.299  1.00  0.00     0.006 C 
ATOM     18  C   UNL     1       5.467  24.560  24.617  1.00  0.00     0.008 C 
ATOM     19  C   UNL     1       4.727  22.433  23.525  1.00  0.00     0.012 C 
ATOM     20  C   UNL     1       2.583  24.901  24.862  1.00  0.00    -0.025 C 
ATOM     21  C   UNL     1       4.813  25.420  23.543  1.00  0.00     0.005 C 
ATOM     22  C   UNL     1       3.246  25.487  23.541  1.00  0.00     0.003 C 
ATOM     23  C   UNL     1       2.689  25.977  25.993  1.00  0.00     0.010 C 
ATOM     24  C   UNL     1       1.063  24.586  24.614  1.00  0.00     0.012 C 
ATOM     25  C   UNL     1       2.735  26.939  23.115  1.00  0.00    -0.006 C 
ATOM     26  C   UNL     1       2.175  27.377  25.599  1.00  0.00     0.033 C 
ATOM     27  C   UNL     1       2.818  27.935  24.319  1.00  0.00     0.120 C 
ATOM     28  C   UNL     1       1.272  26.902  22.577  1.00  0.00     0.014 C 
ATOM     29  C   UNL     1       3.559  27.495  21.909  1.00  0.00     0.014 C 
ENDROOT
BRANCH   1  30
ATOM     30  C   UNL     1       6.730  20.222  28.727  1.00  0.00     0.048 C 
ATOM     31  O   UNL     1       7.521  21.154  29.037  1.00  0.00    -0.550 OA
ATOM     32  O   UNL     1       5.974  19.627  29.732  1.00  0.00    -0.550 OA
ENDBRANCH   1  30
BRANCH  27  33
ATOM     33  O   UNL     1       4.147  28.289  24.612  1.00  0.00    -0.393 OA
ATOM     34  H   UNL     1       4.398  27.838  25.459  1.00  0.00     0.210 HD
ENDBRANCH  27  33
TORSDOF 2
ENDMDL
MODEL 3
REMARK VINA RESULT:    -7.825      2.217      4.201
REMARK INTER + INTRA:          -8.761
REMARK INTER:                  -8.506
REMARK INTRA:                  -0.255
REMARK UNBOUND:                -0.250
REMARK SMILES C[C@@H]1[C@H](C)CC[C@@]2(C(=O)[O-])CC[C@]3(C)C(=CC[C@H]4[C@@]5(C)CC[C@@H](O)C(C)(C)[C@H]5CC[C@]43C)[C@@H]12
REMARK SMILES IDX 7 1 6 2 11 3 33 4 5 5 12 6 15 7 2 8 3 9 13 10 16 11 1 12
REMARK SMILES IDX 4 13 14 14 31 15 17 16 18 17 30 18 32 19 19 20 29 21 28 22
REMARK SMILES IDX 21 23 20 24 25 25 22 26 23 27 26 28 27 29 8 30 9 31 10 32
REMARK SMILES IDX 24 33
REMARK H PARENT 24 34
REMARK Flexibility Score: inf
ROOT
ATOM      1  C   UNL     1       3.847  19.278  24.797  1.00  0.00     0.017 C 
ATOM      2  C   UNL     1       3.787  17.728  24.935  1.00  0.00     0.014 C 
ATOM      3  C   UNL     1       2.567  19.930  25.444  1.00  0.00     0.014 C 
ATOM      4  C   UNL     1       5.189  19.836  25.413  1.00  0.00     0.030 C 
ATOM      5  C   UNL     1       4.104  17.220  26.343  1.00  0.00     0.004 C 
ATOM      6  C   UNL     1       2.822  21.128  26.381  1.00  0.00     0.013 C 
ATOM      7  C   UNL     1       5.158  21.369  25.467  1.00  0.00    -0.063 C 
ATOM      8  C   UNL     1       5.577  19.218  26.800  1.00  0.00    -0.003 C 
ATOM      9  C   UNL     1       5.495  17.671  26.810  1.00  0.00    -0.011 C 
ATOM     10  C   UNL     1       3.892  22.146  25.855  1.00  0.00    -0.006 C 
ATOM     11  C   UNL     1       6.280  22.053  25.177  1.00  0.00    -0.027 C 
ATOM     12  C   UNL     1       6.959  19.699  27.288  1.00  0.00     0.008 C 
ATOM     13  C   UNL     1       6.620  16.973  26.017  1.00  0.00     0.008 C 
ATOM     14  C   UNL     1       3.283  22.763  24.551  1.00  0.00     0.017 C 
ATOM     15  C   UNL     1       4.265  23.292  26.950  1.00  0.00    -0.020 C 
ATOM     16  C   UNL     1       6.338  23.538  25.350  1.00  0.00     0.032 C 
ATOM     17  C   UNL     1       5.701  23.948  26.708  1.00  0.00     0.006 C 
ATOM     18  C   UNL     1       3.195  24.404  26.939  1.00  0.00     0.008 C 
ATOM     19  C   UNL     1       4.273  22.670  28.387  1.00  0.00     0.012 C 
ATOM     20  C   UNL     1       5.890  25.510  27.045  1.00  0.00    -0.025 C 
ATOM     21  C   UNL     1       3.415  25.502  27.972  1.00  0.00     0.005 C 
ATOM     22  C   UNL     1       4.887  26.002  28.177  1.00  0.00     0.003 C 
ATOM     23  C   UNL     1       5.695  26.410  25.782  1.00  0.00     0.010 C 
ATOM     24  C   UNL     1       7.377  25.652  27.536  1.00  0.00     0.012 C 
ATOM     25  C   UNL     1       4.925  27.570  28.479  1.00  0.00    -0.006 C 
ATOM     26  C   UNL     1       5.753  27.927  26.058  1.00  0.00     0.033 C 
ATOM     27  C   UNL     1       4.785  28.395  27.156  1.00  0.00     0.120 C 
ATOM     28  C   UNL     1       6.237  27.987  29.210  1.00  0.00     0.014 C 
ATOM     29  C   UNL     1       3.796  27.978  29.479  1.00  0.00     0.014 C 
ENDROOT
BRANCH   1  30
ATOM     30  C   UNL     1       3.806  19.544  23.290  1.00  0.00     0.048 C 
ATOM     31  O   UNL     1       2.734  19.853  22.702  1.00  0.00    -0.550 OA
ATOM     32  O   UNL     1       4.979  19.479  22.546  1.00  0.00    -0.550 OA
ENDBRANCH   1  30
BRANCH  27  33
ATOM     33  O   UNL     1       3.477  28.339  26.642  1.00  0.00    -0.393 OA
ATOM     34  H   UNL     1       3.024  27.559  27.057  1.00  0.00     0.210 HD
ENDBRANCH  27  33
TORSDOF 2
ENDMDL
MODEL 4
REMARK VINA RESULT:    -7.755      1.732      2.747
REMARK INTER + INTRA:          -8.685
REMARK INTER:                  -8.432
REMARK INTRA:                  -0.253
REMARK UNBOUND:                -0.250
REMARK SMILES C[C@@H]1[C@H](C)CC[C@@]2(C(=O)[O-])CC[C@]3(C)C(=CC[C@H]4[C@@]5(C)CC[C@@H](O)C(C)(C)[C@H]5CC[C@]43C)[C@@H]12
REMARK SMILES IDX 7 1 6 2 11 3 33 4 5 5 12 6 15 7 2 8 3 9 13 10 16 11 1 12
REMARK SMILES IDX 4 13 14 14 31 15 17 16 18 17 30 18 32 19 19 20 29 21 28 22
REMARK SMILES IDX 21 23 20 24 25 25 22 26 23 27 26 28 27 29 8 30 9 31 10 32
REMARK SMILES IDX 24 33
REMARK H PARENT 24 34
REMARK Flexibility Score: inf
ROOT
ATOM      1  C   UNL     1       5.149  20.242  23.519  1.00  0.00     0.017 C 
ATOM      2  C   UNL     1       5.151  19.739  22.045  1.00  0.00     0.014 C 
ATOM      3  C   UNL     1       6.601  20.681  23.945  1.00  0.00     0.014 C 
ATOM      4  C   UNL     1       4.087  21.394  23.710  1.00  0.00     0.030 C 
ATOM      5  C   UNL     1       5.234  20.863  21.010  1.00  0.00     0.004 C 
ATOM      6  C   UNL     1       6.709  22.041  24.664  1.00  0.00     0.013 C 
ATOM      7  C   UNL     1       4.227  22.029  25.100  1.00  0.00    -0.063 C 
ATOM      8  C   UNL     1       4.088  22.477  22.577  1.00  0.00    -0.003 C 
ATOM      9  C   UNL     1       4.074  21.858  21.157  1.00  0.00    -0.011 C 
ATOM     10  C   UNL     1       5.597  22.295  25.739  1.00  0.00    -0.006 C 
ATOM     11  C   UNL     1       3.115  22.375  25.772  1.00  0.00    -0.027 C 
ATOM     12  C   UNL     1       2.945  23.499  22.744  1.00  0.00     0.008 C 
ATOM     13  C   UNL     1       2.723  21.227  20.756  1.00  0.00     0.008 C 
ATOM     14  C   UNL     1       5.830  21.219  26.852  1.00  0.00     0.017 C 
ATOM     15  C   UNL     1       5.636  23.808  26.342  1.00  0.00    -0.020 C 
ATOM     16  C   UNL     1       3.202  23.122  27.066  1.00  0.00     0.032 C 
ATOM     17  C   UNL     1       4.236  24.278  26.951  1.00  0.00     0.006 C 
ATOM     18  C   UNL     1       6.722  23.915  27.433  1.00  0.00     0.008 C 
ATOM     19  C   UNL     1       6.015  24.821  25.210  1.00  0.00     0.012 C 
ATOM     20  C   UNL     1       4.253  25.237  28.243  1.00  0.00    -0.025 C 
ATOM     21  C   UNL     1       6.886  25.309  28.026  1.00  0.00     0.005 C 
ATOM     22  C   UNL     1       5.574  26.119  28.315  1.00  0.00     0.003 C 
ATOM     23  C   UNL     1       4.121  24.429  29.575  1.00  0.00     0.010 C 
ATOM     24  C   UNL     1       2.990  26.160  28.091  1.00  0.00     0.012 C 
ATOM     25  C   UNL     1       5.725  27.004  29.635  1.00  0.00    -0.006 C 
ATOM     26  C   UNL     1       4.241  25.278  30.857  1.00  0.00     0.033 C 
ATOM     27  C   UNL     1       5.518  26.131  30.918  1.00  0.00     0.120 C 
ATOM     28  C   UNL     1       4.717  28.193  29.653  1.00  0.00     0.014 C 
ATOM     29  C   UNL     1       7.122  27.702  29.689  1.00  0.00     0.014 C 
ENDROOT
BRANCH   1  30
ATOM     30  C   UNL     1       4.759  19.019  24.354  1.00  0.00     0.048 C 
ATOM     31  O   UNL     1       5.623  18.331  24.963  1.00  0.00    -0.550 OA
ATOM     32  O   UNL     1       3.419  18.668  24.479  1.00  0.00    -0.550 OA
ENDBRANCH   1  30
BRANCH  27  33
ATOM     33  O   UNL     1       6.609  25.275  31.147  1.00  0.00    -0.393 OA
ATOM     34  H   UNL     1       6.796  24.791  30.300  1.00  0.00     0.210 HD
ENDBRANCH  27  33
TORSDOF 2
ENDMDL
MODEL 5
REMARK VINA RESULT:    -7.610      3.369      8.812
REMARK INTER + INTRA:          -8.527
REMARK INTER:                  -8.276
REMARK INTRA:                  -0.251
REMARK UNBOUND:                -0.250
REMARK SMILES C[C@@H]1[C@H](C)CC[C@@]2(C(=O)[O-])CC[C@]3(C)C(=CC[C@H]4[C@@]5(C)CC[C@@H](O)C(C)(C)[C@H]5CC[C@]43C)[C@@H]12
REMARK SMILES IDX 7 1 6 2 11 3 33 4 5 5 12 6 15 7 2 8 3 9 13 10 16 11 1 12
REMARK SMILES IDX 4 13 14 14 31 15 17 16 18 17 30 18 32 19 19 20 29 21 28 22
REMARK SMILES IDX 21 23 20 24 25 25 22 26 23 27 26 28 27 29 8 30 9 31 10 32
REMARK SMILES IDX 24 33
REMARK H PARENT 24 34
REMARK Flexibility Score: inf
ROOT
ATOM      1  C   UNL     1       5.380  28.309  29.083  1.00  0.00     0.017 C 
ATOM      2  C   UNL     1       4.715  29.477  29.869  1.00  0.00     0.014 C 
ATOM      3  C   UNL     1       6.119  27.336  30.078  1.00  0.00     0.014 C 
ATOM      4  C   UNL     1       4.313  27.565  28.189  1.00  0.00     0.030 C 
ATOM      5  C   UNL     1       3.434  29.077  30.604  1.00  0.00     0.004 C 
ATOM      6  C   UNL     1       5.852  25.832  29.871  1.00  0.00     0.013 C 
ATOM      7  C   UNL     1       4.916  26.294  27.578  1.00  0.00    -0.063 C 
ATOM      8  C   UNL     1       2.951  27.270  28.907  1.00  0.00    -0.003 C 
ATOM      9  C   UNL     1       2.381  28.510  29.641  1.00  0.00    -0.011 C 
ATOM     10  C   UNL     1       5.854  25.374  28.372  1.00  0.00    -0.006 C 
ATOM     11  C   UNL     1       4.603  25.969  26.310  1.00  0.00    -0.027 C 
ATOM     12  C   UNL     1       1.904  26.666  27.950  1.00  0.00     0.008 C 
ATOM     13  C   UNL     1       1.819  29.598  28.701  1.00  0.00     0.008 C 
ATOM     14  C   UNL     1       7.314  25.609  27.859  1.00  0.00     0.017 C 
ATOM     15  C   UNL     1       5.389  23.824  28.185  1.00  0.00    -0.020 C 
ATOM     16  C   UNL     1       5.054  24.671  25.718  1.00  0.00     0.032 C 
ATOM     17  C   UNL     1       4.821  23.510  26.725  1.00  0.00     0.006 C 
ATOM     18  C   UNL     1       6.572  22.877  28.480  1.00  0.00     0.008 C 
ATOM     19  C   UNL     1       4.255  23.483  29.209  1.00  0.00     0.012 C 
ATOM     20  C   UNL     1       5.113  22.060  26.092  1.00  0.00    -0.025 C 
ATOM     21  C   UNL     1       6.230  21.395  28.392  1.00  0.00     0.005 C 
ATOM     22  C   UNL     1       5.301  20.946  27.211  1.00  0.00     0.003 C 
ATOM     23  C   UNL     1       6.380  22.064  25.176  1.00  0.00     0.010 C 
ATOM     24  C   UNL     1       3.856  21.734  25.205  1.00  0.00     0.012 C 
ATOM     25  C   UNL     1       5.721  19.505  26.667  1.00  0.00    -0.006 C 
ATOM     26  C   UNL     1       6.780  20.680  24.625  1.00  0.00     0.033 C 
ATOM     27  C   UNL     1       6.956  19.608  25.711  1.00  0.00     0.120 C 
ATOM     28  C   UNL     1       4.546  18.805  25.917  1.00  0.00     0.014 C 
ATOM     29  C   UNL     1       6.041  18.529  27.844  1.00  0.00     0.014 C 
ENDROOT
BRANCH   1  30
ATOM     30  C   UNL     1       6.437  28.977  28.199  1.00  0.00     0.048 C 
ATOM     31  O   UNL     1       6.128  29.556  27.122  1.00  0.00    -0.550 OA
ATOM     32  O   UNL     1       7.769  28.981  28.599  1.00  0.00    -0.550 OA
ENDBRANCH   1  30
BRANCH  27  33
ATOM     33  O   UNL     1       8.139  19.887  26.417  1.00  0.00    -0.393 OA
ATOM     34  H   UNL     1       8.649  19.039  26.498  1.00  0.00     0.210 HD
ENDBRANCH  27  33
TORSDOF 2
ENDMDL
MODEL 6
REMARK VINA RESULT:    -7.414      2.492      8.509
REMARK INTER + INTRA:          -8.314
REMARK INTER:                  -8.061
REMARK INTRA:                  -0.252
REMARK UNBOUND:                -0.250
REMARK SMILES C[C@@H]1[C@H](C)CC[C@@]2(C(=O)[O-])CC[C@]3(C)C(=CC[C@H]4[C@@]5(C)CC[C@@H](O)C(C)(C)[C@H]5CC[C@]43C)[C@@H]12
REMARK SMILES IDX 7 1 6 2 11 3 33 4 5 5 12 6 15 7 2 8 3 9 13 10 16 11 1 12
REMARK SMILES IDX 4 13 14 14 31 15 17 16 18 17 30 18 32 19 19 20 29 21 28 22
REMARK SMILES IDX 21 23 20 24 25 25 22 26 23 27 26 28 27 29 8 30 9 31 10 32
REMARK SMILES IDX 24 33
REMARK H PARENT 24 34
REMARK Flexibility Score: inf
ROOT
ATOM      1  C   UNL     1       3.862  26.437  29.865  1.00  0.00     0.017 C 
ATOM      2  C   UNL     1       2.911  27.201  30.833  1.00  0.00     0.014 C 
ATOM      3  C   UNL     1       3.731  24.883  30.089  1.00  0.00     0.014 C 
ATOM      4  C   UNL     1       3.583  26.858  28.369  1.00  0.00     0.030 C 
ATOM      5  C   UNL     1       1.439  27.153  30.419  1.00  0.00     0.004 C 
ATOM      6  C   UNL     1       3.579  24.029  28.814  1.00  0.00     0.013 C 
ATOM      7  C   UNL     1       4.369  25.961  27.403  1.00  0.00    -0.063 C 
ATOM      8  C   UNL     1       2.067  26.933  27.983  1.00  0.00    -0.003 C 
ATOM      9  C   UNL     1       1.225  27.730  29.012  1.00  0.00    -0.011 C 
ATOM     10  C   UNL     1       4.522  24.452  27.635  1.00  0.00    -0.006 C 
ATOM     11  C   UNL     1       4.930  26.514  26.312  1.00  0.00    -0.027 C 
ATOM     12  C   UNL     1       1.852  27.478  26.557  1.00  0.00     0.008 C 
ATOM     13  C   UNL     1       1.461  29.255  28.976  1.00  0.00     0.008 C 
ATOM     14  C   UNL     1       5.979  24.184  28.142  1.00  0.00     0.017 C 
ATOM     15  C   UNL     1       4.204  23.649  26.254  1.00  0.00    -0.020 C 
ATOM     16  C   UNL     1       5.585  25.661  25.272  1.00  0.00     0.032 C 
ATOM     17  C   UNL     1       4.695  24.428  24.948  1.00  0.00     0.006 C 
ATOM     18  C   UNL     1       4.864  22.255  26.287  1.00  0.00     0.008 C 
ATOM     19  C   UNL     1       2.661  23.429  26.112  1.00  0.00     0.012 C 
ATOM     20  C   UNL     1       5.247  23.562  23.710  1.00  0.00    -0.025 C 
ATOM     21  C   UNL     1       4.580  21.393  25.064  1.00  0.00     0.005 C 
ATOM     22  C   UNL     1       4.609  22.106  23.668  1.00  0.00     0.003 C 
ATOM     23  C   UNL     1       6.804  23.422  23.740  1.00  0.00     0.010 C 
ATOM     24  C   UNL     1       4.843  24.371  22.424  1.00  0.00     0.012 C 
ATOM     25  C   UNL     1       5.202  21.140  22.542  1.00  0.00    -0.006 C 
ATOM     26  C   UNL     1       7.390  22.511  22.642  1.00  0.00     0.033 C 
ATOM     27  C   UNL     1       6.765  21.107  22.604  1.00  0.00     0.120 C 
ATOM     28  C   UNL     1       4.752  21.573  21.113  1.00  0.00     0.014 C 
ATOM     29  C   UNL     1       4.634  19.692  22.686  1.00  0.00     0.014 C 
ENDROOT
BRANCH   1  30
ATOM     30  C   UNL     1       5.273  26.859  30.279  1.00  0.00     0.048 C 
ATOM     31  O   UNL     1       5.779  27.948  29.890  1.00  0.00    -0.550 OA
ATOM     32  O   UNL     1       6.014  26.048  31.132  1.00  0.00    -0.550 OA
ENDBRANCH   1  30
BRANCH  27  33
ATOM     33  O   UNL     1       7.228  20.389  23.721  1.00  0.00    -0.393 OA
ATOM     34  H   UNL     1       7.831  20.988  24.234  1.00  0.00     0.210 HD
ENDBRANCH  27  33
TORSDOF 2
ENDMDL
MODEL 7
REMARK VINA RESULT:    -7.354      2.734      8.037
REMARK INTER + INTRA:          -8.248
REMARK INTER:                  -7.993
REMARK INTRA:                  -0.255
REMARK UNBOUND:                -0.250
REMARK SMILES C[C@@H]1[C@H](C)CC[C@@]2(C(=O)[O-])CC[C@]3(C)C(=CC[C@H]4[C@@]5(C)CC[C@@H](O)C(C)(C)[C@H]5CC[C@]43C)[C@@H]12
REMARK SMILES IDX 7 1 6 2 11 3 33 4 5 5 12 6 15 7 2 8 3 9 13 10 16 11 1 12
REMARK SMILES IDX 4 13 14 14 31 15 17 16 18 17 30 18 32 19 19 20 29 21 28 22
REMARK SMILES IDX 21 23 20 24 25 25 22 26 23 27 26 28 27 29 8 30 9 31 10 32
REMARK SMILES IDX 24 33
REMARK H PARENT 24 34
REMARK Flexibility Score: inf
ROOT
ATOM      1  C   UNL     1       3.619  26.834  24.350  1.00  0.00     0.017 C 
ATOM      2  C   UNL     1       4.174  28.104  25.060  1.00  0.00     0.014 C 
ATOM      3  C   UNL     1       4.304  26.654  22.943  1.00  0.00     0.014 C 
ATOM      4  C   UNL     1       3.790  25.565  25.274  1.00  0.00     0.030 C 
ATOM      5  C   UNL     1       5.577  27.922  25.643  1.00  0.00     0.004 C 
ATOM      6  C   UNL     1       4.820  25.237  22.621  1.00  0.00     0.013 C 
ATOM      7  C   UNL     1       3.437  24.287  24.501  1.00  0.00    -0.063 C 
ATOM      8  C   UNL     1       5.187  25.450  25.973  1.00  0.00    -0.003 C 
ATOM      9  C   UNL     1       5.626  26.770  26.656  1.00  0.00    -0.011 C 
ATOM     10  C   UNL     1       3.842  24.083  23.035  1.00  0.00    -0.006 C 
ATOM     11  C   UNL     1       2.762  23.310  25.134  1.00  0.00    -0.027 C 
ATOM     12  C   UNL     1       5.250  24.269  26.963  1.00  0.00     0.008 C 
ATOM     13  C   UNL     1       4.845  27.105  27.944  1.00  0.00     0.008 C 
ATOM     14  C   UNL     1       2.566  24.271  22.148  1.00  0.00     0.017 C 
ATOM     15  C   UNL     1       4.498  22.603  22.848  1.00  0.00    -0.020 C 
ATOM     16  C   UNL     1       2.517  21.993  24.468  1.00  0.00     0.032 C 
ATOM     17  C   UNL     1       3.814  21.493  23.770  1.00  0.00     0.006 C 
ATOM     18  C   UNL     1       4.399  22.164  21.372  1.00  0.00     0.008 C 
ATOM     19  C   UNL     1       6.018  22.646  23.219  1.00  0.00     0.012 C 
ATOM     20  C   UNL     1       3.679  19.999  23.187  1.00  0.00    -0.025 C 
ATOM     21  C   UNL     1       5.038  20.813  21.072  1.00  0.00     0.005 C 
ATOM     22  C   UNL     1       4.811  19.670  22.120  1.00  0.00     0.003 C 
ATOM     23  C   UNL     1       2.284  19.752  22.525  1.00  0.00     0.010 C 
ATOM     24  C   UNL     1       3.814  19.052  24.435  1.00  0.00     0.012 C 
ATOM     25  C   UNL     1       4.670  18.251  21.401  1.00  0.00    -0.006 C 
ATOM     26  C   UNL     1       2.128  18.375  21.847  1.00  0.00     0.033 C 
ATOM     27  C   UNL     1       3.229  18.062  20.821  1.00  0.00     0.120 C 
ATOM     28  C   UNL     1       4.993  17.075  22.372  1.00  0.00     0.014 C 
ATOM     29  C   UNL     1       5.726  18.090  20.261  1.00  0.00     0.014 C 
ENDROOT
BRANCH   1  30
ATOM     30  C   UNL     1       2.134  27.125  24.121  1.00  0.00     0.048 C 
ATOM     31  O   UNL     1       1.707  27.559  23.016  1.00  0.00    -0.550 OA
ATOM     32  O   UNL     1       1.217  26.878  25.137  1.00  0.00    -0.550 OA
ENDBRANCH   1  30
BRANCH  27  33
ATOM     33  O   UNL     1       3.014  18.863  19.686  1.00  0.00    -0.393 OA
ATOM     34  H   UNL     1       3.836  19.399  19.537  1.00  0.00     0.210 HD
ENDBRANCH  27  33
TORSDOF 2
ENDMDL
MODEL 8
REMARK VINA RESULT:    -7.346      2.324      8.058
REMARK INTER + INTRA:          -8.240
REMARK INTER:                  -7.987
REMARK INTRA:                  -0.253
REMARK UNBOUND:                -0.250
REMARK SMILES C[C@@H]1[C@H](C)CC[C@@]2(C(=O)[O-])CC[C@]3(C)C(=CC[C@H]4[C@@]5(C)CC[C@@H](O)C(C)(C)[C@H]5CC[C@]43C)[C@@H]12
REMARK SMILES IDX 7 1 6 2 11 3 33 4 5 5 12 6 15 7 2 8 3 9 13 10 16 11 1 12
REMARK SMILES IDX 4 13 14 14 31 15 17 16 18 17 30 18 32 19 19 20 29 21 28 22
REMARK SMILES IDX 21 23 20 24 25 25 22 26 23 27 26 28 27 29 8 30 9 31 10 32
REMARK SMILES IDX 24 33
REMARK H PARENT 24 34
REMARK Flexibility Score: inf
ROOT
ATOM      1  C   UNL     1       4.459  25.584  25.254  1.00  0.00     0.017 C 
ATOM      2  C   UNL     1       5.213  26.624  26.134  1.00  0.00     0.014 C 
ATOM      3  C   UNL     1       4.865  25.757  23.741  1.00  0.00     0.014 C 
ATOM      4  C   UNL     1       4.714  24.120  25.787  1.00  0.00     0.030 C 
ATOM      5  C   UNL     1       6.685  26.278  26.375  1.00  0.00     0.004 C 
ATOM      6  C   UNL     1       5.223  24.460  22.988  1.00  0.00     0.013 C 
ATOM      7  C   UNL     1       4.146  23.086  24.806  1.00  0.00    -0.063 C 
ATOM      8  C   UNL     1       6.205  23.809  26.155  1.00  0.00    -0.003 C 
ATOM      9  C   UNL     1       6.843  24.906  27.044  1.00  0.00    -0.011 C 
ATOM     10  C   UNL     1       4.266  23.254  23.284  1.00  0.00    -0.006 C 
ATOM     11  C   UNL     1       3.537  21.990  25.295  1.00  0.00    -0.027 C 
ATOM     12  C   UNL     1       6.372  22.415  26.793  1.00  0.00     0.008 C 
ATOM     13  C   UNL     1       6.331  24.915  28.500  1.00  0.00     0.008 C 
ATOM     14  C   UNL     1       2.864  23.681  22.732  1.00  0.00     0.017 C 
ATOM     15  C   UNL     1       4.781  21.860  22.617  1.00  0.00    -0.020 C 
ATOM     16  C   UNL     1       3.093  20.889  24.385  1.00  0.00     0.032 C 
ATOM     17  C   UNL     1       4.207  20.563  23.351  1.00  0.00     0.006 C 
ATOM     18  C   UNL     1       4.388  21.811  21.125  1.00  0.00     0.008 C 
ATOM     19  C   UNL     1       6.343  21.783  22.688  1.00  0.00     0.012 C 
ATOM     20  C   UNL     1       3.874  19.268  22.455  1.00  0.00    -0.025 C 
ATOM     21  C   UNL     1       4.875  20.571  20.385  1.00  0.00     0.005 C 
ATOM     22  C   UNL     1       4.771  19.202  21.143  1.00  0.00     0.003 C 
ATOM     23  C   UNL     1       2.369  19.219  22.032  1.00  0.00     0.010 C 
ATOM     24  C   UNL     1       4.172  18.034  23.381  1.00  0.00     0.012 C 
ATOM     25  C   UNL     1       4.411  18.015  20.138  1.00  0.00    -0.006 C 
ATOM     26  C   UNL     1       2.006  18.062  21.079  1.00  0.00     0.033 C 
ATOM     27  C   UNL     1       2.880  18.002  19.816  1.00  0.00     0.120 C 
ATOM     28  C   UNL     1       4.830  16.626  20.709  1.00  0.00     0.014 C 
ATOM     29  C   UNL     1       5.230  18.132  18.812  1.00  0.00     0.014 C 
ENDROOT
BRANCH   1  30
ATOM     30  C   UNL     1       2.978  25.947  25.393  1.00  0.00     0.048 C 
ATOM     31  O   UNL     1       2.298  25.582  26.391  1.00  0.00    -0.550 OA
ATOM     32  O   UNL     1       2.364  26.725  24.417  1.00  0.00    -0.550 OA
ENDBRANCH   1  30
BRANCH  27  33
ATOM     33  O   UNL     1       2.514  19.068  18.977  1.00  0.00    -0.393 OA
ATOM     34  H   UNL     1       1.919  19.670  19.496  1.00  0.00     0.210 HD
ENDBRANCH  27  33
TORSDOF 2
ENDMDL
MODEL 9
REMARK VINA RESULT:    -7.335      3.067      8.371
REMARK INTER + INTRA:          -8.228
REMARK INTER:                  -7.973
REMARK INTRA:                  -0.255
REMARK UNBOUND:                -0.250
REMARK SMILES C[C@@H]1[C@H](C)CC[C@@]2(C(=O)[O-])CC[C@]3(C)C(=CC[C@H]4[C@@]5(C)CC[C@@H](O)C(C)(C)[C@H]5CC[C@]43C)[C@@H]12
REMARK SMILES IDX 7 1 6 2 11 3 33 4 5 5 12 6 15 7 2 8 3 9 13 10 16 11 1 12
REMARK SMILES IDX 4 13 14 14 31 15 17 16 18 17 30 18 32 19 19 20 29 21 28 22
REMARK SMILES IDX 21 23 20 24 25 25 22 26 23 27 26 28 27 29 8 30 9 31 10 32
REMARK SMILES IDX 24 33
REMARK H PARENT 24 34
REMARK Flexibility Score: inf
ROOT
ATOM      1  C   UNL     1       5.874  21.531  24.842  1.00  0.00     0.017 C 
ATOM      2  C   UNL     1       6.836  21.374  26.056  1.00  0.00     0.014 C 
ATOM      3  C   UNL     1       6.700  21.804  23.527  1.00  0.00     0.014 C 
ATOM      4  C   UNL     1       4.932  20.271  24.715  1.00  0.00     0.030 C 
ATOM      5  C   UNL     1       7.561  20.026  26.100  1.00  0.00     0.004 C 
ATOM      6  C   UNL     1       6.304  20.963  22.297  1.00  0.00     0.013 C 
ATOM      7  C   UNL     1       4.132  20.328  23.406  1.00  0.00    -0.063 C 
ATOM      8  C   UNL     1       5.657  18.893  24.888  1.00  0.00    -0.003 C 
ATOM      9  C   UNL     1       6.573  18.851  26.138  1.00  0.00    -0.011 C 
ATOM     10  C   UNL     1       4.758  20.807  22.089  1.00  0.00    -0.006 C 
ATOM     11  C   UNL     1       2.846  19.934  23.412  1.00  0.00    -0.027 C 
ATOM     12  C   UNL     1       4.670  17.708  24.889  1.00  0.00     0.008 C 
ATOM     13  C   UNL     1       5.811  18.786  27.478  1.00  0.00     0.008 C 
ATOM     14  C   UNL     1       4.224  22.249  21.794  1.00  0.00     0.017 C 
ATOM     15  C   UNL     1       4.383  19.766  20.893  1.00  0.00    -0.020 C 
ATOM     16  C   UNL     1       2.067  19.840  22.138  1.00  0.00     0.032 C 
ATOM     17  C   UNL     1       2.918  19.146  21.037  1.00  0.00     0.006 C 
ATOM     18  C   UNL     1       4.501  20.468  19.524  1.00  0.00     0.008 C 
ATOM     19  C   UNL     1       5.397  18.573  20.892  1.00  0.00     0.012 C 
ATOM     20  C   UNL     1       2.085  18.846  19.694  1.00  0.00    -0.025 C 
ATOM     21  C   UNL     1       4.229  19.566  18.327  1.00  0.00     0.005 C 
ATOM     22  C   UNL     1       3.037  18.556  18.453  1.00  0.00     0.003 C 
ATOM     23  C   UNL     1       1.128  20.026  19.322  1.00  0.00     0.010 C 
ATOM     24  C   UNL     1       1.213  17.579  20.020  1.00  0.00     0.012 C 
ATOM     25  C   UNL     1       2.287  18.375  17.054  1.00  0.00    -0.006 C 
ATOM     26  C   UNL     1       0.381  19.850  17.984  1.00  0.00     0.033 C 
ATOM     27  C   UNL     1       1.306  19.565  16.790  1.00  0.00     0.120 C 
ATOM     28  C   UNL     1       1.497  17.032  16.990  1.00  0.00     0.014 C 
ATOM     29  C   UNL     1       3.309  18.260  15.878  1.00  0.00     0.014 C 
ENDROOT
BRANCH   1  30
ATOM     30  C   UNL     1       5.047  22.781  25.150  1.00  0.00     0.048 C 
ATOM     31  O   UNL     1       5.348  23.909  24.671  1.00  0.00    -0.550 OA
ATOM     32  O   UNL     1       3.914  22.679  25.951  1.00  0.00    -0.550 OA
ENDBRANCH   1  30
BRANCH  27  33
ATOM     33  O   UNL     1       1.996  20.749  16.476  1.00  0.00    -0.393 OA
ATOM     34  H   UNL     1       2.858  20.493  16.055  1.00  0.00     0.210 HD
ENDBRANCH  27  33
TORSDOF 2
ENDMDL
