MODEL 1
REMARK VINA RESULT:    20.098      0.000      0.000
REMARK INTER + INTRA:          43.303
REMARK INTER:                  43.596
REMARK INTRA:                  -0.293
REMARK UNBOUND:                -0.293
REMARK SMILES CCCCCCCCCCCCCCCCCCCCCC(=O)[O-]
REMARK SMILES IDX 12 1 11 2 10 3 9 4 8 5 7 6 6 7 5 8 4 9 3 10 2 11 1 12 13 13
REMARK SMILES IDX 14 14 15 15 16 16 17 17 18 18 19 19 20 20 21 21 22 22 23 23
REMARK SMILES IDX 24 24
REMARK H PARENT
REMARK Flexibility Score: inf
ROOT
ATOM      1  C   UNL     1     -12.748  36.472 -13.449  1.00  0.00     0.000 C 
ENDROOT
BRANCH   1   2
ATOM      2  C   UNL     1     -12.477  37.988 -13.470  1.00  0.00     0.000 C 
BRANCH   2   3
ATOM      3  C   UNL     1     -11.039  38.405 -13.108  1.00  0.00     0.000 C 
BRANCH   3   4
ATOM      4  C   UNL     1     -10.866  39.930 -13.004  1.00  0.00    -0.000 C 
BRANCH   4   5
ATOM      5  C   UNL     1     -12.005  40.616 -12.226  1.00  0.00    -0.000 C 
BRANCH   5   6
ATOM      6  C   UNL     1     -11.561  41.702 -11.229  1.00  0.00    -0.000 C 
BRANCH   6   7
ATOM      7  C   UNL     1     -10.619  41.222 -10.108  1.00  0.00    -0.000 C 
BRANCH   7   8
ATOM      8  C   UNL     1     -11.285  41.153  -8.716  1.00  0.00    -0.000 C 
BRANCH   8   9
ATOM      9  C   UNL     1     -10.775  42.244  -7.757  1.00  0.00    -0.000 C 
BRANCH   9  10
ATOM     10  C   UNL     1     -11.387  42.112  -6.346  1.00  0.00    -0.000 C 
BRANCH  10  11
ATOM     11  C   UNL     1     -12.599  41.167  -6.286  1.00  0.00    -0.003 C 
ATOM     12  C   UNL     1     -13.872  41.791  -6.855  1.00  0.00     0.004 C 
ENDBRANCH  10  11
ENDBRANCH   9  10
ENDBRANCH   8   9
ENDBRANCH   7   8
ENDBRANCH   6   7
ENDBRANCH   5   6
ENDBRANCH   4   5
ENDBRANCH   3   4
ENDBRANCH   2   3
ENDBRANCH   1   2
BRANCH   1  13
ATOM     13  C   UNL     1     -12.870  35.903 -12.025  1.00  0.00     0.000 C 
BRANCH  13  14
ATOM     14  C   UNL     1     -13.821  34.695 -11.941  1.00  0.00     0.000 C 
BRANCH  14  15
ATOM     15  C   UNL     1     -14.115  34.187 -10.515  1.00  0.00     0.000 C 
BRANCH  15  16
ATOM     16  C   UNL     1     -14.718  32.771 -10.439  1.00  0.00     0.000 C 
BRANCH  16  17
ATOM     17  C   UNL     1     -14.382  31.988  -9.154  1.00  0.00     0.000 C 
BRANCH  17  18
ATOM     18  C   UNL     1     -12.903  31.587  -9.005  1.00  0.00     0.000 C 
BRANCH  18  19
ATOM     19  C   UNL     1     -12.710  30.312  -8.170  1.00  0.00     0.000 C 
BRANCH  19  20
ATOM     20  C   UNL     1     -12.209  30.649  -6.760  1.00  0.00     0.006 C 
BRANCH  20  21
ATOM     21  C   UNL     1     -11.165  29.632  -6.290  1.00  0.00     0.053 C 
BRANCH  21  22
ATOM     22  C   UNL     1     -10.017  29.578  -7.249  1.00  0.00     0.041 C 
ATOM     23  O   UNL     1     -10.123  28.938  -8.329  1.00  0.00    -0.550 OA
ATOM     24  O   UNL     1      -8.851  30.284  -6.978  1.00  0.00    -0.550 OA
ENDBRANCH  21  22
ENDBRANCH  20  21
ENDBRANCH  19  20
ENDBRANCH  18  19
ENDBRANCH  17  18
ENDBRANCH  16  17
ENDBRANCH  15  16
ENDBRANCH  14  15
ENDBRANCH  13  14
ENDBRANCH   1  13
TORSDOF 20
ENDMDL
MODEL 2
REMARK VINA RESULT:    20.236      3.690      9.838
REMARK INTER + INTRA:          43.602
REMARK INTER:                  44.384
REMARK INTRA:                  -0.782
REMARK UNBOUND:                -0.293
REMARK SMILES CCCCCCCCCCCCCCCCCCCCCC(=O)[O-]
REMARK SMILES IDX 12 1 11 2 10 3 9 4 8 5 7 6 6 7 5 8 4 9 3 10 2 11 1 12 13 13
REMARK SMILES IDX 14 14 15 15 16 16 17 17 18 18 19 19 20 20 21 21 22 22 23 23
REMARK SMILES IDX 24 24
REMARK H PARENT
REMARK Flexibility Score: inf
ROOT
ATOM      1  C   UNL     1     -12.673  37.334 -13.426  1.00  0.00     0.000 C 
ENDROOT
BRANCH   1   2
ATOM      2  C   UNL     1     -12.559  36.273 -12.315  1.00  0.00     0.000 C 
BRANCH   2   3
ATOM      3  C   UNL     1     -13.676  35.212 -12.299  1.00  0.00     0.000 C 
BRANCH   3   4
ATOM      4  C   UNL     1     -13.918  34.617 -10.902  1.00  0.00    -0.000 C 
BRANCH   4   5
ATOM      5  C   UNL     1     -14.508  33.195 -10.945  1.00  0.00    -0.000 C 
BRANCH   5   6
ATOM      6  C   UNL     1     -14.445  32.416  -9.617  1.00  0.00    -0.000 C 
BRANCH   6   7
ATOM      7  C   UNL     1     -13.069  31.818  -9.268  1.00  0.00    -0.000 C 
BRANCH   7   8
ATOM      8  C   UNL     1     -13.108  30.785  -8.120  1.00  0.00    -0.000 C 
BRANCH   8   9
ATOM      9  C   UNL     1     -11.964  29.758  -8.205  1.00  0.00    -0.000 C 
BRANCH   9  10
ATOM     10  C   UNL     1     -10.991  29.869  -7.011  1.00  0.00    -0.000 C 
BRANCH  10  11
ATOM     11  C   UNL     1      -9.533  29.544  -7.374  1.00  0.00    -0.003 C 
ATOM     12  C   UNL     1      -8.567  30.679  -7.039  1.00  0.00     0.004 C 
ENDBRANCH  10  11
ENDBRANCH   9  10
ENDBRANCH   8   9
ENDBRANCH   7   8
ENDBRANCH   6   7
ENDBRANCH   5   6
ENDBRANCH   4   5
ENDBRANCH   3   4
ENDBRANCH   2   3
ENDBRANCH   1   2
BRANCH   1  13
ATOM     13  C   UNL     1     -11.502  38.331 -13.426  1.00  0.00     0.000 C 
BRANCH  13  14
ATOM     14  C   UNL     1     -11.512  39.268 -12.203  1.00  0.00     0.000 C 
BRANCH  14  15
ATOM     15  C   UNL     1     -11.535  40.774 -12.531  1.00  0.00     0.000 C 
BRANCH  15  16
ATOM     16  C   UNL     1     -11.520  41.707 -11.305  1.00  0.00     0.000 C 
BRANCH  16  17
ATOM     17  C   UNL     1     -10.896  41.101 -10.031  1.00  0.00     0.000 C 
BRANCH  17  18
ATOM     18  C   UNL     1     -10.279  42.124  -9.060  1.00  0.00     0.000 C 
BRANCH  18  19
ATOM     19  C   UNL     1      -9.451  41.465  -7.945  1.00  0.00     0.000 C 
BRANCH  19  20
ATOM     20  C   UNL     1     -10.284  41.297  -6.669  1.00  0.00     0.006 C 
BRANCH  20  21
ATOM     21  C   UNL     1     -11.379  42.363  -6.583  1.00  0.00     0.053 C 
BRANCH  21  22
ATOM     22  C   UNL     1     -12.732  41.725  -6.564  1.00  0.00     0.041 C 
ATOM     23  O   UNL     1     -13.211  41.287  -5.485  1.00  0.00    -0.550 OA
ATOM     24  O   UNL     1     -13.491  41.670  -7.727  1.00  0.00    -0.550 OA
ENDBRANCH  21  22
ENDBRANCH  20  21
ENDBRANCH  19  20
ENDBRANCH  18  19
ENDBRANCH  17  18
ENDBRANCH  16  17
ENDBRANCH  15  16
ENDBRANCH  14  15
ENDBRANCH  13  14
ENDBRANCH   1  13
TORSDOF 20
ENDMDL
MODEL 3
REMARK VINA RESULT:    20.274      0.948      1.580
REMARK INTER + INTRA:          43.687
REMARK INTER:                  44.310
REMARK INTRA:                  -0.623
REMARK UNBOUND:                -0.293
REMARK SMILES CCCCCCCCCCCCCCCCCCCCCC(=O)[O-]
REMARK SMILES IDX 12 1 11 2 10 3 9 4 8 5 7 6 6 7 5 8 4 9 3 10 2 11 1 12 13 13
REMARK SMILES IDX 14 14 15 15 16 16 17 17 18 18 19 19 20 20 21 21 22 22 23 23
REMARK SMILES IDX 24 24
REMARK H PARENT
REMARK Flexibility Score: inf
ROOT
ATOM      1  C   UNL     1     -13.527  35.657 -12.558  1.00  0.00     0.000 C 
ENDROOT
BRANCH   1   2
ATOM      2  C   UNL     1     -12.311  36.602 -12.570  1.00  0.00     0.000 C 
BRANCH   2   3
ATOM      3  C   UNL     1     -12.511  37.924 -13.336  1.00  0.00     0.000 C 
BRANCH   3   4
ATOM      4  C   UNL     1     -11.188  38.644 -13.644  1.00  0.00    -0.000 C 
BRANCH   4   5
ATOM      5  C   UNL     1     -10.799  39.679 -12.570  1.00  0.00    -0.000 C 
BRANCH   5   6
ATOM      6  C   UNL     1     -11.762  40.873 -12.428  1.00  0.00    -0.000 C 
BRANCH   6   7
ATOM      7  C   UNL     1     -11.697  41.616 -11.080  1.00  0.00    -0.000 C 
BRANCH   7   8
ATOM      8  C   UNL     1     -10.729  40.978 -10.059  1.00  0.00    -0.000 C 
BRANCH   8   9
ATOM      9  C   UNL     1     -10.567  41.824  -8.784  1.00  0.00    -0.000 C 
BRANCH   9  10
ATOM     10  C   UNL     1     -11.241  41.169  -7.559  1.00  0.00    -0.000 C 
BRANCH  10  11
ATOM     11  C   UNL     1     -11.952  42.172  -6.637  1.00  0.00    -0.003 C 
ATOM     12  C   UNL     1     -13.131  41.560  -5.883  1.00  0.00     0.004 C 
ENDBRANCH  10  11
ENDBRANCH   9  10
ENDBRANCH   8   9
ENDBRANCH   7   8
ENDBRANCH   6   7
ENDBRANCH   5   6
ENDBRANCH   4   5
ENDBRANCH   3   4
ENDBRANCH   2   3
ENDBRANCH   1   2
BRANCH   1  13
ATOM     13  C   UNL     1     -13.499  34.659 -11.386  1.00  0.00     0.000 C 
BRANCH  13  14
ATOM     14  C   UNL     1     -14.770  33.792 -11.309  1.00  0.00     0.000 C 
BRANCH  14  15
ATOM     15  C   UNL     1     -14.814  32.796 -10.132  1.00  0.00     0.000 C 
BRANCH  15  16
ATOM     16  C   UNL     1     -13.460  32.157  -9.769  1.00  0.00     0.000 C 
BRANCH  16  17
ATOM     17  C   UNL     1     -13.482  31.250  -8.521  1.00  0.00     0.000 C 
BRANCH  17  18
ATOM     18  C   UNL     1     -12.133  30.597  -8.169  1.00  0.00     0.000 C 
BRANCH  18  19
ATOM     19  C   UNL     1     -12.102  30.018  -6.746  1.00  0.00     0.000 C 
BRANCH  19  20
ATOM     20  C   UNL     1     -10.857  29.148  -6.534  1.00  0.00     0.006 C 
BRANCH  20  21
ATOM     21  C   UNL     1      -9.859  29.329  -7.681  1.00  0.00     0.053 C 
BRANCH  21  22
ATOM     22  C   UNL     1      -8.934  30.470  -7.397  1.00  0.00     0.041 C 
ATOM     23  O   UNL     1      -8.285  31.007  -8.333  1.00  0.00    -0.550 OA
ATOM     24  O   UNL     1      -8.834  30.981  -6.108  1.00  0.00    -0.550 OA
ENDBRANCH  21  22
ENDBRANCH  20  21
ENDBRANCH  19  20
ENDBRANCH  18  19
ENDBRANCH  17  18
ENDBRANCH  16  17
ENDBRANCH  15  16
ENDBRANCH  14  15
ENDBRANCH  13  14
ENDBRANCH   1  13
TORSDOF 20
ENDMDL
MODEL 4
REMARK VINA RESULT:    20.287      3.719      9.922
REMARK INTER + INTRA:          43.714
REMARK INTER:                  44.656
REMARK INTRA:                  -0.942
REMARK UNBOUND:                -0.293
REMARK SMILES CCCCCCCCCCCCCCCCCCCCCC(=O)[O-]
REMARK SMILES IDX 12 1 11 2 10 3 9 4 8 5 7 6 6 7 5 8 4 9 3 10 2 11 1 12 13 13
REMARK SMILES IDX 14 14 15 15 16 16 17 17 18 18 19 19 20 20 21 21 22 22 23 23
REMARK SMILES IDX 24 24
REMARK H PARENT
REMARK Flexibility Score: inf
ROOT
ATOM      1  C   UNL     1     -13.253  36.154 -12.018  1.00  0.00     0.000 C 
ENDROOT
BRANCH   1   2
ATOM      2  C   UNL     1     -13.495  34.633 -11.990  1.00  0.00     0.000 C 
BRANCH   2   3
ATOM      3  C   UNL     1     -13.657  34.017 -10.587  1.00  0.00     0.000 C 
BRANCH   3   4
ATOM      4  C   UNL     1     -14.767  32.955 -10.523  1.00  0.00    -0.000 C 
BRANCH   4   5
ATOM      5  C   UNL     1     -14.510  31.875  -9.455  1.00  0.00    -0.000 C 
BRANCH   5   6
ATOM      6  C   UNL     1     -13.144  31.961  -8.747  1.00  0.00    -0.000 C 
BRANCH   6   7
ATOM      7  C   UNL     1     -12.439  30.613  -8.508  1.00  0.00    -0.000 C 
BRANCH   7   8
ATOM      8  C   UNL     1     -12.459  30.148  -7.035  1.00  0.00    -0.000 C 
BRANCH   8   9
ATOM      9  C   UNL     1     -11.223  29.311  -6.659  1.00  0.00    -0.000 C 
BRANCH   9  10
ATOM     10  C   UNL     1     -10.055  29.521  -7.646  1.00  0.00    -0.000 C 
BRANCH  10  11
ATOM     11  C   UNL     1      -8.817  30.169  -7.006  1.00  0.00    -0.003 C 
ATOM     12  C   UNL     1      -8.251  31.322  -7.833  1.00  0.00     0.004 C 
ENDBRANCH  10  11
ENDBRANCH   9  10
ENDBRANCH   8   9
ENDBRANCH   7   8
ENDBRANCH   6   7
ENDBRANCH   5   6
ENDBRANCH   4   5
ENDBRANCH   3   4
ENDBRANCH   2   3
ENDBRANCH   1   2
BRANCH   1  13
ATOM     13  C   UNL     1     -12.534  36.623 -13.295  1.00  0.00     0.000 C 
BRANCH  13  14
ATOM     14  C   UNL     1     -12.460  38.158 -13.411  1.00  0.00     0.000 C 
BRANCH  14  15
ATOM     15  C   UNL     1     -11.041  38.755 -13.326  1.00  0.00     0.000 C 
BRANCH  15  16
ATOM     16  C   UNL     1     -10.960  40.155 -12.687  1.00  0.00     0.000 C 
BRANCH  16  17
ATOM     17  C   UNL     1     -11.625  40.278 -11.301  1.00  0.00     0.000 C 
BRANCH  17  18
ATOM     18  C   UNL     1     -11.228  41.531 -10.499  1.00  0.00     0.000 C 
BRANCH  18  19
ATOM     19  C   UNL     1     -10.062  41.276  -9.531  1.00  0.00     0.000 C 
BRANCH  19  20
ATOM     20  C   UNL     1     -10.465  41.602  -8.088  1.00  0.00     0.006 C 
BRANCH  20  21
ATOM     21  C   UNL     1     -11.972  41.419  -7.884  1.00  0.00     0.053 C 
BRANCH  21  22
ATOM     22  C   UNL     1     -12.363  41.799  -6.491  1.00  0.00     0.041 C 
ATOM     23  O   UNL     1     -13.491  41.470  -6.038  1.00  0.00    -0.550 OA
ATOM     24  O   UNL     1     -11.460  42.465  -5.672  1.00  0.00    -0.550 OA
ENDBRANCH  21  22
ENDBRANCH  20  21
ENDBRANCH  19  20
ENDBRANCH  18  19
ENDBRANCH  17  18
ENDBRANCH  16  17
ENDBRANCH  15  16
ENDBRANCH  14  15
ENDBRANCH  13  14
ENDBRANCH   1  13
TORSDOF 20
ENDMDL
MODEL 5
REMARK VINA RESULT:    20.475      3.740      9.860
REMARK INTER + INTRA:          44.122
REMARK INTER:                  45.075
REMARK INTRA:                  -0.953
REMARK UNBOUND:                -0.293
REMARK SMILES CCCCCCCCCCCCCCCCCCCCCC(=O)[O-]
REMARK SMILES IDX 12 1 11 2 10 3 9 4 8 5 7 6 6 7 5 8 4 9 3 10 2 11 1 12 13 13
REMARK SMILES IDX 14 14 15 15 16 16 17 17 18 18 19 19 20 20 21 21 22 22 23 23
REMARK SMILES IDX 24 24
REMARK H PARENT
REMARK Flexibility Score: inf
ROOT
ATOM      1  C   UNL     1     -12.508  36.148 -12.757  1.00  0.00     0.000 C 
ENDROOT
BRANCH   1   2
ATOM      2  C   UNL     1     -13.716  35.847 -11.851  1.00  0.00     0.000 C 
BRANCH   2   3
ATOM      3  C   UNL     1     -14.131  34.365 -11.776  1.00  0.00     0.000 C 
BRANCH   3   4
ATOM      4  C   UNL     1     -13.705  33.689 -10.462  1.00  0.00    -0.000 C 
BRANCH   4   5
ATOM      5  C   UNL     1     -14.613  32.509 -10.067  1.00  0.00    -0.000 C 
BRANCH   5   6
ATOM      6  C   UNL     1     -14.064  31.601  -8.951  1.00  0.00    -0.000 C 
BRANCH   6   7
ATOM      7  C   UNL     1     -12.534  31.420  -8.940  1.00  0.00    -0.000 C 
BRANCH   7   8
ATOM      8  C   UNL     1     -12.076  29.967  -8.689  1.00  0.00    -0.000 C 
BRANCH   8   9
ATOM      9  C   UNL     1     -10.577  29.866  -8.352  1.00  0.00    -0.000 C 
BRANCH   9  10
ATOM     10  C   UNL     1     -10.336  29.478  -6.878  1.00  0.00    -0.000 C 
BRANCH  10  11
ATOM     11  C   UNL     1     -11.619  29.451  -6.031  1.00  0.00    -0.003 C 
ATOM     12  C   UNL     1     -11.810  30.715  -5.194  1.00  0.00     0.004 C 
ENDBRANCH  10  11
ENDBRANCH   9  10
ENDBRANCH   8   9
ENDBRANCH   7   8
ENDBRANCH   6   7
ENDBRANCH   5   6
ENDBRANCH   4   5
ENDBRANCH   3   4
ENDBRANCH   2   3
ENDBRANCH   1   2
BRANCH   1  13
ATOM     13  C   UNL     1     -12.466  37.609 -13.237  1.00  0.00     0.000 C 
BRANCH  13  14
ATOM     14  C   UNL     1     -11.031  38.154 -13.373  1.00  0.00     0.000 C 
BRANCH  14  15
ATOM     15  C   UNL     1     -10.873  39.663 -13.099  1.00  0.00     0.000 C 
BRANCH  15  16
ATOM     16  C   UNL     1     -11.923  40.266 -12.146  1.00  0.00     0.000 C 
BRANCH  16  17
ATOM     17  C   UNL     1     -11.392  41.364 -11.202  1.00  0.00     0.000 C 
BRANCH  17  18
ATOM     18  C   UNL     1     -10.645  40.847  -9.959  1.00  0.00     0.000 C 
BRANCH  18  19
ATOM     19  C   UNL     1     -10.235  41.972  -8.996  1.00  0.00     0.000 C 
BRANCH  19  20
ATOM     20  C   UNL     1     -10.623  41.630  -7.553  1.00  0.00     0.006 C 
BRANCH  20  21
ATOM     21  C   UNL     1     -12.138  41.727  -7.354  1.00  0.00     0.053 C 
BRANCH  21  22
ATOM     22  C   UNL     1     -12.469  41.876  -5.903  1.00  0.00     0.041 C 
ATOM     23  O   UNL     1     -13.520  41.362  -5.437  1.00  0.00    -0.550 OA
ATOM     24  O   UNL     1     -11.586  42.529  -5.051  1.00  0.00    -0.550 OA
ENDBRANCH  21  22
ENDBRANCH  20  21
ENDBRANCH  19  20
ENDBRANCH  18  19
ENDBRANCH  17  18
ENDBRANCH  16  17
ENDBRANCH  15  16
ENDBRANCH  14  15
ENDBRANCH  13  14
ENDBRANCH   1  13
TORSDOF 20
ENDMDL
