MODEL 1
REMARK VINA RESULT:    -6.099      0.000      0.000
REMARK INTER + INTRA:          -7.027
REMARK INTER:                  -7.169
REMARK INTRA:                   0.142
REMARK UNBOUND:                 0.142
REMARK SMILES O=c1c(O)c(-c2ccc(O)cc2)oc2cc(O)cc(O)c12
REMARK SMILES IDX 5 1 3 2 2 3 1 4 21 5 19 6 18 7 16 8 15 9 14 10 13 11 6 12
REMARK SMILES IDX 7 13 8 14 9 15 12 16 11 17 10 18 4 20 20 22 17 24
REMARK H PARENT 10 19 4 21 20 23 17 25
REMARK Flexibility Score: inf
ROOT
ATOM      1  C   UNL     1     -11.360  -1.044  -9.680  1.00  0.00     0.180 A 
ATOM      2  C   UNL     1     -12.652  -0.994 -10.230  1.00  0.00     0.208 A 
ATOM      3  C   UNL     1     -13.337   0.232 -10.249  1.00  0.00     0.238 A 
ATOM      4  O   UNL     1     -14.472   0.281 -10.791  1.00  0.00    -0.285 OA
ATOM      5  C   UNL     1     -12.728   1.387  -9.703  1.00  0.00     0.111 A 
ATOM      6  C   UNL     1     -13.346   2.672  -9.632  1.00  0.00     0.134 A 
ATOM      7  C   UNL     1     -12.602   3.773  -9.191  1.00  0.00     0.093 A 
ATOM      8  C   UNL     1     -11.282   3.623  -8.755  1.00  0.00     0.123 A 
ATOM      9  C   UNL     1     -10.691   2.363  -8.765  1.00  0.00     0.094 A 
ATOM     10  C   UNL     1     -11.396   1.251  -9.234  1.00  0.00     0.146 A 
ATOM     11  O   UNL     1     -10.790   0.070  -9.236  1.00  0.00    -0.452 OA
ENDROOT
BRANCH   1  12
ATOM     12  C   UNL     1     -10.585  -2.304  -9.602  1.00  0.00     0.021 A 
ATOM     13  C   UNL     1     -10.514  -3.143 -10.728  1.00  0.00     0.016 A 
ATOM     14  C   UNL     1      -9.770  -4.326 -10.684  1.00  0.00     0.047 A 
ATOM     15  C   UNL     1      -9.076  -4.677  -9.523  1.00  0.00     0.115 A 
ATOM     16  C   UNL     1      -9.867  -2.653  -8.444  1.00  0.00     0.016 A 
ATOM     17  C   UNL     1      -9.123  -3.836  -8.404  1.00  0.00     0.047 A 
BRANCH  15  18
ATOM     18  O   UNL     1      -8.338  -5.859  -9.493  1.00  0.00    -0.508 OA
ATOM     19  H   UNL     1      -8.630  -6.678 -10.015  1.00  0.00     0.293 HD
ENDBRANCH  15  18
ENDBRANCH   1  12
BRANCH   2  20
ATOM     20  O   UNL     1     -13.225  -2.141 -10.784  1.00  0.00    -0.502 OA
ATOM     21  H   UNL     1     -13.953  -2.667 -10.314  1.00  0.00     0.293 HD
ENDBRANCH   2  20
BRANCH   6  22
ATOM     22  O   UNL     1     -14.685   2.913  -9.955  1.00  0.00    -0.507 OA
ATOM     23  H   UNL     1     -15.037   3.777 -10.336  1.00  0.00     0.293 HD
ENDBRANCH   6  22
BRANCH   8  24
ATOM     24  O   UNL     1     -10.554   4.721  -8.303  1.00  0.00    -0.508 OA
ATOM     25  H   UNL     1     -10.418   5.542  -8.882  1.00  0.00     0.293 HD
ENDBRANCH   8  24
TORSDOF 5
ENDMDL
MODEL 2
REMARK VINA RESULT:    -5.582     16.453     18.846
REMARK INTER + INTRA:          -6.419
REMARK INTER:                  -6.140
REMARK INTRA:                  -0.279
REMARK UNBOUND:                 0.142
REMARK SMILES O=c1c(O)c(-c2ccc(O)cc2)oc2cc(O)cc(O)c12
REMARK SMILES IDX 5 1 3 2 2 3 1 4 21 5 19 6 18 7 16 8 15 9 14 10 13 11 6 12
REMARK SMILES IDX 7 13 8 14 9 15 12 16 11 17 10 18 4 20 20 22 17 24
REMARK H PARENT 10 19 4 21 20 23 17 25
REMARK Flexibility Score: inf
ROOT
ATOM      1  C   UNL     1      -8.827   9.171   5.939  1.00  0.00     0.180 A 
ATOM      2  C   UNL     1     -10.065   9.834   5.983  1.00  0.00     0.208 A 
ATOM      3  C   UNL     1     -11.246   9.078   5.907  1.00  0.00     0.238 A 
ATOM      4  O   UNL     1     -12.351   9.673   6.002  1.00  0.00    -0.285 OA
ATOM      5  C   UNL     1     -11.173   7.671   5.773  1.00  0.00     0.111 A 
ATOM      6  C   UNL     1     -12.304   6.810   5.647  1.00  0.00     0.134 A 
ATOM      7  C   UNL     1     -12.120   5.422   5.652  1.00  0.00     0.093 A 
ATOM      8  C   UNL     1     -10.839   4.865   5.711  1.00  0.00     0.123 A 
ATOM      9  C   UNL     1      -9.726   5.699   5.774  1.00  0.00     0.094 A 
ATOM     10  C   UNL     1      -9.880   7.088   5.809  1.00  0.00     0.146 A 
ATOM     11  O   UNL     1      -8.793   7.846   5.879  1.00  0.00    -0.452 OA
ENDROOT
BRANCH   1  12
ATOM     12  C   UNL     1      -7.540   9.902   5.988  1.00  0.00     0.021 A 
ATOM     13  C   UNL     1      -7.016  10.461   4.809  1.00  0.00     0.016 A 
ATOM     14  C   UNL     1      -5.814  11.175   4.838  1.00  0.00     0.047 A 
ATOM     15  C   UNL     1      -5.129  11.352   6.043  1.00  0.00     0.115 A 
ATOM     16  C   UNL     1      -6.856  10.102   7.201  1.00  0.00     0.016 A 
ATOM     17  C   UNL     1      -5.654  10.817   7.226  1.00  0.00     0.047 A 
BRANCH  15  18
ATOM     18  O   UNL     1      -3.932  12.065   6.055  1.00  0.00    -0.508 OA
ATOM     19  H   UNL     1      -3.157  11.788   6.648  1.00  0.00     0.293 HD
ENDBRANCH  15  18
ENDBRANCH   1  12
BRANCH   2  20
ATOM     20  O   UNL     1     -10.114  11.222   6.138  1.00  0.00    -0.502 OA
ATOM     21  H   UNL     1     -10.104  11.859   5.350  1.00  0.00     0.293 HD
ENDBRANCH   2  20
BRANCH   6  22
ATOM     22  O   UNL     1     -13.617   7.264   5.489  1.00  0.00    -0.507 OA
ATOM     23  H   UNL     1     -14.352   6.748   5.029  1.00  0.00     0.293 HD
ENDBRANCH   6  22
BRANCH   8  24
ATOM     24  O   UNL     1     -10.663   3.483   5.699  1.00  0.00    -0.508 OA
ATOM     25  H   UNL     1     -10.435   2.986   4.846  1.00  0.00     0.293 HD
ENDBRANCH   8  24
TORSDOF 5
ENDMDL
MODEL 3
REMARK VINA RESULT:    -5.539     16.428     18.813
REMARK INTER + INTRA:          -6.368
REMARK INTER:                  -6.111
REMARK INTRA:                  -0.257
REMARK UNBOUND:                 0.142
REMARK SMILES O=c1c(O)c(-c2ccc(O)cc2)oc2cc(O)cc(O)c12
REMARK SMILES IDX 5 1 3 2 2 3 1 4 21 5 19 6 18 7 16 8 15 9 14 10 13 11 6 12
REMARK SMILES IDX 7 13 8 14 9 15 12 16 11 17 10 18 4 20 20 22 17 24
REMARK H PARENT 10 19 4 21 20 23 17 25
REMARK Flexibility Score: inf
ROOT
ATOM      1  C   UNL     1      -8.918   9.172   5.875  1.00  0.00     0.180 A 
ATOM      2  C   UNL     1     -10.165   9.815   5.955  1.00  0.00     0.208 A 
ATOM      3  C   UNL     1     -11.335   9.040   5.910  1.00  0.00     0.238 A 
ATOM      4  O   UNL     1     -12.447   9.616   6.038  1.00  0.00    -0.285 OA
ATOM      5  C   UNL     1     -11.243   7.634   5.769  1.00  0.00     0.111 A 
ATOM      6  C   UNL     1     -12.363   6.755   5.672  1.00  0.00     0.134 A 
ATOM      7  C   UNL     1     -12.156   5.370   5.666  1.00  0.00     0.093 A 
ATOM      8  C   UNL     1     -10.865   4.835   5.688  1.00  0.00     0.123 A 
ATOM      9  C   UNL     1      -9.764   5.687   5.723  1.00  0.00     0.094 A 
ATOM     10  C   UNL     1      -9.940   7.072   5.766  1.00  0.00     0.146 A 
ATOM     11  O   UNL     1      -8.863   7.848   5.810  1.00  0.00    -0.452 OA
ENDROOT
BRANCH   1  12
ATOM     12  C   UNL     1      -7.642   9.924   5.891  1.00  0.00     0.021 A 
ATOM     13  C   UNL     1      -6.840   9.902   7.046  1.00  0.00     0.016 A 
ATOM     14  C   UNL     1      -5.621  10.586   7.075  1.00  0.00     0.047 A 
ATOM     15  C   UNL     1      -5.180  11.287   5.948  1.00  0.00     0.115 A 
ATOM     16  C   UNL     1      -7.182  10.614   4.754  1.00  0.00     0.016 A 
ATOM     17  C   UNL     1      -5.962  11.296   4.787  1.00  0.00     0.047 A 
BRANCH  15  18
ATOM     18  O   UNL     1      -3.964  11.964   5.992  1.00  0.00    -0.508 OA
ATOM     19  H   UNL     1      -3.109  11.499   6.276  1.00  0.00     0.293 HD
ENDBRANCH  15  18
ENDBRANCH   1  12
BRANCH   2  20
ATOM     20  O   UNL     1     -10.232  11.201   6.118  1.00  0.00    -0.502 OA
ATOM     21  H   UNL     1     -10.845  11.785   5.561  1.00  0.00     0.293 HD
ENDBRANCH   2  20
BRANCH   6  22
ATOM     22  O   UNL     1     -13.687   7.188   5.551  1.00  0.00    -0.507 OA
ATOM     23  H   UNL     1     -14.063   8.014   5.990  1.00  0.00     0.293 HD
ENDBRANCH   6  22
BRANCH   8  24
ATOM     24  O   UNL     1     -10.667   3.456   5.666  1.00  0.00    -0.508 OA
ATOM     25  H   UNL     1     -11.074   2.851   6.369  1.00  0.00     0.293 HD
ENDBRANCH   8  24
TORSDOF 5
ENDMDL
MODEL 4
REMARK VINA RESULT:    -5.158      1.447      6.491
REMARK INTER + INTRA:          -5.921
REMARK INTER:                  -6.063
REMARK INTRA:                   0.142
REMARK UNBOUND:                 0.142
REMARK SMILES O=c1c(O)c(-c2ccc(O)cc2)oc2cc(O)cc(O)c12
REMARK SMILES IDX 5 1 3 2 2 3 1 4 21 5 19 6 18 7 16 8 15 9 14 10 13 11 6 12
REMARK SMILES IDX 7 13 8 14 9 15 12 16 11 17 10 18 4 20 20 22 17 24
REMARK H PARENT 10 19 4 21 20 23 17 25
REMARK Flexibility Score: inf
ROOT
ATOM      1  C   UNL     1     -12.091   0.382  -9.597  1.00  0.00     0.180 A 
ATOM      2  C   UNL     1     -12.923  -0.499 -10.308  1.00  0.00     0.208 A 
ATOM      3  C   UNL     1     -12.486  -1.814 -10.535  1.00  0.00     0.238 A 
ATOM      4  O   UNL     1     -13.259  -2.614 -11.125  1.00  0.00    -0.285 OA
ATOM      5  C   UNL     1     -11.217  -2.226 -10.062  1.00  0.00     0.111 A 
ATOM      6  C   UNL     1     -10.656  -3.522 -10.270  1.00  0.00     0.134 A 
ATOM      7  C   UNL     1      -9.450  -3.861  -9.646  1.00  0.00     0.093 A 
ATOM      8  C   UNL     1      -8.751  -2.929  -8.875  1.00  0.00     0.123 A 
ATOM      9  C   UNL     1      -9.261  -1.643  -8.715  1.00  0.00     0.094 A 
ATOM     10  C   UNL     1     -10.481  -1.286  -9.295  1.00  0.00     0.146 A 
ATOM     11  O   UNL     1     -10.936  -0.053  -9.109  1.00  0.00    -0.452 OA
ENDROOT
BRANCH   1  12
ATOM     12  C   UNL     1     -12.472   1.790  -9.339  1.00  0.00     0.021 A 
ATOM     13  C   UNL     1     -13.764   2.082  -8.868  1.00  0.00     0.016 A 
ATOM     14  C   UNL     1     -14.137   3.403  -8.597  1.00  0.00     0.047 A 
ATOM     15  C   UNL     1     -13.222   4.444  -8.778  1.00  0.00     0.115 A 
ATOM     16  C   UNL     1     -11.550   2.840  -9.499  1.00  0.00     0.016 A 
ATOM     17  C   UNL     1     -11.926   4.159  -9.226  1.00  0.00     0.047 A 
BRANCH  15  18
ATOM     18  O   UNL     1     -13.608   5.754  -8.504  1.00  0.00    -0.508 OA
ATOM     19  H   UNL     1     -14.508   5.965  -8.089  1.00  0.00     0.293 HD
ENDBRANCH  15  18
ENDBRANCH   1  12
BRANCH   2  20
ATOM     20  O   UNL     1     -14.181  -0.078 -10.746  1.00  0.00    -0.502 OA
ATOM     21  H   UNL     1     -14.854   0.359 -10.127  1.00  0.00     0.293 HD
ENDBRANCH   2  20
BRANCH   6  22
ATOM     22  O   UNL     1     -11.227  -4.495 -11.097  1.00  0.00    -0.507 OA
ATOM     23  H   UNL     1     -11.073  -5.488 -11.006  1.00  0.00     0.293 HD
ENDBRANCH   6  22
BRANCH   8  24
ATOM     24  O   UNL     1      -7.543  -3.269  -8.271  1.00  0.00    -0.508 OA
ATOM     25  H   UNL     1      -6.653  -3.028  -8.691  1.00  0.00     0.293 HD
ENDBRANCH   8  24
TORSDOF 5
ENDMDL
MODEL 5
REMARK VINA RESULT:    -3.923     16.074     18.362
REMARK INTER + INTRA:          -4.469
REMARK INTER:                  -4.448
REMARK INTRA:                  -0.021
REMARK UNBOUND:                 0.142
REMARK SMILES O=c1c(O)c(-c2ccc(O)cc2)oc2cc(O)cc(O)c12
REMARK SMILES IDX 5 1 3 2 2 3 1 4 21 5 19 6 18 7 16 8 15 9 14 10 13 11 6 12
REMARK SMILES IDX 7 13 8 14 9 15 12 16 11 17 10 18 4 20 20 22 17 24
REMARK H PARENT 10 19 4 21 20 23 17 25
REMARK Flexibility Score: inf
ROOT
ATOM      1  C   UNL     1      -9.850   7.862   6.024  1.00  0.00     0.180 A 
ATOM      2  C   UNL     1      -9.583   6.815   6.922  1.00  0.00     0.208 A 
ATOM      3  C   UNL     1     -10.534   5.795   7.082  1.00  0.00     0.238 A 
ATOM      4  O   UNL     1     -10.265   4.832   7.847  1.00  0.00    -0.285 OA
ATOM      5  C   UNL     1     -11.747   5.843   6.354  1.00  0.00     0.111 A 
ATOM      6  C   UNL     1     -12.799   4.885   6.468  1.00  0.00     0.134 A 
ATOM      7  C   UNL     1     -13.899   4.960   5.604  1.00  0.00     0.093 A 
ATOM      8  C   UNL     1     -14.016   5.998   4.675  1.00  0.00     0.123 A 
ATOM      9  C   UNL     1     -13.023   6.971   4.598  1.00  0.00     0.094 A 
ATOM     10  C   UNL     1     -11.896   6.902   5.421  1.00  0.00     0.146 A 
ATOM     11  O   UNL     1     -10.968   7.844   5.307  1.00  0.00    -0.452 OA
ENDROOT
BRANCH   1  12
ATOM     12  C   UNL     1      -8.907   8.985   5.820  1.00  0.00     0.021 A 
ATOM     13  C   UNL     1      -7.594   8.717   5.396  1.00  0.00     0.016 A 
ATOM     14  C   UNL     1      -6.693   9.764   5.175  1.00  0.00     0.047 A 
ATOM     15  C   UNL     1      -7.097  11.090   5.360  1.00  0.00     0.115 A 
ATOM     16  C   UNL     1      -9.312  10.322   5.983  1.00  0.00     0.016 A 
ATOM     17  C   UNL     1      -8.409  11.367   5.761  1.00  0.00     0.047 A 
BRANCH  15  18
ATOM     18  O   UNL     1      -6.189  12.123   5.137  1.00  0.00    -0.508 OA
ATOM     19  H   UNL     1      -6.368  13.065   5.465  1.00  0.00     0.293 HD
ENDBRANCH  15  18
ENDBRANCH   1  12
BRANCH   2  20
ATOM     20  O   UNL     1      -8.369   6.774   7.613  1.00  0.00    -0.502 OA
ATOM     21  H   UNL     1      -8.305   6.944   8.610  1.00  0.00     0.293 HD
ENDBRANCH   2  20
BRANCH   6  22
ATOM     22  O   UNL     1     -12.825   3.864   7.424  1.00  0.00    -0.507 OA
ATOM     23  H   UNL     1     -12.009   3.475   7.870  1.00  0.00     0.293 HD
ENDBRANCH   6  22
BRANCH   8  24
ATOM     24  O   UNL     1     -15.121   6.075   3.831  1.00  0.00    -0.508 OA
ATOM     25  H   UNL     1     -15.543   5.243   3.433  1.00  0.00     0.293 HD
ENDBRANCH   8  24
TORSDOF 5
ENDMDL
MODEL 6
REMARK VINA RESULT:    -3.758     17.662     18.975
REMARK INTER + INTRA:          -4.275
REMARK INTER:                  -4.141
REMARK INTRA:                  -0.134
REMARK UNBOUND:                 0.142
REMARK SMILES O=c1c(O)c(-c2ccc(O)cc2)oc2cc(O)cc(O)c12
REMARK SMILES IDX 5 1 3 2 2 3 1 4 21 5 19 6 18 7 16 8 15 9 14 10 13 11 6 12
REMARK SMILES IDX 7 13 8 14 9 15 12 16 11 17 10 18 4 20 20 22 17 24
REMARK H PARENT 10 19 4 21 20 23 17 25
REMARK Flexibility Score: inf
ROOT
ATOM      1  C   UNL     1      -9.632   9.922   5.748  1.00  0.00     0.180 A 
ATOM      2  C   UNL     1      -9.894   8.551   5.910  1.00  0.00     0.208 A 
ATOM      3  C   UNL     1     -11.210   8.086   5.755  1.00  0.00     0.238 A 
ATOM      4  O   UNL     1     -11.429   6.850   5.847  1.00  0.00    -0.285 OA
ATOM      5  C   UNL     1     -12.249   9.000   5.456  1.00  0.00     0.111 A 
ATOM      6  C   UNL     1     -13.625   8.646   5.317  1.00  0.00     0.134 A 
ATOM      7  C   UNL     1     -14.547   9.610   4.892  1.00  0.00     0.093 A 
ATOM      8  C   UNL     1     -14.154  10.932   4.664  1.00  0.00     0.123 A 
ATOM      9  C   UNL     1     -12.825  11.300   4.854  1.00  0.00     0.094 A 
ATOM     10  C   UNL     1     -11.874  10.352   5.243  1.00  0.00     0.146 A 
ATOM     11  O   UNL     1     -10.616  10.743   5.403  1.00  0.00    -0.452 OA
ENDROOT
BRANCH   1  12
ATOM     12  C   UNL     1      -8.275  10.490   5.920  1.00  0.00     0.021 A 
ATOM     13  C   UNL     1      -7.266  10.161   4.998  1.00  0.00     0.016 A 
ATOM     14  C   UNL     1      -5.984  10.704   5.129  1.00  0.00     0.047 A 
ATOM     15  C   UNL     1      -5.698  11.592   6.169  1.00  0.00     0.115 A 
ATOM     16  C   UNL     1      -7.987  11.400   6.952  1.00  0.00     0.016 A 
ATOM     17  C   UNL     1      -6.704  11.942   7.079  1.00  0.00     0.047 A 
BRANCH  15  18
ATOM     18  O   UNL     1      -4.416  12.125   6.287  1.00  0.00    -0.508 OA
ATOM     19  H   UNL     1      -4.012  12.335   7.193  1.00  0.00     0.293 HD
ENDBRANCH  15  18
ENDBRANCH   1  12
BRANCH   2  20
ATOM     20  O   UNL     1      -8.851   7.663   6.182  1.00  0.00    -0.502 OA
ATOM     21  H   UNL     1      -8.880   6.688   5.908  1.00  0.00     0.293 HD
ENDBRANCH   2  20
BRANCH   6  22
ATOM     22  O   UNL     1     -14.138   7.378   5.609  1.00  0.00    -0.507 OA
ATOM     23  H   UNL     1     -14.098   6.586   4.986  1.00  0.00     0.293 HD
ENDBRANCH   6  22
BRANCH   8  24
ATOM     24  O   UNL     1     -15.081  11.888   4.256  1.00  0.00    -0.508 OA
ATOM     25  H   UNL     1     -16.040  11.871   4.585  1.00  0.00     0.293 HD
ENDBRANCH   8  24
TORSDOF 5
ENDMDL
MODEL 7
REMARK VINA RESULT:    -3.342     17.598     18.367
REMARK INTER + INTRA:          -3.786
REMARK INTER:                  -3.578
REMARK INTRA:                  -0.208
REMARK UNBOUND:                 0.142
REMARK SMILES O=c1c(O)c(-c2ccc(O)cc2)oc2cc(O)cc(O)c12
REMARK SMILES IDX 5 1 3 2 2 3 1 4 21 5 19 6 18 7 16 8 15 9 14 10 13 11 6 12
REMARK SMILES IDX 7 13 8 14 9 15 12 16 11 17 10 18 4 20 20 22 17 24
REMARK H PARENT 10 19 4 21 20 23 17 25
REMARK Flexibility Score: inf
ROOT
ATOM      1  C   UNL     1     -10.952   7.689   6.514  1.00  0.00     0.180 A 
ATOM      2  C   UNL     1      -9.809   8.333   6.011  1.00  0.00     0.208 A 
ATOM      3  C   UNL     1      -9.951   9.582   5.384  1.00  0.00     0.238 A 
ATOM      4  O   UNL     1      -8.917  10.178   4.985  1.00  0.00    -0.285 OA
ATOM      5  C   UNL     1     -11.235  10.162   5.254  1.00  0.00     0.111 A 
ATOM      6  C   UNL     1     -11.501  11.403   4.601  1.00  0.00     0.134 A 
ATOM      7  C   UNL     1     -12.792  11.945   4.646  1.00  0.00     0.093 A 
ATOM      8  C   UNL     1     -13.840  11.258   5.263  1.00  0.00     0.123 A 
ATOM      9  C   UNL     1     -13.602  10.018   5.851  1.00  0.00     0.094 A 
ATOM     10  C   UNL     1     -12.318   9.469   5.855  1.00  0.00     0.146 A 
ATOM     11  O   UNL     1     -12.133   8.289   6.435  1.00  0.00    -0.452 OA
ENDROOT
BRANCH   1  12
ATOM     12  C   UNL     1     -10.885   6.361   7.165  1.00  0.00     0.021 A 
ATOM     13  C   UNL     1     -10.366   6.254   8.468  1.00  0.00     0.016 A 
ATOM     14  C   UNL     1     -10.315   5.013   9.110  1.00  0.00     0.047 A 
ATOM     15  C   UNL     1     -10.794   3.868   8.467  1.00  0.00     0.115 A 
ATOM     16  C   UNL     1     -11.384   5.208   6.532  1.00  0.00     0.016 A 
ATOM     17  C   UNL     1     -11.332   3.968   7.178  1.00  0.00     0.047 A 
BRANCH  15  18
ATOM     18  O   UNL     1     -10.735   2.638   9.119  1.00  0.00    -0.508 OA
ATOM     19  H   UNL     1     -10.180   1.871   8.755  1.00  0.00     0.293 HD
ENDBRANCH  15  18
ENDBRANCH   1  12
BRANCH   2  20
ATOM     20  O   UNL     1      -8.548   7.753   6.170  1.00  0.00    -0.502 OA
ATOM     21  H   UNL     1      -7.690   8.288   6.099  1.00  0.00     0.293 HD
ENDBRANCH   2  20
BRANCH   6  22
ATOM     22  O   UNL     1     -10.546  12.125   3.878  1.00  0.00    -0.507 OA
ATOM     23  H   UNL     1      -9.679  12.471   4.258  1.00  0.00     0.293 HD
ENDBRANCH   6  22
BRANCH   8  24
ATOM     24  O   UNL     1     -15.125  11.796   5.290  1.00  0.00    -0.508 OA
ATOM     25  H   UNL     1     -15.303  12.726   5.652  1.00  0.00     0.293 HD
ENDBRANCH   8  24
TORSDOF 5
ENDMDL
