MODEL 1
REMARK VINA RESULT:    -7.402      0.000      0.000
REMARK INTER + INTRA:          -9.447
REMARK INTER:                  -9.133
REMARK INTRA:                  -0.314
REMARK UNBOUND:                -0.314
REMARK SMILES Oc1cc(O)c2cc(O)c(-c3cc(O)c(O)c(O)c3)[o+]c2c1
REMARK SMILES IDX 10 1 20 2 21 3 22 4 2 5 3 6 4 7 6 8 7 9 8 10 11 11 12 12
REMARK SMILES IDX 13 13 19 14 15 15 17 16 14 17 16 19 18 21 9 23 1 25 5 27
REMARK H PARENT 14 18 16 20 18 22 9 24 1 26 5 28
REMARK Flexibility Score: inf
ROOT
ATOM      1  C   UNL     1      40.837 -11.391   9.237  1.00  0.00     0.402 A 
ATOM      2  O   UNL     1      41.188 -12.574   9.735  1.00  0.00    -0.202 OA
ATOM      3  C   UNL     1      42.094 -12.722  10.697  1.00  0.00     0.368 A 
ATOM      4  C   UNL     1      42.397 -14.007  11.153  1.00  0.00     0.162 A 
ATOM      5  C   UNL     1      43.348 -14.192  12.161  1.00  0.00     0.128 A 
ATOM      6  C   UNL     1      43.997 -13.085  12.715  1.00  0.00     0.093 A 
ATOM      7  C   UNL     1      43.711 -11.787  12.275  1.00  0.00     0.136 A 
ATOM      8  C   UNL     1      42.744 -11.595  11.253  1.00  0.00     0.125 A 
ATOM      9  C   UNL     1      42.384 -10.330  10.760  1.00  0.00     0.078 A 
ATOM     10  C   UNL     1      41.419 -10.219   9.754  1.00  0.00     0.223 A 
ENDROOT
BRANCH   1  11
ATOM     11  C   UNL     1      39.822 -11.358   8.159  1.00  0.00     0.091 A 
ATOM     12  C   UNL     1      38.497 -11.716   8.448  1.00  0.00     0.068 A 
ATOM     13  C   UNL     1      37.520 -11.712   7.442  1.00  0.00     0.162 A 
ATOM     14  C   UNL     1      40.169 -11.031   6.837  1.00  0.00     0.068 A 
ATOM     15  C   UNL     1      37.872 -11.364   6.128  1.00  0.00     0.200 A 
ATOM     16  C   UNL     1      39.198 -11.028   5.827  1.00  0.00     0.162 A 
BRANCH  13  17
ATOM     17  O   UNL     1      36.203 -12.055   7.745  1.00  0.00    -0.504 OA
ATOM     18  H   UNL     1      35.452 -11.377   7.692  1.00  0.00     0.293 HD
ENDBRANCH  13  17
BRANCH  15  19
ATOM     19  O   UNL     1      36.918 -11.350   5.110  1.00  0.00    -0.502 OA
ATOM     20  H   UNL     1      36.097 -10.758   5.149  1.00  0.00     0.293 HD
ENDBRANCH  15  19
BRANCH  16  21
ATOM     21  O   UNL     1      39.545 -10.696   4.519  1.00  0.00    -0.504 OA
ATOM     22  H   UNL     1      39.317  -9.793   4.121  1.00  0.00     0.293 HD
ENDBRANCH  16  21
ENDBRANCH   1  11
BRANCH  10  23
ATOM     23  O   UNL     1      41.025  -8.961   9.298  1.00  0.00    -0.500 OA
ATOM     24  H   UNL     1      41.408  -8.109   9.691  1.00  0.00     0.294 HD
ENDBRANCH  10  23
BRANCH   5  25
ATOM     25  O   UNL     1      43.656 -15.470  12.622  1.00  0.00    -0.507 OA
ATOM     26  H   UNL     1      44.502 -15.948  12.332  1.00  0.00     0.293 HD
ENDBRANCH   5  25
BRANCH   7  27
ATOM     27  O   UNL     1      44.407 -10.736  12.877  1.00  0.00    -0.507 OA
ATOM     28  H   UNL     1      45.413 -10.675  12.933  1.00  0.00     0.293 HD
ENDBRANCH   7  27
TORSDOF 7
ENDMDL
MODEL 2
REMARK VINA RESULT:    -7.362      1.030      3.124
REMARK INTER + INTRA:          -9.397
REMARK INTER:                  -9.194
REMARK INTRA:                  -0.203
REMARK UNBOUND:                -0.314
REMARK SMILES Oc1cc(O)c2cc(O)c(-c3cc(O)c(O)c(O)c3)[o+]c2c1
REMARK SMILES IDX 10 1 20 2 21 3 22 4 2 5 3 6 4 7 6 8 7 9 8 10 11 11 12 12
REMARK SMILES IDX 13 13 19 14 15 15 17 16 14 17 16 19 18 21 9 23 1 25 5 27
REMARK H PARENT 14 18 16 20 18 22 9 24 1 26 5 28
REMARK Flexibility Score: inf
ROOT
ATOM      1  C   UNL     1      40.788 -12.543   9.229  1.00  0.00     0.402 A 
ATOM      2  O   UNL     1      41.537 -11.599   9.794  1.00  0.00    -0.202 OA
ATOM      3  C   UNL     1      42.458 -11.854  10.719  1.00  0.00     0.368 A 
ATOM      4  C   UNL     1      43.194 -10.794  11.255  1.00  0.00     0.162 A 
ATOM      5  C   UNL     1      44.166 -11.032  12.232  1.00  0.00     0.128 A 
ATOM      6  C   UNL     1      44.401 -12.337  12.673  1.00  0.00     0.093 A 
ATOM      7  C   UNL     1      43.677 -13.416  12.152  1.00  0.00     0.136 A 
ATOM      8  C   UNL     1      42.691 -13.178  11.159  1.00  0.00     0.125 A 
ATOM      9  C   UNL     1      41.927 -14.200  10.570  1.00  0.00     0.078 A 
ATOM     10  C   UNL     1      40.976 -13.889   9.593  1.00  0.00     0.223 A 
ENDROOT
BRANCH   1  11
ATOM     11  C   UNL     1      39.789 -12.132   8.217  1.00  0.00     0.091 A 
ATOM     12  C   UNL     1      40.207 -11.407   7.091  1.00  0.00     0.068 A 
ATOM     13  C   UNL     1      39.279 -10.988   6.126  1.00  0.00     0.162 A 
ATOM     14  C   UNL     1      38.421 -12.401   8.388  1.00  0.00     0.068 A 
ATOM     15  C   UNL     1      37.916 -11.281   6.296  1.00  0.00     0.200 A 
ATOM     16  C   UNL     1      37.488 -11.983   7.429  1.00  0.00     0.162 A 
BRANCH  13  17
ATOM     17  O   UNL     1      39.708 -10.282   5.003  1.00  0.00    -0.504 OA
ATOM     18  H   UNL     1      39.238  -9.438   4.696  1.00  0.00     0.293 HD
ENDBRANCH  13  17
BRANCH  15  19
ATOM     19  O   UNL     1      36.973 -10.877   5.348  1.00  0.00    -0.502 OA
ATOM     20  H   UNL     1      37.098 -10.046   4.784  1.00  0.00     0.293 HD
ENDBRANCH  15  19
BRANCH  16  21
ATOM     21  O   UNL     1      36.133 -12.260   7.599  1.00  0.00    -0.504 OA
ATOM     22  H   UNL     1      35.771 -12.628   8.470  1.00  0.00     0.293 HD
ENDBRANCH  16  21
ENDBRANCH   1  11
BRANCH  10  23
ATOM     23  O   UNL     1      40.252 -14.907   8.973  1.00  0.00    -0.500 OA
ATOM     24  H   UNL     1      40.465 -15.216   8.032  1.00  0.00     0.294 HD
ENDBRANCH  10  23
BRANCH   5  25
ATOM     25  O   UNL     1      44.904  -9.981  12.771  1.00  0.00    -0.507 OA
ATOM     26  H   UNL     1      45.457  -9.367  12.184  1.00  0.00     0.293 HD
ENDBRANCH   5  25
BRANCH   7  27
ATOM     27  O   UNL     1      43.970 -14.688  12.650  1.00  0.00    -0.507 OA
ATOM     28  H   UNL     1      44.840 -15.176  12.494  1.00  0.00     0.293 HD
ENDBRANCH   7  27
TORSDOF 7
ENDMDL
MODEL 3
REMARK VINA RESULT:    -7.306      0.364      1.823
REMARK INTER + INTRA:          -9.329
REMARK INTER:                  -9.058
REMARK INTRA:                  -0.270
REMARK UNBOUND:                -0.314
REMARK SMILES Oc1cc(O)c2cc(O)c(-c3cc(O)c(O)c(O)c3)[o+]c2c1
REMARK SMILES IDX 10 1 20 2 21 3 22 4 2 5 3 6 4 7 6 8 7 9 8 10 11 11 12 12
REMARK SMILES IDX 13 13 19 14 15 15 17 16 14 17 16 19 18 21 9 23 1 25 5 27
REMARK H PARENT 14 18 16 20 18 22 9 24 1 26 5 28
REMARK Flexibility Score: inf
ROOT
ATOM      1  C   UNL     1      40.584 -11.641   9.080  1.00  0.00     0.402 A 
ATOM      2  O   UNL     1      40.999 -12.804   9.575  1.00  0.00    -0.202 OA
ATOM      3  C   UNL     1      41.910 -12.905  10.538  1.00  0.00     0.368 A 
ATOM      4  C   UNL     1      42.284 -14.173  10.991  1.00  0.00     0.162 A 
ATOM      5  C   UNL     1      43.241 -14.307  12.001  1.00  0.00     0.128 A 
ATOM      6  C   UNL     1      43.827 -13.168  12.559  1.00  0.00     0.093 A 
ATOM      7  C   UNL     1      43.470 -11.887  12.123  1.00  0.00     0.136 A 
ATOM      8  C   UNL     1      42.496 -11.745  11.100  1.00  0.00     0.125 A 
ATOM      9  C   UNL     1      42.067 -10.501  10.609  1.00  0.00     0.078 A 
ATOM     10  C   UNL     1      41.099 -10.440   9.602  1.00  0.00     0.223 A 
ENDROOT
BRANCH   1  11
ATOM     11  C   UNL     1      39.571 -11.661   8.001  1.00  0.00     0.091 A 
ATOM     12  C   UNL     1      39.927 -11.234   6.713  1.00  0.00     0.068 A 
ATOM     13  C   UNL     1      38.983 -11.224   5.676  1.00  0.00     0.162 A 
ATOM     14  C   UNL     1      38.242 -12.045   8.251  1.00  0.00     0.068 A 
ATOM     15  C   UNL     1      37.662 -11.629   5.931  1.00  0.00     0.200 A 
ATOM     16  C   UNL     1      37.293 -12.035   7.219  1.00  0.00     0.162 A 
BRANCH  13  17
ATOM     17  O   UNL     1      39.352 -10.811   4.397  1.00  0.00    -0.504 OA
ATOM     18  H   UNL     1      39.990 -10.038   4.252  1.00  0.00     0.293 HD
ENDBRANCH  13  17
BRANCH  15  19
ATOM     19  O   UNL     1      36.704 -11.631   4.916  1.00  0.00    -0.502 OA
ATOM     20  H   UNL     1      35.877 -12.214   4.957  1.00  0.00     0.293 HD
ENDBRANCH  15  19
BRANCH  16  21
ATOM     21  O   UNL     1      35.978 -12.424   7.470  1.00  0.00    -0.504 OA
ATOM     22  H   UNL     1      35.191 -11.924   7.075  1.00  0.00     0.293 HD
ENDBRANCH  16  21
ENDBRANCH   1  11
BRANCH  10  23
ATOM     23  O   UNL     1      40.637  -9.205   9.150  1.00  0.00    -0.500 OA
ATOM     24  H   UNL     1      39.788  -9.121   8.604  1.00  0.00     0.294 HD
ENDBRANCH  10  23
BRANCH   5  25
ATOM     25  O   UNL     1      43.619 -15.568  12.457  1.00  0.00    -0.507 OA
ATOM     26  H   UNL     1      43.493 -15.840  13.426  1.00  0.00     0.293 HD
ENDBRANCH   5  25
BRANCH   7  27
ATOM     27  O   UNL     1      44.105 -10.801  12.729  1.00  0.00    -0.507 OA
ATOM     28  H   UNL     1      43.674 -10.195  13.412  1.00  0.00     0.293 HD
ENDBRANCH   7  27
TORSDOF 7
ENDMDL
MODEL 4
REMARK VINA RESULT:    -7.150      6.726     12.162
REMARK INTER + INTRA:          -9.136
REMARK INTER:                  -8.763
REMARK INTRA:                  -0.372
REMARK UNBOUND:                -0.314
REMARK SMILES Oc1cc(O)c2cc(O)c(-c3cc(O)c(O)c(O)c3)[o+]c2c1
REMARK SMILES IDX 10 1 20 2 21 3 22 4 2 5 3 6 4 7 6 8 7 9 8 10 11 11 12 12
REMARK SMILES IDX 13 13 19 14 15 15 17 16 14 17 16 19 18 21 9 23 1 25 5 27
REMARK H PARENT 14 18 16 20 18 22 9 24 1 26 5 28
REMARK Flexibility Score: inf
ROOT
ATOM      1  C   UNL     1      34.028 -13.970   2.579  1.00  0.00     0.402 A 
ATOM      2  O   UNL     1      32.776 -13.878   3.017  1.00  0.00    -0.202 OA
ATOM      3  C   UNL     1      31.718 -14.201   2.279  1.00  0.00     0.368 A 
ATOM      4  C   UNL     1      30.440 -14.068   2.828  1.00  0.00     0.162 A 
ATOM      5  C   UNL     1      29.310 -14.397   2.073  1.00  0.00     0.128 A 
ATOM      6  C   UNL     1      29.460 -14.860   0.764  1.00  0.00     0.093 A 
ATOM      7  C   UNL     1      30.730 -15.003   0.190  1.00  0.00     0.136 A 
ATOM      8  C   UNL     1      31.880 -14.672   0.955  1.00  0.00     0.125 A 
ATOM      9  C   UNL     1      33.192 -14.795   0.467  1.00  0.00     0.078 A 
ATOM     10  C   UNL     1      34.277 -14.454   1.281  1.00  0.00     0.223 A 
ENDROOT
BRANCH   1  11
ATOM     11  C   UNL     1      35.122 -13.571   3.494  1.00  0.00     0.091 A 
ATOM     12  C   UNL     1      35.668 -12.283   3.395  1.00  0.00     0.068 A 
ATOM     13  C   UNL     1      36.717 -11.885   4.236  1.00  0.00     0.162 A 
ATOM     14  C   UNL     1      35.665 -14.474   4.423  1.00  0.00     0.068 A 
ATOM     15  C   UNL     1      37.240 -12.789   5.176  1.00  0.00     0.200 A 
ATOM     16  C   UNL     1      36.715 -14.084   5.265  1.00  0.00     0.162 A 
BRANCH  13  17
ATOM     17  O   UNL     1      37.243 -10.597   4.138  1.00  0.00    -0.504 OA
ATOM     18  H   UNL     1      36.839  -9.819   4.646  1.00  0.00     0.293 HD
ENDBRANCH  13  17
BRANCH  15  19
ATOM     19  O   UNL     1      38.282 -12.416   6.026  1.00  0.00    -0.502 OA
ATOM     20  H   UNL     1      39.253 -12.582   5.793  1.00  0.00     0.293 HD
ENDBRANCH  15  19
BRANCH  16  21
ATOM     21  O   UNL     1      37.245 -14.981   6.190  1.00  0.00    -0.504 OA
ATOM     22  H   UNL     1      36.668 -15.676   6.647  1.00  0.00     0.293 HD
ENDBRANCH  16  21
ENDBRANCH   1  11
BRANCH  10  23
ATOM     23  O   UNL     1      35.580 -14.623   0.815  1.00  0.00    -0.500 OA
ATOM     24  H   UNL     1      36.328 -14.934   1.425  1.00  0.00     0.294 HD
ENDBRANCH  10  23
BRANCH   5  25
ATOM     25  O   UNL     1      28.033 -14.268   2.613  1.00  0.00    -0.507 OA
ATOM     26  H   UNL     1      27.787 -14.693   3.500  1.00  0.00     0.293 HD
ENDBRANCH   5  25
BRANCH   7  27
ATOM     27  O   UNL     1      30.794 -15.468  -1.125  1.00  0.00    -0.507 OA
ATOM     28  H   UNL     1      31.605 -15.387  -1.721  1.00  0.00     0.293 HD
ENDBRANCH   7  27
TORSDOF 7
ENDMDL
MODEL 5
REMARK VINA RESULT:    -7.138      1.074      1.242
REMARK INTER + INTRA:          -9.121
REMARK INTER:                  -8.738
REMARK INTRA:                  -0.383
REMARK UNBOUND:                -0.314
REMARK SMILES Oc1cc(O)c2cc(O)c(-c3cc(O)c(O)c(O)c3)[o+]c2c1
REMARK SMILES IDX 10 1 20 2 21 3 22 4 2 5 3 6 4 7 6 8 7 9 8 10 11 11 12 12
REMARK SMILES IDX 13 13 19 14 15 15 17 16 14 17 16 19 18 21 9 23 1 25 5 27
REMARK H PARENT 14 18 16 20 18 22 9 24 1 26 5 28
REMARK Flexibility Score: inf
ROOT
ATOM      1  C   UNL     1      39.873 -11.846   8.679  1.00  0.00     0.402 A 
ATOM      2  O   UNL     1      40.510 -12.975   8.979  1.00  0.00    -0.202 OA
ATOM      3  C   UNL     1      41.452 -13.056   9.914  1.00  0.00     0.368 A 
ATOM      4  C   UNL     1      42.065 -14.287  10.156  1.00  0.00     0.162 A 
ATOM      5  C   UNL     1      43.061 -14.400  11.131  1.00  0.00     0.128 A 
ATOM      6  C   UNL     1      43.444 -13.276  11.866  1.00  0.00     0.093 A 
ATOM      7  C   UNL     1      42.844 -12.030  11.643  1.00  0.00     0.136 A 
ATOM      8  C   UNL     1      41.831 -11.912  10.655  1.00  0.00     0.125 A 
ATOM      9  C   UNL     1      41.166 -10.707  10.373  1.00  0.00     0.078 A 
ATOM     10  C   UNL     1      40.174 -10.668   9.388  1.00  0.00     0.223 A 
ENDROOT
BRANCH   1  11
ATOM     11  C   UNL     1      38.850 -11.882   7.609  1.00  0.00     0.091 A 
ATOM     12  C   UNL     1      37.546 -12.300   7.916  1.00  0.00     0.068 A 
ATOM     13  C   UNL     1      36.562 -12.362   6.919  1.00  0.00     0.162 A 
ATOM     14  C   UNL     1      39.169 -11.561   6.279  1.00  0.00     0.068 A 
ATOM     15  C   UNL     1      36.886 -12.020   5.596  1.00  0.00     0.200 A 
ATOM     16  C   UNL     1      38.191 -11.623   5.277  1.00  0.00     0.162 A 
BRANCH  13  17
ATOM     17  O   UNL     1      35.266 -12.765   7.239  1.00  0.00    -0.504 OA
ATOM     18  H   UNL     1      34.935 -12.777   8.196  1.00  0.00     0.293 HD
ENDBRANCH  13  17
BRANCH  15  19
ATOM     19  O   UNL     1      35.924 -12.071   4.586  1.00  0.00    -0.502 OA
ATOM     20  H   UNL     1      36.010 -11.532   3.732  1.00  0.00     0.293 HD
ENDBRANCH  15  19
BRANCH  16  21
ATOM     21  O   UNL     1      38.511 -11.297   3.961  1.00  0.00    -0.504 OA
ATOM     22  H   UNL     1      38.517 -11.994   3.226  1.00  0.00     0.293 HD
ENDBRANCH  16  21
ENDBRANCH   1  11
BRANCH  10  23
ATOM     23  O   UNL     1      39.479  -9.485   9.141  1.00  0.00    -0.500 OA
ATOM     24  H   UNL     1      39.942  -8.583   9.151  1.00  0.00     0.294 HD
ENDBRANCH  10  23
BRANCH   5  25
ATOM     25  O   UNL     1      43.677 -15.625  11.378  1.00  0.00    -0.507 OA
ATOM     26  H   UNL     1      44.631 -15.806  11.086  1.00  0.00     0.293 HD
ENDBRANCH   5  25
BRANCH   7  27
ATOM     27  O   UNL     1      43.286 -10.955  12.417  1.00  0.00    -0.507 OA
ATOM     28  H   UNL     1      43.427 -10.990  13.417  1.00  0.00     0.293 HD
ENDBRANCH   7  27
TORSDOF 7
ENDMDL
MODEL 6
REMARK VINA RESULT:    -7.136      1.542      2.609
REMARK INTER + INTRA:          -9.119
REMARK INTER:                  -8.739
REMARK INTRA:                  -0.379
REMARK UNBOUND:                -0.314
REMARK SMILES Oc1cc(O)c2cc(O)c(-c3cc(O)c(O)c(O)c3)[o+]c2c1
REMARK SMILES IDX 10 1 20 2 21 3 22 4 2 5 3 6 4 7 6 8 7 9 8 10 11 11 12 12
REMARK SMILES IDX 13 13 19 14 15 15 17 16 14 17 16 19 18 21 9 23 1 25 5 27
REMARK H PARENT 14 18 16 20 18 22 9 24 1 26 5 28
REMARK Flexibility Score: inf
ROOT
ATOM      1  C   UNL     1      39.419 -12.090   8.227  1.00  0.00     0.402 A 
ATOM      2  O   UNL     1      40.144 -13.150   8.572  1.00  0.00    -0.202 OA
ATOM      3  C   UNL     1      41.095 -13.114   9.501  1.00  0.00     0.368 A 
ATOM      4  C   UNL     1      41.805 -14.282   9.793  1.00  0.00     0.162 A 
ATOM      5  C   UNL     1      42.812 -14.271  10.763  1.00  0.00     0.128 A 
ATOM      6  C   UNL     1      43.110 -13.087  11.442  1.00  0.00     0.093 A 
ATOM      7  C   UNL     1      42.414 -11.903  11.167  1.00  0.00     0.136 A 
ATOM      8  C   UNL     1      41.388 -11.911  10.185  1.00  0.00     0.125 A 
ATOM      9  C   UNL     1      40.629 -10.776   9.854  1.00  0.00     0.078 A 
ATOM     10  C   UNL     1      39.632 -10.861   8.878  1.00  0.00     0.223 A 
ENDROOT
BRANCH   1  11
ATOM     11  C   UNL     1      38.395 -12.256   7.170  1.00  0.00     0.091 A 
ATOM     12  C   UNL     1      38.740 -12.016   5.832  1.00  0.00     0.068 A 
ATOM     13  C   UNL     1      37.785 -12.147   4.814  1.00  0.00     0.162 A 
ATOM     14  C   UNL     1      37.068 -12.594   7.485  1.00  0.00     0.068 A 
ATOM     15  C   UNL     1      36.465 -12.505   5.136  1.00  0.00     0.200 A 
ATOM     16  C   UNL     1      36.108 -12.724   6.471  1.00  0.00     0.162 A 
BRANCH  13  17
ATOM     17  O   UNL     1      38.143 -11.920   3.485  1.00  0.00    -0.504 OA
ATOM     18  H   UNL     1      38.826 -11.216   3.232  1.00  0.00     0.293 HD
ENDBRANCH  13  17
BRANCH  15  19
ATOM     19  O   UNL     1      35.497 -12.644   4.140  1.00  0.00    -0.502 OA
ATOM     20  H   UNL     1      34.527 -12.841   4.355  1.00  0.00     0.293 HD
ENDBRANCH  15  19
BRANCH  16  21
ATOM     21  O   UNL     1      34.794 -13.066   6.788  1.00  0.00    -0.504 OA
ATOM     22  H   UNL     1      34.551 -13.470   7.684  1.00  0.00     0.293 HD
ENDBRANCH  16  21
ENDBRANCH   1  11
BRANCH  10  23
ATOM     23  O   UNL     1      38.845  -9.747   8.584  1.00  0.00    -0.500 OA
ATOM     24  H   UNL     1      39.230  -8.810   8.575  1.00  0.00     0.294 HD
ENDBRANCH  10  23
BRANCH   5  25
ATOM     25  O   UNL     1      43.524 -15.431  11.060  1.00  0.00    -0.507 OA
ATOM     26  H   UNL     1      44.086 -15.901  10.360  1.00  0.00     0.293 HD
ENDBRANCH   5  25
BRANCH   7  27
ATOM     27  O   UNL     1      42.776 -10.762  11.887  1.00  0.00    -0.507 OA
ATOM     28  H   UNL     1      42.831  -9.833  11.494  1.00  0.00     0.293 HD
ENDBRANCH   7  27
TORSDOF 7
ENDMDL
MODEL 7
REMARK VINA RESULT:    -7.079      1.470      7.276
REMARK INTER + INTRA:          -9.047
REMARK INTER:                  -8.751
REMARK INTRA:                  -0.296
REMARK UNBOUND:                -0.314
REMARK SMILES Oc1cc(O)c2cc(O)c(-c3cc(O)c(O)c(O)c3)[o+]c2c1
REMARK SMILES IDX 10 1 20 2 21 3 22 4 2 5 3 6 4 7 6 8 7 9 8 10 11 11 12 12
REMARK SMILES IDX 13 13 19 14 15 15 17 16 14 17 16 19 18 21 9 23 1 25 5 27
REMARK H PARENT 14 18 16 20 18 22 9 24 1 26 5 28
REMARK Flexibility Score: inf
ROOT
ATOM      1  C   UNL     1      41.148 -11.303   9.171  1.00  0.00     0.402 A 
ATOM      2  O   UNL     1      41.690 -10.931   8.015  1.00  0.00    -0.202 OA
ATOM      3  C   UNL     1      40.973 -10.570   6.955  1.00  0.00     0.368 A 
ATOM      4  C   UNL     1      41.635 -10.196   5.782  1.00  0.00     0.162 A 
ATOM      5  C   UNL     1      40.906  -9.815   4.652  1.00  0.00     0.128 A 
ATOM      6  C   UNL     1      39.510  -9.809   4.695  1.00  0.00     0.093 A 
ATOM      7  C   UNL     1      38.823 -10.179   5.858  1.00  0.00     0.136 A 
ATOM      8  C   UNL     1      39.559 -10.564   7.009  1.00  0.00     0.125 A 
ATOM      9  C   UNL     1      38.956 -10.938   8.221  1.00  0.00     0.078 A 
ATOM     10  C   UNL     1      39.748 -11.301   9.315  1.00  0.00     0.223 A 
ENDROOT
BRANCH   1  11
ATOM     11  C   UNL     1      42.053 -11.693  10.276  1.00  0.00     0.091 A 
ATOM     12  C   UNL     1      42.892 -10.728  10.852  1.00  0.00     0.068 A 
ATOM     13  C   UNL     1      43.774 -11.073  11.887  1.00  0.00     0.162 A 
ATOM     14  C   UNL     1      42.132 -13.023  10.723  1.00  0.00     0.068 A 
ATOM     15  C   UNL     1      43.831 -12.401  12.341  1.00  0.00     0.200 A 
ATOM     16  C   UNL     1      43.013 -13.375  11.756  1.00  0.00     0.162 A 
BRANCH  13  17
ATOM     17  O   UNL     1      44.593 -10.102  12.462  1.00  0.00    -0.504 OA
ATOM     18  H   UNL     1      44.257  -9.492  13.197  1.00  0.00     0.293 HD
ENDBRANCH  13  17
BRANCH  15  19
ATOM     19  O   UNL     1      44.697 -12.770  13.372  1.00  0.00    -0.502 OA
ATOM     20  H   UNL     1      45.694 -12.595  13.327  1.00  0.00     0.293 HD
ENDBRANCH  15  19
BRANCH  16  21
ATOM     21  O   UNL     1      43.082 -14.694  12.201  1.00  0.00    -0.504 OA
ATOM     22  H   UNL     1      42.253 -15.268  12.294  1.00  0.00     0.293 HD
ENDBRANCH  16  21
ENDBRANCH   1  11
BRANCH  10  23
ATOM     23  O   UNL     1      39.151 -11.624  10.533  1.00  0.00    -0.500 OA
ATOM     24  H   UNL     1      38.150 -11.552  10.672  1.00  0.00     0.294 HD
ENDBRANCH  10  23
BRANCH   5  25
ATOM     25  O   UNL     1      41.558  -9.441   3.479  1.00  0.00    -0.507 OA
ATOM     26  H   UNL     1      41.294  -9.827   2.580  1.00  0.00     0.293 HD
ENDBRANCH   5  25
BRANCH   7  27
ATOM     27  O   UNL     1      37.427 -10.150   5.817  1.00  0.00    -0.507 OA
ATOM     28  H   UNL     1      36.829 -10.294   6.619  1.00  0.00     0.293 HD
ENDBRANCH   7  27
TORSDOF 7
ENDMDL
MODEL 8
REMARK VINA RESULT:    -6.990      7.303     10.983
REMARK INTER + INTRA:          -8.938
REMARK INTER:                  -8.558
REMARK INTRA:                  -0.380
REMARK UNBOUND:                -0.314
REMARK SMILES Oc1cc(O)c2cc(O)c(-c3cc(O)c(O)c(O)c3)[o+]c2c1
REMARK SMILES IDX 10 1 20 2 21 3 22 4 2 5 3 6 4 7 6 8 7 9 8 10 11 11 12 12
REMARK SMILES IDX 13 13 19 14 15 15 17 16 14 17 16 19 18 21 9 23 1 25 5 27
REMARK H PARENT 14 18 16 20 18 22 9 24 1 26 5 28
REMARK Flexibility Score: inf
ROOT
ATOM      1  C   UNL     1      33.289 -13.482   2.035  1.00  0.00     0.402 A 
ATOM      2  O   UNL     1      34.414 -13.021   1.495  1.00  0.00    -0.202 OA
ATOM      3  C   UNL     1      35.565 -12.950   2.155  1.00  0.00     0.368 A 
ATOM      4  C   UNL     1      36.694 -12.448   1.501  1.00  0.00     0.162 A 
ATOM      5  C   UNL     1      37.917 -12.359   2.172  1.00  0.00     0.128 A 
ATOM      6  C   UNL     1      38.011 -12.773   3.503  1.00  0.00     0.093 A 
ATOM      7  C   UNL     1      36.895 -13.280   4.180  1.00  0.00     0.136 A 
ATOM      8  C   UNL     1      35.652 -13.375   3.501  1.00  0.00     0.125 A 
ATOM      9  C   UNL     1      34.484 -13.882   4.096  1.00  0.00     0.078 A 
ATOM     10  C   UNL     1      33.296 -13.948   3.363  1.00  0.00     0.223 A 
ENDROOT
BRANCH   1  11
ATOM     11  C   UNL     1      32.067 -13.502   1.199  1.00  0.00     0.091 A 
ATOM     12  C   UNL     1      31.194 -12.404   1.227  1.00  0.00     0.068 A 
ATOM     13  C   UNL     1      30.020 -12.405   0.461  1.00  0.00     0.162 A 
ATOM     14  C   UNL     1      31.732 -14.622   0.419  1.00  0.00     0.068 A 
ATOM     15  C   UNL     1      29.704 -13.521  -0.331  1.00  0.00     0.200 A 
ATOM     16  C   UNL     1      30.558 -14.630  -0.348  1.00  0.00     0.162 A 
BRANCH  13  17
ATOM     17  O   UNL     1      29.167 -11.301   0.486  1.00  0.00    -0.504 OA
ATOM     18  H   UNL     1      28.217 -11.357   0.139  1.00  0.00     0.293 HD
ENDBRANCH  13  17
BRANCH  15  19
ATOM     19  O   UNL     1      28.543 -13.544  -1.106  1.00  0.00    -0.502 OA
ATOM     20  H   UNL     1      28.547 -13.310  -2.091  1.00  0.00     0.293 HD
ENDBRANCH  15  19
BRANCH  16  21
ATOM     21  O   UNL     1      30.234 -15.740  -1.125  1.00  0.00    -0.504 OA
ATOM     22  H   UNL     1      29.563 -15.682  -1.881  1.00  0.00     0.293 HD
ENDBRANCH  16  21
ENDBRANCH   1  11
BRANCH  10  23
ATOM     23  O   UNL     1      32.150 -14.497   3.937  1.00  0.00    -0.500 OA
ATOM     24  H   UNL     1      31.222 -14.182   3.679  1.00  0.00     0.294 HD
ENDBRANCH  10  23
BRANCH   5  25
ATOM     25  O   UNL     1      39.046 -11.859   1.527  1.00  0.00    -0.507 OA
ATOM     26  H   UNL     1      39.908 -12.391   1.482  1.00  0.00     0.293 HD
ENDBRANCH   5  25
BRANCH   7  27
ATOM     27  O   UNL     1      37.072 -13.669   5.510  1.00  0.00    -0.507 OA
ATOM     28  H   UNL     1      37.691 -13.210   6.162  1.00  0.00     0.293 HD
ENDBRANCH   7  27
TORSDOF 7
ENDMDL
MODEL 9
REMARK VINA RESULT:    -6.978      7.275     12.899
REMARK INTER + INTRA:          -8.924
REMARK INTER:                  -8.561
REMARK INTRA:                  -0.362
REMARK UNBOUND:                -0.314
REMARK SMILES Oc1cc(O)c2cc(O)c(-c3cc(O)c(O)c(O)c3)[o+]c2c1
REMARK SMILES IDX 10 1 20 2 21 3 22 4 2 5 3 6 4 7 6 8 7 9 8 10 11 11 12 12
REMARK SMILES IDX 13 13 19 14 15 15 17 16 14 17 16 19 18 21 9 23 1 25 5 27
REMARK H PARENT 14 18 16 20 18 22 9 24 1 26 5 28
REMARK Flexibility Score: inf
ROOT
ATOM      1  C   UNL     1      33.456 -14.023   1.964  1.00  0.00     0.402 A 
ATOM      2  O   UNL     1      32.683 -12.962   1.749  1.00  0.00    -0.202 OA
ATOM      3  C   UNL     1      31.593 -12.995   0.988  1.00  0.00     0.368 A 
ATOM      4  C   UNL     1      30.845 -11.827   0.821  1.00  0.00     0.162 A 
ATOM      5  C   UNL     1      29.697 -11.832   0.023  1.00  0.00     0.128 A 
ATOM      6  C   UNL     1      29.296 -13.012  -0.609  1.00  0.00     0.093 A 
ATOM      7  C   UNL     1      30.027 -14.196  -0.456  1.00  0.00     0.136 A 
ATOM      8  C   UNL     1      31.193 -14.195   0.354  1.00  0.00     0.125 A 
ATOM      9  C   UNL     1      31.981 -15.338   0.574  1.00  0.00     0.078 A 
ATOM     10  C   UNL     1      33.113 -15.261   1.390  1.00  0.00     0.223 A 
ENDROOT
BRANCH   1  11
ATOM     11  C   UNL     1      34.650 -13.856   2.824  1.00  0.00     0.091 A 
ATOM     12  C   UNL     1      34.568 -14.174   4.188  1.00  0.00     0.068 A 
ATOM     13  C   UNL     1      35.677 -14.007   5.029  1.00  0.00     0.162 A 
ATOM     14  C   UNL     1      35.851 -13.332   2.315  1.00  0.00     0.068 A 
ATOM     15  C   UNL     1      36.879 -13.501   4.507  1.00  0.00     0.200 A 
ATOM     16  C   UNL     1      36.963 -13.160   3.151  1.00  0.00     0.162 A 
BRANCH  13  17
ATOM     17  O   UNL     1      35.588 -14.341   6.380  1.00  0.00    -0.504 OA
ATOM     18  H   UNL     1      36.411 -14.562   6.928  1.00  0.00     0.293 HD
ENDBRANCH  13  17
BRANCH  15  19
ATOM     19  O   UNL     1      37.999 -13.329   5.323  1.00  0.00    -0.502 OA
ATOM     20  H   UNL     1      38.608 -12.524   5.239  1.00  0.00     0.293 HD
ENDBRANCH  15  19
BRANCH  16  21
ATOM     21  O   UNL     1      38.153 -12.647   2.641  1.00  0.00    -0.504 OA
ATOM     22  H   UNL     1      38.456 -11.702   2.845  1.00  0.00     0.293 HD
ENDBRANCH  16  21
ENDBRANCH   1  11
BRANCH  10  23
ATOM     23  O   UNL     1      33.868 -16.405   1.649  1.00  0.00    -0.500 OA
ATOM     24  H   UNL     1      33.766 -16.926   2.512  1.00  0.00     0.294 HD
ENDBRANCH  10  23
BRANCH   5  25
ATOM     25  O   UNL     1      28.946 -10.672  -0.149  1.00  0.00    -0.507 OA
ATOM     26  H   UNL     1      28.244 -10.598  -0.877  1.00  0.00     0.293 HD
ENDBRANCH   5  25
BRANCH   7  27
ATOM     27  O   UNL     1      29.562 -15.331  -1.125  1.00  0.00    -0.507 OA
ATOM     28  H   UNL     1      29.224 -15.335  -2.077  1.00  0.00     0.293 HD
ENDBRANCH   7  27
TORSDOF 7
ENDMDL
