MODEL 1
REMARK VINA RESULT:    -1.740      0.000      0.000
REMARK INTER + INTRA:          -5.240
REMARK INTER:                  -3.979
REMARK INTRA:                  -1.262
REMARK UNBOUND:                -1.262
REMARK SMILES CCCCCCCCCCCCCCCCCCCCCCCC(=O)[O-]
REMARK SMILES IDX 13 1 14 2 15 3 16 4 17 5 18 6 19 7 20 8 21 9 22 10 23 11
REMARK SMILES IDX 24 12 25 13 26 14 12 15 11 16 10 17 9 18 8 19 7 20 6 21 5 22
REMARK SMILES IDX 4 23 3 24 2 25 1 26
REMARK H PARENT
REMARK Flexibility Score: inf
ROOT
ATOM      1  C   UNL     1      -6.213 -11.551   5.384  1.00  0.00     0.000 C 
ENDROOT
BRANCH   1   2
ATOM      2  C   UNL     1      -5.985 -10.599   4.198  1.00  0.00     0.000 C 
BRANCH   2   3
ATOM      3  C   UNL     1      -5.199 -11.244   3.034  1.00  0.00     0.000 C 
BRANCH   3   4
ATOM      4  C   UNL     1      -6.106 -12.081   2.115  1.00  0.00     0.000 C 
BRANCH   4   5
ATOM      5  C   UNL     1      -7.295 -11.271   1.566  1.00  0.00     0.000 C 
BRANCH   5   6
ATOM      6  C   UNL     1      -8.616 -12.059   1.503  1.00  0.00     0.000 C 
BRANCH   6   7
ATOM      7  C   UNL     1      -9.205 -12.109   0.082  1.00  0.00     0.000 C 
BRANCH   7   8
ATOM      8  C   UNL     1     -10.139 -10.915  -0.206  1.00  0.00     0.000 C 
BRANCH   8   9
ATOM      9  C   UNL     1     -11.043 -11.108  -1.437  1.00  0.00     0.000 C 
BRANCH   9  10
ATOM     10  C   UNL     1     -10.827 -10.062  -2.549  1.00  0.00     0.006 C 
BRANCH  10  11
ATOM     11  C   UNL     1      -9.765 -10.500  -3.569  1.00  0.00     0.053 C 
BRANCH  11  12
ATOM     12  C   UNL     1     -10.292 -10.383  -4.965  1.00  0.00     0.041 C 
ATOM     13  O   UNL     1     -11.264  -9.619  -5.212  1.00  0.00    -0.550 OA
ATOM     14  O   UNL     1      -9.700 -11.095  -6.000  1.00  0.00    -0.550 OA
ENDBRANCH  11  12
ENDBRANCH  10  11
ENDBRANCH   9  10
ENDBRANCH   8   9
ENDBRANCH   7   8
ENDBRANCH   6   7
ENDBRANCH   5   6
ENDBRANCH   4   5
ENDBRANCH   3   4
ENDBRANCH   2   3
ENDBRANCH   1   2
BRANCH   1  15
ATOM     15  C   UNL     1      -7.648 -12.090   5.442  1.00  0.00     0.000 C 
BRANCH  15  16
ATOM     16  C   UNL     1      -8.170 -12.124   6.883  1.00  0.00     0.000 C 
BRANCH  16  17
ATOM     17  C   UNL     1      -9.426 -11.253   7.019  1.00  0.00     0.000 C 
BRANCH  17  18
ATOM     18  C   UNL     1     -10.540 -11.910   7.852  1.00  0.00    -0.000 C 
BRANCH  18  19
ATOM     19  C   UNL     1     -11.572 -10.940   8.468  1.00  0.00    -0.000 C 
BRANCH  19  20
ATOM     20  C   UNL     1     -10.983  -9.732   9.222  1.00  0.00    -0.000 C 
BRANCH  20  21
ATOM     21  C   UNL     1     -11.646  -9.489  10.589  1.00  0.00    -0.000 C 
BRANCH  21  22
ATOM     22  C   UNL     1     -11.730 -10.774  11.440  1.00  0.00    -0.000 C 
BRANCH  22  23
ATOM     23  C   UNL     1     -12.113 -10.529  12.912  1.00  0.00    -0.000 C 
BRANCH  23  24
ATOM     24  C   UNL     1     -10.906 -10.196  13.806  1.00  0.00    -0.000 C 
BRANCH  24  25
ATOM     25  C   UNL     1     -10.663  -8.685  13.930  1.00  0.00    -0.003 C 
ATOM     26  C   UNL     1     -11.963  -7.882  13.948  1.00  0.00     0.004 C 
ENDBRANCH  24  25
ENDBRANCH  23  24
ENDBRANCH  22  23
ENDBRANCH  21  22
ENDBRANCH  20  21
ENDBRANCH  19  20
ENDBRANCH  18  19
ENDBRANCH  17  18
ENDBRANCH  16  17
ENDBRANCH  15  16
ENDBRANCH   1  15
TORSDOF 22
ENDMDL
MODEL 2
REMARK VINA RESULT:    -1.170      2.632      3.890
REMARK INTER + INTRA:          -3.937
REMARK INTER:                  -2.496
REMARK INTRA:                  -1.441
REMARK UNBOUND:                -1.262
REMARK SMILES CCCCCCCCCCCCCCCCCCCCCCCC(=O)[O-]
REMARK SMILES IDX 13 1 14 2 15 3 16 4 17 5 18 6 19 7 20 8 21 9 22 10 23 11
REMARK SMILES IDX 24 12 25 13 26 14 12 15 11 16 10 17 9 18 8 19 7 20 6 21 5 22
REMARK SMILES IDX 4 23 3 24 2 25 1 26
REMARK H PARENT
REMARK Flexibility Score: inf
ROOT
ATOM      1  C   UNL     1     -11.728  -9.936   2.897  1.00  0.00     0.000 C 
ENDROOT
BRANCH   1   2
ATOM      2  C   UNL     1     -11.412  -9.728   1.407  1.00  0.00     0.000 C 
BRANCH   2   3
ATOM      3  C   UNL     1     -11.798 -10.935   0.522  1.00  0.00     0.000 C 
BRANCH   3   4
ATOM      4  C   UNL     1     -10.563 -11.672  -0.023  1.00  0.00     0.000 C 
BRANCH   4   5
ATOM      5  C   UNL     1     -10.082 -11.101  -1.369  1.00  0.00     0.000 C 
BRANCH   5   6
ATOM      6  C   UNL     1     -11.129 -10.240  -2.098  1.00  0.00     0.000 C 
BRANCH   6   7
ATOM      7  C   UNL     1     -11.780 -10.978  -3.281  1.00  0.00     0.000 C 
BRANCH   7   8
ATOM      8  C   UNL     1     -11.649 -10.192  -4.602  1.00  0.00     0.000 C 
BRANCH   8   9
ATOM      9  C   UNL     1     -10.775 -10.887  -5.662  1.00  0.00     0.000 C 
BRANCH   9  10
ATOM     10  C   UNL     1      -9.343 -11.208  -5.188  1.00  0.00     0.006 C 
BRANCH  10  11
ATOM     11  C   UNL     1      -8.623  -9.977  -4.621  1.00  0.00     0.053 C 
BRANCH  11  12
ATOM     12  C   UNL     1      -7.229  -9.884  -5.160  1.00  0.00     0.041 C 
ATOM     13  O   UNL     1      -6.580 -10.934  -5.418  1.00  0.00    -0.550 OA
ATOM     14  O   UNL     1      -6.651  -8.644  -5.400  1.00  0.00    -0.550 OA
ENDBRANCH  11  12
ENDBRANCH  10  11
ENDBRANCH   9  10
ENDBRANCH   8   9
ENDBRANCH   7   8
ENDBRANCH   6   7
ENDBRANCH   5   6
ENDBRANCH   4   5
ENDBRANCH   3   4
ENDBRANCH   2   3
ENDBRANCH   1   2
BRANCH   1  15
ATOM     15  C   UNL     1     -11.083 -11.206   3.466  1.00  0.00     0.000 C 
BRANCH  15  16
ATOM     16  C   UNL     1     -12.107 -12.058   4.226  1.00  0.00     0.000 C 
BRANCH  16  17
ATOM     17  C   UNL     1     -11.748 -12.125   5.716  1.00  0.00     0.000 C 
BRANCH  17  18
ATOM     18  C   UNL     1     -10.289 -11.738   6.012  1.00  0.00    -0.000 C 
BRANCH  18  19
ATOM     19  C   UNL     1      -9.952 -11.498   7.499  1.00  0.00    -0.000 C 
BRANCH  19  20
ATOM     20  C   UNL     1     -10.928 -12.125   8.513  1.00  0.00    -0.000 C 
BRANCH  20  21
ATOM     21  C   UNL     1     -11.621 -11.085   9.411  1.00  0.00    -0.000 C 
BRANCH  21  22
ATOM     22  C   UNL     1     -10.736  -9.848   9.672  1.00  0.00    -0.000 C 
BRANCH  22  23
ATOM     23  C   UNL     1     -10.984  -9.171  11.033  1.00  0.00    -0.000 C 
BRANCH  23  24
ATOM     24  C   UNL     1     -10.941 -10.155  12.216  1.00  0.00    -0.000 C 
BRANCH  24  25
ATOM     25  C   UNL     1     -11.701  -9.634  13.444  1.00  0.00    -0.003 C 
ATOM     26  C   UNL     1     -11.853  -8.113  13.438  1.00  0.00     0.004 C 
ENDBRANCH  24  25
ENDBRANCH  23  24
ENDBRANCH  22  23
ENDBRANCH  21  22
ENDBRANCH  20  21
ENDBRANCH  19  20
ENDBRANCH  18  19
ENDBRANCH  17  18
ENDBRANCH  16  17
ENDBRANCH  15  16
ENDBRANCH   1  15
TORSDOF 22
ENDMDL
MODEL 3
REMARK VINA RESULT:     0.062      5.231     12.255
REMARK INTER + INTRA:          -1.119
REMARK INTER:                  -3.069
REMARK INTRA:                   1.950
REMARK UNBOUND:                -1.262
REMARK SMILES CCCCCCCCCCCCCCCCCCCCCCCC(=O)[O-]
REMARK SMILES IDX 13 1 14 2 15 3 16 4 17 5 18 6 19 7 20 8 21 9 22 10 23 11
REMARK SMILES IDX 24 12 25 13 26 14 12 15 11 16 10 17 9 18 8 19 7 20 6 21 5 22
REMARK SMILES IDX 4 23 3 24 2 25 1 26
REMARK H PARENT
REMARK Flexibility Score: inf
ROOT
ATOM      1  C   UNL     1      -5.979 -10.842   3.235  1.00  0.00     0.000 C 
ENDROOT
BRANCH   1   2
ATOM      2  C   UNL     1      -6.141 -11.941   4.298  1.00  0.00     0.000 C 
BRANCH   2   3
ATOM      3  C   UNL     1      -7.572 -12.029   4.877  1.00  0.00     0.000 C 
BRANCH   3   4
ATOM      4  C   UNL     1      -8.647 -11.759   3.810  1.00  0.00     0.000 C 
BRANCH   4   5
ATOM      5  C   UNL     1     -10.062 -12.122   4.295  1.00  0.00     0.000 C 
BRANCH   5   6
ATOM      6  C   UNL     1     -10.235 -12.070   5.824  1.00  0.00     0.000 C 
BRANCH   6   7
ATOM      7  C   UNL     1     -11.541 -11.373   6.246  1.00  0.00     0.000 C 
BRANCH   7   8
ATOM      8  C   UNL     1     -11.716 -11.341   7.779  1.00  0.00     0.000 C 
BRANCH   8   9
ATOM      9  C   UNL     1     -10.491 -11.851   8.561  1.00  0.00     0.000 C 
BRANCH   9  10
ATOM     10  C   UNL     1     -10.212 -11.082   9.868  1.00  0.00     0.006 C 
BRANCH  10  11
ATOM     11  C   UNL     1     -10.534 -11.913  11.118  1.00  0.00     0.053 C 
BRANCH  11  12
ATOM     12  C   UNL     1     -10.891 -11.023  12.268  1.00  0.00     0.041 C 
ATOM     13  O   UNL     1     -10.550 -11.337  13.440  1.00  0.00    -0.550 OA
ATOM     14  O   UNL     1     -11.577  -9.835  12.048  1.00  0.00    -0.550 OA
ENDBRANCH  11  12
ENDBRANCH  10  11
ENDBRANCH   9  10
ENDBRANCH   8   9
ENDBRANCH   7   8
ENDBRANCH   6   7
ENDBRANCH   5   6
ENDBRANCH   4   5
ENDBRANCH   3   4
ENDBRANCH   2   3
ENDBRANCH   1   2
BRANCH   1  15
ATOM     15  C   UNL     1      -6.386 -11.311   1.832  1.00  0.00     0.000 C 
BRANCH  15  16
ATOM     16  C   UNL     1      -7.815 -11.867   1.825  1.00  0.00     0.000 C 
BRANCH  16  17
ATOM     17  C   UNL     1      -8.283 -12.125   0.387  1.00  0.00     0.000 C 
BRANCH  17  18
ATOM     18  C   UNL     1      -9.476 -11.249  -0.034  1.00  0.00    -0.000 C 
BRANCH  18  19
ATOM     19  C   UNL     1     -10.818 -11.992  -0.207  1.00  0.00    -0.000 C 
BRANCH  19  20
ATOM     20  C   UNL     1     -11.518 -11.796  -1.566  1.00  0.00    -0.000 C 
BRANCH  20  21
ATOM     21  C   UNL     1     -10.534 -11.643  -2.739  1.00  0.00    -0.000 C 
BRANCH  21  22
ATOM     22  C   UNL     1     -11.184 -10.979  -3.971  1.00  0.00    -0.000 C 
BRANCH  22  23
ATOM     23  C   UNL     1     -10.261 -10.896  -5.202  1.00  0.00    -0.000 C 
BRANCH  23  24
ATOM     24  C   UNL     1      -8.925 -10.189  -4.911  1.00  0.00    -0.000 C 
BRANCH  24  25
ATOM     25  C   UNL     1      -7.729 -10.896  -5.565  1.00  0.00    -0.003 C 
ATOM     26  C   UNL     1      -6.593  -9.932  -5.904  1.00  0.00     0.004 C 
ENDBRANCH  24  25
ENDBRANCH  23  24
ENDBRANCH  22  23
ENDBRANCH  21  22
ENDBRANCH  20  21
ENDBRANCH  19  20
ENDBRANCH  18  19
ENDBRANCH  17  18
ENDBRANCH  16  17
ENDBRANCH  15  16
ENDBRANCH   1  15
TORSDOF 22
ENDMDL
